MODEL 1
REMARK VINA RESULT:      -6.8      0.000      0.000
REMARK SMILES C[C@@H](C(=O)OCCOCCOCCOCCOC(=O)c1ccc(-c2c3nc(c(-c4cccc(S(=O)(=O)[O-])c4F)c4ccc([nH]4)c(-c4cccc(S(=O)(=O)[O-])c4F)c4nc(c(-c5cccc(S(=O)(=O)[O-])c5F)c5ccc2[nH]5)C=C4)C=C3)cc1)c1ccc(-c2ccccc2)c(F)c1
REMARK SMILES IDX 12 1 11 2 10 3 9 4 8 5 7 6 6 7 5 8 3 9 4 10 2 11 1 12 83 13
REMARK SMILES IDX 84 14 95 15 85 16 93 17 86 18 94 19 87 20 88 21 92 22 89 23
REMARK SMILES IDX 91 24 90 25 13 26 14 27 15 28 16 29 17 30 18 31 19 32 20 33
REMARK SMILES IDX 21 34 82 35 22 36 81 37 23 38 24 39 25 40 75 41 26 42 80 43
REMARK SMILES IDX 74 44 76 45 27 46 79 47 73 48 72 49 28 51 60 52 40 53 59 54
REMARK SMILES IDX 41 55 44 56 58 57 77 58 42 59 43 60 57 62 78 63 45 64 29 65
REMARK SMILES IDX 30 66 38 67 31 68 33 69 39 70 32 71 34 72 35 73 36 74 37 75
REMARK SMILES IDX 61 76 62 77 70 78 63 79 65 80 71 81 64 82 66 83 67 84 68 85
REMARK SMILES IDX 69 86 46 87 47 88 55 89 48 90 50 91 56 92 49 93 51 94 52 95
REMARK SMILES IDX 53 96 54 97
REMARK H PARENT 76 50 44 61
REMARK Flexibility Score: inf
ROOT
ATOM      1  C   UNL A   1      37.086  34.084  31.194  1.00  0.00     0.188 C 
ENDROOT
BRANCH   1   2
ATOM      2  O   UNL A   1      37.365  33.101  30.206  1.00  0.00    -0.377 OA
BRANCH   2   3
ATOM      3  C   UNL A   1      38.420  33.337  29.294  1.00  0.00     0.188 C 
BRANCH   3   4
ATOM      4  C   UNL A   1      39.233  34.613  29.556  1.00  0.00     0.188 C 
BRANCH   4   5
ATOM      5  O   UNL A   1      40.629  34.574  29.348  1.00  0.00    -0.376 OA
BRANCH   5   6
ATOM      6  C   UNL A   1      41.540  34.643  30.439  1.00  0.00     0.202 C 
BRANCH   6   7
ATOM      7  C   UNL A   1      42.277  33.450  31.087  1.00  0.00     0.261 C 
BRANCH   7   8
ATOM      8  O   UNL A   1      43.612  33.200  30.640  1.00  0.00    -0.463 OA
BRANCH   8   9
ATOM      9  C   UNL A   1      43.802  32.243  29.702  1.00  0.00     0.313 C 
ATOM     10  O   UNL A   1      43.411  32.324  28.542  1.00  0.00    -0.252 OA
BRANCH   9  11
ATOM     11  C   UNL A   1      44.681  31.089  30.210  1.00  0.00     0.126 C 
ATOM     12  C   UNL A   1      45.647  31.531  31.327  1.00  0.00     0.025 C 
BRANCH  11  13
ATOM     13  C   UNL A   1      45.293  30.236  29.085  1.00  0.00    -0.031 A 
ATOM     14  C   UNL A   1      46.681  30.077  28.935  1.00  0.00     0.005 A 
ATOM     15  C   UNL A   1      44.474  29.500  28.208  1.00  0.00     0.044 A 
ATOM     16  C   UNL A   1      47.218  29.208  27.966  1.00  0.00     0.012 A 
ATOM     17  C   UNL A   1      45.014  28.653  27.237  1.00  0.00     0.131 A 
ATOM     18  C   UNL A   1      46.392  28.461  27.113  1.00  0.00     0.017 A 
ATOM     19  F   UNL A   1      44.162  27.983  26.443  1.00  0.00    -0.206 F 
BRANCH  18  20
ATOM     20  C   UNL A   1      46.945  27.450  26.195  1.00  0.00    -0.015 A 
ATOM     21  C   UNL A   1      47.029  26.105  26.598  1.00  0.00     0.009 A 
ATOM     22  C   UNL A   1      47.346  27.769  24.889  1.00  0.00     0.009 A 
ATOM     23  C   UNL A   1      47.490  25.115  25.728  1.00  0.00     0.001 A 
ATOM     24  C   UNL A   1      47.812  26.780  24.017  1.00  0.00     0.001 A 
ATOM     25  C   UNL A   1      47.882  25.453  24.436  1.00  0.00     0.000 A 
ENDBRANCH  18  20
ENDBRANCH  11  13
ENDBRANCH   9  11
ENDBRANCH   8   9
ENDBRANCH   7   8
ENDBRANCH   6   7
ENDBRANCH   5   6
ENDBRANCH   4   5
ENDBRANCH   3   4
ENDBRANCH   2   3
ENDBRANCH   1   2
BRANCH   1  26
ATOM     26  C   UNL A   1      35.755  34.062  31.979  1.00  0.00     0.188 C 
BRANCH  26  27
ATOM     27  O   UNL A   1      34.636  33.562  31.260  1.00  0.00    -0.376 OA
BRANCH  27  28
ATOM     28  C   UNL A   1      34.326  34.139  30.000  1.00  0.00     0.202 C 
BRANCH  28  29
ATOM     29  C   UNL A   1      34.392  33.229  28.763  1.00  0.00     0.261 C 
BRANCH  29  30
ATOM     30  O   UNL A   1      34.210  31.824  28.996  1.00  0.00    -0.460 OA
BRANCH  30  31
ATOM     31  C   UNL A   1      34.561  30.969  28.014  1.00  0.00     0.338 C 
ATOM     32  O   UNL A   1      34.019  30.837  26.927  1.00  0.00    -0.246 OA
BRANCH  31  33
ATOM     33  C   UNL A   1      35.849  30.352  28.389  1.00  0.00     0.060 A 
ATOM     34  C   UNL A   1      35.956  29.709  29.630  1.00  0.00     0.016 A 
ATOM     35  C   UNL A   1      36.942  30.401  27.521  1.00  0.00     0.016 A 
ATOM     36  C   UNL A   1      37.172  29.152  30.025  1.00  0.00     0.010 A 
ATOM     37  C   UNL A   1      38.165  29.862  27.928  1.00  0.00     0.010 A 
ATOM     38  C   UNL A   1      38.295  29.271  29.199  1.00  0.00    -0.014 A 
BRANCH  38  39
ATOM     39  C   UNL A   1      39.640  28.966  29.741  1.00  0.00     0.031 A 
ATOM     40  C   UNL A   1      40.455  27.897  29.063  1.00  0.00     0.074 A 
ATOM     41  C   UNL A   1      40.136  29.619  30.806  1.00  0.00     0.049 A 
ATOM     42  N   UNL A   1      41.631  27.422  29.380  1.00  0.00    -0.248 NA
ATOM     43  C   UNL A   1      39.860  27.280  27.866  1.00  0.00     0.031 C 
ATOM     44  C   UNL A   1      39.453  30.682  31.541  1.00  0.00     0.029 A 
ATOM     45  N   UNL A   1      41.326  29.458  31.472  1.00  0.00    -0.354 N 
ATOM     46  C   UNL A   1      41.902  26.431  28.444  1.00  0.00     0.074 A 
ATOM     47  C   UNL A   1      40.763  26.363  27.556  1.00  0.00     0.031 C 
ATOM     48  C   UNL A   1      40.221  31.055  32.579  1.00  0.00     0.029 A 
ATOM     49  C   UNL A   1      41.434  30.239  32.599  1.00  0.00     0.049 A 
ATOM     50  H   UNL A   1      42.034  28.844  31.171  1.00  0.00     0.167 HD
ATOM     51  C   UNL A   1      43.004  25.655  28.325  1.00  0.00     0.034 A 
ATOM     52  C   UNL A   1      42.387  30.266  33.553  1.00  0.00     0.034 A 
ATOM     53  C   UNL A   1      44.138  25.728  29.206  1.00  0.00     0.049 A 
ATOM     54  C   UNL A   1      43.587  29.363  33.424  1.00  0.00     0.074 A 
ATOM     55  C   UNL A   1      45.318  25.010  29.148  1.00  0.00     0.029 A 
ATOM     56  N   UNL A   1      44.225  26.553  30.316  1.00  0.00    -0.354 N 
ATOM     57  N   UNL A   1      43.878  28.503  32.477  1.00  0.00    -0.248 NA
ATOM     58  C   UNL A   1      44.608  29.457  34.479  1.00  0.00     0.031 C 
ATOM     59  C   UNL A   1      46.103  25.372  30.248  1.00  0.00     0.029 A 
ATOM     60  C   UNL A   1      45.432  26.351  30.962  1.00  0.00     0.049 A 
ATOM     61  H   UNL A   1      43.530  27.188  30.603  1.00  0.00     0.167 HD
ATOM     62  C   UNL A   1      45.128  27.985  32.800  1.00  0.00     0.074 A 
ATOM     63  C   UNL A   1      45.548  28.641  34.022  1.00  0.00     0.031 C 
ATOM     64  C   UNL A   1      45.859  27.045  32.151  1.00  0.00     0.034 A 
BRANCH  51  65
ATOM     65  C   UNL A   1      43.037  24.660  27.194  1.00  0.00     0.023 A 
ATOM     66  C   UNL A   1      43.759  24.954  26.019  1.00  0.00     0.012 A 
ATOM     67  C   UNL A   1      42.387  23.416  27.312  1.00  0.00     0.148 A 
ATOM     68  C   UNL A   1      43.800  24.043  24.964  1.00  0.00     0.002 A 
ATOM     69  C   UNL A   1      42.475  22.493  26.278  1.00  0.00     0.091 A 
ATOM     70  F   UNL A   1      41.688  23.164  28.428  1.00  0.00    -0.205 F 
ATOM     71  C   UNL A   1      43.169  22.810  25.098  1.00  0.00     0.022 A 
BRANCH  69  72
ATOM     72  S   UNL A   1      41.763  20.847  26.385  1.00  0.00     0.127 S 
ATOM     73  O   UNL A   1      40.358  21.114  26.084  1.00  0.00    -0.237 OA
ATOM     74  O   UNL A   1      42.487  20.132  25.332  1.00  0.00    -0.237 OA
ATOM     75  O   UNL A   1      42.033  20.378  27.736  1.00  0.00    -0.744 OA
ENDBRANCH  69  72
ENDBRANCH  51  65
BRANCH  52  76
ATOM     76  C   UNL A   1      42.251  31.188  34.716  1.00  0.00     0.023 A 
ATOM     77  C   UNL A   1      41.419  30.836  35.797  1.00  0.00     0.012 A 
ATOM     78  C   UNL A   1      42.949  32.411  34.758  1.00  0.00     0.148 A 
ATOM     79  C   UNL A   1      41.259  31.699  36.882  1.00  0.00     0.002 A 
ATOM     80  C   UNL A   1      42.832  33.239  35.868  1.00  0.00     0.091 A 
ATOM     81  F   UNL A   1      43.724  32.734  33.713  1.00  0.00    -0.205 F 
ATOM     82  C   UNL A   1      41.972  32.894  36.922  1.00  0.00     0.022 A 
BRANCH  80  83
ATOM     83  S   UNL A   1      43.806  34.734  36.063  1.00  0.00     0.127 S 
ATOM     84  O   UNL A   1      43.555  35.075  37.461  1.00  0.00    -0.237 OA
ATOM     85  O   UNL A   1      45.157  34.248  35.778  1.00  0.00    -0.237 OA
ATOM     86  O   UNL A   1      43.286  35.677  35.082  1.00  0.00    -0.744 OA
ENDBRANCH  80  83
ENDBRANCH  52  76
BRANCH  64  87
ATOM     87  C   UNL A   1      47.217  26.697  32.708  1.00  0.00     0.023 A 
ATOM     88  C   UNL A   1      47.340  25.744  33.738  1.00  0.00     0.012 A 
ATOM     89  C   UNL A   1      48.382  27.267  32.153  1.00  0.00     0.148 A 
ATOM     90  C   UNL A   1      48.595  25.390  34.232  1.00  0.00     0.002 A 
ATOM     91  C   UNL A   1      49.631  26.868  32.611  1.00  0.00     0.091 A 
ATOM     92  F   UNL A   1      48.246  28.184  31.183  1.00  0.00    -0.205 F 
ATOM     93  C   UNL A   1      49.740  25.942  33.661  1.00  0.00     0.022 A 
BRANCH  91  94
ATOM     94  S   UNL A   1      51.162  27.450  31.871  1.00  0.00     0.127 S 
ATOM     95  O   UNL A   1      51.103  28.884  32.151  1.00  0.00    -0.237 OA
ATOM     96  O   UNL A   1      52.172  26.719  32.639  1.00  0.00    -0.237 OA
ATOM     97  O   UNL A   1      51.093  27.086  30.463  1.00  0.00    -0.744 OA
ENDBRANCH  91  94
ENDBRANCH  64  87
ENDBRANCH  38  39
ENDBRANCH  31  33
ENDBRANCH  30  31
ENDBRANCH  29  30
ENDBRANCH  28  29
ENDBRANCH  27  28
ENDBRANCH  26  27
ENDBRANCH   1  26
TORSDOF 25
ENDMDL
MODEL 2
REMARK VINA RESULT:      -6.7      3.550     10.247
REMARK SMILES C[C@@H](C(=O)OCCOCCOCCOCCOC(=O)c1ccc(-c2c3nc(c(-c4cccc(S(=O)(=O)[O-])c4F)c4ccc([nH]4)c(-c4cccc(S(=O)(=O)[O-])c4F)c4nc(c(-c5cccc(S(=O)(=O)[O-])c5F)c5ccc2[nH]5)C=C4)C=C3)cc1)c1ccc(-c2ccccc2)c(F)c1
REMARK SMILES IDX 12 1 11 2 10 3 9 4 8 5 7 6 6 7 5 8 3 9 4 10 2 11 1 12 83 13
REMARK SMILES IDX 84 14 95 15 85 16 93 17 86 18 94 19 87 20 88 21 92 22 89 23
REMARK SMILES IDX 91 24 90 25 13 26 14 27 15 28 16 29 17 30 18 31 19 32 20 33
REMARK SMILES IDX 21 34 82 35 22 36 81 37 23 38 24 39 25 40 75 41 26 42 80 43
REMARK SMILES IDX 74 44 76 45 27 46 79 47 73 48 72 49 28 51 60 52 40 53 59 54
REMARK SMILES IDX 41 55 44 56 58 57 77 58 42 59 43 60 57 62 78 63 45 64 29 65
REMARK SMILES IDX 30 66 38 67 31 68 33 69 39 70 32 71 34 72 35 73 36 74 37 75
REMARK SMILES IDX 61 76 62 77 70 78 63 79 65 80 71 81 64 82 66 83 67 84 68 85
REMARK SMILES IDX 69 86 46 87 47 88 55 89 48 90 50 91 56 92 49 93 51 94 52 95
REMARK SMILES IDX 53 96 54 97
REMARK H PARENT 76 50 44 61
REMARK Flexibility Score: inf
ROOT
ATOM      1  C   UNL A   1      44.254  23.431  24.554  1.00  0.00     0.188 C 
ENDROOT
BRANCH   1   2
ATOM      2  O   UNL A   1      42.978  22.803  24.585  1.00  0.00    -0.377 OA
BRANCH   2   3
ATOM      3  C   UNL A   1      42.507  22.287  25.814  1.00  0.00     0.188 C 
BRANCH   3   4
ATOM      4  C   UNL A   1      41.812  23.308  26.725  1.00  0.00     0.188 C 
BRANCH   4   5
ATOM      5  O   UNL A   1      41.173  24.417  26.127  1.00  0.00    -0.376 OA
BRANCH   5   6
ATOM      6  C   UNL A   1      41.157  25.690  26.761  1.00  0.00     0.202 C 
BRANCH   6   7
ATOM      7  C   UNL A   1      40.496  26.022  28.118  1.00  0.00     0.261 C 
BRANCH   7   8
ATOM      8  O   UNL A   1      39.283  26.776  28.075  1.00  0.00    -0.463 OA
BRANCH   8   9
ATOM      9  C   UNL A   1      39.124  27.781  28.968  1.00  0.00     0.313 C 
ATOM     10  O   UNL A   1      38.755  27.623  30.128  1.00  0.00    -0.252 OA
BRANCH   9  11
ATOM     11  C   UNL A   1      39.581  29.138  28.413  1.00  0.00     0.126 C 
ATOM     12  C   UNL A   1      40.989  29.532  28.901  1.00  0.00     0.025 C 
BRANCH  11  13
ATOM     13  C   UNL A   1      38.506  30.236  28.496  1.00  0.00    -0.031 A 
ATOM     14  C   UNL A   1      37.261  30.117  27.854  1.00  0.00     0.005 A 
ATOM     15  C   UNL A   1      38.695  31.374  29.302  1.00  0.00     0.044 A 
ATOM     16  C   UNL A   1      36.253  31.083  28.030  1.00  0.00     0.012 A 
ATOM     17  C   UNL A   1      37.696  32.338  29.457  1.00  0.00     0.131 A 
ATOM     18  C   UNL A   1      36.443  32.202  28.855  1.00  0.00     0.017 A 
ATOM     19  F   UNL A   1      37.956  33.392  30.248  1.00  0.00    -0.206 F 
BRANCH  18  20
ATOM     20  C   UNL A   1      35.345  33.139  29.149  1.00  0.00    -0.015 A 
ATOM     21  C   UNL A   1      35.130  33.577  30.468  1.00  0.00     0.009 A 
ATOM     22  C   UNL A   1      34.526  33.667  28.140  1.00  0.00     0.009 A 
ATOM     23  C   UNL A   1      34.137  34.512  30.768  1.00  0.00     0.001 A 
ATOM     24  C   UNL A   1      33.528  34.601  28.439  1.00  0.00     0.001 A 
ATOM     25  C   UNL A   1      33.335  35.025  29.752  1.00  0.00     0.000 A 
ENDBRANCH  18  20
ENDBRANCH  11  13
ENDBRANCH   9  11
ENDBRANCH   8   9
ENDBRANCH   7   8
ENDBRANCH   6   7
ENDBRANCH   5   6
ENDBRANCH   4   5
ENDBRANCH   3   4
ENDBRANCH   2   3
ENDBRANCH   1   2
BRANCH   1  26
ATOM     26  C   UNL A   1      45.549  22.592  24.487  1.00  0.00     0.188 C 
BRANCH  26  27
ATOM     27  O   UNL A   1      46.443  22.772  25.577  1.00  0.00    -0.376 OA
BRANCH  27  28
ATOM     28  C   UNL A   1      46.977  24.067  25.810  1.00  0.00     0.202 C 
BRANCH  28  29
ATOM     29  C   UNL A   1      47.530  24.840  24.602  1.00  0.00     0.261 C 
BRANCH  29  30
ATOM     30  O   UNL A   1      46.755  25.963  24.157  1.00  0.00    -0.460 OA
BRANCH  30  31
ATOM     31  C   UNL A   1      47.191  27.199  24.475  1.00  0.00     0.338 C 
ATOM     32  O   UNL A   1      47.781  27.981  23.744  1.00  0.00    -0.246 OA
BRANCH  31  33
ATOM     33  C   UNL A   1      46.651  27.540  25.807  1.00  0.00     0.060 A 
ATOM     34  C   UNL A   1      45.277  27.393  26.039  1.00  0.00     0.016 A 
ATOM     35  C   UNL A   1      47.496  27.995  26.822  1.00  0.00     0.016 A 
ATOM     36  C   UNL A   1      44.736  27.744  27.275  1.00  0.00     0.010 A 
ATOM     37  C   UNL A   1      46.949  28.367  28.052  1.00  0.00     0.010 A 
ATOM     38  C   UNL A   1      45.562  28.282  28.270  1.00  0.00    -0.014 A 
BRANCH  38  39
ATOM     39  C   UNL A   1      44.954  28.939  29.451  1.00  0.00     0.031 A 
ATOM     40  C   UNL A   1      44.762  28.123  30.701  1.00  0.00     0.074 A 
ATOM     41  C   UNL A   1      44.582  30.231  29.425  1.00  0.00     0.049 A 
ATOM     42  N   UNL A   1      44.212  28.460  31.838  1.00  0.00    -0.248 NA
ATOM     43  C   UNL A   1      45.258  26.736  30.660  1.00  0.00     0.031 C 
ATOM     44  C   UNL A   1      44.727  31.131  28.282  1.00  0.00     0.029 A 
ATOM     45  N   UNL A   1      43.976  31.001  30.387  1.00  0.00    -0.354 N 
ATOM     46  C   UNL A   1      44.266  27.323  32.635  1.00  0.00     0.074 A 
ATOM     47  C   UNL A   1      44.889  26.281  31.847  1.00  0.00     0.031 C 
ATOM     48  C   UNL A   1      44.191  32.323  28.598  1.00  0.00     0.029 A 
ATOM     49  C   UNL A   1      43.641  32.261  29.951  1.00  0.00     0.049 A 
ATOM     50  H   UNL A   1      43.799  30.681  31.301  1.00  0.00     0.167 HD
ATOM     51  C   UNL A   1      43.846  27.160  33.911  1.00  0.00     0.034 A 
ATOM     52  C   UNL A   1      42.941  33.238  30.563  1.00  0.00     0.034 A 
ATOM     53  C   UNL A   1      43.231  28.197  34.694  1.00  0.00     0.049 A 
ATOM     54  C   UNL A   1      42.445  33.021  31.970  1.00  0.00     0.074 A 
ATOM     55  C   UNL A   1      42.804  28.143  36.008  1.00  0.00     0.029 A 
ATOM     56  N   UNL A   1      42.938  29.470  34.229  1.00  0.00    -0.354 N 
ATOM     57  N   UNL A   1      42.593  31.976  32.748  1.00  0.00    -0.248 NA
ATOM     58  C   UNL A   1      41.713  34.133  32.597  1.00  0.00     0.031 C 
ATOM     59  C   UNL A   1      42.215  29.371  36.325  1.00  0.00     0.029 A 
ATOM     60  C   UNL A   1      42.321  30.206  35.225  1.00  0.00     0.049 A 
ATOM     61  H   UNL A   1      43.139  29.800  33.324  1.00  0.00     0.167 HD
ATOM     62  C   UNL A   1      42.010  32.316  33.964  1.00  0.00     0.074 A 
ATOM     63  C   UNL A   1      41.522  33.673  33.826  1.00  0.00     0.031 C 
ATOM     64  C   UNL A   1      41.882  31.572  35.091  1.00  0.00     0.034 A 
BRANCH  51  65
ATOM     65  C   UNL A   1      44.044  25.806  34.542  1.00  0.00     0.023 A 
ATOM     66  C   UNL A   1      42.999  24.860  34.519  1.00  0.00     0.012 A 
ATOM     67  C   UNL A   1      45.279  25.457  35.122  1.00  0.00     0.148 A 
ATOM     68  C   UNL A   1      43.167  23.602  35.098  1.00  0.00     0.002 A 
ATOM     69  C   UNL A   1      45.456  24.185  35.651  1.00  0.00     0.091 A 
ATOM     70  F   UNL A   1      46.253  26.378  35.154  1.00  0.00    -0.205 F 
ATOM     71  C   UNL A   1      44.397  23.261  35.653  1.00  0.00     0.022 A 
BRANCH  69  72
ATOM     72  S   UNL A   1      47.026  23.622  36.317  1.00  0.00     0.127 S 
ATOM     73  O   UNL A   1      47.889  23.698  35.140  1.00  0.00    -0.237 OA
ATOM     74  O   UNL A   1      47.303  24.630  37.342  1.00  0.00    -0.237 OA
ATOM     75  O   UNL A   1      46.789  22.280  36.831  1.00  0.00    -0.744 OA
ENDBRANCH  69  72
ENDBRANCH  51  65
BRANCH  52  76
ATOM     76  C   UNL A   1      42.671  34.519  29.851  1.00  0.00     0.023 A 
ATOM     77  C   UNL A   1      41.553  34.628  29.002  1.00  0.00     0.012 A 
ATOM     78  C   UNL A   1      43.516  35.634  30.018  1.00  0.00     0.148 A 
ATOM     79  C   UNL A   1      41.300  35.812  28.306  1.00  0.00     0.002 A 
ATOM     80  C   UNL A   1      43.226  36.828  29.369  1.00  0.00     0.091 A 
ATOM     81  F   UNL A   1      44.583  35.505  30.819  1.00  0.00    -0.205 F 
ATOM     82  C   UNL A   1      42.129  36.913  28.497  1.00  0.00     0.022 A 
BRANCH  80  83
ATOM     83  S   UNL A   1      44.163  38.333  29.652  1.00  0.00     0.127 S 
ATOM     84  O   UNL A   1      44.025  38.505  31.096  1.00  0.00    -0.237 OA
ATOM     85  O   UNL A   1      45.499  37.940  29.202  1.00  0.00    -0.237 OA
ATOM     86  O   UNL A   1      43.528  39.356  28.832  1.00  0.00    -0.744 OA
ENDBRANCH  80  83
ENDBRANCH  52  76
BRANCH  64  87
ATOM     87  C   UNL A   1      41.235  32.215  36.292  1.00  0.00     0.023 A 
ATOM     88  C   UNL A   1      41.964  33.113  37.097  1.00  0.00     0.012 A 
ATOM     89  C   UNL A   1      39.873  31.984  36.577  1.00  0.00     0.148 A 
ATOM     90  C   UNL A   1      41.360  33.741  38.186  1.00  0.00     0.002 A 
ATOM     91  C   UNL A   1      39.264  32.655  37.629  1.00  0.00     0.091 A 
ATOM     92  F   UNL A   1      39.198  31.115  35.809  1.00  0.00    -0.205 F 
ATOM     93  C   UNL A   1      40.009  33.522  38.445  1.00  0.00     0.022 A 
BRANCH  91  94
ATOM     94  S   UNL A   1      37.507  32.513  37.978  1.00  0.00     0.127 S 
ATOM     95  O   UNL A   1      37.416  33.119  39.305  1.00  0.00    -0.237 OA
ATOM     96  O   UNL A   1      36.914  33.308  36.902  1.00  0.00    -0.237 OA
ATOM     97  O   UNL A   1      37.198  31.090  37.919  1.00  0.00    -0.744 OA
ENDBRANCH  91  94
ENDBRANCH  64  87
ENDBRANCH  38  39
ENDBRANCH  31  33
ENDBRANCH  30  31
ENDBRANCH  29  30
ENDBRANCH  28  29
ENDBRANCH  27  28
ENDBRANCH  26  27
ENDBRANCH   1  26
TORSDOF 25
ENDMDL
MODEL 3
REMARK VINA RESULT:      -6.6      3.468      6.856
REMARK SMILES C[C@@H](C(=O)OCCOCCOCCOCCOC(=O)c1ccc(-c2c3nc(c(-c4cccc(S(=O)(=O)[O-])c4F)c4ccc([nH]4)c(-c4cccc(S(=O)(=O)[O-])c4F)c4nc(c(-c5cccc(S(=O)(=O)[O-])c5F)c5ccc2[nH]5)C=C4)C=C3)cc1)c1ccc(-c2ccccc2)c(F)c1
REMARK SMILES IDX 12 1 11 2 10 3 9 4 8 5 7 6 6 7 5 8 3 9 4 10 2 11 1 12 83 13
REMARK SMILES IDX 84 14 95 15 85 16 93 17 86 18 94 19 87 20 88 21 92 22 89 23
REMARK SMILES IDX 91 24 90 25 13 26 14 27 15 28 16 29 17 30 18 31 19 32 20 33
REMARK SMILES IDX 21 34 82 35 22 36 81 37 23 38 24 39 25 40 75 41 26 42 80 43
REMARK SMILES IDX 74 44 76 45 27 46 79 47 73 48 72 49 28 51 60 52 40 53 59 54
REMARK SMILES IDX 41 55 44 56 58 57 77 58 42 59 43 60 57 62 78 63 45 64 29 65
REMARK SMILES IDX 30 66 38 67 31 68 33 69 39 70 32 71 34 72 35 73 36 74 37 75
REMARK SMILES IDX 61 76 62 77 70 78 63 79 65 80 71 81 64 82 66 83 67 84 68 85
REMARK SMILES IDX 69 86 46 87 47 88 55 89 48 90 50 91 56 92 49 93 51 94 52 95
REMARK SMILES IDX 53 96 54 97
REMARK H PARENT 76 50 44 61
REMARK Flexibility Score: inf
ROOT
ATOM      1  C   UNL A   1      37.998  32.968  32.278  1.00  0.00     0.188 C 
ENDROOT
BRANCH   1   2
ATOM      2  O   UNL A   1      37.068  32.856  31.208  1.00  0.00    -0.377 OA
BRANCH   2   3
ATOM      3  C   UNL A   1      37.301  31.885  30.208  1.00  0.00     0.188 C 
BRANCH   3   4
ATOM      4  C   UNL A   1      36.341  30.687  30.228  1.00  0.00     0.188 C 
BRANCH   4   5
ATOM      5  O   UNL A   1      36.887  29.391  30.370  1.00  0.00    -0.376 OA
BRANCH   5   6
ATOM      6  C   UNL A   1      37.882  29.113  31.347  1.00  0.00     0.202 C 
BRANCH   6   7
ATOM      7  C   UNL A   1      39.346  28.705  31.065  1.00  0.00     0.261 C 
BRANCH   7   8
ATOM      8  O   UNL A   1      39.545  27.566  30.224  1.00  0.00    -0.463 OA
BRANCH   8   9
ATOM      9  C   UNL A   1      40.237  27.736  29.074  1.00  0.00     0.313 C 
ATOM     10  O   UNL A   1      39.812  28.338  28.093  1.00  0.00    -0.252 OA
BRANCH   9  11
ATOM     11  C   UNL A   1      41.676  27.204  29.170  1.00  0.00     0.126 C 
ATOM     12  C   UNL A   1      42.713  28.203  28.620  1.00  0.00     0.025 C 
BRANCH  11  13
ATOM     13  C   UNL A   1      41.829  25.745  28.704  1.00  0.00    -0.031 A 
ATOM     14  C   UNL A   1      40.830  25.084  27.970  1.00  0.00     0.005 A 
ATOM     15  C   UNL A   1      43.027  25.040  28.919  1.00  0.00     0.044 A 
ATOM     16  C   UNL A   1      41.033  23.787  27.462  1.00  0.00     0.012 A 
ATOM     17  C   UNL A   1      43.215  23.745  28.427  1.00  0.00     0.131 A 
ATOM     18  C   UNL A   1      42.240  23.101  27.662  1.00  0.00     0.017 A 
ATOM     19  F   UNL A   1      44.391  23.144  28.673  1.00  0.00    -0.206 F 
BRANCH  18  20
ATOM     20  C   UNL A   1      42.507  21.804  27.016  1.00  0.00    -0.015 A 
ATOM     21  C   UNL A   1      43.527  21.694  26.054  1.00  0.00     0.009 A 
ATOM     22  C   UNL A   1      41.809  20.639  27.370  1.00  0.00     0.009 A 
ATOM     23  C   UNL A   1      43.843  20.465  25.470  1.00  0.00     0.001 A 
ATOM     24  C   UNL A   1      42.122  19.407  26.784  1.00  0.00     0.001 A 
ATOM     25  C   UNL A   1      43.140  19.321  25.836  1.00  0.00     0.000 A 
ENDBRANCH  18  20
ENDBRANCH  11  13
ENDBRANCH   9  11
ENDBRANCH   8   9
ENDBRANCH   7   8
ENDBRANCH   6   7
ENDBRANCH   5   6
ENDBRANCH   4   5
ENDBRANCH   3   4
ENDBRANCH   2   3
ENDBRANCH   1   2
BRANCH   1  26
ATOM     26  C   UNL A   1      38.260  34.329  32.961  1.00  0.00     0.188 C 
BRANCH  26  27
ATOM     27  O   UNL A   1      37.198  34.814  33.771  1.00  0.00    -0.376 OA
BRANCH  27  28
ATOM     28  C   UNL A   1      36.480  33.890  34.576  1.00  0.00     0.202 C 
BRANCH  28  29
ATOM     29  C   UNL A   1      36.868  33.783  36.059  1.00  0.00     0.261 C 
BRANCH  29  30
ATOM     30  O   UNL A   1      37.010  32.455  36.585  1.00  0.00    -0.460 OA
BRANCH  30  31
ATOM     31  C   UNL A   1      38.129  32.167  37.283  1.00  0.00     0.338 C 
ATOM     32  O   UNL A   1      38.268  32.205  38.496  1.00  0.00    -0.246 OA
BRANCH  31  33
ATOM     33  C   UNL A   1      39.112  31.593  36.342  1.00  0.00     0.060 A 
ATOM     34  C   UNL A   1      40.476  31.832  36.560  1.00  0.00     0.016 A 
ATOM     35  C   UNL A   1      38.693  30.818  35.259  1.00  0.00     0.016 A 
ATOM     36  C   UNL A   1      41.423  31.334  35.665  1.00  0.00     0.010 A 
ATOM     37  C   UNL A   1      39.642  30.339  34.352  1.00  0.00     0.010 A 
ATOM     38  C   UNL A   1      41.007  30.629  34.530  1.00  0.00    -0.014 A 
BRANCH  38  39
ATOM     39  C   UNL A   1      41.969  30.375  33.431  1.00  0.00     0.031 A 
ATOM     40  C   UNL A   1      42.630  29.024  33.362  1.00  0.00     0.074 A 
ATOM     41  C   UNL A   1      42.251  31.313  32.510  1.00  0.00     0.049 A 
ATOM     42  N   UNL A   1      43.536  28.584  32.529  1.00  0.00    -0.248 NA
ATOM     43  C   UNL A   1      42.212  28.038  34.373  1.00  0.00     0.031 C 
ATOM     44  C   UNL A   1      41.668  32.652  32.460  1.00  0.00     0.029 A 
ATOM     45  N   UNL A   1      43.128  31.285  31.454  1.00  0.00    -0.354 N 
ATOM     46  C   UNL A   1      43.820  27.285  32.932  1.00  0.00     0.074 A 
ATOM     47  C   UNL A   1      43.001  27.012  34.093  1.00  0.00     0.031 C 
ATOM     48  C   UNL A   1      42.230  33.332  31.445  1.00  0.00     0.029 A 
ATOM     49  C   UNL A   1      43.231  32.487  30.795  1.00  0.00     0.049 A 
ATOM     50  H   UNL A   1      43.634  30.482  31.194  1.00  0.00     0.167 HD
ATOM     51  C   UNL A   1      44.675  26.392  32.381  1.00  0.00     0.034 A 
ATOM     52  C   UNL A   1      44.061  32.870  29.803  1.00  0.00     0.034 A 
ATOM     53  C   UNL A   1      45.484  26.664  31.225  1.00  0.00     0.049 A 
ATOM     54  C   UNL A   1      45.036  31.872  29.231  1.00  0.00     0.074 A 
ATOM     55  C   UNL A   1      46.356  25.814  30.568  1.00  0.00     0.029 A 
ATOM     56  N   UNL A   1      45.537  27.881  30.564  1.00  0.00    -0.354 N 
ATOM     57  N   UNL A   1      45.222  30.616  29.556  1.00  0.00    -0.248 NA
ATOM     58  C   UNL A   1      45.897  32.338  28.131  1.00  0.00     0.031 C 
ATOM     59  C   UNL A   1      46.967  26.531  29.534  1.00  0.00     0.029 A 
ATOM     60  C   UNL A   1      46.438  27.812  29.516  1.00  0.00     0.049 A 
ATOM     61  H   UNL A   1      45.012  28.678  30.805  1.00  0.00     0.167 HD
ATOM     62  C   UNL A   1      46.187  30.130  28.678  1.00  0.00     0.074 A 
ATOM     63  C   UNL A   1      46.535  31.225  27.796  1.00  0.00     0.031 C 
ATOM     64  C   UNL A   1      46.742  28.894  28.614  1.00  0.00     0.034 A 
BRANCH  51  65
ATOM     65  C   UNL A   1      44.775  25.034  33.024  1.00  0.00     0.023 A 
ATOM     66  C   UNL A   1      43.939  23.986  32.587  1.00  0.00     0.012 A 
ATOM     67  C   UNL A   1      45.725  24.784  34.033  1.00  0.00     0.148 A 
ATOM     68  C   UNL A   1      44.020  22.722  33.172  1.00  0.00     0.002 A 
ATOM     69  C   UNL A   1      45.835  23.510  34.575  1.00  0.00     0.091 A 
ATOM     70  F   UNL A   1      46.496  25.799  34.450  1.00  0.00    -0.205 F 
ATOM     71  C   UNL A   1      44.975  22.481  34.155  1.00  0.00     0.022 A 
BRANCH  69  72
ATOM     72  S   UNL A   1      47.085  23.078  35.790  1.00  0.00     0.127 S 
ATOM     73  O   UNL A   1      46.709  23.932  36.915  1.00  0.00    -0.237 OA
ATOM     74  O   UNL A   1      46.831  21.651  35.997  1.00  0.00    -0.237 OA
ATOM     75  O   UNL A   1      48.369  23.385  35.176  1.00  0.00    -0.744 OA
ENDBRANCH  69  72
ENDBRANCH  51  65
BRANCH  52  76
ATOM     76  C   UNL A   1      44.003  34.263  29.278  1.00  0.00     0.023 A 
ATOM     77  C   UNL A   1      43.179  34.565  28.177  1.00  0.00     0.012 A 
ATOM     78  C   UNL A   1      44.760  35.293  29.871  1.00  0.00     0.148 A 
ATOM     79  C   UNL A   1      43.133  35.859  27.655  1.00  0.00     0.002 A 
ATOM     80  C   UNL A   1      44.665  36.591  29.384  1.00  0.00     0.091 A 
ATOM     81  F   UNL A   1      45.550  34.983  30.908  1.00  0.00    -0.205 F 
ATOM     82  C   UNL A   1      43.867  36.873  28.264  1.00  0.00     0.022 A 
BRANCH  80  83
ATOM     83  S   UNL A   1      45.475  37.982  30.181  1.00  0.00     0.127 S 
ATOM     84  O   UNL A   1      44.974  37.877  31.549  1.00  0.00    -0.237 OA
ATOM     85  O   UNL A   1      46.887  37.641  30.011  1.00  0.00    -0.237 OA
ATOM     86  O   UNL A   1      45.048  39.164  29.443  1.00  0.00    -0.744 OA
ENDBRANCH  80  83
ENDBRANCH  52  76
BRANCH  64  87
ATOM     87  C   UNL A   1      47.748  28.628  27.522  1.00  0.00     0.023 A 
ATOM     88  C   UNL A   1      49.123  28.815  27.763  1.00  0.00     0.012 A 
ATOM     89  C   UNL A   1      47.328  28.118  26.276  1.00  0.00     0.148 A 
ATOM     90  C   UNL A   1      50.062  28.534  26.770  1.00  0.00     0.002 A 
ATOM     91  C   UNL A   1      48.273  27.789  25.312  1.00  0.00     0.091 A 
ATOM     92  F   UNL A   1      46.014  27.961  26.060  1.00  0.00    -0.205 F 
ATOM     93  C   UNL A   1      49.638  28.010  25.551  1.00  0.00     0.022 A 
BRANCH  91  94
ATOM     94  S   UNL A   1      47.830  27.017  23.751  1.00  0.00     0.127 S 
ATOM     95  O   UNL A   1      47.049  28.072  23.107  1.00  0.00    -0.237 OA
ATOM     96  O   UNL A   1      49.140  26.772  23.146  1.00  0.00    -0.237 OA
ATOM     97  O   UNL A   1      47.086  25.812  24.093  1.00  0.00    -0.744 OA
ENDBRANCH  91  94
ENDBRANCH  64  87
ENDBRANCH  38  39
ENDBRANCH  31  33
ENDBRANCH  30  31
ENDBRANCH  29  30
ENDBRANCH  28  29
ENDBRANCH  27  28
ENDBRANCH  26  27
ENDBRANCH   1  26
TORSDOF 25
ENDMDL
