MODEL 1
REMARK VINA RESULT:      -8.5      0.000      0.000
REMARK SMILES CC(=O)NS(=O)(=O)c1ccc(-c2ccn(C(F)F)c(=O)c2)cc1C(=O)OCCOCCOCCOCCOC(=O)c1ccc(-c2c3nc(c(-c4cccc(S(=O)(=O)[O-])c4F)c4ccc([nH]4)c(-c4cccc(S(=O)(=O)[O-])c4F)c4nc(c(-c5cccc(S(=O)(=O)[O-])c5F)c5ccc2[nH]5)C=C4)C=C3)cc1
REMARK SMILES IDX 33 1 32 2 31 3 30 4 29 5 28 6 27 7 26 8 24 9 25 10 23 11
REMARK SMILES IDX 8 12 9 13 10 14 22 15 11 16 5 17 6 18 7 19 4 20 1 21 2 22
REMARK SMILES IDX 3 23 12 25 13 26 21 27 14 28 19 29 15 30 20 31 16 32 17 33
REMARK SMILES IDX 18 34 34 35 35 36 36 37 37 38 38 39 39 40 40 41 41 42 42 43
REMARK SMILES IDX 103 44 43 45 102 46 44 47 45 48 46 49 96 50 47 51 101 52
REMARK SMILES IDX 95 53 97 54 48 55 100 56 94 57 93 58 49 60 81 61 61 62 80 63
REMARK SMILES IDX 62 64 65 65 79 66 98 67 63 68 64 69 78 71 99 72 66 73 50 74
REMARK SMILES IDX 51 75 59 76 52 77 54 78 60 79 53 80 55 81 56 82 57 83 58 84
REMARK SMILES IDX 82 85 83 86 91 87 84 88 86 89 92 90 85 91 87 92 88 93 89 94
REMARK SMILES IDX 90 95 67 96 68 97 76 98 69 99 71 100 77 101 70 102 72 103
REMARK SMILES IDX 73 104 74 105 75 106
REMARK H PARENT 4 24 97 59 65 70
REMARK Flexibility Score: inf
ROOT
ATOM      1  C   UNL A   1      37.928  33.485  29.378  1.00  0.00     0.188 C 
ENDROOT
BRANCH   1   2
ATOM      2  O   UNL A   1      37.921  32.216  28.736  1.00  0.00    -0.377 OA
BRANCH   2   3
ATOM      3  C   UNL A   1      36.674  31.806  28.203  1.00  0.00     0.188 C 
BRANCH   3   4
ATOM      4  C   UNL A   1      36.596  30.387  27.630  1.00  0.00     0.188 C 
BRANCH   4   5
ATOM      5  O   UNL A   1      35.820  29.510  28.438  1.00  0.00    -0.376 OA
BRANCH   5   6
ATOM      6  C   UNL A   1      34.480  29.256  28.043  1.00  0.00     0.202 C 
BRANCH   6   7
ATOM      7  C   UNL A   1      34.254  29.167  26.526  1.00  0.00     0.261 C 
BRANCH   7   8
ATOM      8  O   UNL A   1      33.390  28.098  26.102  1.00  0.00    -0.460 OA
BRANCH   8   9
ATOM      9  C   UNL A   1      33.702  27.470  24.964  1.00  0.00     0.339 C 
ATOM     10  O   UNL A   1      34.181  28.000  23.972  1.00  0.00    -0.246 OA
BRANCH   9  11
ATOM     11  C   UNL A   1      33.580  25.988  25.078  1.00  0.00     0.081 A 
ATOM     12  C   UNL A   1      32.417  25.216  24.944  1.00  0.00     0.102 A 
ATOM     13  C   UNL A   1      32.531  23.833  24.736  1.00  0.00     0.024 A 
ATOM     14  C   UNL A   1      33.759  23.191  24.885  1.00  0.00     0.010 A 
ATOM     15  C   UNL A   1      34.814  25.322  25.245  1.00  0.00     0.025 A 
ATOM     16  C   UNL A   1      34.901  23.927  25.197  1.00  0.00    -0.017 A 
BRANCH  12  17
ATOM     17  S   UNL A   1      30.788  25.885  25.208  1.00  0.00     0.264 S 
ATOM     18  O   UNL A   1      30.655  26.069  26.620  1.00  0.00    -0.201 OA
ATOM     19  O   UNL A   1      29.848  25.124  24.403  1.00  0.00    -0.201 OA
BRANCH  17  20
ATOM     20  N   UNL A   1      30.818  27.415  24.501  1.00  0.00    -0.249 N 
ATOM     21  C   UNL A   1      31.210  27.010  22.063  1.00  0.00     0.115 C 
ATOM     22  C   UNL A   1      30.414  27.660  23.166  1.00  0.00     0.230 C 
ATOM     23  O   UNL A   1      29.602  28.542  22.926  1.00  0.00    -0.274 OA
ATOM     24  H   UNL A   1      31.131  28.175  25.042  1.00  0.00     0.183 HD
ENDBRANCH  17  20
ENDBRANCH  12  17
BRANCH  16  25
ATOM     25  C   UNL A   1      36.184  23.250  25.439  1.00  0.00    -0.011 A 
ATOM     26  C   UNL A   1      36.444  21.874  25.056  1.00  0.00     0.027 A 
ATOM     27  C   UNL A   1      37.152  23.957  26.044  1.00  0.00     0.080 A 
ATOM     28  C   UNL A   1      37.632  21.313  25.313  1.00  0.00     0.095 A 
ATOM     29  C   UNL A   1      38.480  23.350  26.328  1.00  0.00     0.255 A 
ATOM     30  N   UNL A   1      38.636  22.030  25.942  1.00  0.00    -0.258 N 
ATOM     31  O   UNL A   1      39.332  24.043  26.875  1.00  0.00    -0.269 OA
BRANCH  30  32
ATOM     32  C   UNL A   1      39.904  21.418  26.235  1.00  0.00     0.451 C 
ATOM     33  F   UNL A   1      40.915  22.051  25.592  1.00  0.00    -0.185 F 
ATOM     34  F   UNL A   1      40.166  21.455  27.564  1.00  0.00    -0.185 F 
ENDBRANCH  30  32
ENDBRANCH  16  25
ENDBRANCH   9  11
ENDBRANCH   8   9
ENDBRANCH   7   8
ENDBRANCH   6   7
ENDBRANCH   5   6
ENDBRANCH   4   5
ENDBRANCH   3   4
ENDBRANCH   2   3
ENDBRANCH   1   2
BRANCH   1  35
ATOM     35  C   UNL A   1      38.381  33.431  30.855  1.00  0.00     0.188 C 
BRANCH  35  36
ATOM     36  O   UNL A   1      37.598  33.986  31.914  1.00  0.00    -0.376 OA
BRANCH  36  37
ATOM     37  C   UNL A   1      36.204  33.752  31.982  1.00  0.00     0.202 C 
BRANCH  37  38
ATOM     38  C   UNL A   1      35.700  32.469  32.661  1.00  0.00     0.261 C 
BRANCH  38  39
ATOM     39  O   UNL A   1      36.672  31.440  32.864  1.00  0.00    -0.460 OA
BRANCH  39  40
ATOM     40  C   UNL A   1      37.475  31.608  33.942  1.00  0.00     0.338 C 
ATOM     41  O   UNL A   1      37.169  32.086  35.020  1.00  0.00    -0.246 OA
BRANCH  40  42
ATOM     42  C   UNL A   1      38.789  30.983  33.668  1.00  0.00     0.060 A 
ATOM     43  C   UNL A   1      38.833  29.597  33.466  1.00  0.00     0.016 A 
ATOM     44  C   UNL A   1      39.963  31.739  33.639  1.00  0.00     0.016 A 
ATOM     45  C   UNL A   1      40.054  28.958  33.263  1.00  0.00     0.010 A 
ATOM     46  C   UNL A   1      41.191  31.093  33.467  1.00  0.00     0.010 A 
ATOM     47  C   UNL A   1      41.242  29.696  33.313  1.00  0.00    -0.014 A 
BRANCH  47  48
ATOM     48  C   UNL A   1      42.534  28.979  33.423  1.00  0.00     0.031 A 
ATOM     49  C   UNL A   1      43.199  28.519  32.155  1.00  0.00     0.074 A 
ATOM     50  C   UNL A   1      43.108  28.747  34.617  1.00  0.00     0.049 A 
ATOM     51  N   UNL A   1      44.324  27.871  31.996  1.00  0.00    -0.248 NA
ATOM     52  C   UNL A   1      42.502  28.832  30.896  1.00  0.00     0.031 C 
ATOM     53  C   UNL A   1      42.564  29.150  35.911  1.00  0.00     0.029 A 
ATOM     54  N   UNL A   1      44.273  28.092  34.928  1.00  0.00    -0.354 N 
ATOM     55  C   UNL A   1      44.457  27.680  30.627  1.00  0.00     0.074 A 
ATOM     56  C   UNL A   1      43.296  28.271  29.998  1.00  0.00     0.031 C 
ATOM     57  C   UNL A   1      43.379  28.704  36.883  1.00  0.00     0.029 A 
ATOM     58  C   UNL A   1      44.492  27.970  36.280  1.00  0.00     0.049 A 
ATOM     59  H   UNL A   1      44.893  27.741  34.249  1.00  0.00     0.167 HD
ATOM     60  C   UNL A   1      45.463  27.082  29.949  1.00  0.00     0.034 A 
ATOM     61  C   UNL A   1      45.468  27.324  36.948  1.00  0.00     0.034 A 
ATOM     62  C   UNL A   1      46.621  26.504  30.573  1.00  0.00     0.049 A 
ATOM     63  C   UNL A   1      46.563  26.638  36.170  1.00  0.00     0.074 A 
ATOM     64  C   UNL A   1      47.716  25.911  29.971  1.00  0.00     0.029 A 
ATOM     65  N   UNL A   1      46.828  26.435  31.942  1.00  0.00    -0.354 N 
ATOM     66  N   UNL A   1      46.744  26.577  34.873  1.00  0.00    -0.248 NA
ATOM     67  C   UNL A   1      47.609  25.959  36.951  1.00  0.00     0.031 C 
ATOM     68  C   UNL A   1      48.575  25.459  30.980  1.00  0.00     0.029 A 
ATOM     69  C   UNL A   1      48.027  25.797  32.207  1.00  0.00     0.049 A 
ATOM     70  H   UNL A   1      46.213  26.788  32.624  1.00  0.00     0.167 HD
ATOM     71  C   UNL A   1      47.937  25.887  34.682  1.00  0.00     0.074 A 
ATOM     72  C   UNL A   1      48.447  25.567  36.000  1.00  0.00     0.031 C 
ATOM     73  C   UNL A   1      48.549  25.537  33.524  1.00  0.00     0.034 A 
BRANCH  60  74
ATOM     74  C   UNL A   1      45.363  27.043  28.448  1.00  0.00     0.023 A 
ATOM     75  C   UNL A   1      44.429  26.183  27.836  1.00  0.00     0.012 A 
ATOM     76  C   UNL A   1      46.161  27.882  27.648  1.00  0.00     0.148 A 
ATOM     77  C   UNL A   1      44.309  26.140  26.448  1.00  0.00     0.002 A 
ATOM     78  C   UNL A   1      46.007  27.863  26.267  1.00  0.00     0.091 A 
ATOM     79  F   UNL A   1      47.064  28.671  28.249  1.00  0.00    -0.205 F 
ATOM     80  C   UNL A   1      45.090  26.986  25.665  1.00  0.00     0.022 A 
BRANCH  78  81
ATOM     81  S   UNL A   1      46.916  28.967  25.179  1.00  0.00     0.127 S 
ATOM     82  O   UNL A   1      46.372  30.269  25.558  1.00  0.00    -0.237 OA
ATOM     83  O   UNL A   1      48.300  28.739  25.595  1.00  0.00    -0.237 OA
ATOM     84  O   UNL A   1      46.612  28.532  23.823  1.00  0.00    -0.744 OA
ENDBRANCH  78  81
ENDBRANCH  60  74
BRANCH  61  85
ATOM     85  C   UNL A   1      45.476  27.320  38.440  1.00  0.00     0.023 A 
ATOM     86  C   UNL A   1      44.794  26.303  39.135  1.00  0.00     0.012 A 
ATOM     87  C   UNL A   1      46.161  28.311  39.169  1.00  0.00     0.148 A 
ATOM     88  C   UNL A   1      44.767  26.290  40.531  1.00  0.00     0.002 A 
ATOM     89  C   UNL A   1      46.175  28.263  40.558  1.00  0.00     0.091 A 
ATOM     90  F   UNL A   1      46.785  29.283  38.490  1.00  0.00    -0.205 F 
ATOM     91  C   UNL A   1      45.466  27.263  41.241  1.00  0.00     0.022 A 
BRANCH  89  92
ATOM     92  S   UNL A   1      47.145  29.403  41.551  1.00  0.00     0.127 S 
ATOM     93  O   UNL A   1      46.282  29.601  42.711  1.00  0.00    -0.237 OA
ATOM     94  O   UNL A   1      48.358  28.626  41.811  1.00  0.00    -0.237 OA
ATOM     95  O   UNL A   1      47.356  30.574  40.709  1.00  0.00    -0.744 OA
ENDBRANCH  89  92
ENDBRANCH  61  85
BRANCH  73  96
ATOM     96  C   UNL A   1      49.859  24.797  33.615  1.00  0.00     0.023 A 
ATOM     97  C   UNL A   1      51.069  25.519  33.646  1.00  0.00     0.012 A 
ATOM     98  C   UNL A   1      49.885  23.395  33.758  1.00  0.00     0.148 A 
ATOM     99  C   UNL A   1      52.286  24.854  33.790  1.00  0.00     0.002 A 
ATOM    100  C   UNL A   1      51.099  22.745  33.948  1.00  0.00     0.091 A 
ATOM    101  F   UNL A   1      48.725  22.724  33.708  1.00  0.00    -0.205 F 
ATOM    102  C   UNL A   1      52.301  23.470  33.954  1.00  0.00     0.022 A 
BRANCH 100 103
ATOM    103  S   UNL A   1      51.203  20.978  34.264  1.00  0.00     0.127 S 
ATOM    104  O   UNL A   1      50.706  20.891  35.635  1.00  0.00    -0.237 OA
ATOM    105  O   UNL A   1      50.300  20.428  33.252  1.00  0.00    -0.237 OA
ATOM    106  O   UNL A   1      52.603  20.621  34.080  1.00  0.00    -0.744 OA
ENDBRANCH 100 103
ENDBRANCH  73  96
ENDBRANCH  47  48
ENDBRANCH  40  42
ENDBRANCH  39  40
ENDBRANCH  38  39
ENDBRANCH  37  38
ENDBRANCH  36  37
ENDBRANCH  35  36
ENDBRANCH   1  35
TORSDOF 27
ENDMDL
MODEL 2
REMARK VINA RESULT:      -8.4      4.837      9.485
REMARK SMILES CC(=O)NS(=O)(=O)c1ccc(-c2ccn(C(F)F)c(=O)c2)cc1C(=O)OCCOCCOCCOCCOC(=O)c1ccc(-c2c3nc(c(-c4cccc(S(=O)(=O)[O-])c4F)c4ccc([nH]4)c(-c4cccc(S(=O)(=O)[O-])c4F)c4nc(c(-c5cccc(S(=O)(=O)[O-])c5F)c5ccc2[nH]5)C=C4)C=C3)cc1
REMARK SMILES IDX 33 1 32 2 31 3 30 4 29 5 28 6 27 7 26 8 24 9 25 10 23 11
REMARK SMILES IDX 8 12 9 13 10 14 22 15 11 16 5 17 6 18 7 19 4 20 1 21 2 22
REMARK SMILES IDX 3 23 12 25 13 26 21 27 14 28 19 29 15 30 20 31 16 32 17 33
REMARK SMILES IDX 18 34 34 35 35 36 36 37 37 38 38 39 39 40 40 41 41 42 42 43
REMARK SMILES IDX 103 44 43 45 102 46 44 47 45 48 46 49 96 50 47 51 101 52
REMARK SMILES IDX 95 53 97 54 48 55 100 56 94 57 93 58 49 60 81 61 61 62 80 63
REMARK SMILES IDX 62 64 65 65 79 66 98 67 63 68 64 69 78 71 99 72 66 73 50 74
REMARK SMILES IDX 51 75 59 76 52 77 54 78 60 79 53 80 55 81 56 82 57 83 58 84
REMARK SMILES IDX 82 85 83 86 91 87 84 88 86 89 92 90 85 91 87 92 88 93 89 94
REMARK SMILES IDX 90 95 67 96 68 97 76 98 69 99 71 100 77 101 70 102 72 103
REMARK SMILES IDX 73 104 74 105 75 106
REMARK H PARENT 4 24 97 59 65 70
REMARK Flexibility Score: inf
ROOT
ATOM      1  C   UNL A   1      40.315  20.019  26.185  1.00  0.00     0.188 C 
ENDROOT
BRANCH   1   2
ATOM      2  O   UNL A   1      39.629  18.994  25.476  1.00  0.00    -0.377 OA
BRANCH   2   3
ATOM      3  C   UNL A   1      38.227  19.163  25.360  1.00  0.00     0.188 C 
BRANCH   3   4
ATOM      4  C   UNL A   1      37.735  20.475  24.739  1.00  0.00     0.188 C 
BRANCH   4   5
ATOM      5  O   UNL A   1      37.287  21.410  25.713  1.00  0.00    -0.376 OA
BRANCH   5   6
ATOM      6  C   UNL A   1      38.010  22.625  25.847  1.00  0.00     0.202 C 
BRANCH   6   7
ATOM      7  C   UNL A   1      37.168  23.903  25.719  1.00  0.00     0.261 C 
BRANCH   7   8
ATOM      8  O   UNL A   1      35.754  23.686  25.567  1.00  0.00    -0.460 OA
BRANCH   8   9
ATOM      9  C   UNL A   1      35.235  23.844  24.344  1.00  0.00     0.339 C 
ATOM     10  O   UNL A   1      35.804  24.366  23.397  1.00  0.00    -0.246 OA
BRANCH   9  11
ATOM     11  C   UNL A   1      33.929  23.143  24.184  1.00  0.00     0.081 A 
ATOM     12  C   UNL A   1      32.710  23.697  23.768  1.00  0.00     0.102 A 
ATOM     13  C   UNL A   1      31.679  22.847  23.341  1.00  0.00     0.024 A 
ATOM     14  C   UNL A   1      31.768  21.470  23.533  1.00  0.00     0.010 A 
ATOM     15  C   UNL A   1      33.997  21.748  24.391  1.00  0.00     0.025 A 
ATOM     16  C   UNL A   1      32.908  20.916  24.114  1.00  0.00    -0.017 A 
BRANCH  12  17
ATOM     17  S   UNL A   1      32.342  25.432  23.932  1.00  0.00     0.264 S 
ATOM     18  O   UNL A   1      33.242  25.941  24.920  1.00  0.00    -0.201 OA
ATOM     19  O   UNL A   1      30.899  25.586  24.001  1.00  0.00    -0.201 OA
BRANCH  17  20
ATOM     20  N   UNL A   1      32.776  26.118  22.454  1.00  0.00    -0.249 N 
ATOM     21  C   UNL A   1      32.244  28.554  22.675  1.00  0.00     0.115 C 
ATOM     22  C   UNL A   1      33.217  27.457  22.321  1.00  0.00     0.230 C 
ATOM     23  O   UNL A   1      34.258  27.700  21.728  1.00  0.00    -0.274 OA
ATOM     24  H   UNL A   1      32.719  25.561  21.645  1.00  0.00     0.183 HD
ENDBRANCH  17  20
ENDBRANCH  12  17
BRANCH  16  25
ATOM     25  C   UNL A   1      32.977  19.474  24.398  1.00  0.00    -0.011 A 
ATOM     26  C   UNL A   1      32.595  18.893  25.671  1.00  0.00     0.027 A 
ATOM     27  C   UNL A   1      33.419  18.671  23.416  1.00  0.00     0.080 A 
ATOM     28  C   UNL A   1      32.691  17.572  25.868  1.00  0.00     0.095 A 
ATOM     29  C   UNL A   1      33.522  17.202  23.617  1.00  0.00     0.255 A 
ATOM     30  N   UNL A   1      33.150  16.735  24.866  1.00  0.00    -0.258 N 
ATOM     31  O   UNL A   1      33.922  16.512  22.684  1.00  0.00    -0.269 OA
BRANCH  30  32
ATOM     32  C   UNL A   1      33.270  15.319  25.088  1.00  0.00     0.451 C 
ATOM     33  F   UNL A   1      34.546  14.977  25.394  1.00  0.00    -0.185 F 
ATOM     34  F   UNL A   1      32.474  14.918  26.109  1.00  0.00    -0.185 F 
ENDBRANCH  30  32
ENDBRANCH  16  25
ENDBRANCH   9  11
ENDBRANCH   8   9
ENDBRANCH   7   8
ENDBRANCH   6   7
ENDBRANCH   5   6
ENDBRANCH   4   5
ENDBRANCH   3   4
ENDBRANCH   2   3
ENDBRANCH   1   2
BRANCH   1  35
ATOM     35  C   UNL A   1      41.853  19.942  26.055  1.00  0.00     0.188 C 
BRANCH  35  36
ATOM     36  O   UNL A   1      42.673  21.109  25.978  1.00  0.00    -0.376 OA
BRANCH  36  37
ATOM     37  C   UNL A   1      42.091  22.396  25.881  1.00  0.00     0.202 C 
BRANCH  37  38
ATOM     38  C   UNL A   1      41.989  23.260  27.148  1.00  0.00     0.261 C 
BRANCH  38  39
ATOM     39  O   UNL A   1      41.481  24.585  26.967  1.00  0.00    -0.460 OA
BRANCH  39  40
ATOM     40  C   UNL A   1      42.200  25.371  26.130  1.00  0.00     0.338 C 
ATOM     41  O   UNL A   1      41.806  25.920  25.116  1.00  0.00    -0.246 OA
BRANCH  40  42
ATOM     42  C   UNL A   1      43.544  25.591  26.710  1.00  0.00     0.060 A 
ATOM     43  C   UNL A   1      44.511  24.593  26.536  1.00  0.00     0.016 A 
ATOM     44  C   UNL A   1      43.842  26.745  27.439  1.00  0.00     0.016 A 
ATOM     45  C   UNL A   1      45.771  24.731  27.114  1.00  0.00     0.010 A 
ATOM     46  C   UNL A   1      45.096  26.869  28.045  1.00  0.00     0.010 A 
ATOM     47  C   UNL A   1      46.052  25.846  27.913  1.00  0.00    -0.014 A 
BRANCH  47  48
ATOM     48  C   UNL A   1      47.254  25.831  28.778  1.00  0.00     0.031 A 
ATOM     49  C   UNL A   1      47.058  25.712  30.264  1.00  0.00     0.074 A 
ATOM     50  C   UNL A   1      48.493  25.911  28.259  1.00  0.00     0.049 A 
ATOM     51  N   UNL A   1      47.950  25.682  31.219  1.00  0.00    -0.248 NA
ATOM     52  C   UNL A   1      45.666  25.614  30.737  1.00  0.00     0.031 C 
ATOM     53  C   UNL A   1      48.809  26.022  26.837  1.00  0.00     0.029 A 
ATOM     54  N   UNL A   1      49.716  25.934  28.880  1.00  0.00    -0.354 N 
ATOM     55  C   UNL A   1      47.230  25.584  32.403  1.00  0.00     0.074 A 
ATOM     56  C   UNL A   1      45.828  25.570  32.050  1.00  0.00     0.031 C 
ATOM     57  C   UNL A   1      50.142  26.134  26.696  1.00  0.00     0.029 A 
ATOM     58  C   UNL A   1      50.769  26.121  28.018  1.00  0.00     0.049 A 
ATOM     59  H   UNL A   1      49.829  25.828  29.853  1.00  0.00     0.167 HD
ATOM     60  C   UNL A   1      47.693  25.498  33.671  1.00  0.00     0.034 A 
ATOM     61  C   UNL A   1      52.083  26.281  28.271  1.00  0.00     0.034 A 
ATOM     62  C   UNL A   1      49.086  25.501  34.021  1.00  0.00     0.049 A 
ATOM     63  C   UNL A   1      52.572  26.210  29.696  1.00  0.00     0.074 A 
ATOM     64  C   UNL A   1      49.659  25.377  35.274  1.00  0.00     0.029 A 
ATOM     65  N   UNL A   1      50.126  25.651  33.116  1.00  0.00    -0.354 N 
ATOM     66  N   UNL A   1      51.891  25.988  30.795  1.00  0.00    -0.248 NA
ATOM     67  C   UNL A   1      54.017  26.378  29.913  1.00  0.00     0.031 C 
ATOM     68  C   UNL A   1      51.047  25.477  35.129  1.00  0.00     0.029 A 
ATOM     69  C   UNL A   1      51.339  25.636  33.784  1.00  0.00     0.049 A 
ATOM     70  H   UNL A   1      50.018  25.753  32.144  1.00  0.00     0.167 HD
ATOM     71  C   UNL A   1      52.825  25.954  31.826  1.00  0.00     0.074 A 
ATOM     72  C   UNL A   1      54.123  26.160  31.218  1.00  0.00     0.031 C 
ATOM     73  C   UNL A   1      52.627  25.784  33.156  1.00  0.00     0.034 A 
BRANCH  60  74
ATOM     74  C   UNL A   1      46.678  25.368  34.774  1.00  0.00     0.023 A 
ATOM     75  C   UNL A   1      46.285  24.086  35.209  1.00  0.00     0.012 A 
ATOM     76  C   UNL A   1      46.146  26.508  35.406  1.00  0.00     0.148 A 
ATOM     77  C   UNL A   1      45.356  23.941  36.239  1.00  0.00     0.002 A 
ATOM     78  C   UNL A   1      45.252  26.355  36.458  1.00  0.00     0.091 A 
ATOM     79  F   UNL A   1      46.512  27.718  34.957  1.00  0.00    -0.205 F 
ATOM     80  C   UNL A   1      44.848  25.074  36.869  1.00  0.00     0.022 A 
BRANCH  78  81
ATOM     81  S   UNL A   1      44.598  27.751  37.381  1.00  0.00     0.127 S 
ATOM     82  O   UNL A   1      43.202  27.763  36.947  1.00  0.00    -0.237 OA
ATOM     83  O   UNL A   1      44.801  27.327  38.766  1.00  0.00    -0.237 OA
ATOM     84  O   UNL A   1      45.389  28.904  36.978  1.00  0.00    -0.744 OA
ENDBRANCH  78  81
ENDBRANCH  60  74
BRANCH  61  85
ATOM     85  C   UNL A   1      53.041  26.491  27.147  1.00  0.00     0.023 A 
ATOM     86  C   UNL A   1      53.676  25.380  26.559  1.00  0.00     0.012 A 
ATOM     87  C   UNL A   1      53.317  27.781  26.654  1.00  0.00     0.148 A 
ATOM     88  C   UNL A   1      54.593  25.551  25.521  1.00  0.00     0.002 A 
ATOM     89  C   UNL A   1      54.191  27.940  25.585  1.00  0.00     0.091 A 
ATOM     90  F   UNL A   1      52.720  28.827  27.240  1.00  0.00    -0.205 F 
ATOM     91  C   UNL A   1      54.843  26.829  25.028  1.00  0.00     0.022 A 
BRANCH  89  92
ATOM     92  S   UNL A   1      54.480  29.534  24.808  1.00  0.00     0.127 S 
ATOM     93  O   UNL A   1      53.406  29.586  23.821  1.00  0.00    -0.237 OA
ATOM     94  O   UNL A   1      54.326  30.455  25.935  1.00  0.00    -0.237 OA
ATOM     95  O   UNL A   1      55.833  29.469  24.271  1.00  0.00    -0.744 OA
ENDBRANCH  89  92
ENDBRANCH  61  85
BRANCH  73  96
ATOM     96  C   UNL A   1      53.838  25.776  34.054  1.00  0.00     0.023 A 
ATOM     97  C   UNL A   1      54.184  26.937  34.772  1.00  0.00     0.012 A 
ATOM     98  C   UNL A   1      54.577  24.592  34.253  1.00  0.00     0.148 A 
ATOM     99  C   UNL A   1      55.265  26.930  35.653  1.00  0.00     0.002 A 
ATOM    100  C   UNL A   1      55.624  24.580  35.169  1.00  0.00     0.091 A 
ATOM    101  F   UNL A   1      54.243  23.502  33.549  1.00  0.00    -0.205 F 
ATOM    102  C   UNL A   1      55.977  25.750  35.861  1.00  0.00     0.022 A 
BRANCH 100 103
ATOM    103  S   UNL A   1      56.531  23.081  35.570  1.00  0.00     0.127 S 
ATOM    104  O   UNL A   1      57.482  23.003  34.463  1.00  0.00    -0.237 OA
ATOM    105  O   UNL A   1      57.129  23.417  36.864  1.00  0.00    -0.237 OA
ATOM    106  O   UNL A   1      55.540  22.015  35.623  1.00  0.00    -0.744 OA
ENDBRANCH 100 103
ENDBRANCH  73  96
ENDBRANCH  47  48
ENDBRANCH  40  42
ENDBRANCH  39  40
ENDBRANCH  38  39
ENDBRANCH  37  38
ENDBRANCH  36  37
ENDBRANCH  35  36
ENDBRANCH   1  35
TORSDOF 27
ENDMDL
MODEL 3
REMARK VINA RESULT:      -8.2      6.075     10.448
REMARK SMILES CC(=O)NS(=O)(=O)c1ccc(-c2ccn(C(F)F)c(=O)c2)cc1C(=O)OCCOCCOCCOCCOC(=O)c1ccc(-c2c3nc(c(-c4cccc(S(=O)(=O)[O-])c4F)c4ccc([nH]4)c(-c4cccc(S(=O)(=O)[O-])c4F)c4nc(c(-c5cccc(S(=O)(=O)[O-])c5F)c5ccc2[nH]5)C=C4)C=C3)cc1
REMARK SMILES IDX 33 1 32 2 31 3 30 4 29 5 28 6 27 7 26 8 24 9 25 10 23 11
REMARK SMILES IDX 8 12 9 13 10 14 22 15 11 16 5 17 6 18 7 19 4 20 1 21 2 22
REMARK SMILES IDX 3 23 12 25 13 26 21 27 14 28 19 29 15 30 20 31 16 32 17 33
REMARK SMILES IDX 18 34 34 35 35 36 36 37 37 38 38 39 39 40 40 41 41 42 42 43
REMARK SMILES IDX 103 44 43 45 102 46 44 47 45 48 46 49 96 50 47 51 101 52
REMARK SMILES IDX 95 53 97 54 48 55 100 56 94 57 93 58 49 60 81 61 61 62 80 63
REMARK SMILES IDX 62 64 65 65 79 66 98 67 63 68 64 69 78 71 99 72 66 73 50 74
REMARK SMILES IDX 51 75 59 76 52 77 54 78 60 79 53 80 55 81 56 82 57 83 58 84
REMARK SMILES IDX 82 85 83 86 91 87 84 88 86 89 92 90 85 91 87 92 88 93 89 94
REMARK SMILES IDX 90 95 67 96 68 97 76 98 69 99 71 100 77 101 70 102 72 103
REMARK SMILES IDX 73 104 74 105 75 106
REMARK H PARENT 4 24 97 59 65 70
REMARK Flexibility Score: inf
ROOT
ATOM      1  C   UNL A   1      39.472  20.304  25.451  1.00  0.00     0.188 C 
ENDROOT
BRANCH   1   2
ATOM      2  O   UNL A   1      38.530  19.307  25.074  1.00  0.00    -0.377 OA
BRANCH   2   3
ATOM      3  C   UNL A   1      37.201  19.760  24.889  1.00  0.00     0.188 C 
BRANCH   3   4
ATOM      4  C   UNL A   1      37.009  21.256  24.614  1.00  0.00     0.188 C 
BRANCH   4   5
ATOM      5  O   UNL A   1      36.637  21.985  25.778  1.00  0.00    -0.376 OA
BRANCH   5   6
ATOM      6  C   UNL A   1      37.243  23.252  25.989  1.00  0.00     0.202 C 
BRANCH   6   7
ATOM      7  C   UNL A   1      36.300  24.457  25.849  1.00  0.00     0.261 C 
BRANCH   7   8
ATOM      8  O   UNL A   1      35.299  24.329  24.824  1.00  0.00    -0.460 OA
BRANCH   8   9
ATOM      9  C   UNL A   1      34.172  25.033  24.974  1.00  0.00     0.339 C 
ATOM     10  O   UNL A   1      34.112  26.219  25.262  1.00  0.00    -0.246 OA
BRANCH   9  11
ATOM     11  C   UNL A   1      32.961  24.263  24.568  1.00  0.00     0.081 A 
ATOM     12  C   UNL A   1      31.686  24.771  24.278  1.00  0.00     0.102 A 
ATOM     13  C   UNL A   1      30.768  23.968  23.585  1.00  0.00     0.024 A 
ATOM     14  C   UNL A   1      31.022  22.612  23.381  1.00  0.00     0.010 A 
ATOM     15  C   UNL A   1      33.196  22.885  24.372  1.00  0.00     0.025 A 
ATOM     16  C   UNL A   1      32.218  22.049  23.825  1.00  0.00    -0.017 A 
BRANCH  12  17
ATOM     17  S   UNL A   1      31.111  26.331  24.914  1.00  0.00     0.264 S 
ATOM     18  O   UNL A   1      31.759  26.514  26.175  1.00  0.00    -0.201 OA
ATOM     19  O   UNL A   1      29.670  26.392  24.733  1.00  0.00    -0.201 OA
BRANCH  17  20
ATOM     20  N   UNL A   1      31.724  27.493  23.858  1.00  0.00    -0.249 N 
ATOM     21  C   UNL A   1      31.454  29.678  25.049  1.00  0.00     0.115 C 
ATOM     22  C   UNL A   1      32.321  28.700  24.296  1.00  0.00     0.230 C 
ATOM     23  O   UNL A   1      33.423  29.024  23.876  1.00  0.00    -0.274 OA
ATOM     24  H   UNL A   1      31.665  27.325  22.890  1.00  0.00     0.183 HD
ENDBRANCH  17  20
ENDBRANCH  12  17
BRANCH  16  25
ATOM     25  C   UNL A   1      32.459  20.604  23.690  1.00  0.00    -0.011 A 
ATOM     26  C   UNL A   1      32.163  19.856  22.482  1.00  0.00     0.027 A 
ATOM     27  C   UNL A   1      32.981  19.963  24.748  1.00  0.00     0.080 A 
ATOM     28  C   UNL A   1      32.397  18.539  22.428  1.00  0.00     0.095 A 
ATOM     29  C   UNL A   1      33.255  18.503  24.699  1.00  0.00     0.255 A 
ATOM     30  N   UNL A   1      32.929  17.866  23.513  1.00  0.00    -0.258 N 
ATOM     31  O   UNL A   1      33.742  17.967  25.690  1.00  0.00    -0.269 OA
BRANCH  30  32
ATOM     32  C   UNL A   1      33.162  16.447  23.458  1.00  0.00     0.451 C 
ATOM     33  F   UNL A   1      34.485  16.163  23.539  1.00  0.00    -0.185 F 
ATOM     34  F   UNL A   1      32.534  15.812  24.477  1.00  0.00    -0.185 F 
ENDBRANCH  30  32
ENDBRANCH  16  25
ENDBRANCH   9  11
ENDBRANCH   8   9
ENDBRANCH   7   8
ENDBRANCH   6   7
ENDBRANCH   5   6
ENDBRANCH   4   5
ENDBRANCH   3   4
ENDBRANCH   2   3
ENDBRANCH   1   2
BRANCH   1  35
ATOM     35  C   UNL A   1      40.486  19.828  26.516  1.00  0.00     0.188 C 
BRANCH  35  36
ATOM     36  O   UNL A   1      40.750  20.574  27.706  1.00  0.00    -0.376 OA
BRANCH  36  37
ATOM     37  C   UNL A   1      41.697  21.625  27.705  1.00  0.00     0.202 C 
BRANCH  37  38
ATOM     38  C   UNL A   1      41.361  22.925  26.956  1.00  0.00     0.261 C 
BRANCH  38  39
ATOM     39  O   UNL A   1      42.278  23.314  25.929  1.00  0.00    -0.460 OA
BRANCH  39  40
ATOM     40  C   UNL A   1      43.473  23.778  26.366  1.00  0.00     0.338 C 
ATOM     41  O   UNL A   1      44.577  23.348  26.083  1.00  0.00    -0.246 OA
BRANCH  40  42
ATOM     42  C   UNL A   1      43.253  25.010  27.156  1.00  0.00     0.060 A 
ATOM     43  C   UNL A   1      43.104  26.220  26.465  1.00  0.00     0.016 A 
ATOM     44  C   UNL A   1      43.225  24.985  28.552  1.00  0.00     0.016 A 
ATOM     45  C   UNL A   1      42.953  27.413  27.169  1.00  0.00     0.010 A 
ATOM     46  C   UNL A   1      43.106  26.187  29.258  1.00  0.00     0.010 A 
ATOM     47  C   UNL A   1      43.005  27.407  28.568  1.00  0.00    -0.014 A 
BRANCH  47  48
ATOM     48  C   UNL A   1      43.171  28.690  29.290  1.00  0.00     0.031 A 
ATOM     49  C   UNL A   1      41.934  29.413  29.746  1.00  0.00     0.074 A 
ATOM     50  C   UNL A   1      44.390  29.200  29.543  1.00  0.00     0.049 A 
ATOM     51  N   UNL A   1      41.825  30.547  30.388  1.00  0.00    -0.248 NA
ATOM     52  C   UNL A   1      40.646  28.769  29.437  1.00  0.00     0.031 C 
ATOM     53  C   UNL A   1      45.660  28.589  29.158  1.00  0.00     0.029 A 
ATOM     54  N   UNL A   1      44.752  30.366  30.168  1.00  0.00    -0.354 N 
ATOM     55  C   UNL A   1      40.461  30.763  30.539  1.00  0.00     0.074 A 
ATOM     56  C   UNL A   1      39.780  29.650  29.915  1.00  0.00     0.031 C 
ATOM     57  C   UNL A   1      46.664  29.404  29.527  1.00  0.00     0.029 A 
ATOM     58  C   UNL A   1      46.106  30.600  30.158  1.00  0.00     0.049 A 
ATOM     59  H   UNL A   1      44.103  30.979  30.584  1.00  0.00     0.167 HD
ATOM     60  C   UNL A   1      39.829  31.787  31.157  1.00  0.00     0.034 A 
ATOM     61  C   UNL A   1      46.808  31.665  30.593  1.00  0.00     0.034 A 
ATOM     62  C   UNL A   1      40.506  32.887  31.786  1.00  0.00     0.049 A 
ATOM     63  C   UNL A   1      46.079  32.809  31.252  1.00  0.00     0.074 A 
ATOM     64  C   UNL A   1      39.957  33.954  32.475  1.00  0.00     0.029 A 
ATOM     65  N   UNL A   1      41.880  33.069  31.792  1.00  0.00    -0.354 N 
ATOM     66  N   UNL A   1      44.798  32.939  31.503  1.00  0.00    -0.248 NA
ATOM     67  C   UNL A   1      46.896  33.940  31.718  1.00  0.00     0.031 C 
ATOM     68  C   UNL A   1      41.000  34.796  32.876  1.00  0.00     0.029 A 
ATOM     69  C   UNL A   1      42.199  34.238  32.460  1.00  0.00     0.049 A 
ATOM     70  H   UNL A   1      42.532  32.458  31.382  1.00  0.00     0.167 HD
ATOM     71  C   UNL A   1      44.660  34.144  32.185  1.00  0.00     0.074 A 
ATOM     72  C   UNL A   1      45.991  34.697  32.325  1.00  0.00     0.031 C 
ATOM     73  C   UNL A   1      43.535  34.746  32.641  1.00  0.00     0.034 A 
BRANCH  60  74
ATOM     74  C   UNL A   1      38.326  31.751  31.201  1.00  0.00     0.023 A 
ATOM     75  C   UNL A   1      37.676  31.213  32.330  1.00  0.00     0.012 A 
ATOM     76  C   UNL A   1      37.558  32.284  30.148  1.00  0.00     0.148 A 
ATOM     77  C   UNL A   1      36.284  31.182  32.399  1.00  0.00     0.002 A 
ATOM     78  C   UNL A   1      36.172  32.286  30.241  1.00  0.00     0.091 A 
ATOM     79  F   UNL A   1      38.196  32.765  29.070  1.00  0.00    -0.205 F 
ATOM     80  C   UNL A   1      35.533  31.727  31.360  1.00  0.00     0.022 A 
BRANCH  78  81
ATOM     81  S   UNL A   1      35.120  33.030  28.989  1.00  0.00     0.127 S 
ATOM     82  O   UNL A   1      35.743  34.342  28.821  1.00  0.00    -0.237 OA
ATOM     83  O   UNL A   1      35.299  32.120  27.857  1.00  0.00    -0.237 OA
ATOM     84  O   UNL A   1      33.776  33.041  29.549  1.00  0.00    -0.744 OA
ENDBRANCH  78  81
ENDBRANCH  60  74
BRANCH  61  85
ATOM     85  C   UNL A   1      48.293  31.690  30.451  1.00  0.00     0.023 A 
ATOM     86  C   UNL A   1      49.100  31.237  31.512  1.00  0.00     0.012 A 
ATOM     87  C   UNL A   1      48.907  32.150  29.270  1.00  0.00     0.148 A 
ATOM     88  C   UNL A   1      50.491  31.271  31.413  1.00  0.00     0.002 A 
ATOM     89  C   UNL A   1      50.292  32.132  29.157  1.00  0.00     0.091 A 
ATOM     90  F   UNL A   1      48.123  32.598  28.279  1.00  0.00    -0.205 F 
ATOM     91  C   UNL A   1      51.087  31.708  30.233  1.00  0.00     0.022 A 
BRANCH  89  92
ATOM     92  S   UNL A   1      51.139  32.565  27.632  1.00  0.00     0.127 S 
ATOM     93  O   UNL A   1      52.387  31.819  27.761  1.00  0.00    -0.237 OA
ATOM     94  O   UNL A   1      50.218  32.053  26.616  1.00  0.00    -0.237 OA
ATOM     95  O   UNL A   1      51.262  34.017  27.651  1.00  0.00    -0.744 OA
ENDBRANCH  89  92
ENDBRANCH  61  85
BRANCH  73  96
ATOM     96  C   UNL A   1      43.682  36.058  33.369  1.00  0.00     0.023 A 
ATOM     97  C   UNL A   1      43.806  36.068  34.773  1.00  0.00     0.012 A 
ATOM     98  C   UNL A   1      43.788  37.269  32.656  1.00  0.00     0.148 A 
ATOM     99  C   UNL A   1      44.003  37.267  35.458  1.00  0.00     0.002 A 
ATOM    100  C   UNL A   1      44.032  38.453  33.342  1.00  0.00     0.091 A 
ATOM    101  F   UNL A   1      43.651  37.241  31.323  1.00  0.00    -0.205 F 
ATOM    102  C   UNL A   1      44.129  38.457  34.743  1.00  0.00     0.022 A 
BRANCH 100 103
ATOM    103  S   UNL A   1      44.305  40.015  32.495  1.00  0.00     0.127 S 
ATOM    104  O   UNL A   1      45.422  39.685  31.613  1.00  0.00    -0.237 OA
ATOM    105  O   UNL A   1      43.028  40.225  31.811  1.00  0.00    -0.237 OA
ATOM    106  O   UNL A   1      44.596  40.990  33.537  1.00  0.00    -0.744 OA
ENDBRANCH 100 103
ENDBRANCH  73  96
ENDBRANCH  47  48
ENDBRANCH  40  42
ENDBRANCH  39  40
ENDBRANCH  38  39
ENDBRANCH  37  38
ENDBRANCH  36  37
ENDBRANCH  35  36
ENDBRANCH   1  35
TORSDOF 27
ENDMDL
