MODEL 1
REMARK VINA RESULT:     -10.0      0.000      0.000
REMARK SMILES C[NH+]1CCC2(CC1)OC[C@@H](C(=O)OCCOCCOCCOCCOC(=O)c1ccc(-c3c4nc(c(-c5cccc(S(=O)(=O)[O-])c5F)c5ccc([nH]5)c(-c5cccc(S(=O)(=O)[O-])c5F)c5nc(c(-c6cccc(S(=O)(=O)[O-])c6F)c6ccc3[nH]6)C=C5)C=C4)cc1)N2C(=O)c1ccc2ccccc2c1
REMARK SMILES IDX 20 1 19 2 18 3 17 4 16 5 15 6 14 7 13 8 11 9 12 10 10 11
REMARK SMILES IDX 1 12 2 13 3 14 7 15 4 17 6 18 5 19 8 20 91 21 9 22 92 23
REMARK SMILES IDX 93 24 94 25 95 26 103 27 96 28 102 29 97 30 101 31 98 32
REMARK SMILES IDX 100 33 99 34 21 35 22 36 23 37 24 38 25 39 26 40 27 41 28 42
REMARK SMILES IDX 29 43 90 44 30 45 89 46 31 47 32 48 33 49 83 50 34 51 88 52
REMARK SMILES IDX 82 53 84 54 35 55 87 56 81 57 80 58 36 60 68 61 48 62 67 63
REMARK SMILES IDX 49 64 52 65 66 66 85 67 50 68 51 69 65 71 86 72 53 73 37 74
REMARK SMILES IDX 38 75 46 76 39 77 41 78 47 79 40 80 42 81 43 82 44 83 45 84
REMARK SMILES IDX 69 85 70 86 78 87 71 88 73 89 79 90 72 91 74 92 75 93 76 94
REMARK SMILES IDX 77 95 54 96 55 97 63 98 56 99 58 100 64 101 57 102 59 103
REMARK SMILES IDX 60 104 61 105 62 106
REMARK H PARENT 2 16 84 59 52 70
REMARK Flexibility Score: inf
ROOT
ATOM      1  C   UNL A   1      34.900  17.952  24.807  1.00  0.00     0.188 C 
ENDROOT
BRANCH   1   2
ATOM      2  O   UNL A   1      34.370  17.187  23.730  1.00  0.00    -0.377 OA
BRANCH   2   3
ATOM      3  C   UNL A   1      32.992  17.233  23.415  1.00  0.00     0.188 C 
BRANCH   3   4
ATOM      4  C   UNL A   1      32.493  18.668  23.227  1.00  0.00     0.188 C 
BRANCH   4   5
ATOM      5  O   UNL A   1      31.886  19.313  24.339  1.00  0.00    -0.376 OA
BRANCH   5   6
ATOM      6  C   UNL A   1      32.414  20.555  24.807  1.00  0.00     0.202 C 
BRANCH   6   7
ATOM      7  C   UNL A   1      33.569  21.243  24.046  1.00  0.00     0.261 C 
BRANCH   7   8
ATOM      8  O   UNL A   1      34.014  22.519  24.585  1.00  0.00    -0.462 OA
BRANCH   8   9
ATOM      9  C   UNL A   1      34.161  23.501  23.670  1.00  0.00     0.331 C 
ATOM     10  O   UNL A   1      35.199  23.644  23.013  1.00  0.00    -0.250 OA
BRANCH   9  11
ATOM     11  C   UNL A   1      33.009  24.504  23.458  1.00  0.00     0.224 C 
ATOM     12  C   UNL A   1      28.701  29.262  22.849  1.00  0.00     0.332 C 
ATOM     13  N   UNL A   1      29.757  28.474  23.450  1.00  0.00    -0.337 N 
ATOM     14  C   UNL A   1      29.481  27.062  23.609  1.00  0.00     0.267 C 
ATOM     15  C   UNL A   1      31.100  28.924  23.119  1.00  0.00     0.267 C 
ATOM     16  H   UNL A   1      29.749  28.701  24.444  1.00  0.00     0.347 HD
ATOM     17  C   UNL A   1      30.345  26.131  22.789  1.00  0.00     0.120 C 
ATOM     18  C   UNL A   1      32.060  27.940  22.471  1.00  0.00     0.120 C 
ATOM     19  C   UNL A   1      31.847  26.470  22.802  1.00  0.00     0.155 C 
ATOM     20  O   UNL A   1      32.314  25.799  21.599  1.00  0.00    -0.352 OA
ATOM     21  N   UNL A   1      32.629  25.860  23.912  1.00  0.00    -0.293 N 
ATOM     22  C   UNL A   1      33.156  24.725  21.961  1.00  0.00     0.200 C 
BRANCH  21  23
ATOM     23  C   UNL A   1      32.179  26.050  25.233  1.00  0.00     0.256 C 
ATOM     24  O   UNL A   1      31.281  25.364  25.719  1.00  0.00    -0.269 OA
BRANCH  23  25
ATOM     25  C   UNL A   1      32.690  27.215  26.033  1.00  0.00     0.040 A 
ATOM     26  C   UNL A   1      34.016  27.297  26.451  1.00  0.00     0.014 A 
ATOM     27  C   UNL A   1      31.824  28.295  26.302  1.00  0.00     0.022 A 
ATOM     28  C   UNL A   1      34.506  28.502  26.984  1.00  0.00     0.009 A 
ATOM     29  C   UNL A   1      32.320  29.540  26.746  1.00  0.00    -0.018 A 
ATOM     30  C   UNL A   1      33.692  29.652  27.061  1.00  0.00    -0.018 A 
ATOM     31  C   UNL A   1      31.512  30.695  26.792  1.00  0.00     0.009 A 
ATOM     32  C   UNL A   1      34.222  30.919  27.374  1.00  0.00     0.009 A 
ATOM     33  C   UNL A   1      32.057  31.947  27.092  1.00  0.00     0.001 A 
ATOM     34  C   UNL A   1      33.415  32.060  27.370  1.00  0.00     0.001 A 
ENDBRANCH  23  25
ENDBRANCH  21  23
ENDBRANCH   9  11
ENDBRANCH   8   9
ENDBRANCH   7   8
ENDBRANCH   6   7
ENDBRANCH   5   6
ENDBRANCH   4   5
ENDBRANCH   3   4
ENDBRANCH   2   3
ENDBRANCH   1   2
BRANCH   1  35
ATOM     35  C   UNL A   1      36.285  18.574  24.619  1.00  0.00     0.188 C 
BRANCH  35  36
ATOM     36  O   UNL A   1      36.440  19.946  24.997  1.00  0.00    -0.376 OA
BRANCH  36  37
ATOM     37  C   UNL A   1      37.765  20.469  25.083  1.00  0.00     0.202 C 
BRANCH  37  38
ATOM     38  C   UNL A   1      37.866  21.991  25.202  1.00  0.00     0.261 C 
BRANCH  38  39
ATOM     39  O   UNL A   1      38.333  22.423  26.490  1.00  0.00    -0.460 OA
BRANCH  39  40
ATOM     40  C   UNL A   1      39.602  22.899  26.510  1.00  0.00     0.338 C 
ATOM     41  O   UNL A   1      40.606  22.348  26.099  1.00  0.00    -0.246 OA
BRANCH  40  42
ATOM     42  C   UNL A   1      39.591  24.294  26.986  1.00  0.00     0.060 A 
ATOM     43  C   UNL A   1      40.128  25.286  26.155  1.00  0.00     0.016 A 
ATOM     44  C   UNL A   1      39.153  24.603  28.275  1.00  0.00     0.016 A 
ATOM     45  C   UNL A   1      40.279  26.586  26.630  1.00  0.00     0.010 A 
ATOM     46  C   UNL A   1      39.321  25.901  28.757  1.00  0.00     0.010 A 
ATOM     47  C   UNL A   1      39.924  26.884  27.950  1.00  0.00    -0.014 A 
BRANCH  47  48
ATOM     48  C   UNL A   1      40.347  28.168  28.549  1.00  0.00     0.031 A 
ATOM     49  C   UNL A   1      41.816  28.419  28.751  1.00  0.00     0.074 A 
ATOM     50  C   UNL A   1      39.438  29.088  28.914  1.00  0.00     0.049 A 
ATOM     51  N   UNL A   1      42.412  29.431  29.322  1.00  0.00    -0.248 NA
ATOM     52  C   UNL A   1      42.735  27.384  28.245  1.00  0.00     0.031 C 
ATOM     53  C   UNL A   1      37.991  28.956  28.748  1.00  0.00     0.029 A 
ATOM     54  N   UNL A   1      39.599  30.302  29.530  1.00  0.00    -0.354 N 
ATOM     55  C   UNL A   1      43.771  29.140  29.280  1.00  0.00     0.074 A 
ATOM     56  C   UNL A   1      43.911  27.855  28.634  1.00  0.00     0.031 C 
ATOM     57  C   UNL A   1      37.393  30.033  29.284  1.00  0.00     0.029 A 
ATOM     58  C   UNL A   1      38.411  30.910  29.858  1.00  0.00     0.049 A 
ATOM     59  H   UNL A   1      40.480  30.699  29.719  1.00  0.00     0.167 HD
ATOM     60  C   UNL A   1      44.808  29.884  29.732  1.00  0.00     0.034 A 
ATOM     61  C   UNL A   1      38.177  32.029  30.572  1.00  0.00     0.034 A 
ATOM     62  C   UNL A   1      44.657  31.168  30.359  1.00  0.00     0.049 A 
ATOM     63  C   UNL A   1      39.347  32.822  31.092  1.00  0.00     0.074 A 
ATOM     64  C   UNL A   1      45.643  32.026  30.812  1.00  0.00     0.029 A 
ATOM     65  N   UNL A   1      43.441  31.774  30.638  1.00  0.00    -0.354 N 
ATOM     66  N   UNL A   1      40.630  32.588  30.956  1.00  0.00    -0.248 NA
ATOM     67  C   UNL A   1      39.038  34.050  31.839  1.00  0.00     0.031 C 
ATOM     68  C   UNL A   1      45.023  33.131  31.400  1.00  0.00     0.029 A 
ATOM     69  C   UNL A   1      43.650  32.985  31.273  1.00  0.00     0.049 A 
ATOM     70  H   UNL A   1      42.559  31.397  30.418  1.00  0.00     0.167 HD
ATOM     71  C   UNL A   1      41.281  33.658  31.562  1.00  0.00     0.074 A 
ATOM     72  C   UNL A   1      40.247  34.548  32.052  1.00  0.00     0.031 C 
ATOM     73  C   UNL A   1      42.611  33.882  31.709  1.00  0.00     0.034 A 
BRANCH  60  74
ATOM     74  C   UNL A   1      46.197  29.328  29.561  1.00  0.00     0.023 A 
ATOM     75  C   UNL A   1      46.789  28.579  30.599  1.00  0.00     0.012 A 
ATOM     76  C   UNL A   1      46.895  29.502  28.349  1.00  0.00     0.148 A 
ATOM     77  C   UNL A   1      48.068  28.042  30.446  1.00  0.00     0.002 A 
ATOM     78  C   UNL A   1      48.148  28.923  28.187  1.00  0.00     0.091 A 
ATOM     79  F   UNL A   1      46.325  30.236  27.384  1.00  0.00    -0.205 F 
ATOM     80  C   UNL A   1      48.741  28.205  29.238  1.00  0.00     0.022 A 
BRANCH  78  81
ATOM     81  S   UNL A   1      49.061  29.006  26.643  1.00  0.00     0.127 S 
ATOM     82  O   UNL A   1      48.033  28.632  25.672  1.00  0.00    -0.237 OA
ATOM     83  O   UNL A   1      49.459  30.413  26.597  1.00  0.00    -0.237 OA
ATOM     84  O   UNL A   1      50.164  28.064  26.775  1.00  0.00    -0.744 OA
ENDBRANCH  78  81
ENDBRANCH  60  74
BRANCH  61  85
ATOM     85  C   UNL A   1      36.777  32.473  30.823  1.00  0.00     0.023 A 
ATOM     86  C   UNL A   1      36.073  31.972  31.934  1.00  0.00     0.012 A 
ATOM     87  C   UNL A   1      36.147  33.402  29.971  1.00  0.00     0.148 A 
ATOM     88  C   UNL A   1      34.755  32.361  32.174  1.00  0.00     0.002 A 
ATOM     89  C   UNL A   1      34.854  33.828  30.249  1.00  0.00     0.091 A 
ATOM     90  F   UNL A   1      36.830  33.857  28.911  1.00  0.00    -0.205 F 
ATOM     91  C   UNL A   1      34.149  33.295  31.338  1.00  0.00     0.022 A 
BRANCH  89  92
ATOM     92  S   UNL A   1      34.044  35.125  29.306  1.00  0.00     0.127 S 
ATOM     93  O   UNL A   1      34.770  35.071  28.039  1.00  0.00    -0.237 OA
ATOM     94  O   UNL A   1      32.666  34.638  29.250  1.00  0.00    -0.237 OA
ATOM     95  O   UNL A   1      34.219  36.345  30.082  1.00  0.00    -0.744 OA
ENDBRANCH  89  92
ENDBRANCH  61  85
BRANCH  73  96
ATOM     96  C   UNL A   1      43.036  35.161  32.382  1.00  0.00     0.023 A 
ATOM     97  C   UNL A   1      43.109  35.232  33.787  1.00  0.00     0.012 A 
ATOM     98  C   UNL A   1      43.439  36.270  31.612  1.00  0.00     0.148 A 
ATOM     99  C   UNL A   1      43.542  36.398  34.416  1.00  0.00     0.002 A 
ATOM    100  C   UNL A   1      43.922  37.409  32.243  1.00  0.00     0.091 A 
ATOM    101  F   UNL A   1      43.349  36.188  30.277  1.00  0.00    -0.205 F 
ATOM    102  C   UNL A   1      43.960  37.481  33.645  1.00  0.00     0.022 A 
BRANCH 100 103
ATOM    103  S   UNL A   1      44.577  38.812  31.333  1.00  0.00     0.127 S 
ATOM    104  O   UNL A   1      43.461  39.139  30.446  1.00  0.00    -0.237 OA
ATOM    105  O   UNL A   1      44.816  39.787  32.398  1.00  0.00    -0.237 OA
ATOM    106  O   UNL A   1      45.782  38.335  30.668  1.00  0.00    -0.744 OA
ENDBRANCH 100 103
ENDBRANCH  73  96
ENDBRANCH  47  48
ENDBRANCH  40  42
ENDBRANCH  39  40
ENDBRANCH  38  39
ENDBRANCH  37  38
ENDBRANCH  36  37
ENDBRANCH  35  36
ENDBRANCH   1  35
TORSDOF 25
ENDMDL
MODEL 2
REMARK VINA RESULT:      -9.8      3.530      8.534
REMARK SMILES C[NH+]1CCC2(CC1)OC[C@@H](C(=O)OCCOCCOCCOCCOC(=O)c1ccc(-c3c4nc(c(-c5cccc(S(=O)(=O)[O-])c5F)c5ccc([nH]5)c(-c5cccc(S(=O)(=O)[O-])c5F)c5nc(c(-c6cccc(S(=O)(=O)[O-])c6F)c6ccc3[nH]6)C=C5)C=C4)cc1)N2C(=O)c1ccc2ccccc2c1
REMARK SMILES IDX 20 1 19 2 18 3 17 4 16 5 15 6 14 7 13 8 11 9 12 10 10 11
REMARK SMILES IDX 1 12 2 13 3 14 7 15 4 17 6 18 5 19 8 20 91 21 9 22 92 23
REMARK SMILES IDX 93 24 94 25 95 26 103 27 96 28 102 29 97 30 101 31 98 32
REMARK SMILES IDX 100 33 99 34 21 35 22 36 23 37 24 38 25 39 26 40 27 41 28 42
REMARK SMILES IDX 29 43 90 44 30 45 89 46 31 47 32 48 33 49 83 50 34 51 88 52
REMARK SMILES IDX 82 53 84 54 35 55 87 56 81 57 80 58 36 60 68 61 48 62 67 63
REMARK SMILES IDX 49 64 52 65 66 66 85 67 50 68 51 69 65 71 86 72 53 73 37 74
REMARK SMILES IDX 38 75 46 76 39 77 41 78 47 79 40 80 42 81 43 82 44 83 45 84
REMARK SMILES IDX 69 85 70 86 78 87 71 88 73 89 79 90 72 91 74 92 75 93 76 94
REMARK SMILES IDX 77 95 54 96 55 97 63 98 56 99 58 100 64 101 57 102 59 103
REMARK SMILES IDX 60 104 61 105 62 106
REMARK H PARENT 2 16 84 59 52 70
REMARK Flexibility Score: inf
ROOT
ATOM      1  C   UNL A   1      34.613  21.712  25.966  1.00  0.00     0.188 C 
ENDROOT
BRANCH   1   2
ATOM      2  O   UNL A   1      34.661  23.127  25.820  1.00  0.00    -0.377 OA
BRANCH   2   3
ATOM      3  C   UNL A   1      35.349  23.722  24.737  1.00  0.00     0.188 C 
BRANCH   3   4
ATOM      4  C   UNL A   1      34.391  24.358  23.727  1.00  0.00     0.188 C 
BRANCH   4   5
ATOM      5  O   UNL A   1      33.787  23.512  22.757  1.00  0.00    -0.376 OA
BRANCH   5   6
ATOM      6  C   UNL A   1      32.519  22.917  23.034  1.00  0.00     0.202 C 
BRANCH   6   7
ATOM      7  C   UNL A   1      31.525  23.616  23.988  1.00  0.00     0.261 C 
BRANCH   7   8
ATOM      8  O   UNL A   1      30.992  24.890  23.528  1.00  0.00    -0.462 OA
BRANCH   8   9
ATOM      9  C   UNL A   1      30.346  25.608  24.470  1.00  0.00     0.331 C 
ATOM     10  O   UNL A   1      30.071  25.145  25.584  1.00  0.00    -0.250 OA
BRANCH   9  11
ATOM     11  C   UNL A   1      29.900  27.047  24.137  1.00  0.00     0.224 C 
ATOM     12  C   UNL A   1      28.335  32.928  22.008  1.00  0.00     0.332 C 
ATOM     13  N   UNL A   1      29.134  31.735  22.196  1.00  0.00    -0.337 N 
ATOM     14  C   UNL A   1      29.364  31.336  23.568  1.00  0.00     0.267 C 
ATOM     15  C   UNL A   1      28.956  30.728  21.161  1.00  0.00     0.267 C 
ATOM     16  H   UNL A   1      30.097  32.005  21.996  1.00  0.00     0.347 HD
ATOM     17  C   UNL A   1      28.747  30.019  23.978  1.00  0.00     0.120 C 
ATOM     18  C   UNL A   1      28.525  29.329  21.571  1.00  0.00     0.120 C 
ATOM     19  C   UNL A   1      28.938  28.876  22.964  1.00  0.00     0.155 C 
ATOM     20  O   UNL A   1      27.867  27.965  23.337  1.00  0.00    -0.352 OA
ATOM     21  N   UNL A   1      30.190  28.086  23.124  1.00  0.00    -0.293 N 
ATOM     22  C   UNL A   1      28.424  26.786  23.879  1.00  0.00     0.200 C 
BRANCH  21  23
ATOM     23  C   UNL A   1      31.418  28.774  23.166  1.00  0.00     0.256 C 
ATOM     24  O   UNL A   1      31.927  29.255  22.155  1.00  0.00    -0.269 OA
BRANCH  23  25
ATOM     25  C   UNL A   1      32.215  28.797  24.438  1.00  0.00     0.040 A 
ATOM     26  C   UNL A   1      33.176  27.829  24.723  1.00  0.00     0.014 A 
ATOM     27  C   UNL A   1      32.044  29.871  25.336  1.00  0.00     0.022 A 
ATOM     28  C   UNL A   1      34.059  28.019  25.801  1.00  0.00     0.009 A 
ATOM     29  C   UNL A   1      32.980  30.124  26.363  1.00  0.00    -0.018 A 
ATOM     30  C   UNL A   1      34.024  29.198  26.577  1.00  0.00    -0.018 A 
ATOM     31  C   UNL A   1      32.961  31.318  27.115  1.00  0.00     0.009 A 
ATOM     32  C   UNL A   1      35.037  29.508  27.505  1.00  0.00     0.009 A 
ATOM     33  C   UNL A   1      33.982  31.616  28.023  1.00  0.00     0.001 A 
ATOM     34  C   UNL A   1      35.026  30.716  28.208  1.00  0.00     0.001 A 
ENDBRANCH  23  25
ENDBRANCH  21  23
ENDBRANCH   9  11
ENDBRANCH   8   9
ENDBRANCH   7   8
ENDBRANCH   6   7
ENDBRANCH   5   6
ENDBRANCH   4   5
ENDBRANCH   3   4
ENDBRANCH   2   3
ENDBRANCH   1   2
BRANCH   1  35
ATOM     35  C   UNL A   1      35.422  20.870  24.977  1.00  0.00     0.188 C 
BRANCH  35  36
ATOM     36  O   UNL A   1      36.845  21.020  25.004  1.00  0.00    -0.376 OA
BRANCH  36  37
ATOM     37  C   UNL A   1      37.632  19.867  25.300  1.00  0.00     0.202 C 
BRANCH  37  38
ATOM     38  C   UNL A   1      39.123  19.987  24.976  1.00  0.00     0.261 C 
BRANCH  38  39
ATOM     39  O   UNL A   1      39.925  20.280  26.131  1.00  0.00    -0.460 OA
BRANCH  39  40
ATOM     40  C   UNL A   1      41.197  19.816  26.079  1.00  0.00     0.338 C 
ATOM     41  O   UNL A   1      41.569  18.713  25.724  1.00  0.00    -0.246 OA
BRANCH  40  42
ATOM     42  C   UNL A   1      42.130  20.914  26.389  1.00  0.00     0.060 A 
ATOM     43  C   UNL A   1      42.309  21.279  27.729  1.00  0.00     0.016 A 
ATOM     44  C   UNL A   1      42.738  21.641  25.364  1.00  0.00     0.016 A 
ATOM     45  C   UNL A   1      43.058  22.408  28.050  1.00  0.00     0.010 A 
ATOM     46  C   UNL A   1      43.474  22.782  25.685  1.00  0.00     0.010 A 
ATOM     47  C   UNL A   1      43.598  23.192  27.025  1.00  0.00    -0.014 A 
BRANCH  47  48
ATOM     48  C   UNL A   1      44.136  24.534  27.337  1.00  0.00     0.031 A 
ATOM     49  C   UNL A   1      43.197  25.580  27.869  1.00  0.00     0.074 A 
ATOM     50  C   UNL A   1      45.436  24.815  27.140  1.00  0.00     0.049 A 
ATOM     51  N   UNL A   1      43.425  26.837  28.138  1.00  0.00    -0.248 NA
ATOM     52  C   UNL A   1      41.810  25.151  28.124  1.00  0.00     0.031 C 
ATOM     53  C   UNL A   1      46.438  23.871  26.647  1.00  0.00     0.029 A 
ATOM     54  N   UNL A   1      46.126  25.988  27.304  1.00  0.00    -0.354 N 
ATOM     55  C   UNL A   1      42.207  27.360  28.558  1.00  0.00     0.074 A 
ATOM     56  C   UNL A   1      41.241  26.286  28.501  1.00  0.00     0.031 C 
ATOM     57  C   UNL A   1      47.610  24.514  26.512  1.00  0.00     0.029 A 
ATOM     58  C   UNL A   1      47.431  25.918  26.878  1.00  0.00     0.049 A 
ATOM     59  H   UNL A   1      45.726  26.801  27.688  1.00  0.00     0.167 HD
ATOM     60  C   UNL A   1      41.923  28.620  28.963  1.00  0.00     0.034 A 
ATOM     61  C   UNL A   1      48.360  26.886  26.764  1.00  0.00     0.034 A 
ATOM     62  C   UNL A   1      42.895  29.676  29.030  1.00  0.00     0.049 A 
ATOM     63  C   UNL A   1      48.010  28.288  27.192  1.00  0.00     0.074 A 
ATOM     64  C   UNL A   1      42.724  30.976  29.470  1.00  0.00     0.029 A 
ATOM     65  N   UNL A   1      44.218  29.559  28.631  1.00  0.00    -0.354 N 
ATOM     66  N   UNL A   1      46.884  28.745  27.684  1.00  0.00    -0.248 NA
ATOM     67  C   UNL A   1      49.069  29.301  27.076  1.00  0.00     0.031 C 
ATOM     68  C   UNL A   1      43.934  31.656  29.299  1.00  0.00     0.029 A 
ATOM     69  C   UNL A   1      44.871  30.767  28.797  1.00  0.00     0.049 A 
ATOM     70  H   UNL A   1      44.632  28.738  28.280  1.00  0.00     0.167 HD
ATOM     71  C   UNL A   1      47.110  30.087  27.975  1.00  0.00     0.074 A 
ATOM     72  C   UNL A   1      48.487  30.362  27.618  1.00  0.00     0.031 C 
ATOM     73  C   UNL A   1      46.256  31.010  28.482  1.00  0.00     0.034 A 
BRANCH  60  74
ATOM     74  C   UNL A   1      40.505  28.924  29.368  1.00  0.00     0.023 A 
ATOM     75  C   UNL A   1      39.553  29.278  28.390  1.00  0.00     0.012 A 
ATOM     76  C   UNL A   1      40.103  28.806  30.714  1.00  0.00     0.148 A 
ATOM     77  C   UNL A   1      38.231  29.544  28.750  1.00  0.00     0.002 A 
ATOM     78  C   UNL A   1      38.774  29.025  31.057  1.00  0.00     0.091 A 
ATOM     79  F   UNL A   1      41.027  28.491  31.631  1.00  0.00    -0.205 F 
ATOM     80  C   UNL A   1      37.840  29.406  30.079  1.00  0.00     0.022 A 
BRANCH  78  81
ATOM     81  S   UNL A   1      38.154  28.796  32.726  1.00  0.00     0.127 S 
ATOM     82  O   UNL A   1      38.312  27.352  32.904  1.00  0.00    -0.237 OA
ATOM     83  O   UNL A   1      39.079  29.611  33.512  1.00  0.00    -0.237 OA
ATOM     84  O   UNL A   1      36.778  29.274  32.715  1.00  0.00    -0.744 OA
ENDBRANCH  78  81
ENDBRANCH  60  74
BRANCH  61  85
ATOM     85  C   UNL A   1      49.716  26.561  26.239  1.00  0.00     0.023 A 
ATOM     86  C   UNL A   1      50.596  25.782  27.013  1.00  0.00     0.012 A 
ATOM     87  C   UNL A   1      50.129  27.008  24.968  1.00  0.00     0.148 A 
ATOM     88  C   UNL A   1      51.877  25.483  26.547  1.00  0.00     0.002 A 
ATOM     89  C   UNL A   1      51.383  26.658  24.486  1.00  0.00     0.091 A 
ATOM     90  F   UNL A   1      49.280  27.759  24.252  1.00  0.00    -0.205 F 
ATOM     91  C   UNL A   1      52.267  25.912  25.281  1.00  0.00     0.022 A 
BRANCH  89  92
ATOM     92  S   UNL A   1      51.919  27.054  22.818  1.00  0.00     0.127 S 
ATOM     93  O   UNL A   1      52.297  28.459  22.950  1.00  0.00    -0.237 OA
ATOM     94  O   UNL A   1      53.037  26.128  22.634  1.00  0.00    -0.237 OA
ATOM     95  O   UNL A   1      50.771  26.787  21.962  1.00  0.00    -0.744 OA
ENDBRANCH  89  92
ENDBRANCH  61  85
BRANCH  73  96
ATOM     96  C   UNL A   1      46.791  32.396  28.734  1.00  0.00     0.023 A 
ATOM     97  C   UNL A   1      47.522  32.671  29.907  1.00  0.00     0.012 A 
ATOM     98  C   UNL A   1      46.635  33.406  27.764  1.00  0.00     0.148 A 
ATOM     99  C   UNL A   1      48.057  33.939  30.127  1.00  0.00     0.002 A 
ATOM    100  C   UNL A   1      47.218  34.651  27.965  1.00  0.00     0.091 A 
ATOM    101  F   UNL A   1      45.925  33.129  26.662  1.00  0.00    -0.205 F 
ATOM    102  C   UNL A   1      47.916  34.924  29.152  1.00  0.00     0.022 A 
BRANCH 100 103
ATOM    103  S   UNL A   1      47.176  35.947  26.722  1.00  0.00     0.127 S 
ATOM    104  O   UNL A   1      47.092  37.150  27.549  1.00  0.00    -0.237 OA
ATOM    105  O   UNL A   1      48.457  35.763  26.040  1.00  0.00    -0.237 OA
ATOM    106  O   UNL A   1      46.006  35.676  25.896  1.00  0.00    -0.744 OA
ENDBRANCH 100 103
ENDBRANCH  73  96
ENDBRANCH  47  48
ENDBRANCH  40  42
ENDBRANCH  39  40
ENDBRANCH  38  39
ENDBRANCH  37  38
ENDBRANCH  36  37
ENDBRANCH  35  36
ENDBRANCH   1  35
TORSDOF 25
ENDMDL
MODEL 3
REMARK VINA RESULT:      -9.4      1.985      3.928
REMARK SMILES C[NH+]1CCC2(CC1)OC[C@@H](C(=O)OCCOCCOCCOCCOC(=O)c1ccc(-c3c4nc(c(-c5cccc(S(=O)(=O)[O-])c5F)c5ccc([nH]5)c(-c5cccc(S(=O)(=O)[O-])c5F)c5nc(c(-c6cccc(S(=O)(=O)[O-])c6F)c6ccc3[nH]6)C=C5)C=C4)cc1)N2C(=O)c1ccc2ccccc2c1
REMARK SMILES IDX 20 1 19 2 18 3 17 4 16 5 15 6 14 7 13 8 11 9 12 10 10 11
REMARK SMILES IDX 1 12 2 13 3 14 7 15 4 17 6 18 5 19 8 20 91 21 9 22 92 23
REMARK SMILES IDX 93 24 94 25 95 26 103 27 96 28 102 29 97 30 101 31 98 32
REMARK SMILES IDX 100 33 99 34 21 35 22 36 23 37 24 38 25 39 26 40 27 41 28 42
REMARK SMILES IDX 29 43 90 44 30 45 89 46 31 47 32 48 33 49 83 50 34 51 88 52
REMARK SMILES IDX 82 53 84 54 35 55 87 56 81 57 80 58 36 60 68 61 48 62 67 63
REMARK SMILES IDX 49 64 52 65 66 66 85 67 50 68 51 69 65 71 86 72 53 73 37 74
REMARK SMILES IDX 38 75 46 76 39 77 41 78 47 79 40 80 42 81 43 82 44 83 45 84
REMARK SMILES IDX 69 85 70 86 78 87 71 88 73 89 79 90 72 91 74 92 75 93 76 94
REMARK SMILES IDX 77 95 54 96 55 97 63 98 56 99 58 100 64 101 57 102 59 103
REMARK SMILES IDX 60 104 61 105 62 106
REMARK H PARENT 2 16 84 59 52 70
REMARK Flexibility Score: inf
ROOT
ATOM      1  C   UNL A   1      36.965  23.131  24.186  1.00  0.00     0.188 C 
ENDROOT
BRANCH   1   2
ATOM      2  O   UNL A   1      35.780  23.866  23.900  1.00  0.00    -0.377 OA
BRANCH   2   3
ATOM      3  C   UNL A   1      34.772  23.325  23.068  1.00  0.00     0.188 C 
BRANCH   3   4
ATOM      4  C   UNL A   1      33.664  24.339  22.773  1.00  0.00     0.188 C 
BRANCH   4   5
ATOM      5  O   UNL A   1      33.236  24.485  21.425  1.00  0.00    -0.376 OA
BRANCH   5   6
ATOM      6  C   UNL A   1      32.205  25.423  21.112  1.00  0.00     0.202 C 
BRANCH   6   7
ATOM      7  C   UNL A   1      31.552  26.261  22.233  1.00  0.00     0.261 C 
BRANCH   7   8
ATOM      8  O   UNL A   1      30.360  27.006  21.857  1.00  0.00    -0.462 OA
BRANCH   8   9
ATOM      9  C   UNL A   1      29.843  27.780  22.835  1.00  0.00     0.331 C 
ATOM     10  O   UNL A   1      28.651  28.110  22.858  1.00  0.00    -0.250 OA
BRANCH   9  11
ATOM     11  C   UNL A   1      30.776  28.303  23.946  1.00  0.00     0.224 C 
ATOM     12  C   UNL A   1      35.073  29.793  28.516  1.00  0.00     0.332 C 
ATOM     13  N   UNL A   1      34.148  28.980  27.755  1.00  0.00    -0.337 N 
ATOM     14  C   UNL A   1      32.810  29.511  27.608  1.00  0.00     0.267 C 
ATOM     15  C   UNL A   1      34.762  28.236  26.666  1.00  0.00     0.267 C 
ATOM     16  H   UNL A   1      33.892  28.200  28.360  1.00  0.00     0.347 HD
ATOM     17  C   UNL A   1      32.401  29.875  26.200  1.00  0.00     0.120 C 
ATOM     18  C   UNL A   1      34.233  28.436  25.256  1.00  0.00     0.120 C 
ATOM     19  C   UNL A   1      32.767  28.826  25.133  1.00  0.00     0.155 C 
ATOM     20  O   UNL A   1      32.747  29.620  23.915  1.00  0.00    -0.352 OA
ATOM     21  N   UNL A   1      31.752  27.759  24.915  1.00  0.00    -0.293 N 
ATOM     22  C   UNL A   1      31.667  29.205  23.105  1.00  0.00     0.200 C 
BRANCH  21  23
ATOM     23  C   UNL A   1      31.293  27.031  26.030  1.00  0.00     0.256 C 
ATOM     24  O   UNL A   1      30.929  27.589  27.064  1.00  0.00    -0.269 OA
BRANCH  23  25
ATOM     25  C   UNL A   1      31.388  25.532  26.031  1.00  0.00     0.040 A 
ATOM     26  C   UNL A   1      30.542  24.740  25.257  1.00  0.00     0.014 A 
ATOM     27  C   UNL A   1      32.412  24.910  26.774  1.00  0.00     0.022 A 
ATOM     28  C   UNL A   1      30.817  23.369  25.104  1.00  0.00     0.009 A 
ATOM     29  C   UNL A   1      32.758  23.558  26.557  1.00  0.00    -0.018 A 
ATOM     30  C   UNL A   1      31.965  22.785  25.681  1.00  0.00    -0.018 A 
ATOM     31  C   UNL A   1      33.923  22.986  27.109  1.00  0.00     0.009 A 
ATOM     32  C   UNL A   1      32.380  21.479  25.353  1.00  0.00     0.009 A 
ATOM     33  C   UNL A   1      34.327  21.693  26.762  1.00  0.00     0.001 A 
ATOM     34  C   UNL A   1      33.562  20.945  25.875  1.00  0.00     0.001 A 
ENDBRANCH  23  25
ENDBRANCH  21  23
ENDBRANCH   9  11
ENDBRANCH   8   9
ENDBRANCH   7   8
ENDBRANCH   6   7
ENDBRANCH   5   6
ENDBRANCH   4   5
ENDBRANCH   3   4
ENDBRANCH   2   3
ENDBRANCH   1   2
BRANCH   1  35
ATOM     35  C   UNL A   1      36.857  21.606  24.238  1.00  0.00     0.188 C 
BRANCH  35  36
ATOM     36  O   UNL A   1      37.776  20.916  25.092  1.00  0.00    -0.376 OA
BRANCH  36  37
ATOM     37  C   UNL A   1      38.744  21.692  25.797  1.00  0.00     0.202 C 
BRANCH  37  38
ATOM     38  C   UNL A   1      40.034  20.958  26.166  1.00  0.00     0.261 C 
BRANCH  38  39
ATOM     39  O   UNL A   1      40.909  21.742  26.993  1.00  0.00    -0.460 OA
BRANCH  39  40
ATOM     40  C   UNL A   1      41.703  22.613  26.324  1.00  0.00     0.338 C 
ATOM     41  O   UNL A   1      42.390  22.387  25.346  1.00  0.00    -0.246 OA
BRANCH  40  42
ATOM     42  C   UNL A   1      41.511  23.968  26.873  1.00  0.00     0.060 A 
ATOM     43  C   UNL A   1      41.293  25.024  25.979  1.00  0.00     0.016 A 
ATOM     44  C   UNL A   1      41.646  24.208  28.242  1.00  0.00     0.016 A 
ATOM     45  C   UNL A   1      41.263  26.336  26.445  1.00  0.00     0.010 A 
ATOM     46  C   UNL A   1      41.634  25.523  28.705  1.00  0.00     0.010 A 
ATOM     47  C   UNL A   1      41.486  26.592  27.802  1.00  0.00    -0.014 A 
BRANCH  47  48
ATOM     48  C   UNL A   1      41.746  27.976  28.252  1.00  0.00     0.031 A 
ATOM     49  C   UNL A   1      43.167  28.467  28.285  1.00  0.00     0.074 A 
ATOM     50  C   UNL A   1      40.735  28.775  28.633  1.00  0.00     0.049 A 
ATOM     51  N   UNL A   1      43.639  29.608  28.712  1.00  0.00    -0.248 NA
ATOM     52  C   UNL A   1      44.194  27.543  27.773  1.00  0.00     0.031 C 
ATOM     53  C   UNL A   1      39.320  28.408  28.623  1.00  0.00     0.029 A 
ATOM     54  N   UNL A   1      40.751  30.052  29.132  1.00  0.00    -0.354 N 
ATOM     55  C   UNL A   1      45.018  29.526  28.557  1.00  0.00     0.074 A 
ATOM     56  C   UNL A   1      45.308  28.223  28.004  1.00  0.00     0.031 C 
ATOM     57  C   UNL A   1      38.604  29.426  29.130  1.00  0.00     0.029 A 
ATOM     58  C   UNL A   1      39.513  30.499  29.529  1.00  0.00     0.049 A 
ATOM     59  H   UNL A   1      41.569  30.596  29.200  1.00  0.00     0.167 HD
ATOM     60  C   UNL A   1      45.957  30.459  28.843  1.00  0.00     0.034 A 
ATOM     61  C   UNL A   1      39.164  31.630  30.172  1.00  0.00     0.034 A 
ATOM     62  C   UNL A   1      45.655  31.758  29.379  1.00  0.00     0.049 A 
ATOM     63  C   UNL A   1      40.231  32.639  30.508  1.00  0.00     0.074 A 
ATOM     64  C   UNL A   1      46.525  32.796  29.661  1.00  0.00     0.029 A 
ATOM     65  N   UNL A   1      44.386  32.193  29.730  1.00  0.00    -0.354 N 
ATOM     66  N   UNL A   1      41.518  32.593  30.263  1.00  0.00    -0.248 NA
ATOM     67  C   UNL A   1      39.793  33.869  31.183  1.00  0.00     0.031 C 
ATOM     68  C   UNL A   1      45.787  33.843  30.220  1.00  0.00     0.029 A 
ATOM     69  C   UNL A   1      44.451  33.476  30.242  1.00  0.00     0.049 A 
ATOM     70  H   UNL A   1      43.561  31.667  29.630  1.00  0.00     0.167 HD
ATOM     71  C   UNL A   1      42.038  33.802  30.714  1.00  0.00     0.074 A 
ATOM     72  C   UNL A   1      40.920  34.565  31.234  1.00  0.00     0.031 C 
ATOM     73  C   UNL A   1      43.322  34.240  30.709  1.00  0.00     0.034 A 
BRANCH  60  74
ATOM     74  C   UNL A   1      47.397  30.109  28.577  1.00  0.00     0.023 A 
ATOM     75  C   UNL A   1      47.996  30.470  27.353  1.00  0.00     0.012 A 
ATOM     76  C   UNL A   1      48.173  29.470  29.564  1.00  0.00     0.148 A 
ATOM     77  C   UNL A   1      49.335  30.169  27.102  1.00  0.00     0.002 A 
ATOM     78  C   UNL A   1      49.519  29.217  29.325  1.00  0.00     0.091 A 
ATOM     79  F   UNL A   1      47.580  29.115  30.712  1.00  0.00    -0.205 F 
ATOM     80  C   UNL A   1      50.097  29.554  28.091  1.00  0.00     0.022 A 
BRANCH  78  81
ATOM     81  S   UNL A   1      50.605  28.503  30.564  1.00  0.00     0.127 S 
ATOM     82  O   UNL A   1      50.374  29.388  31.706  1.00  0.00    -0.237 OA
ATOM     83  O   UNL A   1      50.054  27.156  30.715  1.00  0.00    -0.237 OA
ATOM     84  O   UNL A   1      51.948  28.553  30.000  1.00  0.00    -0.744 OA
ENDBRANCH  78  81
ENDBRANCH  60  74
BRANCH  61  85
ATOM     85  C   UNL A   1      37.738  31.876  30.526  1.00  0.00     0.023 A 
ATOM     86  C   UNL A   1      37.223  31.377  31.738  1.00  0.00     0.012 A 
ATOM     87  C   UNL A   1      36.895  32.615  29.673  1.00  0.00     0.148 A 
ATOM     88  C   UNL A   1      35.885  31.580  32.078  1.00  0.00     0.002 A 
ATOM     89  C   UNL A   1      35.580  32.862  30.044  1.00  0.00     0.091 A 
ATOM     90  F   UNL A   1      37.401  33.069  28.518  1.00  0.00    -0.205 F 
ATOM     91  C   UNL A   1      35.066  32.329  31.237  1.00  0.00     0.022 A 
BRANCH  89  92
ATOM     92  S   UNL A   1      34.492  33.926  29.089  1.00  0.00     0.127 S 
ATOM     93  O   UNL A   1      35.387  35.024  28.732  1.00  0.00    -0.237 OA
ATOM     94  O   UNL A   1      34.114  33.050  27.980  1.00  0.00    -0.237 OA
ATOM     95  O   UNL A   1      33.395  34.272  29.982  1.00  0.00    -0.744 OA
ENDBRANCH  89  92
ENDBRANCH  61  85
BRANCH  73  96
ATOM     96  C   UNL A   1      43.591  35.627  31.233  1.00  0.00     0.023 A 
ATOM     97  C   UNL A   1      43.878  35.825  32.598  1.00  0.00     0.012 A 
ATOM     98  C   UNL A   1      43.637  36.724  30.350  1.00  0.00     0.148 A 
ATOM     99  C   UNL A   1      44.170  37.099  33.082  1.00  0.00     0.002 A 
ATOM    100  C   UNL A   1      43.983  37.981  30.830  1.00  0.00     0.091 A 
ATOM    101  F   UNL A   1      43.348  36.517  29.057  1.00  0.00    -0.205 F 
ATOM    102  C   UNL A   1      44.235  38.173  32.197  1.00  0.00     0.022 A 
BRANCH 100 103
ATOM    103  S   UNL A   1      44.191  39.402  29.751  1.00  0.00     0.127 S 
ATOM    104  O   UNL A   1      43.160  39.164  28.742  1.00  0.00    -0.237 OA
ATOM    105  O   UNL A   1      43.915  40.519  30.654  1.00  0.00    -0.237 OA
ATOM    106  O   UNL A   1      45.564  39.341  29.265  1.00  0.00    -0.744 OA
ENDBRANCH 100 103
ENDBRANCH  73  96
ENDBRANCH  47  48
ENDBRANCH  40  42
ENDBRANCH  39  40
ENDBRANCH  38  39
ENDBRANCH  37  38
ENDBRANCH  36  37
ENDBRANCH  35  36
ENDBRANCH   1  35
TORSDOF 25
ENDMDL
