MODEL 1
REMARK VINA RESULT:     -10.4      0.000      0.000
REMARK SMILES COC(=O)c1ccc2c(c1)=N[C@H](c1cn(CCC(=O)OCCOCCOCCOCCOC(=O)c3ccc(-c4c5nc(c(-c6cccc(S(=O)(=O)[O-])c6F)c6ccc([nH]6)c(-c6cccc(S(=O)(=O)[O-])c6F)c6nc(c(-c7cccc(S(=O)(=O)[O-])c7F)c7ccc4[nH]7)C=C6)C=C5)cc3)c3ccccc13)N=2
REMARK SMILES IDX 25 1 24 2 23 3 22 4 21 5 20 6 18 7 19 8 17 9 16 10 15 11
REMARK SMILES IDX 13 12 14 13 103 14 98 15 102 16 99 17 101 18 100 19 12 20
REMARK SMILES IDX 5 21 6 22 10 23 7 24 9 25 8 26 11 27 104 28 3 29 4 30 2 31
REMARK SMILES IDX 1 32 26 33 27 34 28 35 29 36 30 37 31 38 32 39 33 40 34 41
REMARK SMILES IDX 35 42 36 43 97 44 37 45 96 46 38 47 39 48 40 49 90 50 41 51
REMARK SMILES IDX 95 52 89 53 91 54 42 55 94 56 88 57 87 58 43 60 75 61 55 62
REMARK SMILES IDX 74 63 56 64 59 65 73 66 92 67 57 68 58 69 72 71 93 72 60 73
REMARK SMILES IDX 44 74 45 75 53 76 46 77 48 78 54 79 47 80 49 81 50 82 51 83
REMARK SMILES IDX 52 84 76 85 77 86 85 87 78 88 80 89 86 90 79 91 81 92 82 93
REMARK SMILES IDX 83 94 84 95 61 96 62 97 70 98 63 99 65 100 71 101 64 102
REMARK SMILES IDX 66 103 67 104 68 105 69 106
REMARK H PARENT 91 59 59 70
REMARK Flexibility Score: inf
ROOT
ATOM      1  C   UNL A   1      35.095  31.869  27.438  1.00  0.00     0.188 C 
ENDROOT
BRANCH   1   2
ATOM      2  C   UNL A   1      34.817  30.445  27.936  1.00  0.00     0.188 C 
BRANCH   2   3
ATOM      3  O   UNL A   1      33.537  29.864  27.829  1.00  0.00    -0.376 OA
BRANCH   3   4
ATOM      4  C   UNL A   1      33.054  29.120  26.722  1.00  0.00     0.202 C 
BRANCH   4   5
ATOM      5  C   UNL A   1      31.721  29.389  26.014  1.00  0.00     0.261 C 
BRANCH   5   6
ATOM      6  O   UNL A   1      31.704  29.307  24.573  1.00  0.00    -0.463 OA
BRANCH   6   7
ATOM      7  C   UNL A   1      30.523  29.633  23.990  1.00  0.00     0.307 C 
ATOM      8  O   UNL A   1      29.941  30.699  24.188  1.00  0.00    -0.252 OA
BRANCH   7   9
ATOM      9  C   UNL A   1      29.892  28.591  23.080  1.00  0.00     0.144 C 
BRANCH   9  10
ATOM     10  C   UNL A   1      29.219  27.305  23.572  1.00  0.00     0.134 C 
BRANCH  10  11
ATOM     11  N   UNL A   1      30.139  26.318  24.086  1.00  0.00    -0.346 N 
ATOM     12  C   UNL A   1      31.417  25.242  25.499  1.00  0.00     0.024 A 
ATOM     13  C   UNL A   1      30.112  25.711  25.318  1.00  0.00     0.094 A 
ATOM     14  C   UNL A   1      32.192  25.975  24.509  1.00  0.00     0.007 A 
ATOM     15  C   UNL A   1      31.262  25.828  23.475  1.00  0.00     0.048 A 
ATOM     16  C   UNL A   1      33.543  25.925  24.139  1.00  0.00     0.011 A 
ATOM     17  C   UNL A   1      31.495  24.877  22.482  1.00  0.00     0.027 A 
ATOM     18  C   UNL A   1      33.848  25.023  23.127  1.00  0.00     0.001 A 
ATOM     19  C   UNL A   1      32.810  24.401  22.431  1.00  0.00     0.002 A 
BRANCH  12  20
ATOM     20  C   UNL A   1      31.845  24.069  26.348  1.00  0.00     0.255 C 
ATOM     21  C   UNL A   1      33.304  20.005  24.931  1.00  0.00     0.062 A 
ATOM     22  C   UNL A   1      34.586  20.642  25.214  1.00  0.00     0.018 A 
ATOM     23  C   UNL A   1      32.140  20.675  25.016  1.00  0.00     0.046 A 
ATOM     24  C   UNL A   1      34.701  21.915  25.627  1.00  0.00     0.031 A 
ATOM     25  C   UNL A   1      32.171  22.056  25.528  1.00  0.00     0.087 A 
ATOM     26  C   UNL A   1      33.467  22.683  25.849  1.00  0.00     0.086 A 
ATOM     27  N   UNL A   1      31.177  22.821  25.823  1.00  0.00    -0.252 NA
ATOM     28  N   UNL A   1      33.321  23.854  26.357  1.00  0.00    -0.252 NA
BRANCH  21  29
ATOM     29  C   UNL A   1      33.213  18.560  24.550  1.00  0.00     0.337 C 
ATOM     30  O   UNL A   1      33.814  18.052  23.616  1.00  0.00    -0.246 OA
BRANCH  29  31
ATOM     31  O   UNL A   1      32.304  17.929  25.341  1.00  0.00    -0.465 OA
ATOM     32  C   UNL A   1      32.683  16.618  25.769  1.00  0.00     0.282 C 
ENDBRANCH  29  31
ENDBRANCH  21  29
ENDBRANCH  12  20
ENDBRANCH  10  11
ENDBRANCH   9  10
ENDBRANCH   7   9
ENDBRANCH   6   7
ENDBRANCH   5   6
ENDBRANCH   4   5
ENDBRANCH   3   4
ENDBRANCH   2   3
ENDBRANCH   1   2
BRANCH   1  33
ATOM     33  O   UNL A   1      35.048  33.021  28.248  1.00  0.00    -0.377 OA
BRANCH  33  34
ATOM     34  C   UNL A   1      33.763  33.448  28.646  1.00  0.00     0.188 C 
BRANCH  34  35
ATOM     35  C   UNL A   1      33.853  34.762  29.415  1.00  0.00     0.188 C 
BRANCH  35  36
ATOM     36  O   UNL A   1      33.441  34.764  30.773  1.00  0.00    -0.376 OA
BRANCH  36  37
ATOM     37  C   UNL A   1      34.241  35.353  31.787  1.00  0.00     0.202 C 
BRANCH  37  38
ATOM     38  C   UNL A   1      35.516  34.714  32.388  1.00  0.00     0.261 C 
BRANCH  38  39
ATOM     39  O   UNL A   1      36.225  33.779  31.574  1.00  0.00    -0.460 OA
BRANCH  39  40
ATOM     40  C   UNL A   1      35.959  32.450  31.669  1.00  0.00     0.338 C 
ATOM     41  O   UNL A   1      34.927  31.933  31.998  1.00  0.00    -0.246 OA
BRANCH  40  42
ATOM     42  C   UNL A   1      37.135  31.790  31.021  1.00  0.00     0.060 A 
ATOM     43  C   UNL A   1      37.059  30.458  30.635  1.00  0.00     0.016 A 
ATOM     44  C   UNL A   1      38.388  32.415  31.109  1.00  0.00     0.016 A 
ATOM     45  C   UNL A   1      38.238  29.731  30.487  1.00  0.00     0.010 A 
ATOM     46  C   UNL A   1      39.571  31.666  30.969  1.00  0.00     0.010 A 
ATOM     47  C   UNL A   1      39.507  30.300  30.709  1.00  0.00    -0.014 A 
BRANCH  47  48
ATOM     48  C   UNL A   1      40.673  29.421  30.443  1.00  0.00     0.031 A 
ATOM     49  C   UNL A   1      41.356  29.004  31.705  1.00  0.00     0.074 A 
ATOM     50  C   UNL A   1      41.119  28.896  29.275  1.00  0.00     0.049 A 
ATOM     51  N   UNL A   1      42.558  29.290  32.098  1.00  0.00    -0.248 NA
ATOM     52  C   UNL A   1      40.525  28.343  32.724  1.00  0.00     0.031 C 
ATOM     53  C   UNL A   1      40.463  28.945  27.969  1.00  0.00     0.029 A 
ATOM     54  N   UNL A   1      42.217  28.093  29.034  1.00  0.00    -0.354 N 
ATOM     55  C   UNL A   1      42.699  28.634  33.318  1.00  0.00     0.074 A 
ATOM     56  C   UNL A   1      41.381  28.234  33.738  1.00  0.00     0.031 C 
ATOM     57  C   UNL A   1      41.013  28.008  27.159  1.00  0.00     0.029 A 
ATOM     58  C   UNL A   1      42.145  27.391  27.829  1.00  0.00     0.049 A 
ATOM     59  H   UNL A   1      42.978  28.022  29.653  1.00  0.00     0.167 HD
ATOM     60  C   UNL A   1      43.905  28.194  33.761  1.00  0.00     0.034 A 
ATOM     61  C   UNL A   1      42.915  26.341  27.436  1.00  0.00     0.034 A 
ATOM     62  C   UNL A   1      45.009  28.768  33.057  1.00  0.00     0.049 A 
ATOM     63  C   UNL A   1      44.197  26.397  28.168  1.00  0.00     0.074 A 
ATOM     64  C   UNL A   1      45.762  29.918  33.086  1.00  0.00     0.029 A 
ATOM     65  N   UNL A   1      45.290  28.120  31.890  1.00  0.00    -0.354 N 
ATOM     66  N   UNL A   1      45.108  27.308  27.977  1.00  0.00    -0.248 NA
ATOM     67  C   UNL A   1      44.425  25.494  29.294  1.00  0.00     0.031 C 
ATOM     68  C   UNL A   1      46.448  29.983  31.836  1.00  0.00     0.029 A 
ATOM     69  C   UNL A   1      46.101  28.865  31.083  1.00  0.00     0.049 A 
ATOM     70  H   UNL A   1      44.951  27.226  31.658  1.00  0.00     0.167 HD
ATOM     71  C   UNL A   1      45.782  27.351  29.178  1.00  0.00     0.074 A 
ATOM     72  C   UNL A   1      45.456  26.113  29.868  1.00  0.00     0.031 C 
ATOM     73  C   UNL A   1      46.218  28.533  29.685  1.00  0.00     0.034 A 
BRANCH  60  74
ATOM     74  C   UNL A   1      44.065  26.879  34.485  1.00  0.00     0.023 A 
ATOM     75  C   UNL A   1      43.648  25.695  33.847  1.00  0.00     0.012 A 
ATOM     76  C   UNL A   1      44.349  26.801  35.869  1.00  0.00     0.148 A 
ATOM     77  C   UNL A   1      43.555  24.485  34.548  1.00  0.00     0.002 A 
ATOM     78  C   UNL A   1      44.343  25.586  36.538  1.00  0.00     0.091 A 
ATOM     79  F   UNL A   1      44.486  27.928  36.577  1.00  0.00    -0.205 F 
ATOM     80  C   UNL A   1      43.929  24.424  35.887  1.00  0.00     0.022 A 
BRANCH  78  81
ATOM     81  S   UNL A   1      44.870  25.462  38.250  1.00  0.00     0.127 S 
ATOM     82  O   UNL A   1      43.813  26.196  38.936  1.00  0.00    -0.237 OA
ATOM     83  O   UNL A   1      44.863  24.014  38.460  1.00  0.00    -0.237 OA
ATOM     84  O   UNL A   1      46.200  26.060  38.283  1.00  0.00    -0.744 OA
ENDBRANCH  78  81
ENDBRANCH  60  74
BRANCH  61  85
ATOM     85  C   UNL A   1      42.623  25.154  26.578  1.00  0.00     0.023 A 
ATOM     86  C   UNL A   1      43.536  24.805  25.552  1.00  0.00     0.012 A 
ATOM     87  C   UNL A   1      41.667  24.189  26.956  1.00  0.00     0.148 A 
ATOM     88  C   UNL A   1      43.556  23.522  24.993  1.00  0.00     0.002 A 
ATOM     89  C   UNL A   1      41.683  22.915  26.386  1.00  0.00     0.091 A 
ATOM     90  F   UNL A   1      40.808  24.481  27.940  1.00  0.00    -0.205 F 
ATOM     91  C   UNL A   1      42.640  22.570  25.423  1.00  0.00     0.022 A 
BRANCH  89  92
ATOM     92  S   UNL A   1      40.529  21.634  26.895  1.00  0.00     0.127 S 
ATOM     93  O   UNL A   1      40.866  21.460  28.309  1.00  0.00    -0.237 OA
ATOM     94  O   UNL A   1      39.240  22.272  26.649  1.00  0.00    -0.237 OA
ATOM     95  O   UNL A   1      40.839  20.477  26.064  1.00  0.00    -0.744 OA
ENDBRANCH  89  92
ENDBRANCH  61  85
BRANCH  73  96
ATOM     96  C   UNL A   1      46.646  29.598  28.735  1.00  0.00     0.023 A 
ATOM     97  C   UNL A   1      47.945  29.686  28.206  1.00  0.00     0.012 A 
ATOM     98  C   UNL A   1      45.645  30.469  28.277  1.00  0.00     0.148 A 
ATOM     99  C   UNL A   1      48.233  30.631  27.219  1.00  0.00     0.002 A 
ATOM    100  C   UNL A   1      45.925  31.377  27.270  1.00  0.00     0.091 A 
ATOM    101  F   UNL A   1      44.421  30.363  28.819  1.00  0.00    -0.205 F 
ATOM    102  C   UNL A   1      47.221  31.464  26.739  1.00  0.00     0.022 A 
BRANCH 100 103
ATOM    103  S   UNL A   1      44.646  32.405  26.550  1.00  0.00     0.127 S 
ATOM    104  O   UNL A   1      45.082  32.506  25.158  1.00  0.00    -0.237 OA
ATOM    105  O   UNL A   1      43.447  31.595  26.761  1.00  0.00    -0.237 OA
ATOM    106  O   UNL A   1      44.662  33.659  27.294  1.00  0.00    -0.744 OA
ENDBRANCH 100 103
ENDBRANCH  73  96
ENDBRANCH  47  48
ENDBRANCH  40  42
ENDBRANCH  39  40
ENDBRANCH  38  39
ENDBRANCH  37  38
ENDBRANCH  36  37
ENDBRANCH  35  36
ENDBRANCH  34  35
ENDBRANCH  33  34
ENDBRANCH   1  33
TORSDOF 28
ENDMDL
MODEL 2
REMARK VINA RESULT:      -9.8      2.179      6.402
REMARK SMILES COC(=O)c1ccc2c(c1)=N[C@H](c1cn(CCC(=O)OCCOCCOCCOCCOC(=O)c3ccc(-c4c5nc(c(-c6cccc(S(=O)(=O)[O-])c6F)c6ccc([nH]6)c(-c6cccc(S(=O)(=O)[O-])c6F)c6nc(c(-c7cccc(S(=O)(=O)[O-])c7F)c7ccc4[nH]7)C=C6)C=C5)cc3)c3ccccc13)N=2
REMARK SMILES IDX 25 1 24 2 23 3 22 4 21 5 20 6 18 7 19 8 17 9 16 10 15 11
REMARK SMILES IDX 13 12 14 13 103 14 98 15 102 16 99 17 101 18 100 19 12 20
REMARK SMILES IDX 5 21 6 22 10 23 7 24 9 25 8 26 11 27 104 28 3 29 4 30 2 31
REMARK SMILES IDX 1 32 26 33 27 34 28 35 29 36 30 37 31 38 32 39 33 40 34 41
REMARK SMILES IDX 35 42 36 43 97 44 37 45 96 46 38 47 39 48 40 49 90 50 41 51
REMARK SMILES IDX 95 52 89 53 91 54 42 55 94 56 88 57 87 58 43 60 75 61 55 62
REMARK SMILES IDX 74 63 56 64 59 65 73 66 92 67 57 68 58 69 72 71 93 72 60 73
REMARK SMILES IDX 44 74 45 75 53 76 46 77 48 78 54 79 47 80 49 81 50 82 51 83
REMARK SMILES IDX 52 84 76 85 77 86 85 87 78 88 80 89 86 90 79 91 81 92 82 93
REMARK SMILES IDX 83 94 84 95 61 96 62 97 70 98 63 99 65 100 71 101 64 102
REMARK SMILES IDX 66 103 67 104 68 105 69 106
REMARK H PARENT 91 59 59 70
REMARK Flexibility Score: inf
ROOT
ATOM      1  C   UNL A   1      36.471  31.131  28.038  1.00  0.00     0.188 C 
ENDROOT
BRANCH   1   2
ATOM      2  C   UNL A   1      36.104  29.648  28.183  1.00  0.00     0.188 C 
BRANCH   2   3
ATOM      3  O   UNL A   1      34.812  29.177  27.873  1.00  0.00    -0.376 OA
BRANCH   3   4
ATOM      4  C   UNL A   1      33.939  29.731  26.903  1.00  0.00     0.202 C 
BRANCH   4   5
ATOM      5  C   UNL A   1      32.475  30.104  27.169  1.00  0.00     0.261 C 
BRANCH   5   6
ATOM      6  O   UNL A   1      31.475  29.541  26.293  1.00  0.00    -0.463 OA
BRANCH   6   7
ATOM      7  C   UNL A   1      31.037  30.369  25.311  1.00  0.00     0.307 C 
ATOM      8  O   UNL A   1      30.869  31.578  25.467  1.00  0.00    -0.252 OA
BRANCH   7   9
ATOM      9  C   UNL A   1      30.707  29.733  23.969  1.00  0.00     0.144 C 
BRANCH   9  10
ATOM     10  C   UNL A   1      29.797  28.513  23.790  1.00  0.00     0.134 C 
BRANCH  10  11
ATOM     11  N   UNL A   1      30.388  27.268  24.220  1.00  0.00    -0.346 N 
ATOM     12  C   UNL A   1      30.819  25.524  25.468  1.00  0.00     0.024 A 
ATOM     13  C   UNL A   1      29.769  26.230  24.872  1.00  0.00     0.094 A 
ATOM     14  C   UNL A   1      31.935  26.457  25.428  1.00  0.00     0.007 A 
ATOM     15  C   UNL A   1      31.700  26.891  24.120  1.00  0.00     0.048 A 
ATOM     16  C   UNL A   1      33.278  26.342  25.811  1.00  0.00     0.011 A 
ATOM     17  C   UNL A   1      32.496  26.396  23.087  1.00  0.00     0.027 A 
ATOM     18  C   UNL A   1      34.141  25.888  24.822  1.00  0.00     0.001 A 
ATOM     19  C   UNL A   1      33.677  25.775  23.510  1.00  0.00     0.002 A 
BRANCH  12  20
ATOM     20  C   UNL A   1      30.833  24.056  25.822  1.00  0.00     0.255 C 
ATOM     21  C   UNL A   1      34.355  21.190  25.637  1.00  0.00     0.062 A 
ATOM     22  C   UNL A   1      34.368  21.506  27.062  1.00  0.00     0.018 A 
ATOM     23  C   UNL A   1      33.518  21.802  24.778  1.00  0.00     0.046 A 
ATOM     24  C   UNL A   1      33.523  22.379  27.631  1.00  0.00     0.031 A 
ATOM     25  C   UNL A   1      32.511  22.724  25.331  1.00  0.00     0.087 A 
ATOM     26  C   UNL A   1      32.503  23.009  26.778  1.00  0.00     0.086 A 
ATOM     27  N   UNL A   1      31.533  23.298  24.719  1.00  0.00    -0.252 NA
ATOM     28  N   UNL A   1      31.521  23.766  27.113  1.00  0.00    -0.252 NA
BRANCH  21  29
ATOM     29  C   UNL A   1      35.261  20.150  25.054  1.00  0.00     0.337 C 
ATOM     30  O   UNL A   1      34.920  19.009  24.783  1.00  0.00    -0.246 OA
BRANCH  29  31
ATOM     31  O   UNL A   1      36.526  20.642  24.956  1.00  0.00    -0.465 OA
ATOM     32  C   UNL A   1      37.546  19.653  24.788  1.00  0.00     0.282 C 
ENDBRANCH  29  31
ENDBRANCH  21  29
ENDBRANCH  12  20
ENDBRANCH  10  11
ENDBRANCH   9  10
ENDBRANCH   7   9
ENDBRANCH   6   7
ENDBRANCH   5   6
ENDBRANCH   4   5
ENDBRANCH   3   4
ENDBRANCH   2   3
ENDBRANCH   1   2
BRANCH   1  33
ATOM     33  O   UNL A   1      36.261  32.107  29.032  1.00  0.00    -0.377 OA
BRANCH  33  34
ATOM     34  C   UNL A   1      34.965  32.157  29.589  1.00  0.00     0.188 C 
BRANCH  34  35
ATOM     35  C   UNL A   1      34.484  33.600  29.688  1.00  0.00     0.188 C 
BRANCH  35  36
ATOM     36  O   UNL A   1      33.840  34.003  30.888  1.00  0.00    -0.376 OA
BRANCH  36  37
ATOM     37  C   UNL A   1      34.266  35.151  31.606  1.00  0.00     0.202 C 
BRANCH  37  38
ATOM     38  C   UNL A   1      35.113  35.117  32.900  1.00  0.00     0.261 C 
BRANCH  38  39
ATOM     39  O   UNL A   1      36.408  34.519  32.820  1.00  0.00    -0.460 OA
BRANCH  39  40
ATOM     40  C   UNL A   1      36.757  33.527  33.682  1.00  0.00     0.338 C 
ATOM     41  O   UNL A   1      36.086  33.047  34.553  1.00  0.00    -0.246 OA
BRANCH  40  42
ATOM     42  C   UNL A   1      38.042  32.994  33.131  1.00  0.00     0.060 A 
ATOM     43  C   UNL A   1      38.065  32.397  31.878  1.00  0.00     0.016 A 
ATOM     44  C   UNL A   1      39.122  32.810  34.006  1.00  0.00     0.016 A 
ATOM     45  C   UNL A   1      39.094  31.508  31.574  1.00  0.00     0.010 A 
ATOM     46  C   UNL A   1      40.148  31.900  33.693  1.00  0.00     0.010 A 
ATOM     47  C   UNL A   1      40.115  31.196  32.492  1.00  0.00    -0.014 A 
BRANCH  47  48
ATOM     48  C   UNL A   1      41.180  30.286  32.000  1.00  0.00     0.031 A 
ATOM     49  C   UNL A   1      42.014  30.928  30.938  1.00  0.00     0.074 A 
ATOM     50  C   UNL A   1      41.539  29.052  32.431  1.00  0.00     0.049 A 
ATOM     51  N   UNL A   1      42.130  30.586  29.694  1.00  0.00    -0.248 NA
ATOM     52  C   UNL A   1      42.647  32.213  31.276  1.00  0.00     0.031 C 
ATOM     53  C   UNL A   1      41.050  28.345  33.615  1.00  0.00     0.029 A 
ATOM     54  N   UNL A   1      42.521  28.205  31.955  1.00  0.00    -0.354 N 
ATOM     55  C   UNL A   1      43.044  31.488  29.160  1.00  0.00     0.074 A 
ATOM     56  C   UNL A   1      43.181  32.563  30.108  1.00  0.00     0.031 C 
ATOM     57  C   UNL A   1      41.899  27.333  33.912  1.00  0.00     0.029 A 
ATOM     58  C   UNL A   1      42.909  27.225  32.872  1.00  0.00     0.049 A 
ATOM     59  H   UNL A   1      42.910  28.284  31.055  1.00  0.00     0.167 HD
ATOM     60  C   UNL A   1      43.857  31.159  28.122  1.00  0.00     0.034 A 
ATOM     61  C   UNL A   1      44.009  26.428  32.815  1.00  0.00     0.034 A 
ATOM     62  C   UNL A   1      43.441  29.976  27.434  1.00  0.00     0.049 A 
ATOM     63  C   UNL A   1      44.434  26.312  31.405  1.00  0.00     0.074 A 
ATOM     64  C   UNL A   1      42.550  29.618  26.449  1.00  0.00     0.029 A 
ATOM     65  N   UNL A   1      43.875  28.831  28.034  1.00  0.00    -0.354 N 
ATOM     66  N   UNL A   1      43.761  25.674  30.489  1.00  0.00    -0.248 NA
ATOM     67  C   UNL A   1      45.584  27.079  30.932  1.00  0.00     0.031 C 
ATOM     68  C   UNL A   1      42.394  28.203  26.542  1.00  0.00     0.029 A 
ATOM     69  C   UNL A   1      43.202  27.736  27.574  1.00  0.00     0.049 A 
ATOM     70  H   UNL A   1      44.584  28.798  28.715  1.00  0.00     0.167 HD
ATOM     71  C   UNL A   1      44.146  26.288  29.316  1.00  0.00     0.074 A 
ATOM     72  C   UNL A   1      45.380  26.995  29.617  1.00  0.00     0.031 C 
ATOM     73  C   UNL A   1      43.247  26.503  28.322  1.00  0.00     0.034 A 
BRANCH  60  74
ATOM     74  C   UNL A   1      45.293  31.618  28.048  1.00  0.00     0.023 A 
ATOM     75  C   UNL A   1      45.746  32.251  26.874  1.00  0.00     0.012 A 
ATOM     76  C   UNL A   1      46.275  31.199  28.976  1.00  0.00     0.148 A 
ATOM     77  C   UNL A   1      47.110  32.487  26.657  1.00  0.00     0.002 A 
ATOM     78  C   UNL A   1      47.614  31.513  28.799  1.00  0.00     0.091 A 
ATOM     79  F   UNL A   1      45.932  30.364  29.965  1.00  0.00    -0.205 F 
ATOM     80  C   UNL A   1      48.043  32.143  27.631  1.00  0.00     0.022 A 
BRANCH  78  81
ATOM     81  S   UNL A   1      48.835  31.133  30.059  1.00  0.00     0.127 S 
ATOM     82  O   UNL A   1      48.870  29.676  30.003  1.00  0.00    -0.237 OA
ATOM     83  O   UNL A   1      50.024  31.807  29.535  1.00  0.00    -0.237 OA
ATOM     84  O   UNL A   1      48.312  31.721  31.286  1.00  0.00    -0.744 OA
ENDBRANCH  78  81
ENDBRANCH  60  74
BRANCH  61  85
ATOM     85  C   UNL A   1      44.874  25.841  33.881  1.00  0.00     0.023 A 
ATOM     86  C   UNL A   1      45.215  24.467  33.812  1.00  0.00     0.012 A 
ATOM     87  C   UNL A   1      45.625  26.655  34.753  1.00  0.00     0.148 A 
ATOM     88  C   UNL A   1      46.312  23.947  34.509  1.00  0.00     0.002 A 
ATOM     89  C   UNL A   1      46.711  26.130  35.455  1.00  0.00     0.091 A 
ATOM     90  F   UNL A   1      45.343  27.963  34.820  1.00  0.00    -0.205 F 
ATOM     91  C   UNL A   1      47.072  24.784  35.317  1.00  0.00     0.022 A 
BRANCH  89  92
ATOM     92  S   UNL A   1      47.738  27.153  36.517  1.00  0.00     0.127 S 
ATOM     93  O   UNL A   1      48.275  28.135  35.573  1.00  0.00    -0.237 OA
ATOM     94  O   UNL A   1      46.762  27.686  37.462  1.00  0.00    -0.237 OA
ATOM     95  O   UNL A   1      48.742  26.254  37.074  1.00  0.00    -0.744 OA
ENDBRANCH  89  92
ENDBRANCH  61  85
BRANCH  73  96
ATOM     96  C   UNL A   1      42.146  25.518  28.133  1.00  0.00     0.023 A 
ATOM     97  C   UNL A   1      40.803  25.792  28.439  1.00  0.00     0.012 A 
ATOM     98  C   UNL A   1      42.488  24.309  27.505  1.00  0.00     0.148 A 
ATOM     99  C   UNL A   1      39.809  24.866  28.108  1.00  0.00     0.002 A 
ATOM    100  C   UNL A   1      41.496  23.413  27.143  1.00  0.00     0.091 A 
ATOM    101  F   UNL A   1      43.784  24.079  27.243  1.00  0.00    -0.205 F 
ATOM    102  C   UNL A   1      40.154  23.686  27.446  1.00  0.00     0.022 A 
BRANCH 100 103
ATOM    103  S   UNL A   1      41.867  21.929  26.209  1.00  0.00     0.127 S 
ATOM    104  O   UNL A   1      40.533  21.379  25.966  1.00  0.00    -0.237 OA
ATOM    105  O   UNL A   1      42.532  22.471  25.025  1.00  0.00    -0.237 OA
ATOM    106  O   UNL A   1      42.725  21.114  27.060  1.00  0.00    -0.744 OA
ENDBRANCH 100 103
ENDBRANCH  73  96
ENDBRANCH  47  48
ENDBRANCH  40  42
ENDBRANCH  39  40
ENDBRANCH  38  39
ENDBRANCH  37  38
ENDBRANCH  36  37
ENDBRANCH  35  36
ENDBRANCH  34  35
ENDBRANCH  33  34
ENDBRANCH   1  33
TORSDOF 28
ENDMDL
MODEL 3
REMARK VINA RESULT:      -8.9      1.793      2.354
REMARK SMILES COC(=O)c1ccc2c(c1)=N[C@H](c1cn(CCC(=O)OCCOCCOCCOCCOC(=O)c3ccc(-c4c5nc(c(-c6cccc(S(=O)(=O)[O-])c6F)c6ccc([nH]6)c(-c6cccc(S(=O)(=O)[O-])c6F)c6nc(c(-c7cccc(S(=O)(=O)[O-])c7F)c7ccc4[nH]7)C=C6)C=C5)cc3)c3ccccc13)N=2
REMARK SMILES IDX 25 1 24 2 23 3 22 4 21 5 20 6 18 7 19 8 17 9 16 10 15 11
REMARK SMILES IDX 13 12 14 13 103 14 98 15 102 16 99 17 101 18 100 19 12 20
REMARK SMILES IDX 5 21 6 22 10 23 7 24 9 25 8 26 11 27 104 28 3 29 4 30 2 31
REMARK SMILES IDX 1 32 26 33 27 34 28 35 29 36 30 37 31 38 32 39 33 40 34 41
REMARK SMILES IDX 35 42 36 43 97 44 37 45 96 46 38 47 39 48 40 49 90 50 41 51
REMARK SMILES IDX 95 52 89 53 91 54 42 55 94 56 88 57 87 58 43 60 75 61 55 62
REMARK SMILES IDX 74 63 56 64 59 65 73 66 92 67 57 68 58 69 72 71 93 72 60 73
REMARK SMILES IDX 44 74 45 75 53 76 46 77 48 78 54 79 47 80 49 81 50 82 51 83
REMARK SMILES IDX 52 84 76 85 77 86 85 87 78 88 80 89 86 90 79 91 81 92 82 93
REMARK SMILES IDX 83 94 84 95 61 96 62 97 70 98 63 99 65 100 71 101 64 102
REMARK SMILES IDX 66 103 67 104 68 105 69 106
REMARK H PARENT 91 59 59 70
REMARK Flexibility Score: inf
ROOT
ATOM      1  C   UNL A   1      37.577  30.653  29.487  1.00  0.00     0.188 C 
ENDROOT
BRANCH   1   2
ATOM      2  C   UNL A   1      36.854  29.519  28.749  1.00  0.00     0.188 C 
BRANCH   2   3
ATOM      3  O   UNL A   1      35.484  29.606  28.427  1.00  0.00    -0.376 OA
BRANCH   3   4
ATOM      4  C   UNL A   1      34.898  30.550  27.546  1.00  0.00     0.202 C 
BRANCH   4   5
ATOM      5  C   UNL A   1      33.503  30.405  26.927  1.00  0.00     0.261 C 
BRANCH   5   6
ATOM      6  O   UNL A   1      33.308  29.346  25.965  1.00  0.00    -0.463 OA
BRANCH   6   7
ATOM      7  C   UNL A   1      32.161  29.424  25.245  1.00  0.00     0.307 C 
ATOM      8  O   UNL A   1      31.326  30.316  25.393  1.00  0.00    -0.252 OA
BRANCH   7   9
ATOM      9  C   UNL A   1      31.903  28.315  24.237  1.00  0.00     0.144 C 
BRANCH   9  10
ATOM     10  C   UNL A   1      30.859  27.207  24.417  1.00  0.00     0.134 C 
BRANCH  10  11
ATOM     11  N   UNL A   1      31.424  25.898  24.643  1.00  0.00    -0.346 N 
ATOM     12  C   UNL A   1      32.330  24.208  25.698  1.00  0.00     0.024 A 
ATOM     13  C   UNL A   1      31.244  25.088  25.738  1.00  0.00     0.094 A 
ATOM     14  C   UNL A   1      33.265  24.850  24.786  1.00  0.00     0.007 A 
ATOM     15  C   UNL A   1      32.302  25.220  23.843  1.00  0.00     0.048 A 
ATOM     16  C   UNL A   1      34.512  24.458  24.278  1.00  0.00     0.011 A 
ATOM     17  C   UNL A   1      32.176  24.471  22.673  1.00  0.00     0.027 A 
ATOM     18  C   UNL A   1      34.469  23.737  23.092  1.00  0.00     0.001 A 
ATOM     19  C   UNL A   1      33.260  23.629  22.402  1.00  0.00     0.002 A 
BRANCH  12  20
ATOM     20  C   UNL A   1      32.381  22.810  26.267  1.00  0.00     0.255 C 
ATOM     21  C   UNL A   1      33.340  18.950  24.068  1.00  0.00     0.062 A 
ATOM     22  C   UNL A   1      34.639  19.217  24.677  1.00  0.00     0.018 A 
ATOM     23  C   UNL A   1      32.316  19.820  24.162  1.00  0.00     0.046 A 
ATOM     24  C   UNL A   1      34.898  20.309  25.414  1.00  0.00     0.031 A 
ATOM     25  C   UNL A   1      32.494  21.011  25.010  1.00  0.00     0.087 A 
ATOM     26  C   UNL A   1      33.798  21.255  25.656  1.00  0.00     0.086 A 
ATOM     27  N   UNL A   1      31.613  21.886  25.354  1.00  0.00    -0.252 NA
ATOM     28  N   UNL A   1      33.768  22.286  26.422  1.00  0.00    -0.252 NA
BRANCH  21  29
ATOM     29  C   UNL A   1      33.069  17.682  23.321  1.00  0.00     0.337 C 
ATOM     30  O   UNL A   1      32.496  17.624  22.243  1.00  0.00    -0.246 OA
BRANCH  29  31
ATOM     31  O   UNL A   1      33.477  16.614  24.058  1.00  0.00    -0.465 OA
ATOM     32  C   UNL A   1      32.688  16.348  25.221  1.00  0.00     0.282 C 
ENDBRANCH  29  31
ENDBRANCH  21  29
ENDBRANCH  12  20
ENDBRANCH  10  11
ENDBRANCH   9  10
ENDBRANCH   7   9
ENDBRANCH   6   7
ENDBRANCH   5   6
ENDBRANCH   4   5
ENDBRANCH   3   4
ENDBRANCH   2   3
ENDBRANCH   1   2
BRANCH   1  33
ATOM     33  O   UNL A   1      37.260  31.086  30.791  1.00  0.00    -0.377 OA
BRANCH  33  34
ATOM     34  C   UNL A   1      35.886  31.150  31.107  1.00  0.00     0.188 C 
BRANCH  34  35
ATOM     35  C   UNL A   1      35.389  32.590  31.030  1.00  0.00     0.188 C 
BRANCH  35  36
ATOM     36  O   UNL A   1      34.841  33.165  32.207  1.00  0.00    -0.376 OA
BRANCH  36  37
ATOM     37  C   UNL A   1      35.621  33.990  33.059  1.00  0.00     0.202 C 
BRANCH  37  38
ATOM     38  C   UNL A   1      36.733  33.478  34.006  1.00  0.00     0.261 C 
BRANCH  38  39
ATOM     39  O   UNL A   1      37.845  32.810  33.409  1.00  0.00    -0.460 OA
BRANCH  39  40
ATOM     40  C   UNL A   1      38.891  32.403  34.176  1.00  0.00     0.338 C 
ATOM     41  O   UNL A   1      38.985  32.459  35.371  1.00  0.00    -0.246 OA
BRANCH  40  42
ATOM     42  C   UNL A   1      39.764  31.635  33.235  1.00  0.00     0.060 A 
ATOM     43  C   UNL A   1      39.361  30.388  32.776  1.00  0.00     0.016 A 
ATOM     44  C   UNL A   1      41.102  32.029  33.088  1.00  0.00     0.016 A 
ATOM     45  C   UNL A   1      40.327  29.496  32.314  1.00  0.00     0.010 A 
ATOM     46  C   UNL A   1      42.069  31.115  32.632  1.00  0.00     0.010 A 
ATOM     47  C   UNL A   1      41.698  29.817  32.290  1.00  0.00    -0.014 A 
BRANCH  47  48
ATOM     48  C   UNL A   1      42.599  28.793  31.705  1.00  0.00     0.031 A 
ATOM     49  C   UNL A   1      43.292  27.992  32.761  1.00  0.00     0.074 A 
ATOM     50  C   UNL A   1      42.793  28.441  30.410  1.00  0.00     0.049 A 
ATOM     51  N   UNL A   1      44.561  27.938  33.021  1.00  0.00    -0.248 NA
ATOM     52  C   UNL A   1      42.439  27.319  33.753  1.00  0.00     0.031 C 
ATOM     53  C   UNL A   1      42.037  28.892  29.242  1.00  0.00     0.029 A 
ATOM     54  N   UNL A   1      43.648  27.498  29.874  1.00  0.00    -0.354 N 
ATOM     55  C   UNL A   1      44.670  27.029  34.070  1.00  0.00     0.074 A 
ATOM     56  C   UNL A   1      43.345  26.830  34.596  1.00  0.00     0.031 C 
ATOM     57  C   UNL A   1      42.273  28.051  28.207  1.00  0.00     0.029 A 
ATOM     58  C   UNL A   1      43.296  27.090  28.585  1.00  0.00     0.049 A 
ATOM     59  H   UNL A   1      44.431  27.146  30.354  1.00  0.00     0.167 HD
ATOM     60  C   UNL A   1      45.782  26.269  34.249  1.00  0.00     0.034 A 
ATOM     61  C   UNL A   1      43.760  26.009  27.903  1.00  0.00     0.034 A 
ATOM     62  C   UNL A   1      46.911  26.739  33.508  1.00  0.00     0.049 A 
ATOM     63  C   UNL A   1      45.088  25.648  28.441  1.00  0.00     0.074 A 
ATOM     64  C   UNL A   1      47.907  27.678  33.634  1.00  0.00     0.029 A 
ATOM     65  N   UNL A   1      46.917  26.302  32.215  1.00  0.00    -0.354 N 
ATOM     66  N   UNL A   1      46.160  26.373  28.287  1.00  0.00    -0.248 NA
ATOM     67  C   UNL A   1      45.216  24.505  29.341  1.00  0.00     0.031 C 
ATOM     68  C   UNL A   1      48.459  27.859  32.331  1.00  0.00     0.029 A 
ATOM     69  C   UNL A   1      47.792  27.016  31.447  1.00  0.00     0.049 A 
ATOM     70  H   UNL A   1      46.360  25.565  31.877  1.00  0.00     0.167 HD
ATOM     71  C   UNL A   1      46.944  26.027  29.367  1.00  0.00     0.074 A 
ATOM     72  C   UNL A   1      46.414  24.767  29.863  1.00  0.00     0.031 C 
ATOM     73  C   UNL A   1      47.688  26.964  30.010  1.00  0.00     0.034 A 
BRANCH  60  74
ATOM     74  C   UNL A   1      45.708  24.828  34.694  1.00  0.00     0.023 A 
ATOM     75  C   UNL A   1      45.091  23.885  33.849  1.00  0.00     0.012 A 
ATOM     76  C   UNL A   1      45.973  24.428  36.025  1.00  0.00     0.148 A 
ATOM     77  C   UNL A   1      44.787  22.595  34.301  1.00  0.00     0.002 A 
ATOM     78  C   UNL A   1      45.753  23.123  36.442  1.00  0.00     0.091 A 
ATOM     79  F   UNL A   1      46.304  25.351  36.936  1.00  0.00    -0.205 F 
ATOM     80  C   UNL A   1      45.143  22.204  35.589  1.00  0.00     0.022 A 
BRANCH  78  81
ATOM     81  S   UNL A   1      46.248  22.572  38.077  1.00  0.00     0.127 S 
ATOM     82  O   UNL A   1      45.910  21.154  38.023  1.00  0.00    -0.237 OA
ATOM     83  O   UNL A   1      47.681  22.872  38.071  1.00  0.00    -0.237 OA
ATOM     84  O   UNL A   1      45.474  23.388  39.004  1.00  0.00    -0.744 OA
ENDBRANCH  78  81
ENDBRANCH  60  74
BRANCH  61  85
ATOM     85  C   UNL A   1      43.119  25.112  26.896  1.00  0.00     0.023 A 
ATOM     86  C   UNL A   1      43.861  24.716  25.755  1.00  0.00     0.012 A 
ATOM     87  C   UNL A   1      41.949  24.386  27.197  1.00  0.00     0.148 A 
ATOM     88  C   UNL A   1      43.504  23.592  25.002  1.00  0.00     0.002 A 
ATOM     89  C   UNL A   1      41.590  23.273  26.435  1.00  0.00     0.091 A 
ATOM     90  F   UNL A   1      41.241  24.719  28.283  1.00  0.00    -0.205 F 
ATOM     91  C   UNL A   1      42.376  22.859  25.352  1.00  0.00     0.022 A 
BRANCH  89  92
ATOM     92  S   UNL A   1      40.146  22.278  26.831  1.00  0.00     0.127 S 
ATOM     93  O   UNL A   1      40.531  21.672  28.108  1.00  0.00    -0.237 OA
ATOM     94  O   UNL A   1      39.098  23.288  26.926  1.00  0.00    -0.237 OA
ATOM     95  O   UNL A   1      40.017  21.323  25.736  1.00  0.00    -0.744 OA
ENDBRANCH  89  92
ENDBRANCH  61  85
BRANCH  73  96
ATOM     96  C   UNL A   1      48.250  28.092  29.216  1.00  0.00     0.023 A 
ATOM     97  C   UNL A   1      49.523  28.058  28.620  1.00  0.00     0.012 A 
ATOM     98  C   UNL A   1      47.392  29.176  28.972  1.00  0.00     0.148 A 
ATOM     99  C   UNL A   1      49.926  29.099  27.779  1.00  0.00     0.002 A 
ATOM    100  C   UNL A   1      47.781  30.185  28.107  1.00  0.00     0.091 A 
ATOM    101  F   UNL A   1      46.192  29.178  29.573  1.00  0.00    -0.205 F 
ATOM    102  C   UNL A   1      49.050  30.152  27.509  1.00  0.00     0.022 A 
BRANCH 100 103
ATOM    103  S   UNL A   1      46.666  31.511  27.649  1.00  0.00     0.127 S 
ATOM    104  O   UNL A   1      45.357  30.876  27.798  1.00  0.00    -0.237 OA
ATOM    105  O   UNL A   1      46.972  32.529  28.653  1.00  0.00    -0.237 OA
ATOM    106  O   UNL A   1      47.017  31.887  26.285  1.00  0.00    -0.744 OA
ENDBRANCH 100 103
ENDBRANCH  73  96
ENDBRANCH  47  48
ENDBRANCH  40  42
ENDBRANCH  39  40
ENDBRANCH  38  39
ENDBRANCH  37  38
ENDBRANCH  36  37
ENDBRANCH  35  36
ENDBRANCH  34  35
ENDBRANCH  33  34
ENDBRANCH   1  33
TORSDOF 28
ENDMDL
