MODEL 1
REMARK VINA RESULT:      -8.0      0.000      0.000
REMARK SMILES CCN(C[C@@H](C)C#N)C(=O)NC[C@@H]1CC[C@H](C(=O)OCCOCCOCCOCCOC(=O)c2ccc(-c3c4nc(c(-c5cccc(S(=O)(=O)[O-])c5F)c5ccc([nH]5)c(-c5cccc(S(=O)(=O)[O-])c5F)c5nc(c(-c6cccc(S(=O)(=O)[O-])c6F)c6ccc3[nH]6)C=C5)C=C4)cc2)O1
REMARK SMILES IDX 23 1 22 2 21 3 20 4 19 5 17 6 18 7 16 8 13 9 14 10 97 11
REMARK SMILES IDX 15 12 12 13 11 14 9 15 10 16 3 18 2 19 1 20 4 21 5 22 6 23
REMARK SMILES IDX 7 24 8 25 24 26 25 27 26 28 27 29 28 30 29 31 30 32 31 33
REMARK SMILES IDX 32 34 33 35 34 36 35 37 96 38 36 39 95 40 37 41 38 42 39 43
REMARK SMILES IDX 89 44 40 45 94 46 88 47 90 48 41 49 93 50 87 51 86 52 42 54
REMARK SMILES IDX 74 55 54 56 73 57 55 58 58 59 72 60 91 61 56 62 57 63 71 65
REMARK SMILES IDX 92 66 59 67 43 68 44 69 52 70 45 71 47 72 53 73 46 74 48 75
REMARK SMILES IDX 49 76 50 77 51 78 75 79 76 80 84 81 77 82 79 83 85 84 78 85
REMARK SMILES IDX 80 86 81 87 82 88 83 89 60 90 61 91 69 92 62 93 64 94 70 95
REMARK SMILES IDX 63 96 65 97 66 98 67 99 68 100
REMARK H PARENT 11 17 90 53 58 64
REMARK Flexibility Score: inf
ROOT
ATOM      1  C   UNL A   1      33.937  34.808  28.585  1.00  0.00     0.188 C 
ENDROOT
BRANCH   1   2
ATOM      2  O   UNL A   1      33.490  33.482  28.325  1.00  0.00    -0.376 OA
BRANCH   2   3
ATOM      3  C   UNL A   1      34.477  32.555  27.891  1.00  0.00     0.202 C 
BRANCH   3   4
ATOM      4  C   UNL A   1      34.102  31.061  27.973  1.00  0.00     0.261 C 
BRANCH   4   5
ATOM      5  O   UNL A   1      33.833  30.448  26.667  1.00  0.00    -0.461 OA
BRANCH   5   6
ATOM      6  C   UNL A   1      33.378  29.179  26.463  1.00  0.00     0.335 C 
ATOM      7  O   UNL A   1      34.100  28.209  26.668  1.00  0.00    -0.249 OA
BRANCH   6   8
ATOM      8  C   UNL A   1      31.871  29.053  25.778  1.00  0.00     0.228 C 
ATOM      9  C   UNL A   1      30.324  27.448  24.829  1.00  0.00     0.138 C 
ATOM     10  C   UNL A   1      30.794  28.300  23.670  1.00  0.00     0.037 C 
ATOM     11  O   UNL A   1      31.187  27.783  25.940  1.00  0.00    -0.361 OA
ATOM     12  C   UNL A   1      31.587  29.442  24.319  1.00  0.00     0.047 C 
BRANCH   9  13
ATOM     13  C   UNL A   1      30.089  25.882  24.632  1.00  0.00     0.149 C 
BRANCH  13  14
ATOM     14  N   UNL A   1      30.089  24.927  25.774  1.00  0.00    -0.335 N 
ATOM     15  C   UNL A   1      30.877  24.018  26.417  1.00  0.00     0.317 C 
ATOM     16  O   UNL A   1      30.325  23.392  27.325  1.00  0.00    -0.249 OA
ATOM     17  H   UNL A   1      29.213  24.963  26.222  1.00  0.00     0.165 HD
BRANCH  15  18
ATOM     18  N   UNL A   1      32.146  23.680  25.998  1.00  0.00    -0.324 N 
BRANCH  18  19
ATOM     19  C   UNL A   1      33.220  24.691  26.125  1.00  0.00     0.118 C 
ATOM     20  C   UNL A   1      33.663  25.392  24.850  1.00  0.00     0.027 C 
ENDBRANCH  18  19
BRANCH  18  21
ATOM     21  C   UNL A   1      32.597  22.316  25.785  1.00  0.00     0.139 C 
BRANCH  21  22
ATOM     22  C   UNL A   1      33.944  21.925  26.532  1.00  0.00     0.109 C 
ATOM     23  C   UNL A   1      33.771  22.238  28.006  1.00  0.00     0.026 C 
BRANCH  22  24
ATOM     24  C   UNL A   1      34.491  20.879  25.573  1.00  0.00     0.067 C 
ATOM     25  N   UNL A   1      34.946  20.012  24.778  1.00  0.00    -0.198 NA
ENDBRANCH  22  24
ENDBRANCH  21  22
ENDBRANCH  18  21
ENDBRANCH  15  18
ENDBRANCH  13  14
ENDBRANCH   9  13
ENDBRANCH   6   8
ENDBRANCH   5   6
ENDBRANCH   4   5
ENDBRANCH   3   4
ENDBRANCH   2   3
ENDBRANCH   1   2
BRANCH   1  26
ATOM     26  C   UNL A   1      33.112  35.691  29.546  1.00  0.00     0.188 C 
BRANCH  26  27
ATOM     27  O   UNL A   1      33.811  36.178  30.682  1.00  0.00    -0.377 OA
BRANCH  27  28
ATOM     28  C   UNL A   1      33.012  36.581  31.796  1.00  0.00     0.188 C 
BRANCH  28  29
ATOM     29  C   UNL A   1      33.745  36.774  33.135  1.00  0.00     0.188 C 
BRANCH  29  30
ATOM     30  O   UNL A   1      34.917  35.979  33.266  1.00  0.00    -0.376 OA
BRANCH  30  31
ATOM     31  C   UNL A   1      34.812  34.588  33.537  1.00  0.00     0.202 C 
BRANCH  31  32
ATOM     32  C   UNL A   1      35.508  33.583  32.603  1.00  0.00     0.261 C 
BRANCH  32  33
ATOM     33  O   UNL A   1      35.951  32.353  33.188  1.00  0.00    -0.460 OA
BRANCH  33  34
ATOM     34  C   UNL A   1      36.901  32.406  34.147  1.00  0.00     0.338 C 
ATOM     35  O   UNL A   1      36.778  32.785  35.290  1.00  0.00    -0.246 OA
BRANCH  34  36
ATOM     36  C   UNL A   1      38.096  31.730  33.603  1.00  0.00     0.060 A 
ATOM     37  C   UNL A   1      38.358  30.404  33.970  1.00  0.00     0.016 A 
ATOM     38  C   UNL A   1      38.957  32.422  32.750  1.00  0.00     0.016 A 
ATOM     39  C   UNL A   1      39.522  29.778  33.524  1.00  0.00     0.010 A 
ATOM     40  C   UNL A   1      40.129  31.803  32.323  1.00  0.00     0.010 A 
ATOM     41  C   UNL A   1      40.437  30.498  32.747  1.00  0.00    -0.014 A 
BRANCH  41  42
ATOM     42  C   UNL A   1      41.826  30.016  32.585  1.00  0.00     0.031 A 
ATOM     43  C   UNL A   1      42.108  29.099  31.426  1.00  0.00     0.074 A 
ATOM     44  C   UNL A   1      42.790  30.328  33.467  1.00  0.00     0.049 A 
ATOM     45  N   UNL A   1      43.177  28.400  31.159  1.00  0.00    -0.248 NA
ATOM     46  C   UNL A   1      41.021  28.937  30.441  1.00  0.00     0.031 C 
ATOM     47  C   UNL A   1      42.637  31.227  34.609  1.00  0.00     0.029 A 
ATOM     48  N   UNL A   1      44.083  29.879  33.558  1.00  0.00    -0.354 N 
ATOM     49  C   UNL A   1      42.880  27.684  30.006  1.00  0.00     0.074 A 
ATOM     50  C   UNL A   1      41.530  28.029  29.623  1.00  0.00     0.031 C 
ATOM     51  C   UNL A   1      43.782  31.230  35.315  1.00  0.00     0.029 A 
ATOM     52  C   UNL A   1      44.730  30.306  34.694  1.00  0.00     0.049 A 
ATOM     53  H   UNL A   1      44.506  29.308  32.877  1.00  0.00     0.167 HD
ATOM     54  C   UNL A   1      43.666  26.822  29.320  1.00  0.00     0.034 A 
ATOM     55  C   UNL A   1      45.933  29.953  35.190  1.00  0.00     0.034 A 
ATOM     56  C   UNL A   1      45.009  26.493  29.704  1.00  0.00     0.049 A 
ATOM     57  C   UNL A   1      46.775  28.956  34.430  1.00  0.00     0.074 A 
ATOM     58  C   UNL A   1      45.901  25.646  29.073  1.00  0.00     0.029 A 
ATOM     59  N   UNL A   1      45.652  26.992  30.827  1.00  0.00    -0.354 N 
ATOM     60  N   UNL A   1      46.516  28.343  33.298  1.00  0.00    -0.248 NA
ATOM     61  C   UNL A   1      48.088  28.619  35.001  1.00  0.00     0.031 C 
ATOM     62  C   UNL A   1      47.075  25.611  29.830  1.00  0.00     0.029 A 
ATOM     63  C   UNL A   1      46.929  26.471  30.908  1.00  0.00     0.049 A 
ATOM     64  H   UNL A   1      45.256  27.623  31.470  1.00  0.00     0.167 HD
ATOM     65  C   UNL A   1      47.651  27.597  32.996  1.00  0.00     0.074 A 
ATOM     66  C   UNL A   1      48.601  27.835  34.063  1.00  0.00     0.031 C 
ATOM     67  C   UNL A   1      47.886  26.783  31.937  1.00  0.00     0.034 A 
BRANCH  54  68
ATOM     68  C   UNL A   1      43.094  26.186  28.083  1.00  0.00     0.023 A 
ATOM     69  C   UNL A   1      43.085  26.901  26.868  1.00  0.00     0.012 A 
ATOM     70  C   UNL A   1      42.605  24.865  28.111  1.00  0.00     0.148 A 
ATOM     71  C   UNL A   1      42.571  26.324  25.708  1.00  0.00     0.002 A 
ATOM     72  C   UNL A   1      42.138  24.280  26.940  1.00  0.00     0.091 A 
ATOM     73  F   UNL A   1      42.597  24.211  29.281  1.00  0.00    -0.205 F 
ATOM     74  C   UNL A   1      42.108  25.012  25.742  1.00  0.00     0.022 A 
BRANCH  72  75
ATOM     75  S   UNL A   1      41.594  22.570  26.861  1.00  0.00     0.127 S 
ATOM     76  O   UNL A   1      40.194  22.687  27.266  1.00  0.00    -0.237 OA
ATOM     77  O   UNL A   1      41.796  22.250  25.449  1.00  0.00    -0.237 OA
ATOM     78  O   UNL A   1      42.448  21.832  27.782  1.00  0.00    -0.744 OA
ENDBRANCH  72  75
ENDBRANCH  54  68
BRANCH  55  79
ATOM     79  C   UNL A   1      46.435  30.560  36.456  1.00  0.00     0.023 A 
ATOM     80  C   UNL A   1      47.259  31.701  36.392  1.00  0.00     0.012 A 
ATOM     81  C   UNL A   1      46.122  30.009  37.716  1.00  0.00     0.148 A 
ATOM     82  C   UNL A   1      47.793  32.260  37.552  1.00  0.00     0.002 A 
ATOM     83  C   UNL A   1      46.619  30.601  38.872  1.00  0.00     0.091 A 
ATOM     84  F   UNL A   1      45.352  28.914  37.756  1.00  0.00    -0.205 F 
ATOM     85  C   UNL A   1      47.467  31.716  38.792  1.00  0.00     0.022 A 
BRANCH  83  86
ATOM     86  S   UNL A   1      46.195  30.022  40.520  1.00  0.00     0.127 S 
ATOM     87  O   UNL A   1      46.784  28.685  40.525  1.00  0.00    -0.237 OA
ATOM     88  O   UNL A   1      46.883  30.996  41.369  1.00  0.00    -0.237 OA
ATOM     89  O   UNL A   1      44.741  30.065  40.597  1.00  0.00    -0.744 OA
ENDBRANCH  83  86
ENDBRANCH  55  79
BRANCH  67  90
ATOM     90  C   UNL A   1      49.248  26.151  31.814  1.00  0.00     0.023 A 
ATOM     91  C   UNL A   1      50.289  26.826  31.148  1.00  0.00     0.012 A 
ATOM     92  C   UNL A   1      49.519  24.930  32.465  1.00  0.00     0.148 A 
ATOM     93  C   UNL A   1      51.574  26.284  31.114  1.00  0.00     0.002 A 
ATOM     94  C   UNL A   1      50.812  24.423  32.473  1.00  0.00     0.091 A 
ATOM     95  F   UNL A   1      48.509  24.298  33.081  1.00  0.00    -0.205 F 
ATOM     96  C   UNL A   1      51.838  25.093  31.788  1.00  0.00     0.022 A 
BRANCH  94  97
ATOM     97  S   UNL A   1      51.267  22.954  33.402  1.00  0.00     0.127 S 
ATOM     98  O   UNL A   1      52.308  23.474  34.288  1.00  0.00    -0.237 OA
ATOM     99  O   UNL A   1      50.011  22.613  34.072  1.00  0.00    -0.237 OA
ATOM    100  O   UNL A   1      51.717  21.977  32.421  1.00  0.00    -0.744 OA
ENDBRANCH  94  97
ENDBRANCH  67  90
ENDBRANCH  41  42
ENDBRANCH  34  36
ENDBRANCH  33  34
ENDBRANCH  32  33
ENDBRANCH  31  32
ENDBRANCH  30  31
ENDBRANCH  29  30
ENDBRANCH  28  29
ENDBRANCH  27  28
ENDBRANCH  26  27
ENDBRANCH   1  26
TORSDOF 30
ENDMDL
MODEL 2
REMARK VINA RESULT:      -7.7      4.256     10.282
REMARK SMILES CCN(C[C@@H](C)C#N)C(=O)NC[C@@H]1CC[C@H](C(=O)OCCOCCOCCOCCOC(=O)c2ccc(-c3c4nc(c(-c5cccc(S(=O)(=O)[O-])c5F)c5ccc([nH]5)c(-c5cccc(S(=O)(=O)[O-])c5F)c5nc(c(-c6cccc(S(=O)(=O)[O-])c6F)c6ccc3[nH]6)C=C5)C=C4)cc2)O1
REMARK SMILES IDX 23 1 22 2 21 3 20 4 19 5 17 6 18 7 16 8 13 9 14 10 97 11
REMARK SMILES IDX 15 12 12 13 11 14 9 15 10 16 3 18 2 19 1 20 4 21 5 22 6 23
REMARK SMILES IDX 7 24 8 25 24 26 25 27 26 28 27 29 28 30 29 31 30 32 31 33
REMARK SMILES IDX 32 34 33 35 34 36 35 37 96 38 36 39 95 40 37 41 38 42 39 43
REMARK SMILES IDX 89 44 40 45 94 46 88 47 90 48 41 49 93 50 87 51 86 52 42 54
REMARK SMILES IDX 74 55 54 56 73 57 55 58 58 59 72 60 91 61 56 62 57 63 71 65
REMARK SMILES IDX 92 66 59 67 43 68 44 69 52 70 45 71 47 72 53 73 46 74 48 75
REMARK SMILES IDX 49 76 50 77 51 78 75 79 76 80 84 81 77 82 79 83 85 84 78 85
REMARK SMILES IDX 80 86 81 87 82 88 83 89 60 90 61 91 69 92 62 93 64 94 70 95
REMARK SMILES IDX 63 96 65 97 66 98 67 99 68 100
REMARK H PARENT 11 17 90 53 58 64
REMARK Flexibility Score: inf
ROOT
ATOM      1  C   UNL A   1      44.849  20.277  24.612  1.00  0.00     0.188 C 
ENDROOT
BRANCH   1   2
ATOM      2  O   UNL A   1      43.579  19.636  24.588  1.00  0.00    -0.376 OA
BRANCH   2   3
ATOM      3  C   UNL A   1      43.210  18.917  25.759  1.00  0.00     0.202 C 
BRANCH   3   4
ATOM      4  C   UNL A   1      42.020  19.478  26.565  1.00  0.00     0.261 C 
BRANCH   4   5
ATOM      5  O   UNL A   1      41.187  20.420  25.810  1.00  0.00    -0.461 OA
BRANCH   5   6
ATOM      6  C   UNL A   1      41.022  21.743  26.097  1.00  0.00     0.335 C 
ATOM      7  O   UNL A   1      41.980  22.510  26.110  1.00  0.00    -0.249 OA
BRANCH   6   8
ATOM      8  C   UNL A   1      39.498  22.194  26.576  1.00  0.00     0.228 C 
ATOM      9  C   UNL A   1      37.194  22.255  25.831  1.00  0.00     0.138 C 
ATOM     10  C   UNL A   1      37.649  23.697  25.875  1.00  0.00     0.037 C 
ATOM     11  O   UNL A   1      38.390  21.459  25.994  1.00  0.00    -0.361 OA
ATOM     12  C   UNL A   1      39.022  23.654  26.560  1.00  0.00     0.047 C 
BRANCH   9  13
ATOM     13  C   UNL A   1      36.228  21.753  24.664  1.00  0.00     0.149 C 
BRANCH  13  14
ATOM     14  N   UNL A   1      35.620  22.686  23.676  1.00  0.00    -0.335 N 
ATOM     15  C   UNL A   1      34.517  23.460  23.464  1.00  0.00     0.317 C 
ATOM     16  O   UNL A   1      34.465  24.013  22.364  1.00  0.00    -0.249 OA
ATOM     17  H   UNL A   1      36.225  22.776  22.905  1.00  0.00     0.165 HD
BRANCH  15  18
ATOM     18  N   UNL A   1      33.444  23.507  24.328  1.00  0.00    -0.324 N 
BRANCH  18  19
ATOM     19  C   UNL A   1      32.272  22.650  24.039  1.00  0.00     0.118 C 
ATOM     20  C   UNL A   1      32.479  21.505  23.059  1.00  0.00     0.027 C 
ENDBRANCH  18  19
BRANCH  18  21
ATOM     21  C   UNL A   1      33.506  24.042  25.677  1.00  0.00     0.139 C 
BRANCH  21  22
ATOM     22  C   UNL A   1      32.343  25.057  26.056  1.00  0.00     0.109 C 
ATOM     23  C   UNL A   1      32.404  26.223  25.088  1.00  0.00     0.026 C 
BRANCH  22  24
ATOM     24  C   UNL A   1      31.377  24.114  26.755  1.00  0.00     0.067 C 
ATOM     25  N   UNL A   1      30.576  23.332  27.335  1.00  0.00    -0.198 NA
ENDBRANCH  22  24
ENDBRANCH  21  22
ENDBRANCH  18  21
ENDBRANCH  15  18
ENDBRANCH  13  14
ENDBRANCH   9  13
ENDBRANCH   6   8
ENDBRANCH   5   6
ENDBRANCH   4   5
ENDBRANCH   3   4
ENDBRANCH   2   3
ENDBRANCH   1   2
BRANCH   1  26
ATOM     26  C   UNL A   1      44.907  21.791  24.909  1.00  0.00     0.188 C 
BRANCH  26  27
ATOM     27  O   UNL A   1      46.079  22.240  25.573  1.00  0.00    -0.377 OA
BRANCH  27  28
ATOM     28  C   UNL A   1      46.464  23.595  25.338  1.00  0.00     0.188 C 
BRANCH  28  29
ATOM     29  C   UNL A   1      46.092  24.616  26.428  1.00  0.00     0.188 C 
BRANCH  29  30
ATOM     30  O   UNL A   1      45.480  25.796  25.922  1.00  0.00    -0.376 OA
BRANCH  30  31
ATOM     31  C   UNL A   1      44.255  25.718  25.208  1.00  0.00     0.202 C 
BRANCH  31  32
ATOM     32  C   UNL A   1      43.424  26.995  24.993  1.00  0.00     0.261 C 
BRANCH  32  33
ATOM     33  O   UNL A   1      42.457  27.316  26.000  1.00  0.00    -0.460 OA
BRANCH  33  34
ATOM     34  C   UNL A   1      42.648  28.431  26.738  1.00  0.00     0.338 C 
ATOM     35  O   UNL A   1      42.470  29.581  26.401  1.00  0.00    -0.246 OA
BRANCH  34  36
ATOM     36  C   UNL A   1      42.938  27.988  28.116  1.00  0.00     0.060 A 
ATOM     37  C   UNL A   1      41.874  27.677  28.972  1.00  0.00     0.016 A 
ATOM     38  C   UNL A   1      44.259  27.902  28.555  1.00  0.00     0.016 A 
ATOM     39  C   UNL A   1      42.129  27.329  30.298  1.00  0.00     0.010 A 
ATOM     40  C   UNL A   1      44.512  27.576  29.885  1.00  0.00     0.010 A 
ATOM     41  C   UNL A   1      43.446  27.335  30.770  1.00  0.00    -0.014 A 
BRANCH  41  42
ATOM     42  C   UNL A   1      43.722  27.355  32.223  1.00  0.00     0.031 A 
ATOM     43  C   UNL A   1      43.478  28.647  32.955  1.00  0.00     0.074 A 
ATOM     44  C   UNL A   1      44.230  26.287  32.861  1.00  0.00     0.049 A 
ATOM     45  N   UNL A   1      43.802  28.987  34.173  1.00  0.00    -0.248 NA
ATOM     46  C   UNL A   1      42.788  29.707  32.197  1.00  0.00     0.031 C 
ATOM     47  C   UNL A   1      44.481  24.979  32.259  1.00  0.00     0.029 A 
ATOM     48  N   UNL A   1      44.667  26.156  34.154  1.00  0.00    -0.354 N 
ATOM     49  C   UNL A   1      43.396  30.308  34.314  1.00  0.00     0.074 A 
ATOM     50  C   UNL A   1      42.806  30.712  33.059  1.00  0.00     0.031 C 
ATOM     51  C   UNL A   1      45.070  24.188  33.173  1.00  0.00     0.029 A 
ATOM     52  C   UNL A   1      45.271  24.946  34.406  1.00  0.00     0.049 A 
ATOM     53  H   UNL A   1      44.560  26.858  34.835  1.00  0.00     0.167 HD
ATOM     54  C   UNL A   1      43.498  31.112  35.398  1.00  0.00     0.034 A 
ATOM     55  C   UNL A   1      45.943  24.524  35.496  1.00  0.00     0.034 A 
ATOM     56  C   UNL A   1      44.079  30.699  36.643  1.00  0.00     0.049 A 
ATOM     57  C   UNL A   1      46.082  25.454  36.677  1.00  0.00     0.074 A 
ATOM     58  C   UNL A   1      44.217  31.425  37.812  1.00  0.00     0.029 A 
ATOM     59  N   UNL A   1      44.624  29.446  36.880  1.00  0.00    -0.354 N 
ATOM     60  N   UNL A   1      45.627  26.676  36.829  1.00  0.00    -0.248 NA
ATOM     61  C   UNL A   1      46.806  24.939  37.850  1.00  0.00     0.031 C 
ATOM     62  C   UNL A   1      44.873  30.620  38.748  1.00  0.00     0.029 A 
ATOM     63  C   UNL A   1      45.102  29.378  38.175  1.00  0.00     0.049 A 
ATOM     64  H   UNL A   1      44.665  28.714  36.224  1.00  0.00     0.167 HD
ATOM     65  C   UNL A   1      45.959  27.051  38.128  1.00  0.00     0.074 A 
ATOM     66  C   UNL A   1      46.652  25.927  38.722  1.00  0.00     0.031 C 
ATOM     67  C   UNL A   1      45.718  28.221  38.770  1.00  0.00     0.034 A 
BRANCH  54  68
ATOM     68  C   UNL A   1      42.961  32.513  35.283  1.00  0.00     0.023 A 
ATOM     69  C   UNL A   1      43.760  33.525  34.714  1.00  0.00     0.012 A 
ATOM     70  C   UNL A   1      41.651  32.819  35.698  1.00  0.00     0.148 A 
ATOM     71  C   UNL A   1      43.276  34.826  34.587  1.00  0.00     0.002 A 
ATOM     72  C   UNL A   1      41.157  34.106  35.525  1.00  0.00     0.091 A 
ATOM     73  F   UNL A   1      40.915  31.849  36.261  1.00  0.00    -0.205 F 
ATOM     74  C   UNL A   1      41.973  35.113  34.983  1.00  0.00     0.022 A 
BRANCH  72  75
ATOM     75  S   UNL A   1      39.468  34.560  35.929  1.00  0.00     0.127 S 
ATOM     76  O   UNL A   1      39.508  34.577  37.391  1.00  0.00    -0.237 OA
ATOM     77  O   UNL A   1      39.348  35.878  35.307  1.00  0.00    -0.237 OA
ATOM     78  O   UNL A   1      38.622  33.530  35.342  1.00  0.00    -0.744 OA
ENDBRANCH  72  75
ENDBRANCH  54  68
BRANCH  55  79
ATOM     79  C   UNL A   1      46.517  23.148  35.543  1.00  0.00     0.023 A 
ATOM     80  C   UNL A   1      45.721  22.088  36.020  1.00  0.00     0.012 A 
ATOM     81  C   UNL A   1      47.842  22.885  35.140  1.00  0.00     0.148 A 
ATOM     82  C   UNL A   1      46.244  20.799  36.132  1.00  0.00     0.002 A 
ATOM     83  C   UNL A   1      48.341  21.589  35.208  1.00  0.00     0.091 A 
ATOM     84  F   UNL A   1      48.589  23.909  34.705  1.00  0.00    -0.205 F 
ATOM     85  C   UNL A   1      47.549  20.548  35.719  1.00  0.00     0.022 A 
BRANCH  83  86
ATOM     86  S   UNL A   1      49.984  21.147  34.629  1.00  0.00     0.127 S 
ATOM     87  O   UNL A   1      49.920  19.687  34.641  1.00  0.00    -0.237 OA
ATOM     88  O   UNL A   1      50.005  21.745  33.293  1.00  0.00    -0.237 OA
ATOM     89  O   UNL A   1      50.916  21.739  35.579  1.00  0.00    -0.744 OA
ENDBRANCH  83  86
ENDBRANCH  55  79
BRANCH  67  90
ATOM     90  C   UNL A   1      46.121  28.334  40.218  1.00  0.00     0.023 A 
ATOM     91  C   UNL A   1      45.276  27.844  41.232  1.00  0.00     0.012 A 
ATOM     92  C   UNL A   1      47.399  28.826  40.556  1.00  0.00     0.148 A 
ATOM     93  C   UNL A   1      45.689  27.864  42.565  1.00  0.00     0.002 A 
ATOM     94  C   UNL A   1      47.823  28.793  41.878  1.00  0.00     0.091 A 
ATOM     95  F   UNL A   1      48.180  29.300  39.575  1.00  0.00    -0.205 F 
ATOM     96  C   UNL A   1      46.965  28.323  42.885  1.00  0.00     0.022 A 
BRANCH  94  97
ATOM     97  S   UNL A   1      49.486  29.263  42.369  1.00  0.00     0.127 S 
ATOM     98  O   UNL A   1      50.046  29.738  41.105  1.00  0.00    -0.237 OA
ATOM     99  O   UNL A   1      49.231  30.313  43.356  1.00  0.00    -0.237 OA
ATOM    100  O   UNL A   1      50.104  28.060  42.910  1.00  0.00    -0.744 OA
ENDBRANCH  94  97
ENDBRANCH  67  90
ENDBRANCH  41  42
ENDBRANCH  34  36
ENDBRANCH  33  34
ENDBRANCH  32  33
ENDBRANCH  31  32
ENDBRANCH  30  31
ENDBRANCH  29  30
ENDBRANCH  28  29
ENDBRANCH  27  28
ENDBRANCH  26  27
ENDBRANCH   1  26
TORSDOF 30
ENDMDL
MODEL 3
REMARK VINA RESULT:      -7.7      6.509     12.222
REMARK SMILES CCN(C[C@@H](C)C#N)C(=O)NC[C@@H]1CC[C@H](C(=O)OCCOCCOCCOCCOC(=O)c2ccc(-c3c4nc(c(-c5cccc(S(=O)(=O)[O-])c5F)c5ccc([nH]5)c(-c5cccc(S(=O)(=O)[O-])c5F)c5nc(c(-c6cccc(S(=O)(=O)[O-])c6F)c6ccc3[nH]6)C=C5)C=C4)cc2)O1
REMARK SMILES IDX 23 1 22 2 21 3 20 4 19 5 17 6 18 7 16 8 13 9 14 10 97 11
REMARK SMILES IDX 15 12 12 13 11 14 9 15 10 16 3 18 2 19 1 20 4 21 5 22 6 23
REMARK SMILES IDX 7 24 8 25 24 26 25 27 26 28 27 29 28 30 29 31 30 32 31 33
REMARK SMILES IDX 32 34 33 35 34 36 35 37 96 38 36 39 95 40 37 41 38 42 39 43
REMARK SMILES IDX 89 44 40 45 94 46 88 47 90 48 41 49 93 50 87 51 86 52 42 54
REMARK SMILES IDX 74 55 54 56 73 57 55 58 58 59 72 60 91 61 56 62 57 63 71 65
REMARK SMILES IDX 92 66 59 67 43 68 44 69 52 70 45 71 47 72 53 73 46 74 48 75
REMARK SMILES IDX 49 76 50 77 51 78 75 79 76 80 84 81 77 82 79 83 85 84 78 85
REMARK SMILES IDX 80 86 81 87 82 88 83 89 60 90 61 91 69 92 62 93 64 94 70 95
REMARK SMILES IDX 63 96 65 97 66 98 67 99 68 100
REMARK H PARENT 11 17 90 53 58 64
REMARK Flexibility Score: inf
ROOT
ATOM      1  C   UNL A   1      45.154  20.376  24.792  1.00  0.00     0.188 C 
ENDROOT
BRANCH   1   2
ATOM      2  O   UNL A   1      43.892  19.754  24.581  1.00  0.00    -0.376 OA
BRANCH   2   3
ATOM      3  C   UNL A   1      43.429  18.892  25.613  1.00  0.00     0.202 C 
BRANCH   3   4
ATOM      4  C   UNL A   1      42.411  19.491  26.606  1.00  0.00     0.261 C 
BRANCH   4   5
ATOM      5  O   UNL A   1      41.297  20.192  25.958  1.00  0.00    -0.461 OA
BRANCH   5   6
ATOM      6  C   UNL A   1      41.141  21.545  25.891  1.00  0.00     0.335 C 
ATOM      7  O   UNL A   1      42.027  22.262  25.437  1.00  0.00    -0.249 OA
BRANCH   6   8
ATOM      8  C   UNL A   1      39.768  22.150  26.602  1.00  0.00     0.228 C 
ATOM      9  C   UNL A   1      37.584  23.063  26.087  1.00  0.00     0.138 C 
ATOM     10  C   UNL A   1      38.393  24.218  26.635  1.00  0.00     0.037 C 
ATOM     11  O   UNL A   1      38.529  21.991  25.863  1.00  0.00    -0.361 OA
ATOM     12  C   UNL A   1      39.683  23.577  27.163  1.00  0.00     0.047 C 
BRANCH   9  13
ATOM     13  C   UNL A   1      36.564  23.297  24.882  1.00  0.00     0.149 C 
BRANCH  13  14
ATOM     14  N   UNL A   1      35.536  24.374  24.906  1.00  0.00    -0.335 N 
ATOM     15  C   UNL A   1      34.205  24.587  25.117  1.00  0.00     0.317 C 
ATOM     16  O   UNL A   1      33.819  25.741  24.919  1.00  0.00    -0.249 OA
ATOM     17  H   UNL A   1      35.967  25.234  24.696  1.00  0.00     0.165 HD
BRANCH  15  18
ATOM     18  N   UNL A   1      33.303  23.576  25.367  1.00  0.00    -0.324 N 
BRANCH  18  19
ATOM     19  C   UNL A   1      32.991  23.246  26.777  1.00  0.00     0.118 C 
ATOM     20  C   UNL A   1      34.091  22.583  27.590  1.00  0.00     0.027 C 
ENDBRANCH  18  19
BRANCH  18  21
ATOM     21  C   UNL A   1      32.367  23.057  24.385  1.00  0.00     0.139 C 
BRANCH  21  22
ATOM     22  C   UNL A   1      32.988  22.048  23.326  1.00  0.00     0.109 C 
ATOM     23  C   UNL A   1      32.494  20.654  23.661  1.00  0.00     0.026 C 
BRANCH  22  24
ATOM     24  C   UNL A   1      33.240  22.995  22.164  1.00  0.00     0.067 C 
ATOM     25  N   UNL A   1      33.449  23.781  21.201  1.00  0.00    -0.198 NA
ENDBRANCH  22  24
ENDBRANCH  21  22
ENDBRANCH  18  21
ENDBRANCH  15  18
ENDBRANCH  13  14
ENDBRANCH   9  13
ENDBRANCH   6   8
ENDBRANCH   5   6
ENDBRANCH   4   5
ENDBRANCH   3   4
ENDBRANCH   2   3
ENDBRANCH   1   2
BRANCH   1  26
ATOM     26  C   UNL A   1      45.200  21.722  25.546  1.00  0.00     0.188 C 
BRANCH  26  27
ATOM     27  O   UNL A   1      46.394  22.473  25.387  1.00  0.00    -0.377 OA
BRANCH  27  28
ATOM     28  C   UNL A   1      46.382  23.482  24.376  1.00  0.00     0.188 C 
BRANCH  28  29
ATOM     29  C   UNL A   1      46.969  24.851  24.762  1.00  0.00     0.188 C 
BRANCH  29  30
ATOM     30  O   UNL A   1      45.995  25.881  24.875  1.00  0.00    -0.376 OA
BRANCH  30  31
ATOM     31  C   UNL A   1      44.725  25.605  25.448  1.00  0.00     0.202 C 
BRANCH  31  32
ATOM     32  C   UNL A   1      44.158  26.553  26.519  1.00  0.00     0.261 C 
BRANCH  32  33
ATOM     33  O   UNL A   1      44.230  26.110  27.880  1.00  0.00    -0.460 OA
BRANCH  33  34
ATOM     34  C   UNL A   1      43.105  26.154  28.627  1.00  0.00     0.338 C 
ATOM     35  O   UNL A   1      42.307  25.263  28.814  1.00  0.00    -0.246 OA
BRANCH  34  36
ATOM     36  C   UNL A   1      43.117  27.445  29.343  1.00  0.00     0.060 A 
ATOM     37  C   UNL A   1      42.253  28.465  28.928  1.00  0.00     0.016 A 
ATOM     38  C   UNL A   1      43.999  27.641  30.407  1.00  0.00     0.016 A 
ATOM     39  C   UNL A   1      42.305  29.715  29.546  1.00  0.00     0.010 A 
ATOM     40  C   UNL A   1      44.066  28.895  31.009  1.00  0.00     0.010 A 
ATOM     41  C   UNL A   1      43.254  29.947  30.549  1.00  0.00    -0.014 A 
BRANCH  41  42
ATOM     42  C   UNL A   1      43.601  31.328  30.948  1.00  0.00     0.031 A 
ATOM     43  C   UNL A   1      42.897  31.897  32.150  1.00  0.00     0.074 A 
ATOM     44  C   UNL A   1      44.461  32.074  30.235  1.00  0.00     0.049 A 
ATOM     45  N   UNL A   1      42.879  33.122  32.601  1.00  0.00    -0.248 NA
ATOM     46  C   UNL A   1      42.086  30.952  32.940  1.00  0.00     0.031 C 
ATOM     47  C   UNL A   1      45.219  31.619  29.072  1.00  0.00     0.029 A 
ATOM     48  N   UNL A   1      44.804  33.396  30.368  1.00  0.00    -0.354 N 
ATOM     49  C   UNL A   1      42.026  33.105  33.698  1.00  0.00     0.074 A 
ATOM     50  C   UNL A   1      41.542  31.752  33.844  1.00  0.00     0.031 C 
ATOM     51  C   UNL A   1      45.907  32.659  28.568  1.00  0.00     0.029 A 
ATOM     52  C   UNL A   1      45.607  33.856  29.351  1.00  0.00     0.049 A 
ATOM     53  H   UNL A   1      44.505  33.959  31.118  1.00  0.00     0.167 HD
ATOM     54  C   UNL A   1      41.683  34.126  34.516  1.00  0.00     0.034 A 
ATOM     55  C   UNL A   1      46.013  35.110  29.069  1.00  0.00     0.034 A 
ATOM     56  C   UNL A   1      42.177  35.466  34.367  1.00  0.00     0.049 A 
ATOM     57  C   UNL A   1      45.582  36.242  29.972  1.00  0.00     0.074 A 
ATOM     58  C   UNL A   1      41.910  36.574  35.150  1.00  0.00     0.029 A 
ATOM     59  N   UNL A   1      43.037  35.881  33.362  1.00  0.00    -0.354 N 
ATOM     60  N   UNL A   1      44.838  36.203  31.052  1.00  0.00    -0.248 NA
ATOM     61  C   UNL A   1      46.069  37.588  29.633  1.00  0.00     0.031 C 
ATOM     62  C   UNL A   1      42.586  37.666  34.601  1.00  0.00     0.029 A 
ATOM     63  C   UNL A   1      43.310  37.228  33.502  1.00  0.00     0.049 A 
ATOM     64  H   UNL A   1      43.398  35.302  32.653  1.00  0.00     0.167 HD
ATOM     65  C   UNL A   1      44.814  37.502  31.550  1.00  0.00     0.074 A 
ATOM     66  C   UNL A   1      45.621  38.306  30.654  1.00  0.00     0.031 C 
ATOM     67  C   UNL A   1      44.179  37.990  32.644  1.00  0.00     0.034 A 
BRANCH  54  68
ATOM     68  C   UNL A   1      40.739  33.829  35.649  1.00  0.00     0.023 A 
ATOM     69  C   UNL A   1      39.353  33.757  35.405  1.00  0.00     0.012 A 
ATOM     70  C   UNL A   1      41.226  33.576  36.946  1.00  0.00     0.148 A 
ATOM     71  C   UNL A   1      38.463  33.470  36.438  1.00  0.00     0.002 A 
ATOM     72  C   UNL A   1      40.338  33.243  37.961  1.00  0.00     0.091 A 
ATOM     73  F   UNL A   1      42.546  33.674  37.164  1.00  0.00    -0.205 F 
ATOM     74  C   UNL A   1      38.956  33.203  37.713  1.00  0.00     0.022 A 
BRANCH  72  75
ATOM     75  S   UNL A   1      40.877  32.805  39.617  1.00  0.00     0.127 S 
ATOM     76  O   UNL A   1      41.946  31.848  39.336  1.00  0.00    -0.237 OA
ATOM     77  O   UNL A   1      41.333  34.092  40.141  1.00  0.00    -0.237 OA
ATOM     78  O   UNL A   1      39.709  32.252  40.289  1.00  0.00    -0.744 OA
ENDBRANCH  72  75
ENDBRANCH  54  68
BRANCH  55  79
ATOM     79  C   UNL A   1      46.897  35.372  27.896  1.00  0.00     0.023 A 
ATOM     80  C   UNL A   1      46.317  35.756  26.671  1.00  0.00     0.012 A 
ATOM     81  C   UNL A   1      48.297  35.226  27.977  1.00  0.00     0.148 A 
ATOM     82  C   UNL A   1      47.107  35.953  25.539  1.00  0.00     0.002 A 
ATOM     83  C   UNL A   1      49.083  35.472  26.857  1.00  0.00     0.091 A 
ATOM     84  F   UNL A   1      48.829  34.843  29.146  1.00  0.00    -0.205 F 
ATOM     85  C   UNL A   1      48.490  35.819  25.633  1.00  0.00     0.022 A 
BRANCH  83  86
ATOM     86  S   UNL A   1      50.879  35.402  26.895  1.00  0.00     0.127 S 
ATOM     87  O   UNL A   1      51.194  36.403  27.912  1.00  0.00    -0.237 OA
ATOM     88  O   UNL A   1      51.120  34.018  27.307  1.00  0.00    -0.237 OA
ATOM     89  O   UNL A   1      51.320  35.723  25.545  1.00  0.00    -0.744 OA
ENDBRANCH  83  86
ENDBRANCH  55  79
BRANCH  67  90
ATOM     90  C   UNL A   1      44.389  39.438  33.002  1.00  0.00     0.023 A 
ATOM     91  C   UNL A   1      43.572  40.437  32.440  1.00  0.00     0.012 A 
ATOM     92  C   UNL A   1      45.330  39.788  33.992  1.00  0.00     0.148 A 
ATOM     93  C   UNL A   1      43.704  41.767  32.841  1.00  0.00     0.002 A 
ATOM     94  C   UNL A   1      45.419  41.105  34.426  1.00  0.00     0.091 A 
ATOM     95  F   UNL A   1      46.107  38.823  34.504  1.00  0.00    -0.205 F 
ATOM     96  C   UNL A   1      44.615  42.098  33.843  1.00  0.00     0.022 A 
BRANCH  94  97
ATOM     97  S   UNL A   1      46.486  41.604  35.783  1.00  0.00     0.127 S 
ATOM     98  O   UNL A   1      47.719  41.954  35.078  1.00  0.00    -0.237 OA
ATOM     99  O   UNL A   1      45.759  42.744  36.342  1.00  0.00    -0.237 OA
ATOM    100  O   UNL A   1      46.582  40.451  36.668  1.00  0.00    -0.744 OA
ENDBRANCH  94  97
ENDBRANCH  67  90
ENDBRANCH  41  42
ENDBRANCH  34  36
ENDBRANCH  33  34
ENDBRANCH  32  33
ENDBRANCH  31  32
ENDBRANCH  30  31
ENDBRANCH  29  30
ENDBRANCH  28  29
ENDBRANCH  27  28
ENDBRANCH  26  27
ENDBRANCH   1  26
TORSDOF 30
ENDMDL
