MODEL 1
REMARK VINA RESULT:      -9.7      0.000      0.000
REMARK SMILES Cc1cc(C)c2c(c1)C=C(C(=O)OCCOCCOCCOCCOC(=O)c1ccc(-c3c4nc(c(-c5cccc(S(=O)(=O)[O-])c5F)c5ccc([nH]5)c(-c5cccc(S(=O)(=O)[O-])c5F)c5nc(c(-c6cccc(S(=O)(=O)[O-])c6F)c6ccc3[nH]6)C=C5)C=C4)cc1)[C@@H](C(F)(F)F)O2
REMARK SMILES IDX 20 1 19 2 18 3 17 4 16 5 15 6 14 7 13 8 11 9 12 10 10 11
REMARK SMILES IDX 1 12 2 13 3 14 8 15 4 16 7 17 5 18 6 19 9 20 96 21 91 22
REMARK SMILES IDX 92 23 93 24 94 25 95 26 21 27 22 28 23 29 24 30 25 31 26 32
REMARK SMILES IDX 27 33 28 34 29 35 90 36 30 37 89 38 31 39 32 40 33 41 83 42
REMARK SMILES IDX 34 43 88 44 82 45 84 46 35 47 87 48 81 49 80 50 36 52 68 53
REMARK SMILES IDX 48 54 67 55 49 56 52 57 66 58 85 59 50 60 51 61 65 63 86 64
REMARK SMILES IDX 53 65 37 66 38 67 46 68 39 69 41 70 47 71 40 72 42 73 43 74
REMARK SMILES IDX 44 75 45 76 69 77 70 78 78 79 71 80 73 81 79 82 72 83 74 84
REMARK SMILES IDX 75 85 76 86 77 87 54 88 55 89 63 90 56 91 58 92 64 93 57 94
REMARK SMILES IDX 59 95 60 96 61 97 62 98
REMARK H PARENT 84 51 52 62
REMARK Flexibility Score: inf
ROOT
ATOM      1  C   UNL A   1      32.461  25.944  21.622  1.00  0.00     0.188 C 
ENDROOT
BRANCH   1   2
ATOM      2  O   UNL A   1      31.055  26.094  21.823  1.00  0.00    -0.377 OA
BRANCH   2   3
ATOM      3  C   UNL A   1      30.444  25.410  22.900  1.00  0.00     0.188 C 
BRANCH   3   4
ATOM      4  C   UNL A   1      29.871  26.332  23.991  1.00  0.00     0.188 C 
BRANCH   4   5
ATOM      5  O   UNL A   1      30.590  26.267  25.218  1.00  0.00    -0.376 OA
BRANCH   5   6
ATOM      6  C   UNL A   1      30.214  25.275  26.162  1.00  0.00     0.202 C 
BRANCH   6   7
ATOM      7  C   UNL A   1      31.222  24.169  26.513  1.00  0.00     0.261 C 
BRANCH   7   8
ATOM      8  O   UNL A   1      31.732  23.420  25.403  1.00  0.00    -0.460 OA
BRANCH   8   9
ATOM      9  C   UNL A   1      32.946  23.747  24.924  1.00  0.00     0.338 C 
ATOM     10  O   UNL A   1      33.378  24.870  24.731  1.00  0.00    -0.246 OA
BRANCH   9  11
ATOM     11  C   UNL A   1      33.746  22.505  24.842  1.00  0.00     0.087 C 
ATOM     12  C   UNL A   1      33.201  16.372  24.423  1.00  0.00     0.044 C 
ATOM     13  C   UNL A   1      33.901  17.695  24.515  1.00  0.00    -0.050 A 
ATOM     14  C   UNL A   1      35.294  17.741  24.654  1.00  0.00     0.010 A 
ATOM     15  C   UNL A   1      33.181  18.894  24.493  1.00  0.00     0.015 A 
ATOM     16  C   UNL A   1      35.968  18.967  24.757  1.00  0.00    -0.008 A 
ATOM     17  C   UNL A   1      33.838  20.124  24.618  1.00  0.00     0.018 A 
ATOM     18  C   UNL A   1      37.461  18.992  24.932  1.00  0.00     0.048 C 
ATOM     19  C   UNL A   1      35.231  20.160  24.713  1.00  0.00     0.130 A 
ATOM     20  C   UNL A   1      33.072  21.355  24.711  1.00  0.00     0.027 C 
ATOM     21  O   UNL A   1      35.945  21.323  24.779  1.00  0.00    -0.475 OA
ATOM     22  C   UNL A   1      35.251  22.599  24.831  1.00  0.00     0.316 C 
BRANCH  22  23
ATOM     23  C   UNL A   1      35.789  23.373  26.044  1.00  0.00     0.430 C 
ATOM     24  F   UNL A   1      35.937  24.687  25.762  1.00  0.00    -0.167 F 
ATOM     25  F   UNL A   1      34.965  23.281  27.111  1.00  0.00    -0.167 F 
ATOM     26  F   UNL A   1      37.000  22.901  26.429  1.00  0.00    -0.167 F 
ENDBRANCH  22  23
ENDBRANCH   9  11
ENDBRANCH   8   9
ENDBRANCH   7   8
ENDBRANCH   6   7
ENDBRANCH   5   6
ENDBRANCH   4   5
ENDBRANCH   3   4
ENDBRANCH   2   3
ENDBRANCH   1   2
BRANCH   1  27
ATOM     27  C   UNL A   1      33.482  27.052  21.983  1.00  0.00     0.188 C 
BRANCH  27  28
ATOM     28  O   UNL A   1      33.277  27.665  23.252  1.00  0.00    -0.376 OA
BRANCH  28  29
ATOM     29  C   UNL A   1      32.538  28.877  23.265  1.00  0.00     0.202 C 
BRANCH  29  30
ATOM     30  C   UNL A   1      32.204  29.403  24.666  1.00  0.00     0.261 C 
BRANCH  30  31
ATOM     31  O   UNL A   1      33.285  30.052  25.352  1.00  0.00    -0.460 OA
BRANCH  31  32
ATOM     32  C   UNL A   1      32.975  30.827  26.415  1.00  0.00     0.338 C 
ATOM     33  O   UNL A   1      31.931  31.423  26.611  1.00  0.00    -0.246 OA
BRANCH  32  34
ATOM     34  C   UNL A   1      34.054  30.659  27.408  1.00  0.00     0.060 A 
ATOM     35  C   UNL A   1      34.779  31.783  27.821  1.00  0.00     0.016 A 
ATOM     36  C   UNL A   1      34.319  29.401  27.958  1.00  0.00     0.016 A 
ATOM     37  C   UNL A   1      35.792  31.646  28.769  1.00  0.00     0.010 A 
ATOM     38  C   UNL A   1      35.348  29.261  28.891  1.00  0.00     0.010 A 
ATOM     39  C   UNL A   1      36.110  30.378  29.276  1.00  0.00    -0.014 A 
BRANCH  39  40
ATOM     40  C   UNL A   1      37.374  30.197  30.028  1.00  0.00     0.031 A 
ATOM     41  C   UNL A   1      38.492  29.450  29.354  1.00  0.00     0.074 A 
ATOM     42  C   UNL A   1      37.543  30.709  31.261  1.00  0.00     0.049 A 
ATOM     43  N   UNL A   1      39.708  29.230  29.773  1.00  0.00    -0.248 NA
ATOM     44  C   UNL A   1      38.199  28.880  28.027  1.00  0.00     0.031 C 
ATOM     45  C   UNL A   1      36.537  31.451  32.016  1.00  0.00     0.029 A 
ATOM     46  N   UNL A   1      38.634  30.674  32.094  1.00  0.00    -0.354 N 
ATOM     47  C   UNL A   1      40.326  28.504  28.763  1.00  0.00     0.074 A 
ATOM     48  C   UNL A   1      39.344  28.286  27.727  1.00  0.00     0.031 C 
ATOM     49  C   UNL A   1      37.055  31.797  33.209  1.00  0.00     0.029 A 
ATOM     50  C   UNL A   1      38.426  31.294  33.305  1.00  0.00     0.049 A 
ATOM     51  H   UNL A   1      39.485  30.246  31.849  1.00  0.00     0.167 HD
ATOM     52  C   UNL A   1      41.609  28.084  28.688  1.00  0.00     0.034 A 
ATOM     53  C   UNL A   1      39.250  31.436  34.365  1.00  0.00     0.034 A 
ATOM     54  C   UNL A   1      42.589  28.308  29.712  1.00  0.00     0.049 A 
ATOM     55  C   UNL A   1      40.658  30.897  34.283  1.00  0.00     0.074 A 
ATOM     56  C   UNL A   1      43.925  27.952  29.711  1.00  0.00     0.029 A 
ATOM     57  N   UNL A   1      42.338  28.929  30.925  1.00  0.00    -0.354 N 
ATOM     58  N   UNL A   1      41.271  30.339  33.267  1.00  0.00    -0.248 NA
ATOM     59  C   UNL A   1      41.498  31.029  35.485  1.00  0.00     0.031 C 
ATOM     60  C   UNL A   1      44.476  28.332  30.937  1.00  0.00     0.029 A 
ATOM     61  C   UNL A   1      43.488  28.947  31.691  1.00  0.00     0.049 A 
ATOM     62  H   UNL A   1      41.470  29.302  31.200  1.00  0.00     0.167 HD
ATOM     63  C   UNL A   1      42.570  30.080  33.695  1.00  0.00     0.074 A 
ATOM     64  C   UNL A   1      42.664  30.561  35.057  1.00  0.00     0.031 C 
ATOM     65  C   UNL A   1      43.585  29.478  33.027  1.00  0.00     0.034 A 
BRANCH  52  66
ATOM     66  C   UNL A   1      42.047  27.386  27.430  1.00  0.00     0.023 A 
ATOM     67  C   UNL A   1      42.475  28.157  26.331  1.00  0.00     0.012 A 
ATOM     68  C   UNL A   1      42.112  25.982  27.362  1.00  0.00     0.148 A 
ATOM     69  C   UNL A   1      42.944  27.540  25.173  1.00  0.00     0.002 A 
ATOM     70  C   UNL A   1      42.622  25.375  26.220  1.00  0.00     0.091 A 
ATOM     71  F   UNL A   1      41.679  25.270  28.411  1.00  0.00    -0.205 F 
ATOM     72  C   UNL A   1      43.030  26.152  25.123  1.00  0.00     0.022 A 
BRANCH  70  73
ATOM     73  S   UNL A   1      42.847  23.599  26.082  1.00  0.00     0.127 S 
ATOM     74  O   UNL A   1      43.232  23.460  24.677  1.00  0.00    -0.237 OA
ATOM     75  O   UNL A   1      43.928  23.353  27.036  1.00  0.00    -0.237 OA
ATOM     76  O   UNL A   1      41.569  23.000  26.436  1.00  0.00    -0.744 OA
ENDBRANCH  70  73
ENDBRANCH  52  66
BRANCH  53  77
ATOM     77  C   UNL A   1      38.788  32.172  35.578  1.00  0.00     0.023 A 
ATOM     78  C   UNL A   1      38.931  33.573  35.632  1.00  0.00     0.012 A 
ATOM     79  C   UNL A   1      38.196  31.502  36.667  1.00  0.00     0.148 A 
ATOM     80  C   UNL A   1      38.515  34.290  36.756  1.00  0.00     0.002 A 
ATOM     81  C   UNL A   1      37.736  32.228  37.760  1.00  0.00     0.091 A 
ATOM     82  F   UNL A   1      38.087  30.168  36.607  1.00  0.00    -0.205 F 
ATOM     83  C   UNL A   1      37.908  33.619  37.814  1.00  0.00     0.022 A 
BRANCH  81  84
ATOM     84  S   UNL A   1      36.836  31.469  39.118  1.00  0.00     0.127 S 
ATOM     85  O   UNL A   1      36.456  30.181  38.542  1.00  0.00    -0.237 OA
ATOM     86  O   UNL A   1      37.863  31.401  40.156  1.00  0.00    -0.237 OA
ATOM     87  O   UNL A   1      35.734  32.375  39.415  1.00  0.00    -0.744 OA
ENDBRANCH  81  84
ENDBRANCH  53  77
BRANCH  65  88
ATOM     88  C   UNL A   1      44.904  29.289  33.734  1.00  0.00     0.023 A 
ATOM     89  C   UNL A   1      45.162  28.073  34.394  1.00  0.00     0.012 A 
ATOM     90  C   UNL A   1      45.940  30.236  33.594  1.00  0.00     0.148 A 
ATOM     91  C   UNL A   1      46.429  27.802  34.910  1.00  0.00     0.002 A 
ATOM     92  C   UNL A   1      47.213  29.938  34.067  1.00  0.00     0.091 A 
ATOM     93  F   UNL A   1      45.670  31.390  32.968  1.00  0.00    -0.205 F 
ATOM     94  C   UNL A   1      47.457  28.725  34.733  1.00  0.00     0.022 A 
BRANCH  92  95
ATOM     95  S   UNL A   1      48.629  31.009  33.790  1.00  0.00     0.127 S 
ATOM     96  O   UNL A   1      48.487  31.331  32.371  1.00  0.00    -0.237 OA
ATOM     97  O   UNL A   1      48.356  32.121  34.700  1.00  0.00    -0.237 OA
ATOM     98  O   UNL A   1      49.806  30.219  34.128  1.00  0.00    -0.744 OA
ENDBRANCH  92  95
ENDBRANCH  65  88
ENDBRANCH  39  40
ENDBRANCH  32  34
ENDBRANCH  31  32
ENDBRANCH  30  31
ENDBRANCH  29  30
ENDBRANCH  28  29
ENDBRANCH  27  28
ENDBRANCH   1  27
TORSDOF 24
ENDMDL
MODEL 2
REMARK VINA RESULT:      -9.5      5.614     10.341
REMARK SMILES Cc1cc(C)c2c(c1)C=C(C(=O)OCCOCCOCCOCCOC(=O)c1ccc(-c3c4nc(c(-c5cccc(S(=O)(=O)[O-])c5F)c5ccc([nH]5)c(-c5cccc(S(=O)(=O)[O-])c5F)c5nc(c(-c6cccc(S(=O)(=O)[O-])c6F)c6ccc3[nH]6)C=C5)C=C4)cc1)[C@@H](C(F)(F)F)O2
REMARK SMILES IDX 20 1 19 2 18 3 17 4 16 5 15 6 14 7 13 8 11 9 12 10 10 11
REMARK SMILES IDX 1 12 2 13 3 14 8 15 4 16 7 17 5 18 6 19 9 20 96 21 91 22
REMARK SMILES IDX 92 23 93 24 94 25 95 26 21 27 22 28 23 29 24 30 25 31 26 32
REMARK SMILES IDX 27 33 28 34 29 35 90 36 30 37 89 38 31 39 32 40 33 41 83 42
REMARK SMILES IDX 34 43 88 44 82 45 84 46 35 47 87 48 81 49 80 50 36 52 68 53
REMARK SMILES IDX 48 54 67 55 49 56 52 57 66 58 85 59 50 60 51 61 65 63 86 64
REMARK SMILES IDX 53 65 37 66 38 67 46 68 39 69 41 70 47 71 40 72 42 73 43 74
REMARK SMILES IDX 44 75 45 76 69 77 70 78 78 79 71 80 73 81 79 82 72 83 74 84
REMARK SMILES IDX 75 85 76 86 77 87 54 88 55 89 63 90 56 91 58 92 64 93 57 94
REMARK SMILES IDX 59 95 60 96 61 97 62 98
REMARK H PARENT 84 51 52 62
REMARK Flexibility Score: inf
ROOT
ATOM      1  C   UNL A   1      42.787  19.146  26.422  1.00  0.00     0.188 C 
ENDROOT
BRANCH   1   2
ATOM      2  O   UNL A   1      41.783  20.141  26.627  1.00  0.00    -0.377 OA
BRANCH   2   3
ATOM      3  C   UNL A   1      42.135  21.504  26.485  1.00  0.00     0.188 C 
BRANCH   3   4
ATOM      4  C   UNL A   1      41.469  22.439  27.511  1.00  0.00     0.188 C 
BRANCH   4   5
ATOM      5  O   UNL A   1      40.675  23.457  26.913  1.00  0.00    -0.376 OA
BRANCH   5   6
ATOM      6  C   UNL A   1      40.371  24.609  27.686  1.00  0.00     0.202 C 
BRANCH   6   7
ATOM      7  C   UNL A   1      40.486  25.992  27.026  1.00  0.00     0.261 C 
BRANCH   7   8
ATOM      8  O   UNL A   1      41.210  26.977  27.773  1.00  0.00    -0.460 OA
BRANCH   8   9
ATOM      9  C   UNL A   1      41.112  28.262  27.388  1.00  0.00     0.338 C 
ATOM     10  O   UNL A   1      41.688  28.792  26.453  1.00  0.00    -0.246 OA
BRANCH   9  11
ATOM     11  C   UNL A   1      40.033  28.889  28.183  1.00  0.00     0.087 C 
ATOM     12  C   UNL A   1      34.470  31.505  27.646  1.00  0.00     0.044 C 
ATOM     13  C   UNL A   1      35.700  31.002  28.340  1.00  0.00    -0.050 A 
ATOM     14  C   UNL A   1      35.879  31.243  29.708  1.00  0.00     0.010 A 
ATOM     15  C   UNL A   1      36.695  30.315  27.636  1.00  0.00     0.015 A 
ATOM     16  C   UNL A   1      37.029  30.795  30.375  1.00  0.00    -0.008 A 
ATOM     17  C   UNL A   1      37.858  29.883  28.283  1.00  0.00     0.018 A 
ATOM     18  C   UNL A   1      37.213  31.088  31.838  1.00  0.00     0.048 C 
ATOM     19  C   UNL A   1      38.007  30.091  29.657  1.00  0.00     0.130 A 
ATOM     20  C   UNL A   1      38.936  29.275  27.520  1.00  0.00     0.027 C 
ATOM     21  O   UNL A   1      39.086  29.646  30.367  1.00  0.00    -0.475 OA
ATOM     22  C   UNL A   1      40.186  28.989  29.680  1.00  0.00     0.316 C 
BRANCH  22  23
ATOM     23  C   UNL A   1      41.482  29.707  30.081  1.00  0.00     0.430 C 
ATOM     24  F   UNL A   1      41.307  30.454  31.194  1.00  0.00    -0.167 F 
ATOM     25  F   UNL A   1      42.487  28.839  30.332  1.00  0.00    -0.167 F 
ATOM     26  F   UNL A   1      41.906  30.538  29.097  1.00  0.00    -0.167 F 
ENDBRANCH  22  23
ENDBRANCH   9  11
ENDBRANCH   8   9
ENDBRANCH   7   8
ENDBRANCH   6   7
ENDBRANCH   5   6
ENDBRANCH   4   5
ENDBRANCH   3   4
ENDBRANCH   2   3
ENDBRANCH   1   2
BRANCH   1  27
ATOM     27  C   UNL A   1      43.371  18.821  25.025  1.00  0.00     0.188 C 
BRANCH  27  28
ATOM     28  O   UNL A   1      44.726  18.383  25.029  1.00  0.00    -0.376 OA
BRANCH  28  29
ATOM     29  C   UNL A   1      45.670  19.219  24.376  1.00  0.00     0.202 C 
BRANCH  29  30
ATOM     30  C   UNL A   1      45.970  20.532  25.108  1.00  0.00     0.261 C 
BRANCH  30  31
ATOM     31  O   UNL A   1      46.241  21.659  24.261  1.00  0.00    -0.460 OA
BRANCH  31  32
ATOM     32  C   UNL A   1      45.200  22.450  23.921  1.00  0.00     0.338 C 
ATOM     33  O   UNL A   1      44.343  22.221  23.087  1.00  0.00    -0.246 OA
BRANCH  32  34
ATOM     34  C   UNL A   1      45.160  23.561  24.892  1.00  0.00     0.060 A 
ATOM     35  C   UNL A   1      46.354  23.987  25.487  1.00  0.00     0.016 A 
ATOM     36  C   UNL A   1      43.954  24.206  25.180  1.00  0.00     0.016 A 
ATOM     37  C   UNL A   1      46.338  25.044  26.395  1.00  0.00     0.010 A 
ATOM     38  C   UNL A   1      43.936  25.250  26.106  1.00  0.00     0.010 A 
ATOM     39  C   UNL A   1      45.124  25.652  26.741  1.00  0.00    -0.014 A 
BRANCH  39  40
ATOM     40  C   UNL A   1      45.073  26.545  27.923  1.00  0.00     0.031 A 
ATOM     41  C   UNL A   1      45.155  28.029  27.686  1.00  0.00     0.074 A 
ATOM     42  C   UNL A   1      44.924  26.062  29.170  1.00  0.00     0.049 A 
ATOM     43  N   UNL A   1      45.057  29.008  28.544  1.00  0.00    -0.248 NA
ATOM     44  C   UNL A   1      45.371  28.465  26.296  1.00  0.00     0.031 C 
ATOM     45  C   UNL A   1      44.833  24.648  29.525  1.00  0.00     0.029 A 
ATOM     46  N   UNL A   1      44.827  26.720  30.371  1.00  0.00    -0.354 N 
ATOM     47  C   UNL A   1      45.194  30.173  27.799  1.00  0.00     0.074 A 
ATOM     48  C   UNL A   1      45.418  29.782  26.428  1.00  0.00     0.031 C 
ATOM     49  C   UNL A   1      44.699  24.542  30.860  1.00  0.00     0.029 A 
ATOM     50  C   UNL A   1      44.705  25.880  31.454  1.00  0.00     0.049 A 
ATOM     51  H   UNL A   1      44.844  27.700  30.451  1.00  0.00     0.167 HD
ATOM     52  C   UNL A   1      45.105  31.456  28.214  1.00  0.00     0.034 A 
ATOM     53  C   UNL A   1      44.609  26.162  32.770  1.00  0.00     0.034 A 
ATOM     54  C   UNL A   1      44.872  31.847  29.576  1.00  0.00     0.049 A 
ATOM     55  C   UNL A   1      44.581  27.605  33.216  1.00  0.00     0.074 A 
ATOM     56  C   UNL A   1      44.730  33.123  30.087  1.00  0.00     0.029 A 
ATOM     57  N   UNL A   1      44.764  30.968  30.642  1.00  0.00    -0.354 N 
ATOM     58  N   UNL A   1      44.567  28.694  32.486  1.00  0.00    -0.248 NA
ATOM     59  C   UNL A   1      44.531  27.859  34.665  1.00  0.00     0.031 C 
ATOM     60  C   UNL A   1      44.565  33.019  31.470  1.00  0.00     0.029 A 
ATOM     61  C   UNL A   1      44.579  31.676  31.816  1.00  0.00     0.049 A 
ATOM     62  H   UNL A   1      44.811  29.988  30.575  1.00  0.00     0.167 HD
ATOM     63  C   UNL A   1      44.479  29.757  33.381  1.00  0.00     0.074 A 
ATOM     64  C   UNL A   1      44.420  29.181  34.708  1.00  0.00     0.031 C 
ATOM     65  C   UNL A   1      44.468  31.089  33.127  1.00  0.00     0.034 A 
BRANCH  52  66
ATOM     66  C   UNL A   1      45.204  32.538  27.175  1.00  0.00     0.023 A 
ATOM     67  C   UNL A   1      44.090  32.805  26.353  1.00  0.00     0.012 A 
ATOM     68  C   UNL A   1      46.357  33.338  27.065  1.00  0.00     0.148 A 
ATOM     69  C   UNL A   1      44.128  33.841  25.423  1.00  0.00     0.002 A 
ATOM     70  C   UNL A   1      46.371  34.397  26.165  1.00  0.00     0.091 A 
ATOM     71  F   UNL A   1      47.410  33.051  27.841  1.00  0.00    -0.205 F 
ATOM     72  C   UNL A   1      45.262  34.644  25.338  1.00  0.00     0.022 A 
BRANCH  70  73
ATOM     73  S   UNL A   1      47.750  35.539  26.030  1.00  0.00     0.127 S 
ATOM     74  O   UNL A   1      48.341  35.445  27.365  1.00  0.00    -0.237 OA
ATOM     75  O   UNL A   1      48.548  34.931  24.967  1.00  0.00    -0.237 OA
ATOM     76  O   UNL A   1      47.173  36.833  25.699  1.00  0.00    -0.744 OA
ENDBRANCH  70  73
ENDBRANCH  52  66
BRANCH  53  77
ATOM     77  C   UNL A   1      44.471  25.058  33.765  1.00  0.00     0.023 A 
ATOM     78  C   UNL A   1      43.188  24.696  34.222  1.00  0.00     0.012 A 
ATOM     79  C   UNL A   1      45.592  24.355  34.247  1.00  0.00     0.148 A 
ATOM     80  C   UNL A   1      43.026  23.673  35.157  1.00  0.00     0.002 A 
ATOM     81  C   UNL A   1      45.419  23.301  35.138  1.00  0.00     0.091 A 
ATOM     82  F   UNL A   1      46.806  24.726  33.817  1.00  0.00    -0.205 F 
ATOM     83  C   UNL A   1      44.140  22.968  35.606  1.00  0.00     0.022 A 
BRANCH  81  84
ATOM     84  S   UNL A   1      46.779  22.259  35.682  1.00  0.00     0.127 S 
ATOM     85  O   UNL A   1      47.736  23.248  36.173  1.00  0.00    -0.237 OA
ATOM     86  O   UNL A   1      46.139  21.451  36.720  1.00  0.00    -0.237 OA
ATOM     87  O   UNL A   1      47.196  21.510  34.504  1.00  0.00    -0.744 OA
ENDBRANCH  81  84
ENDBRANCH  53  77
BRANCH  65  88
ATOM     88  C   UNL A   1      44.393  32.046  34.290  1.00  0.00     0.023 A 
ATOM     89  C   UNL A   1      45.583  32.589  34.812  1.00  0.00     0.012 A 
ATOM     90  C   UNL A   1      43.150  32.536  34.743  1.00  0.00     0.148 A 
ATOM     91  C   UNL A   1      45.539  33.601  35.770  1.00  0.00     0.002 A 
ATOM     92  C   UNL A   1      43.115  33.579  35.661  1.00  0.00     0.091 A 
ATOM     93  F   UNL A   1      42.031  32.000  34.237  1.00  0.00    -0.205 F 
ATOM     94  C   UNL A   1      44.308  34.107  36.182  1.00  0.00     0.022 A 
BRANCH  92  95
ATOM     95  S   UNL A   1      41.586  34.376  36.170  1.00  0.00     0.127 S 
ATOM     96  O   UNL A   1      41.470  33.938  37.560  1.00  0.00    -0.237 OA
ATOM     97  O   UNL A   1      41.907  35.792  36.001  1.00  0.00    -0.237 OA
ATOM     98  O   UNL A   1      40.550  33.874  35.277  1.00  0.00    -0.744 OA
ENDBRANCH  92  95
ENDBRANCH  65  88
ENDBRANCH  39  40
ENDBRANCH  32  34
ENDBRANCH  31  32
ENDBRANCH  30  31
ENDBRANCH  29  30
ENDBRANCH  28  29
ENDBRANCH  27  28
ENDBRANCH   1  27
TORSDOF 24
ENDMDL
MODEL 3
REMARK VINA RESULT:      -9.4      2.729      3.700
REMARK SMILES Cc1cc(C)c2c(c1)C=C(C(=O)OCCOCCOCCOCCOC(=O)c1ccc(-c3c4nc(c(-c5cccc(S(=O)(=O)[O-])c5F)c5ccc([nH]5)c(-c5cccc(S(=O)(=O)[O-])c5F)c5nc(c(-c6cccc(S(=O)(=O)[O-])c6F)c6ccc3[nH]6)C=C5)C=C4)cc1)[C@@H](C(F)(F)F)O2
REMARK SMILES IDX 20 1 19 2 18 3 17 4 16 5 15 6 14 7 13 8 11 9 12 10 10 11
REMARK SMILES IDX 1 12 2 13 3 14 8 15 4 16 7 17 5 18 6 19 9 20 96 21 91 22
REMARK SMILES IDX 92 23 93 24 94 25 95 26 21 27 22 28 23 29 24 30 25 31 26 32
REMARK SMILES IDX 27 33 28 34 29 35 90 36 30 37 89 38 31 39 32 40 33 41 83 42
REMARK SMILES IDX 34 43 88 44 82 45 84 46 35 47 87 48 81 49 80 50 36 52 68 53
REMARK SMILES IDX 48 54 67 55 49 56 52 57 66 58 85 59 50 60 51 61 65 63 86 64
REMARK SMILES IDX 53 65 37 66 38 67 46 68 39 69 41 70 47 71 40 72 42 73 43 74
REMARK SMILES IDX 44 75 45 76 69 77 70 78 78 79 71 80 73 81 79 82 72 83 74 84
REMARK SMILES IDX 75 85 76 86 77 87 54 88 55 89 63 90 56 91 58 92 64 93 57 94
REMARK SMILES IDX 59 95 60 96 61 97 62 98
REMARK H PARENT 84 51 52 62
REMARK Flexibility Score: inf
ROOT
ATOM      1  C   UNL A   1      31.399  30.452  25.752  1.00  0.00     0.188 C 
ENDROOT
BRANCH   1   2
ATOM      2  O   UNL A   1      31.361  29.644  24.575  1.00  0.00    -0.377 OA
BRANCH   2   3
ATOM      3  C   UNL A   1      30.231  29.725  23.728  1.00  0.00     0.188 C 
BRANCH   3   4
ATOM      4  C   UNL A   1      30.283  28.784  22.512  1.00  0.00     0.188 C 
BRANCH   4   5
ATOM      5  O   UNL A   1      30.311  27.406  22.866  1.00  0.00    -0.376 OA
BRANCH   5   6
ATOM      6  C   UNL A   1      31.429  26.632  22.456  1.00  0.00     0.202 C 
BRANCH   6   7
ATOM      7  C   UNL A   1      31.412  25.117  22.711  1.00  0.00     0.261 C 
BRANCH   7   8
ATOM      8  O   UNL A   1      32.458  24.618  23.553  1.00  0.00    -0.460 OA
BRANCH   8   9
ATOM      9  C   UNL A   1      32.124  23.776  24.547  1.00  0.00     0.338 C 
ATOM     10  O   UNL A   1      31.109  23.807  25.222  1.00  0.00    -0.246 OA
BRANCH   9  11
ATOM     11  C   UNL A   1      33.119  22.680  24.562  1.00  0.00     0.087 C 
ATOM     12  C   UNL A   1      33.608  16.534  24.299  1.00  0.00     0.044 C 
ATOM     13  C   UNL A   1      34.076  17.956  24.399  1.00  0.00    -0.050 A 
ATOM     14  C   UNL A   1      35.428  18.232  24.635  1.00  0.00     0.010 A 
ATOM     15  C   UNL A   1      33.174  19.020  24.288  1.00  0.00     0.015 A 
ATOM     16  C   UNL A   1      35.885  19.554  24.748  1.00  0.00    -0.008 A 
ATOM     17  C   UNL A   1      33.612  20.343  24.420  1.00  0.00     0.018 A 
ATOM     18  C   UNL A   1      37.336  19.827  25.028  1.00  0.00     0.048 C 
ATOM     19  C   UNL A   1      34.970  20.609  24.613  1.00  0.00     0.130 A 
ATOM     20  C   UNL A   1      32.651  21.433  24.420  1.00  0.00     0.027 C 
ATOM     21  O   UNL A   1      35.479  21.874  24.693  1.00  0.00    -0.475 OA
ATOM     22  C   UNL A   1      34.585  23.020  24.656  1.00  0.00     0.316 C 
BRANCH  22  23
ATOM     23  C   UNL A   1      34.897  23.895  25.878  1.00  0.00     0.430 C 
ATOM     24  F   UNL A   1      34.214  23.479  26.968  1.00  0.00    -0.167 F 
ATOM     25  F   UNL A   1      36.210  23.876  26.195  1.00  0.00    -0.167 F 
ATOM     26  F   UNL A   1      34.557  25.188  25.655  1.00  0.00    -0.167 F 
ENDBRANCH  22  23
ENDBRANCH   9  11
ENDBRANCH   8   9
ENDBRANCH   7   8
ENDBRANCH   6   7
ENDBRANCH   5   6
ENDBRANCH   4   5
ENDBRANCH   3   4
ENDBRANCH   2   3
ENDBRANCH   1   2
BRANCH   1  27
ATOM     27  C   UNL A   1      32.197  30.052  27.017  1.00  0.00     0.188 C 
BRANCH  27  28
ATOM     28  O   UNL A   1      33.604  30.244  26.924  1.00  0.00    -0.376 OA
BRANCH  28  29
ATOM     29  C   UNL A   1      34.182  31.186  27.815  1.00  0.00     0.202 C 
BRANCH  29  30
ATOM     30  C   UNL A   1      33.744  32.636  27.581  1.00  0.00     0.261 C 
BRANCH  30  31
ATOM     31  O   UNL A   1      33.036  33.248  28.669  1.00  0.00    -0.460 OA
BRANCH  31  32
ATOM     32  C   UNL A   1      33.589  34.342  29.237  1.00  0.00     0.338 C 
ATOM     33  O   UNL A   1      33.170  35.485  29.193  1.00  0.00    -0.246 OA
BRANCH  32  34
ATOM     34  C   UNL A   1      34.689  33.876  30.104  1.00  0.00     0.060 A 
ATOM     35  C   UNL A   1      35.979  34.376  29.893  1.00  0.00     0.016 A 
ATOM     36  C   UNL A   1      34.436  32.980  31.147  1.00  0.00     0.016 A 
ATOM     37  C   UNL A   1      37.028  33.958  30.711  1.00  0.00     0.010 A 
ATOM     38  C   UNL A   1      35.492  32.546  31.952  1.00  0.00     0.010 A 
ATOM     39  C   UNL A   1      36.797  33.009  31.716  1.00  0.00    -0.014 A 
BRANCH  39  40
ATOM     40  C   UNL A   1      37.954  32.344  32.361  1.00  0.00     0.031 A 
ATOM     41  C   UNL A   1      38.575  31.171  31.651  1.00  0.00     0.074 A 
ATOM     42  C   UNL A   1      38.466  32.784  33.524  1.00  0.00     0.049 A 
ATOM     43  N   UNL A   1      39.633  30.478  31.973  1.00  0.00    -0.248 NA
ATOM     44  C   UNL A   1      37.917  30.726  30.410  1.00  0.00     0.031 C 
ATOM     45  C   UNL A   1      37.953  33.908  34.304  1.00  0.00     0.029 A 
ATOM     46  N   UNL A   1      39.536  32.327  34.253  1.00  0.00    -0.354 N 
ATOM     47  C   UNL A   1      39.770  29.521  30.975  1.00  0.00     0.074 A 
ATOM     48  C   UNL A   1      38.670  29.695  30.058  1.00  0.00     0.031 C 
ATOM     49  C   UNL A   1      38.707  34.050  35.409  1.00  0.00     0.029 A 
ATOM     50  C   UNL A   1      39.749  33.023  35.421  1.00  0.00     0.049 A 
ATOM     51  H   UNL A   1      40.099  31.572  33.967  1.00  0.00     0.167 HD
ATOM     52  C   UNL A   1      40.747  28.599  30.818  1.00  0.00     0.034 A 
ATOM     53  C   UNL A   1      40.678  32.847  36.384  1.00  0.00     0.034 A 
ATOM     54  C   UNL A   1      41.847  28.430  31.724  1.00  0.00     0.049 A 
ATOM     55  C   UNL A   1      41.718  31.765  36.218  1.00  0.00     0.074 A 
ATOM     56  C   UNL A   1      42.906  27.547  31.629  1.00  0.00     0.029 A 
ATOM     57  N   UNL A   1      42.021  29.146  32.898  1.00  0.00    -0.354 N 
ATOM     58  N   UNL A   1      41.919  30.962  35.200  1.00  0.00    -0.248 NA
ATOM     59  C   UNL A   1      42.674  31.577  37.321  1.00  0.00     0.031 C 
ATOM     60  C   UNL A   1      43.707  27.708  32.762  1.00  0.00     0.029 A 
ATOM     61  C   UNL A   1      43.159  28.709  33.550  1.00  0.00     0.049 A 
ATOM     62  H   UNL A   1      41.424  29.859  33.219  1.00  0.00     0.167 HD
ATOM     63  C   UNL A   1      43.036  30.198  35.526  1.00  0.00     0.074 A 
ATOM     64  C   UNL A   1      43.483  30.648  36.828  1.00  0.00     0.031 C 
ATOM     65  C   UNL A   1      43.625  29.202  34.821  1.00  0.00     0.034 A 
BRANCH  52  66
ATOM     66  C   UNL A   1      40.703  27.735  29.588  1.00  0.00     0.023 A 
ATOM     67  C   UNL A   1      39.761  26.689  29.516  1.00  0.00     0.012 A 
ATOM     68  C   UNL A   1      41.530  28.003  28.481  1.00  0.00     0.148 A 
ATOM     69  C   UNL A   1      39.653  25.910  28.366  1.00  0.00     0.002 A 
ATOM     70  C   UNL A   1      41.387  27.249  27.322  1.00  0.00     0.091 A 
ATOM     71  F   UNL A   1      42.433  28.987  28.581  1.00  0.00    -0.205 F 
ATOM     72  C   UNL A   1      40.456  26.198  27.267  1.00  0.00     0.022 A 
BRANCH  70  73
ATOM     73  S   UNL A   1      42.316  27.585  25.823  1.00  0.00     0.127 S 
ATOM     74  O   UNL A   1      43.694  27.421  26.288  1.00  0.00    -0.237 OA
ATOM     75  O   UNL A   1      41.845  26.530  24.928  1.00  0.00    -0.237 OA
ATOM     76  O   UNL A   1      41.957  28.937  25.419  1.00  0.00    -0.744 OA
ENDBRANCH  70  73
ENDBRANCH  52  66
BRANCH  53  77
ATOM     77  C   UNL A   1      40.710  33.755  37.568  1.00  0.00     0.023 A 
ATOM     78  C   UNL A   1      41.503  34.919  37.525  1.00  0.00     0.012 A 
ATOM     79  C   UNL A   1      39.952  33.486  38.724  1.00  0.00     0.148 A 
ATOM     80  C   UNL A   1      41.560  35.785  38.618  1.00  0.00     0.002 A 
ATOM     81  C   UNL A   1      39.972  34.380  39.790  1.00  0.00     0.091 A 
ATOM     82  F   UNL A   1      39.220  32.363  38.756  1.00  0.00    -0.205 F 
ATOM     83  C   UNL A   1      40.786  35.521  39.745  1.00  0.00     0.022 A 
BRANCH  81  84
ATOM     84  S   UNL A   1      38.921  34.189  41.235  1.00  0.00     0.127 S 
ATOM     85  O   UNL A   1      38.995  35.518  41.838  1.00  0.00    -0.237 OA
ATOM     86  O   UNL A   1      37.633  33.859  40.625  1.00  0.00    -0.237 OA
ATOM     87  O   UNL A   1      39.515  33.110  42.013  1.00  0.00    -0.744 OA
ENDBRANCH  81  84
ENDBRANCH  53  77
BRANCH  65  88
ATOM     88  C   UNL A   1      44.823  28.504  35.416  1.00  0.00     0.023 A 
ATOM     89  C   UNL A   1      46.110  29.018  35.172  1.00  0.00     0.012 A 
ATOM     90  C   UNL A   1      44.659  27.457  36.347  1.00  0.00     0.148 A 
ATOM     91  C   UNL A   1      47.219  28.501  35.842  1.00  0.00     0.002 A 
ATOM     92  C   UNL A   1      45.761  26.980  37.047  1.00  0.00     0.091 A 
ATOM     93  F   UNL A   1      43.425  26.978  36.559  1.00  0.00    -0.205 F 
ATOM     94  C   UNL A   1      47.043  27.495  36.789  1.00  0.00     0.022 A 
BRANCH  92  95
ATOM     95  S   UNL A   1      45.626  25.767  38.367  1.00  0.00     0.127 S 
ATOM     96  O   UNL A   1      44.219  25.380  38.273  1.00  0.00    -0.237 OA
ATOM     97  O   UNL A   1      46.572  24.739  37.937  1.00  0.00    -0.237 OA
ATOM     98  O   UNL A   1      45.994  26.461  39.594  1.00  0.00    -0.744 OA
ENDBRANCH  92  95
ENDBRANCH  65  88
ENDBRANCH  39  40
ENDBRANCH  32  34
ENDBRANCH  31  32
ENDBRANCH  30  31
ENDBRANCH  29  30
ENDBRANCH  28  29
ENDBRANCH  27  28
ENDBRANCH   1  27
TORSDOF 24
ENDMDL
