MODEL 1
REMARK VINA RESULT:     -11.7      0.000      0.000
REMARK SMILES O=C(OCCOCCOCCOCCOC(=O)c1ccc(-c2c3nc(c(-c4cccc(S(=O)(=O)[O-])c4F)c4ccc([nH]4)c(-c4cccc(S(=O)(=O)[O-])c4F)c4nc(c(-c5cccc(S(=O)(=O)[O-])c5F)c5ccc2[nH]5)C=C4)C=C3)cc1)C1=Cc2ccc(Cl)c(Cl)c2O[C@@H]1C(F)(F)F
REMARK SMILES IDX 10 1 9 2 8 3 7 4 6 5 5 6 4 7 3 8 2 9 1 10 81 11 82 12 92 13
REMARK SMILES IDX 83 14 91 15 84 16 90 17 85 18 88 19 86 20 89 21 87 22 93 23
REMARK SMILES IDX 94 24 95 25 96 26 11 27 12 28 13 29 14 30 15 31 16 32 17 33
REMARK SMILES IDX 18 34 19 35 80 36 20 37 79 38 21 39 22 40 23 41 73 42 24 43
REMARK SMILES IDX 78 44 72 45 74 46 25 47 77 48 71 49 70 50 26 52 58 53 38 54
REMARK SMILES IDX 57 55 39 56 42 57 56 58 75 59 40 60 41 61 55 63 76 64 43 65
REMARK SMILES IDX 27 66 28 67 36 68 29 69 31 70 37 71 30 72 32 73 33 74 34 75
REMARK SMILES IDX 35 76 59 77 60 78 68 79 61 80 63 81 69 82 62 83 64 84 65 85
REMARK SMILES IDX 66 86 67 87 44 88 45 89 53 90 46 91 48 92 54 93 47 94 49 95
REMARK SMILES IDX 50 96 51 97 52 98
REMARK H PARENT 74 51 42 62
REMARK Flexibility Score: inf
ROOT
ATOM      1  C   UNL A   1      32.449  28.613  25.086  1.00  0.00     0.188 C 
ENDROOT
BRANCH   1   2
ATOM      2  O   UNL A   1      32.051  29.149  23.846  1.00  0.00    -0.377 OA
BRANCH   2   3
ATOM      3  C   UNL A   1      30.674  28.977  23.622  1.00  0.00     0.188 C 
BRANCH   3   4
ATOM      4  C   UNL A   1      30.316  27.724  22.814  1.00  0.00     0.188 C 
BRANCH   4   5
ATOM      5  O   UNL A   1      31.195  27.088  21.822  1.00  0.00    -0.376 OA
BRANCH   5   6
ATOM      6  C   UNL A   1      32.563  26.163  21.936  1.00  0.00     0.202 C 
BRANCH   6   7
ATOM      7  C   UNL A   1      32.716  23.993  21.732  1.00  0.00     0.261 C 
BRANCH   7   8
ATOM      8  O   UNL A   1      32.338  22.962  22.776  1.00  0.00    -0.460 OA
BRANCH   8   9
ATOM      9  C   UNL A   1      31.174  23.243  23.372  1.00  0.00     0.338 C 
ATOM     10  O   UNL A   1      30.326  24.027  23.028  1.00  0.00    -0.246 OA
BRANCH   9  11
ATOM     11  C   UNL A   1      31.516  22.719  24.685  1.00  0.00     0.087 C 
ATOM     12  C   UNL A   1      32.081  21.365  24.665  1.00  0.00     0.027 C 
ATOM     13  C   UNL A   1      32.481  24.302  25.184  1.00  0.00     0.316 C 
ATOM     14  C   UNL A   1      33.831  20.994  24.874  1.00  0.00     0.019 A 
ATOM     15  O   UNL A   1      34.399  23.961  25.279  1.00  0.00    -0.474 OA
ATOM     16  C   UNL A   1      34.246  19.695  24.765  1.00  0.00     0.013 A 
ATOM     17  C   UNL A   1      35.026  22.241  25.065  1.00  0.00     0.148 A 
ATOM     18  C   UNL A   1      35.637  19.506  24.841  1.00  0.00     0.023 A 
ATOM     19  C   UNL A   1      36.375  21.963  25.057  1.00  0.00     0.102 A 
ATOM     20  C   UNL A   1      36.641  20.564  24.973  1.00  0.00     0.063 A 
ATOM     21  Cl  UNL A   1      37.600  23.150  25.018  1.00  0.00    -0.079 Cl
ATOM     22  Cl  UNL A   1      38.280  19.968  25.025  1.00  0.00    -0.083 Cl
BRANCH  13  23
ATOM     23  C   UNL A   1      31.347  24.716  26.341  1.00  0.00     0.430 C 
ATOM     24  F   UNL A   1      31.065  23.830  27.312  1.00  0.00    -0.167 F 
ATOM     25  F   UNL A   1      31.863  25.790  27.019  1.00  0.00    -0.167 F 
ATOM     26  F   UNL A   1      30.168  25.176  25.851  1.00  0.00    -0.167 F 
ENDBRANCH  13  23
ENDBRANCH   9  11
ENDBRANCH   8   9
ENDBRANCH   7   8
ENDBRANCH   6   7
ENDBRANCH   5   6
ENDBRANCH   4   5
ENDBRANCH   3   4
ENDBRANCH   2   3
ENDBRANCH   1   2
BRANCH   1  27
ATOM     27  C   UNL A   1      32.872  29.624  26.157  1.00  0.00     0.188 C 
BRANCH  27  28
ATOM     28  O   UNL A   1      31.943  30.383  26.912  1.00  0.00    -0.376 OA
BRANCH  28  29
ATOM     29  C   UNL A   1      31.352  31.556  26.385  1.00  0.00     0.202 C 
BRANCH  29  30
ATOM     30  C   UNL A   1      31.630  32.950  26.971  1.00  0.00     0.261 C 
BRANCH  30  31
ATOM     31  O   UNL A   1      32.994  33.391  26.977  1.00  0.00    -0.460 OA
BRANCH  31  32
ATOM     32  C   UNL A   1      33.498  33.706  28.190  1.00  0.00     0.338 C 
ATOM     33  O   UNL A   1      32.961  34.387  29.047  1.00  0.00    -0.246 OA
BRANCH  32  34
ATOM     34  C   UNL A   1      34.739  32.933  28.429  1.00  0.00     0.060 A 
ATOM     35  C   UNL A   1      34.614  31.572  28.755  1.00  0.00     0.016 A 
ATOM     36  C   UNL A   1      36.002  33.523  28.350  1.00  0.00     0.016 A 
ATOM     37  C   UNL A   1      35.738  30.811  29.053  1.00  0.00     0.010 A 
ATOM     38  C   UNL A   1      37.127  32.772  28.700  1.00  0.00     0.010 A 
ATOM     39  C   UNL A   1      36.990  31.430  29.102  1.00  0.00    -0.014 A 
BRANCH  39  40
ATOM     40  C   UNL A   1      38.085  30.752  29.832  1.00  0.00     0.031 A 
ATOM     41  C   UNL A   1      38.313  31.135  31.268  1.00  0.00     0.074 A 
ATOM     42  C   UNL A   1      38.833  29.797  29.253  1.00  0.00     0.049 A 
ATOM     43  N   UNL A   1      39.233  30.725  32.101  1.00  0.00    -0.248 NA
ATOM     44  C   UNL A   1      37.376  32.117  31.843  1.00  0.00     0.031 C 
ATOM     45  C   UNL A   1      38.672  29.312  27.886  1.00  0.00     0.029 A 
ATOM     46  N   UNL A   1      39.895  29.083  29.746  1.00  0.00    -0.354 N 
ATOM     47  C   UNL A   1      39.014  31.430  33.278  1.00  0.00     0.074 A 
ATOM     48  C   UNL A   1      37.880  32.297  33.054  1.00  0.00     0.031 C 
ATOM     49  C   UNL A   1      39.628  28.402  27.634  1.00  0.00     0.029 A 
ATOM     50  C   UNL A   1      40.487  28.272  28.810  1.00  0.00     0.049 A 
ATOM     51  H   UNL A   1      40.203  29.146  30.680  1.00  0.00     0.167 HD
ATOM     52  C   UNL A   1      39.697  31.358  34.444  1.00  0.00     0.034 A 
ATOM     53  C   UNL A   1      41.618  27.541  28.884  1.00  0.00     0.034 A 
ATOM     54  C   UNL A   1      40.823  30.492  34.659  1.00  0.00     0.049 A 
ATOM     55  C   UNL A   1      42.396  27.522  30.175  1.00  0.00     0.074 A 
ATOM     56  C   UNL A   1      41.563  30.315  35.814  1.00  0.00     0.029 A 
ATOM     57  N   UNL A   1      41.390  29.678  33.691  1.00  0.00    -0.354 N 
ATOM     58  N   UNL A   1      42.133  28.127  31.309  1.00  0.00    -0.248 NA
ATOM     59  C   UNL A   1      43.612  26.697  30.206  1.00  0.00     0.031 C 
ATOM     60  C   UNL A   1      42.616  29.444  35.526  1.00  0.00     0.029 A 
ATOM     61  C   UNL A   1      42.488  29.017  34.214  1.00  0.00     0.049 A 
ATOM     62  H   UNL A   1      41.062  29.584  32.768  1.00  0.00     0.167 HD
ATOM     63  C   UNL A   1      43.124  27.723  32.197  1.00  0.00     0.074 A 
ATOM     64  C   UNL A   1      43.981  26.808  31.475  1.00  0.00     0.031 C 
ATOM     65  C   UNL A   1      43.310  28.080  33.493  1.00  0.00     0.034 A 
BRANCH  52  66
ATOM     66  C   UNL A   1      39.257  32.257  35.569  1.00  0.00     0.023 A 
ATOM     67  C   UNL A   1      38.359  31.786  36.550  1.00  0.00     0.012 A 
ATOM     68  C   UNL A   1      39.771  33.564  35.676  1.00  0.00     0.148 A 
ATOM     69  C   UNL A   1      37.950  32.615  37.595  1.00  0.00     0.002 A 
ATOM     70  C   UNL A   1      39.402  34.365  36.748  1.00  0.00     0.091 A 
ATOM     71  F   UNL A   1      40.608  34.001  34.723  1.00  0.00    -0.205 F 
ATOM     72  C   UNL A   1      38.481  33.898  37.700  1.00  0.00     0.022 A 
BRANCH  70  73
ATOM     73  S   UNL A   1      40.092  36.000  37.018  1.00  0.00     0.127 S 
ATOM     74  O   UNL A   1      41.515  35.698  37.173  1.00  0.00    -0.237 OA
ATOM     75  O   UNL A   1      39.747  36.685  35.772  1.00  0.00    -0.237 OA
ATOM     76  O   UNL A   1      39.437  36.527  38.206  1.00  0.00    -0.744 OA
ENDBRANCH  70  73
ENDBRANCH  52  66
BRANCH  53  77
ATOM     77  C   UNL A   1      42.090  26.768  27.700  1.00  0.00     0.023 A 
ATOM     78  C   UNL A   1      42.787  27.424  26.668  1.00  0.00     0.012 A 
ATOM     79  C   UNL A   1      41.843  25.386  27.592  1.00  0.00     0.148 A 
ATOM     80  C   UNL A   1      43.195  26.726  25.530  1.00  0.00     0.002 A 
ATOM     81  C   UNL A   1      42.303  24.684  26.485  1.00  0.00     0.091 A 
ATOM     82  F   UNL A   1      41.168  24.783  28.580  1.00  0.00    -0.205 F 
ATOM     83  C   UNL A   1      42.961  25.356  25.443  1.00  0.00     0.022 A 
BRANCH  81  84
ATOM     84  S   UNL A   1      42.152  22.901  26.339  1.00  0.00     0.127 S 
ATOM     85  O   UNL A   1      42.971  22.439  27.457  1.00  0.00    -0.237 OA
ATOM     86  O   UNL A   1      40.711  22.711  26.511  1.00  0.00    -0.237 OA
ATOM     87  O   UNL A   1      42.652  22.567  25.014  1.00  0.00    -0.744 OA
ENDBRANCH  81  84
ENDBRANCH  53  77
BRANCH  65  88
ATOM     88  C   UNL A   1      44.448  27.433  34.243  1.00  0.00     0.023 A 
ATOM     89  C   UNL A   1      45.728  28.022  34.249  1.00  0.00     0.012 A 
ATOM     90  C   UNL A   1      44.221  26.267  35.002  1.00  0.00     0.148 A 
ATOM     91  C   UNL A   1      46.774  27.436  34.963  1.00  0.00     0.002 A 
ATOM     92  C   UNL A   1      45.251  25.722  35.757  1.00  0.00     0.091 A 
ATOM     93  F   UNL A   1      42.999  25.715  34.976  1.00  0.00    -0.205 F 
ATOM     94  C   UNL A   1      46.533  26.294  35.724  1.00  0.00     0.022 A 
BRANCH  92  95
ATOM     95  S   UNL A   1      45.011  24.313  36.844  1.00  0.00     0.127 S 
ATOM     96  O   UNL A   1      44.054  24.845  37.813  1.00  0.00    -0.237 OA
ATOM     97  O   UNL A   1      44.461  23.311  35.931  1.00  0.00    -0.237 OA
ATOM     98  O   UNL A   1      46.324  23.988  37.384  1.00  0.00    -0.744 OA
ENDBRANCH  92  95
ENDBRANCH  65  88
ENDBRANCH  39  40
ENDBRANCH  32  34
ENDBRANCH  31  32
ENDBRANCH  30  31
ENDBRANCH  29  30
ENDBRANCH  28  29
ENDBRANCH  27  28
ENDBRANCH   1  27
TORSDOF 24
ENDMDL
MODEL 2
REMARK VINA RESULT:     -11.3      4.870      8.390
REMARK SMILES O=C(OCCOCCOCCOCCOC(=O)c1ccc(-c2c3nc(c(-c4cccc(S(=O)(=O)[O-])c4F)c4ccc([nH]4)c(-c4cccc(S(=O)(=O)[O-])c4F)c4nc(c(-c5cccc(S(=O)(=O)[O-])c5F)c5ccc2[nH]5)C=C4)C=C3)cc1)C1=Cc2ccc(Cl)c(Cl)c2O[C@@H]1C(F)(F)F
REMARK SMILES IDX 10 1 9 2 8 3 7 4 6 5 5 6 4 7 3 8 2 9 1 10 81 11 82 12 92 13
REMARK SMILES IDX 83 14 91 15 84 16 90 17 85 18 88 19 86 20 89 21 87 22 93 23
REMARK SMILES IDX 94 24 95 25 96 26 11 27 12 28 13 29 14 30 15 31 16 32 17 33
REMARK SMILES IDX 18 34 19 35 80 36 20 37 79 38 21 39 22 40 23 41 73 42 24 43
REMARK SMILES IDX 78 44 72 45 74 46 25 47 77 48 71 49 70 50 26 52 58 53 38 54
REMARK SMILES IDX 57 55 39 56 42 57 56 58 75 59 40 60 41 61 55 63 76 64 43 65
REMARK SMILES IDX 27 66 28 67 36 68 29 69 31 70 37 71 30 72 32 73 33 74 34 75
REMARK SMILES IDX 35 76 59 77 60 78 68 79 61 80 63 81 69 82 62 83 64 84 65 85
REMARK SMILES IDX 66 86 67 87 44 88 45 89 53 90 46 91 48 92 54 93 47 94 49 95
REMARK SMILES IDX 50 96 51 97 52 98
REMARK H PARENT 74 51 42 62
REMARK Flexibility Score: inf
ROOT
ATOM      1  C   UNL A   1      33.482  20.856  24.475  1.00  0.00     0.188 C 
ENDROOT
BRANCH   1   2
ATOM      2  O   UNL A   1      32.903  20.779  25.756  1.00  0.00    -0.377 OA
BRANCH   2   3
ATOM      3  C   UNL A   1      33.790  21.216  26.756  1.00  0.00     0.188 C 
BRANCH   3   4
ATOM      4  C   UNL A   1      33.157  22.140  27.803  1.00  0.00     0.188 C 
BRANCH   4   5
ATOM      5  O   UNL A   1      32.202  23.216  27.502  1.00  0.00    -0.376 OA
BRANCH   5   6
ATOM      6  C   UNL A   1      30.752  23.266  26.705  1.00  0.00     0.202 C 
BRANCH   6   7
ATOM      7  C   UNL A   1      29.734  25.031  25.916  1.00  0.00     0.261 C 
BRANCH   7   8
ATOM      8  O   UNL A   1      30.230  25.934  24.805  1.00  0.00    -0.460 OA
BRANCH   8   9
ATOM      9  C   UNL A   1      30.280  25.309  23.624  1.00  0.00     0.338 C 
ATOM     10  O   UNL A   1      30.210  24.127  23.397  1.00  0.00    -0.246 OA
BRANCH   9  11
ATOM     11  C   UNL A   1      30.902  26.390  22.876  1.00  0.00     0.087 C 
ATOM     12  C   UNL A   1      30.152  27.652  22.906  1.00  0.00     0.027 C 
ATOM     13  C   UNL A   1      32.616  26.114  23.696  1.00  0.00     0.316 C 
ATOM     14  C   UNL A   1      30.603  29.074  23.913  1.00  0.00     0.019 A 
ATOM     15  O   UNL A   1      33.065  27.578  24.905  1.00  0.00    -0.474 OA
ATOM     16  C   UNL A   1      29.784  30.171  23.907  1.00  0.00     0.013 A 
ATOM     17  C   UNL A   1      31.960  29.050  24.997  1.00  0.00     0.148 A 
ATOM     18  C   UNL A   1      30.154  31.195  24.796  1.00  0.00     0.023 A 
ATOM     19  C   UNL A   1      32.201  30.076  25.885  1.00  0.00     0.102 A 
ATOM     20  C   UNL A   1      31.283  31.156  25.729  1.00  0.00     0.063 A 
ATOM     21  Cl  UNL A   1      33.375  30.020  27.121  1.00  0.00    -0.079 Cl
ATOM     22  Cl  UNL A   1      31.441  32.601  26.694  1.00  0.00    -0.083 Cl
BRANCH  13  23
ATOM     23  C   UNL A   1      33.296  25.580  22.265  1.00  0.00     0.430 C 
ATOM     24  F   UNL A   1      33.446  26.457  21.257  1.00  0.00    -0.167 F 
ATOM     25  F   UNL A   1      34.579  25.205  22.565  1.00  0.00    -0.167 F 
ATOM     26  F   UNL A   1      32.739  24.455  21.750  1.00  0.00    -0.167 F 
ENDBRANCH  13  23
ENDBRANCH   9  11
ENDBRANCH   8   9
ENDBRANCH   7   8
ENDBRANCH   6   7
ENDBRANCH   5   6
ENDBRANCH   4   5
ENDBRANCH   3   4
ENDBRANCH   2   3
ENDBRANCH   1   2
BRANCH   1  27
ATOM     27  C   UNL A   1      33.875  22.255  23.992  1.00  0.00     0.188 C 
BRANCH  27  28
ATOM     28  O   UNL A   1      35.079  22.895  24.379  1.00  0.00    -0.376 OA
BRANCH  28  29
ATOM     29  C   UNL A   1      36.323  22.522  23.817  1.00  0.00     0.202 C 
BRANCH  29  30
ATOM     30  C   UNL A   1      37.170  21.372  24.387  1.00  0.00     0.261 C 
BRANCH  30  31
ATOM     31  O   UNL A   1      37.576  21.484  25.757  1.00  0.00    -0.460 OA
BRANCH  31  32
ATOM     32  C   UNL A   1      38.898  21.330  25.987  1.00  0.00     0.338 C 
ATOM     33  O   UNL A   1      39.612  20.440  25.557  1.00  0.00    -0.246 OA
BRANCH  32  34
ATOM     34  C   UNL A   1      39.424  22.525  26.686  1.00  0.00     0.060 A 
ATOM     35  C   UNL A   1      38.851  23.771  26.381  1.00  0.00     0.016 A 
ATOM     36  C   UNL A   1      40.465  22.438  27.612  1.00  0.00     0.016 A 
ATOM     37  C   UNL A   1      39.346  24.936  26.956  1.00  0.00     0.010 A 
ATOM     38  C   UNL A   1      40.996  23.613  28.151  1.00  0.00     0.010 A 
ATOM     39  C   UNL A   1      40.470  24.866  27.783  1.00  0.00    -0.014 A 
BRANCH  39  40
ATOM     40  C   UNL A   1      41.246  26.104  28.027  1.00  0.00     0.031 A 
ATOM     41  C   UNL A   1      40.580  27.206  28.804  1.00  0.00     0.074 A 
ATOM     42  C   UNL A   1      42.515  26.235  27.607  1.00  0.00     0.049 A 
ATOM     43  N   UNL A   1      41.027  28.397  29.103  1.00  0.00    -0.248 NA
ATOM     44  C   UNL A   1      39.224  26.927  29.309  1.00  0.00     0.031 C 
ATOM     45  C   UNL A   1      43.276  25.217  26.888  1.00  0.00     0.029 A 
ATOM     46  N   UNL A   1      43.377  27.297  27.709  1.00  0.00    -0.354 N 
ATOM     47  C   UNL A   1      39.994  29.023  29.791  1.00  0.00     0.074 A 
ATOM     48  C   UNL A   1      38.896  28.086  29.860  1.00  0.00     0.031 C 
ATOM     49  C   UNL A   1      44.485  25.717  26.580  1.00  0.00     0.029 A 
ATOM     50  C   UNL A   1      44.564  27.100  27.047  1.00  0.00     0.049 A 
ATOM     51  H   UNL A   1      43.166  28.120  28.207  1.00  0.00     0.167 HD
ATOM     52  C   UNL A   1      39.964  30.268  30.319  1.00  0.00     0.034 A 
ATOM     53  C   UNL A   1      45.579  27.956  26.811  1.00  0.00     0.034 A 
ATOM     54  C   UNL A   1      41.062  31.193  30.247  1.00  0.00     0.049 A 
ATOM     55  C   UNL A   1      45.499  29.358  27.359  1.00  0.00     0.074 A 
ATOM     56  C   UNL A   1      41.149  32.465  30.781  1.00  0.00     0.029 A 
ATOM     57  N   UNL A   1      42.251  30.958  29.575  1.00  0.00    -0.354 N 
ATOM     58  N   UNL A   1      44.554  29.913  28.079  1.00  0.00    -0.248 NA
ATOM     59  C   UNL A   1      46.641  30.244  27.087  1.00  0.00     0.031 C 
ATOM     60  C   UNL A   1      42.365  33.023  30.379  1.00  0.00     0.029 A 
ATOM     61  C   UNL A   1      43.069  32.071  29.659  1.00  0.00     0.049 A 
ATOM     62  H   UNL A   1      42.481  30.122  29.108  1.00  0.00     0.167 HD
ATOM     63  C   UNL A   1      45.004  31.194  28.380  1.00  0.00     0.074 A 
ATOM     64  C   UNL A   1      46.314  31.326  27.780  1.00  0.00     0.031 C 
ATOM     65  C   UNL A   1      44.387  32.175  29.087  1.00  0.00     0.034 A 
BRANCH  52  66
ATOM     66  C   UNL A   1      38.697  30.708  31.003  1.00  0.00     0.023 A 
ATOM     67  C   UNL A   1      38.509  30.471  32.380  1.00  0.00     0.012 A 
ATOM     68  C   UNL A   1      37.705  31.401  30.281  1.00  0.00     0.148 A 
ATOM     69  C   UNL A   1      37.338  30.879  33.018  1.00  0.00     0.002 A 
ATOM     70  C   UNL A   1      36.566  31.851  30.934  1.00  0.00     0.091 A 
ATOM     71  F   UNL A   1      37.893  31.599  28.968  1.00  0.00    -0.205 F 
ATOM     72  C   UNL A   1      36.373  31.578  32.298  1.00  0.00     0.022 A 
BRANCH  70  73
ATOM     73  S   UNL A   1      35.305  32.832  30.114  1.00  0.00     0.127 S 
ATOM     74  O   UNL A   1      36.091  33.955  29.603  1.00  0.00    -0.237 OA
ATOM     75  O   UNL A   1      34.821  31.909  29.087  1.00  0.00    -0.237 OA
ATOM     76  O   UNL A   1      34.328  33.175  31.137  1.00  0.00    -0.744 OA
ENDBRANCH  70  73
ENDBRANCH  52  66
BRANCH  53  77
ATOM     77  C   UNL A   1      46.759  27.517  26.014  1.00  0.00     0.023 A 
ATOM     78  C   UNL A   1      46.778  27.717  24.621  1.00  0.00     0.012 A 
ATOM     79  C   UNL A   1      47.861  26.894  26.634  1.00  0.00     0.148 A 
ATOM     80  C   UNL A   1      47.854  27.270  23.853  1.00  0.00     0.002 A 
ATOM     81  C   UNL A   1      48.955  26.504  25.872  1.00  0.00     0.091 A 
ATOM     82  F   UNL A   1      47.818  26.703  27.959  1.00  0.00    -0.205 F 
ATOM     83  C   UNL A   1      48.945  26.672  24.478  1.00  0.00     0.022 A 
BRANCH  81  84
ATOM     84  S   UNL A   1      50.452  25.833  26.602  1.00  0.00     0.127 S 
ATOM     85  O   UNL A   1      50.795  26.864  27.579  1.00  0.00    -0.237 OA
ATOM     86  O   UNL A   1      49.964  24.578  27.176  1.00  0.00    -0.237 OA
ATOM     87  O   UNL A   1      51.393  25.671  25.503  1.00  0.00    -0.744 OA
ENDBRANCH  81  84
ENDBRANCH  53  77
BRANCH  65  88
ATOM     88  C   UNL A   1      45.142  33.460  29.310  1.00  0.00     0.023 A 
ATOM     89  C   UNL A   1      46.008  33.600  30.414  1.00  0.00     0.012 A 
ATOM     90  C   UNL A   1      45.041  34.512  28.376  1.00  0.00     0.148 A 
ATOM     91  C   UNL A   1      46.725  34.781  30.607  1.00  0.00     0.002 A 
ATOM     92  C   UNL A   1      45.802  35.660  28.542  1.00  0.00     0.091 A 
ATOM     93  F   UNL A   1      44.205  34.364  27.338  1.00  0.00    -0.205 F 
ATOM     94  C   UNL A   1      46.631  35.806  29.667  1.00  0.00     0.022 A 
BRANCH  92  95
ATOM     95  S   UNL A   1      45.822  36.989  27.334  1.00  0.00     0.127 S 
ATOM     96  O   UNL A   1      46.595  38.014  28.032  1.00  0.00    -0.237 OA
ATOM     97  O   UNL A   1      46.513  36.367  26.205  1.00  0.00    -0.237 OA
ATOM     98  O   UNL A   1      44.429  37.329  27.081  1.00  0.00    -0.744 OA
ENDBRANCH  92  95
ENDBRANCH  65  88
ENDBRANCH  39  40
ENDBRANCH  32  34
ENDBRANCH  31  32
ENDBRANCH  30  31
ENDBRANCH  29  30
ENDBRANCH  28  29
ENDBRANCH  27  28
ENDBRANCH   1  27
TORSDOF 24
ENDMDL
MODEL 3
REMARK VINA RESULT:     -11.0      4.939     10.558
REMARK SMILES O=C(OCCOCCOCCOCCOC(=O)c1ccc(-c2c3nc(c(-c4cccc(S(=O)(=O)[O-])c4F)c4ccc([nH]4)c(-c4cccc(S(=O)(=O)[O-])c4F)c4nc(c(-c5cccc(S(=O)(=O)[O-])c5F)c5ccc2[nH]5)C=C4)C=C3)cc1)C1=Cc2ccc(Cl)c(Cl)c2O[C@@H]1C(F)(F)F
REMARK SMILES IDX 10 1 9 2 8 3 7 4 6 5 5 6 4 7 3 8 2 9 1 10 81 11 82 12 92 13
REMARK SMILES IDX 83 14 91 15 84 16 90 17 85 18 88 19 86 20 89 21 87 22 93 23
REMARK SMILES IDX 94 24 95 25 96 26 11 27 12 28 13 29 14 30 15 31 16 32 17 33
REMARK SMILES IDX 18 34 19 35 80 36 20 37 79 38 21 39 22 40 23 41 73 42 24 43
REMARK SMILES IDX 78 44 72 45 74 46 25 47 77 48 71 49 70 50 26 52 58 53 38 54
REMARK SMILES IDX 57 55 39 56 42 57 56 58 75 59 40 60 41 61 55 63 76 64 43 65
REMARK SMILES IDX 27 66 28 67 36 68 29 69 31 70 37 71 30 72 32 73 33 74 34 75
REMARK SMILES IDX 35 76 59 77 60 78 68 79 61 80 63 81 69 82 62 83 64 84 65 85
REMARK SMILES IDX 66 86 67 87 44 88 45 89 53 90 46 91 48 92 54 93 47 94 49 95
REMARK SMILES IDX 50 96 51 97 52 98
REMARK H PARENT 74 51 42 62
REMARK Flexibility Score: inf
ROOT
ATOM      1  C   UNL A   1      33.759  21.044  24.584  1.00  0.00     0.188 C 
ENDROOT
BRANCH   1   2
ATOM      2  O   UNL A   1      32.977  20.979  25.753  1.00  0.00    -0.377 OA
BRANCH   2   3
ATOM      3  C   UNL A   1      33.760  21.123  26.913  1.00  0.00     0.188 C 
BRANCH   3   4
ATOM      4  C   UNL A   1      33.211  22.134  27.925  1.00  0.00     0.188 C 
BRANCH   4   5
ATOM      5  O   UNL A   1      32.488  23.365  27.572  1.00  0.00    -0.376 OA
BRANCH   5   6
ATOM      6  C   UNL A   1      31.082  23.666  26.752  1.00  0.00     0.202 C 
BRANCH   6   7
ATOM      7  C   UNL A   1      30.231  25.616  26.255  1.00  0.00     0.261 C 
BRANCH   7   8
ATOM      8  O   UNL A   1      30.833  26.651  25.326  1.00  0.00    -0.460 OA
BRANCH   8   9
ATOM      9  C   UNL A   1      30.205  26.705  24.147  1.00  0.00     0.338 C 
ATOM     10  O   UNL A   1      29.529  25.859  23.618  1.00  0.00    -0.246 OA
BRANCH   9  11
ATOM     11  C   UNL A   1      30.977  27.801  23.584  1.00  0.00     0.087 C 
ATOM     12  C   UNL A   1      30.684  29.111  24.178  1.00  0.00     0.027 C 
ATOM     13  C   UNL A   1      32.643  26.863  23.765  1.00  0.00     0.316 C 
ATOM     14  C   UNL A   1      31.748  29.945  25.367  1.00  0.00     0.019 A 
ATOM     15  O   UNL A   1      33.757  27.664  25.151  1.00  0.00    -0.474 OA
ATOM     16  C   UNL A   1      31.332  31.133  25.903  1.00  0.00     0.013 A 
ATOM     17  C   UNL A   1      33.213  29.226  25.964  1.00  0.00     0.148 A 
ATOM     18  C   UNL A   1      32.173  31.666  26.896  1.00  0.00     0.023 A 
ATOM     19  C   UNL A   1      33.934  29.791  26.993  1.00  0.00     0.102 A 
ATOM     20  C   UNL A   1      33.392  31.040  27.415  1.00  0.00     0.063 A 
ATOM     21  Cl  UNL A   1      35.249  29.033  27.772  1.00  0.00    -0.079 Cl
ATOM     22  Cl  UNL A   1      34.183  31.978  28.656  1.00  0.00    -0.083 Cl
BRANCH  13  23
ATOM     23  C   UNL A   1      32.825  26.719  22.110  1.00  0.00     0.430 C 
ATOM     24  F   UNL A   1      31.723  26.718  21.339  1.00  0.00    -0.167 F 
ATOM     25  F   UNL A   1      33.508  27.834  21.699  1.00  0.00    -0.167 F 
ATOM     26  F   UNL A   1      33.609  25.688  21.706  1.00  0.00    -0.167 F 
ENDBRANCH  13  23
ENDBRANCH   9  11
ENDBRANCH   8   9
ENDBRANCH   7   8
ENDBRANCH   6   7
ENDBRANCH   5   6
ENDBRANCH   4   5
ENDBRANCH   3   4
ENDBRANCH   2   3
ENDBRANCH   1   2
BRANCH   1  27
ATOM     27  C   UNL A   1      34.209  22.441  24.146  1.00  0.00     0.188 C 
BRANCH  27  28
ATOM     28  O   UNL A   1      35.515  22.940  24.382  1.00  0.00    -0.376 OA
BRANCH  28  29
ATOM     29  C   UNL A   1      36.656  22.295  23.848  1.00  0.00     0.202 C 
BRANCH  29  30
ATOM     30  C   UNL A   1      37.479  21.279  24.657  1.00  0.00     0.261 C 
BRANCH  30  31
ATOM     31  O   UNL A   1      37.903  21.683  25.965  1.00  0.00    -0.460 OA
BRANCH  31  32
ATOM     32  C   UNL A   1      39.236  21.648  26.181  1.00  0.00     0.338 C 
ATOM     33  O   UNL A   1      40.016  20.799  25.784  1.00  0.00    -0.246 OA
BRANCH  32  34
ATOM     34  C   UNL A   1      39.670  22.916  26.813  1.00  0.00     0.060 A 
ATOM     35  C   UNL A   1      39.023  24.100  26.424  1.00  0.00     0.016 A 
ATOM     36  C   UNL A   1      40.698  22.954  27.757  1.00  0.00     0.016 A 
ATOM     37  C   UNL A   1      39.430  25.328  26.935  1.00  0.00     0.010 A 
ATOM     38  C   UNL A   1      41.142  24.192  28.231  1.00  0.00     0.010 A 
ATOM     39  C   UNL A   1      40.542  25.383  27.779  1.00  0.00    -0.014 A 
BRANCH  39  40
ATOM     40  C   UNL A   1      41.230  26.681  27.957  1.00  0.00     0.031 A 
ATOM     41  C   UNL A   1      42.605  26.833  27.367  1.00  0.00     0.074 A 
ATOM     42  C   UNL A   1      40.642  27.710  28.590  1.00  0.00     0.049 A 
ATOM     43  N   UNL A   1      43.428  27.846  27.430  1.00  0.00    -0.248 NA
ATOM     44  C   UNL A   1      43.123  25.683  26.604  1.00  0.00     0.031 C 
ATOM     45  C   UNL A   1      39.297  27.694  29.159  1.00  0.00     0.029 A 
ATOM     46  N   UNL A   1      41.118  28.964  28.877  1.00  0.00    -0.354 N 
ATOM     47  C   UNL A   1      44.574  27.440  26.756  1.00  0.00     0.074 A 
ATOM     48  C   UNL A   1      44.345  26.089  26.297  1.00  0.00     0.031 C 
ATOM     49  C   UNL A   1      39.067  28.873  29.762  1.00  0.00     0.029 A 
ATOM     50  C   UNL A   1      40.262  29.708  29.651  1.00  0.00     0.049 A 
ATOM     51  H   UNL A   1      41.989  29.298  28.559  1.00  0.00     0.167 HD
ATOM     52  C   UNL A   1      45.715  28.134  26.537  1.00  0.00     0.034 A 
ATOM     53  C   UNL A   1      40.444  30.908  30.238  1.00  0.00     0.034 A 
ATOM     54  C   UNL A   1      45.933  29.478  26.996  1.00  0.00     0.049 A 
ATOM     55  C   UNL A   1      41.745  31.638  30.029  1.00  0.00     0.074 A 
ATOM     56  C   UNL A   1      47.038  30.285  26.797  1.00  0.00     0.029 A 
ATOM     57  N   UNL A   1      45.042  30.204  27.771  1.00  0.00    -0.354 N 
ATOM     58  N   UNL A   1      42.790  31.281  29.321  1.00  0.00    -0.248 NA
ATOM     59  C   UNL A   1      41.884  32.951  30.678  1.00  0.00     0.031 C 
ATOM     60  C   UNL A   1      46.842  31.473  27.504  1.00  0.00     0.029 A 
ATOM     61  C   UNL A   1      45.583  31.439  28.081  1.00  0.00     0.049 A 
ATOM     62  H   UNL A   1      44.155  29.887  28.059  1.00  0.00     0.167 HD
ATOM     63  C   UNL A   1      43.689  32.340  29.404  1.00  0.00     0.074 A 
ATOM     64  C   UNL A   1      43.058  33.358  30.216  1.00  0.00     0.031 C 
ATOM     65  C   UNL A   1      44.927  32.458  28.860  1.00  0.00     0.034 A 
BRANCH  52  66
ATOM     66  C   UNL A   1      46.822  27.443  25.787  1.00  0.00     0.023 A 
ATOM     67  C   UNL A   1      47.525  26.374  26.378  1.00  0.00     0.012 A 
ATOM     68  C   UNL A   1      47.136  27.831  24.469  1.00  0.00     0.148 A 
ATOM     69  C   UNL A   1      48.550  25.728  25.686  1.00  0.00     0.002 A 
ATOM     70  C   UNL A   1      48.120  27.149  23.766  1.00  0.00     0.091 A 
ATOM     71  F   UNL A   1      46.470  28.863  23.931  1.00  0.00    -0.205 F 
ATOM     72  C   UNL A   1      48.839  26.108  24.378  1.00  0.00     0.022 A 
BRANCH  70  73
ATOM     73  S   UNL A   1      48.509  27.507  22.050  1.00  0.00     0.127 S 
ATOM     74  O   UNL A   1      48.766  26.168  21.521  1.00  0.00    -0.237 OA
ATOM     75  O   UNL A   1      47.267  28.121  21.579  1.00  0.00    -0.237 OA
ATOM     76  O   UNL A   1      49.660  28.397  22.072  1.00  0.00    -0.744 OA
ENDBRANCH  70  73
ENDBRANCH  52  66
BRANCH  53  77
ATOM     77  C   UNL A   1      39.368  31.499  31.084  1.00  0.00     0.023 A 
ATOM     78  C   UNL A   1      38.295  32.180  30.478  1.00  0.00     0.012 A 
ATOM     79  C   UNL A   1      39.409  31.393  32.488  1.00  0.00     0.148 A 
ATOM     80  C   UNL A   1      37.303  32.779  31.256  1.00  0.00     0.002 A 
ATOM     81  C   UNL A   1      38.389  31.940  33.255  1.00  0.00     0.091 A 
ATOM     82  F   UNL A   1      40.445  30.750  33.045  1.00  0.00    -0.205 F 
ATOM     83  C   UNL A   1      37.345  32.652  32.642  1.00  0.00     0.022 A 
BRANCH  81  84
ATOM     84  S   UNL A   1      38.296  31.727  35.035  1.00  0.00     0.127 S 
ATOM     85  O   UNL A   1      36.995  32.318  35.339  1.00  0.00    -0.237 OA
ATOM     86  O   UNL A   1      38.357  30.270  35.163  1.00  0.00    -0.237 OA
ATOM     87  O   UNL A   1      39.448  32.431  35.580  1.00  0.00    -0.744 OA
ENDBRANCH  81  84
ENDBRANCH  53  77
BRANCH  65  88
ATOM     88  C   UNL A   1      45.663  33.757  29.067  1.00  0.00     0.023 A 
ATOM     89  C   UNL A   1      46.489  33.941  30.194  1.00  0.00     0.012 A 
ATOM     90  C   UNL A   1      45.586  34.776  28.096  1.00  0.00     0.148 A 
ATOM     91  C   UNL A   1      47.189  35.134  30.372  1.00  0.00     0.002 A 
ATOM     92  C   UNL A   1      46.331  35.937  28.250  1.00  0.00     0.091 A 
ATOM     93  F   UNL A   1      44.786  34.587  27.035  1.00  0.00    -0.205 F 
ATOM     94  C   UNL A   1      47.119  36.127  29.396  1.00  0.00     0.022 A 
BRANCH  92  95
ATOM     95  S   UNL A   1      46.381  37.226  27.000  1.00  0.00     0.127 S 
ATOM     96  O   UNL A   1      46.791  36.474  25.815  1.00  0.00    -0.237 OA
ATOM     97  O   UNL A   1      44.994  37.687  26.979  1.00  0.00    -0.237 OA
ATOM     98  O   UNL A   1      47.343  38.212  27.471  1.00  0.00    -0.744 OA
ENDBRANCH  92  95
ENDBRANCH  65  88
ENDBRANCH  39  40
ENDBRANCH  32  34
ENDBRANCH  31  32
ENDBRANCH  30  31
ENDBRANCH  29  30
ENDBRANCH  28  29
ENDBRANCH  27  28
ENDBRANCH   1  27
TORSDOF 24
ENDMDL
