MODEL 1
REMARK VINA RESULT:     -11.1      0.000      0.000
REMARK SMILES C[C@H]1[C@H](C)CC[C@@]2(C(=O)OCCOCCOCCOCCOC(=O)c3ccc(-c4c5nc(c(-c6cccc(S(=O)(=O)[O-])c6F)c6ccc([nH]6)c(-c6cccc(S(=O)(=O)[O-])c6F)c6nc(c(-c7cccc(S(=O)(=O)[O-])c7F)c7ccc4[nH]7)C=C6)C=C5)cc3)CC[C@@]3(C)C(=CC[C@@H]4[C@@]5(C)CC[C@H](O)C(C)(C)[C@@H]5CC[C@]43C)[C@H]12
REMARK SMILES IDX 17 1 16 2 15 3 14 4 13 5 12 6 11 7 10 8 8 9 9 10 7 11 1 12
REMARK SMILES IDX 2 13 3 14 110 15 4 16 5 17 92 18 6 19 88 20 90 21 93 22
REMARK SMILES IDX 89 23 91 24 108 25 94 26 95 27 107 28 109 29 96 30 106 31
REMARK SMILES IDX 97 32 98 33 105 34 99 35 102 36 100 37 103 38 104 39 101 40
REMARK SMILES IDX 18 42 19 43 20 44 21 45 22 46 23 47 24 48 25 49 26 50 87 51
REMARK SMILES IDX 27 52 86 53 28 54 29 55 30 56 80 57 31 58 85 59 79 60 81 61
REMARK SMILES IDX 32 62 84 63 78 64 77 65 33 67 65 68 45 69 64 70 46 71 49 72
REMARK SMILES IDX 63 73 82 74 47 75 48 76 62 78 83 79 50 80 34 81 35 82 43 83
REMARK SMILES IDX 36 84 38 85 44 86 37 87 39 88 40 89 41 90 42 91 66 92 67 93
REMARK SMILES IDX 75 94 68 95 70 96 76 97 69 98 71 99 72 100 73 101 74 102
REMARK SMILES IDX 51 103 52 104 60 105 53 106 55 107 61 108 54 109 56 110
REMARK SMILES IDX 57 111 58 112 59 113
REMARK H PARENT 101 41 81 66 49 77
REMARK Flexibility Score: inf
ROOT
ATOM      1  C   UNL A   1      33.121  25.344  26.034  1.00  0.00     0.188 C 
ENDROOT
BRANCH   1   2
ATOM      2  O   UNL A   1      34.151  24.392  26.098  1.00  0.00    -0.377 OA
BRANCH   2   3
ATOM      3  C   UNL A   1      34.933  24.239  24.938  1.00  0.00     0.188 C 
BRANCH   3   4
ATOM      4  C   UNL A   1      36.424  23.871  25.097  1.00  0.00     0.188 C 
BRANCH   4   5
ATOM      5  O   UNL A   1      37.107  24.348  26.246  1.00  0.00    -0.376 OA
BRANCH   5   6
ATOM      6  C   UNL A   1      38.410  23.889  26.534  1.00  0.00     0.202 C 
BRANCH   6   7
ATOM      7  C   UNL A   1      39.560  24.877  26.552  1.00  0.00     0.261 C 
BRANCH   7   8
ATOM      8  O   UNL A   1      39.343  26.162  27.227  1.00  0.00    -0.463 OA
BRANCH   8   9
ATOM      9  C   UNL A   1      39.451  26.823  28.405  1.00  0.00     0.312 C 
ATOM     10  O   UNL A   1      39.425  26.366  29.538  1.00  0.00    -0.252 OA
BRANCH   9  11
ATOM     11  C   UNL A   1      39.748  28.319  28.159  1.00  0.00     0.075 C 
ATOM     12  C   UNL A   1      40.969  29.643  31.695  1.00  0.00     0.008 C 
ATOM     13  C   UNL A   1      40.112  28.926  30.653  1.00  0.00    -0.003 C 
ATOM     14  C   UNL A   1      38.624  29.465  30.677  1.00  0.00    -0.011 C 
ATOM     15  C   UNL A   1      40.809  28.821  29.189  1.00  0.00     0.036 C 
ATOM     16  C   UNL A   1      37.870  29.158  31.988  1.00  0.00     0.008 C 
ATOM     17  C   UNL A   1      37.733  28.900  29.570  1.00  0.00     0.005 C 
ATOM     18  C   UNL A   1      42.088  27.885  28.867  1.00  0.00    -0.063 C 
ATOM     19  C   UNL A   1      38.391  29.040  28.225  1.00  0.00     0.020 C 
ATOM     20  C   UNL A   1      40.253  28.567  26.724  1.00  0.00     0.020 C 
ATOM     21  C   UNL A   1      42.664  27.891  27.390  1.00  0.00    -0.006 C 
ATOM     22  C   UNL A   1      42.501  26.913  29.712  1.00  0.00    -0.027 C 
ATOM     23  C   UNL A   1      41.501  27.783  26.369  1.00  0.00     0.013 C 
ATOM     24  C   UNL A   1      43.350  29.262  27.182  1.00  0.00     0.017 C 
ATOM     25  C   UNL A   1      43.739  26.663  27.087  1.00  0.00    -0.020 C 
ATOM     26  C   UNL A   1      43.204  25.640  29.269  1.00  0.00     0.032 C 
ATOM     27  C   UNL A   1      43.128  25.377  27.743  1.00  0.00     0.006 C 
ATOM     28  C   UNL A   1      44.001  26.397  25.580  1.00  0.00     0.008 C 
ATOM     29  C   UNL A   1      45.132  27.009  27.697  1.00  0.00     0.012 C 
ATOM     30  C   UNL A   1      43.606  23.910  27.251  1.00  0.00    -0.025 C 
ATOM     31  C   UNL A   1      44.801  25.106  25.317  1.00  0.00     0.005 C 
ATOM     32  C   UNL A   1      44.713  23.391  28.190  1.00  0.00     0.012 C 
ATOM     33  C   UNL A   1      42.415  22.897  27.357  1.00  0.00     0.010 C 
ATOM     34  C   UNL A   1      43.958  23.892  25.718  1.00  0.00     0.003 C 
ATOM     35  C   UNL A   1      42.679  21.491  26.795  1.00  0.00     0.033 C 
ATOM     36  C   UNL A   1      44.412  22.489  25.131  1.00  0.00    -0.006 C 
ATOM     37  C   UNL A   1      43.242  21.483  25.371  1.00  0.00     0.120 C 
ATOM     38  C   UNL A   1      45.747  21.946  25.686  1.00  0.00     0.014 C 
ATOM     39  C   UNL A   1      44.623  22.580  23.595  1.00  0.00     0.014 C 
BRANCH  37  40
ATOM     40  O   UNL A   1      43.619  20.152  25.011  1.00  0.00    -0.393 OA
ATOM     41  H   UNL A   1      43.007  19.814  24.338  1.00  0.00     0.210 HD
ENDBRANCH  37  40
ENDBRANCH   9  11
ENDBRANCH   8   9
ENDBRANCH   7   8
ENDBRANCH   6   7
ENDBRANCH   5   6
ENDBRANCH   4   5
ENDBRANCH   3   4
ENDBRANCH   2   3
ENDBRANCH   1   2
BRANCH   1  42
ATOM     42  C   UNL A   1      33.584  26.764  25.669  1.00  0.00     0.188 C 
BRANCH  42  43
ATOM     43  O   UNL A   1      33.361  27.889  26.513  1.00  0.00    -0.376 OA
BRANCH  43  44
ATOM     44  C   UNL A   1      33.708  29.207  26.130  1.00  0.00     0.202 C 
BRANCH  44  45
ATOM     45  C   UNL A   1      33.342  30.420  27.008  1.00  0.00     0.261 C 
BRANCH  45  46
ATOM     46  O   UNL A   1      34.401  31.306  27.385  1.00  0.00    -0.460 OA
BRANCH  46  47
ATOM     47  C   UNL A   1      34.032  32.474  27.955  1.00  0.00     0.338 C 
ATOM     48  O   UNL A   1      33.051  33.148  27.675  1.00  0.00    -0.246 OA
BRANCH  47  49
ATOM     49  C   UNL A   1      34.873  32.689  29.162  1.00  0.00     0.060 A 
ATOM     50  C   UNL A   1      35.114  34.017  29.552  1.00  0.00     0.016 A 
ATOM     51  C   UNL A   1      35.286  31.630  29.984  1.00  0.00     0.016 A 
ATOM     52  C   UNL A   1      35.779  34.293  30.741  1.00  0.00     0.010 A 
ATOM     53  C   UNL A   1      36.031  31.903  31.139  1.00  0.00     0.010 A 
ATOM     54  C   UNL A   1      36.328  33.235  31.478  1.00  0.00    -0.014 A 
BRANCH  54  55
ATOM     55  C   UNL A   1      37.570  33.553  32.222  1.00  0.00     0.031 A 
ATOM     56  C   UNL A   1      38.772  33.871  31.364  1.00  0.00     0.074 A 
ATOM     57  C   UNL A   1      37.628  33.653  33.559  1.00  0.00     0.049 A 
ATOM     58  N   UNL A   1      39.948  34.316  31.708  1.00  0.00    -0.248 NA
ATOM     59  C   UNL A   1      38.607  33.683  29.908  1.00  0.00     0.031 C 
ATOM     60  C   UNL A   1      36.531  33.396  34.488  1.00  0.00     0.029 A 
ATOM     61  N   UNL A   1      38.681  34.002  34.367  1.00  0.00    -0.354 N 
ATOM     62  C   UNL A   1      40.650  34.462  30.517  1.00  0.00     0.074 A 
ATOM     63  C   UNL A   1      39.785  34.051  29.442  1.00  0.00     0.031 C 
ATOM     64  C   UNL A   1      36.979  33.570  35.747  1.00  0.00     0.029 A 
ATOM     65  C   UNL A   1      38.392  33.947  35.709  1.00  0.00     0.049 A 
ATOM     66  H   UNL A   1      39.562  34.267  34.017  1.00  0.00     0.167 HD
ATOM     67  C   UNL A   1      41.909  34.913  30.323  1.00  0.00     0.034 A 
ATOM     68  C   UNL A   1      39.190  34.172  36.773  1.00  0.00     0.034 A 
ATOM     69  C   UNL A   1      42.784  35.289  31.390  1.00  0.00     0.049 A 
ATOM     70  C   UNL A   1      40.613  34.620  36.536  1.00  0.00     0.074 A 
ATOM     71  C   UNL A   1      44.084  35.744  31.315  1.00  0.00     0.029 A 
ATOM     72  N   UNL A   1      42.448  35.227  32.732  1.00  0.00    -0.354 N 
ATOM     73  N   UNL A   1      41.228  34.862  35.403  1.00  0.00    -0.248 NA
ATOM     74  C   UNL A   1      41.440  34.867  37.727  1.00  0.00     0.031 C 
ATOM     75  C   UNL A   1      44.547  35.936  32.620  1.00  0.00     0.029 A 
ATOM     76  C   UNL A   1      43.520  35.632  33.502  1.00  0.00     0.049 A 
ATOM     77  H   UNL A   1      41.575  34.937  33.085  1.00  0.00     0.167 HD
ATOM     78  C   UNL A   1      42.494  35.331  35.744  1.00  0.00     0.074 A 
ATOM     79  C   UNL A   1      42.551  35.353  37.191  1.00  0.00     0.031 C 
ATOM     80  C   UNL A   1      43.522  35.701  34.940  1.00  0.00     0.034 A 
BRANCH  67  81
ATOM     81  C   UNL A   1      42.392  35.001  28.904  1.00  0.00     0.023 A 
ATOM     82  C   UNL A   1      42.003  36.092  28.099  1.00  0.00     0.012 A 
ATOM     83  C   UNL A   1      43.218  33.999  28.365  1.00  0.00     0.148 A 
ATOM     84  C   UNL A   1      42.410  36.170  26.768  1.00  0.00     0.002 A 
ATOM     85  C   UNL A   1      43.657  34.108  27.052  1.00  0.00     0.091 A 
ATOM     86  F   UNL A   1      43.534  32.949  29.135  1.00  0.00    -0.205 F 
ATOM     87  C   UNL A   1      43.246  35.185  26.249  1.00  0.00     0.022 A 
BRANCH  85  88
ATOM     88  S   UNL A   1      44.792  32.927  26.316  1.00  0.00     0.127 S 
ATOM     89  O   UNL A   1      45.284  32.216  27.494  1.00  0.00    -0.237 OA
ATOM     90  O   UNL A   1      43.903  32.144  25.457  1.00  0.00    -0.237 OA
ATOM     91  O   UNL A   1      45.786  33.717  25.602  1.00  0.00    -0.744 OA
ENDBRANCH  85  88
ENDBRANCH  67  81
BRANCH  68  92
ATOM     92  C   UNL A   1      38.662  34.013  38.160  1.00  0.00     0.023 A 
ATOM     93  C   UNL A   1      38.827  35.053  39.098  1.00  0.00     0.012 A 
ATOM     94  C   UNL A   1      38.006  32.832  38.558  1.00  0.00     0.148 A 
ATOM     95  C   UNL A   1      38.383  34.904  40.413  1.00  0.00     0.002 A 
ATOM     96  C   UNL A   1      37.516  32.712  39.854  1.00  0.00     0.091 A 
ATOM     97  F   UNL A   1      37.876  31.845  37.660  1.00  0.00    -0.205 F 
ATOM     98  C   UNL A   1      37.719  33.738  40.788  1.00  0.00     0.022 A 
BRANCH  96  99
ATOM     99  S   UNL A   1      36.541  31.301  40.388  1.00  0.00     0.127 S 
ATOM    100  O   UNL A   1      37.354  30.181  39.920  1.00  0.00    -0.237 OA
ATOM    101  O   UNL A   1      36.518  31.483  41.840  1.00  0.00    -0.237 OA
ATOM    102  O   UNL A   1      35.244  31.453  39.744  1.00  0.00    -0.744 OA
ENDBRANCH  96  99
ENDBRANCH  68  92
BRANCH  80 103
ATOM    103  C   UNL A   1      44.778  36.214  35.593  1.00  0.00     0.023 A 
ATOM    104  C   UNL A   1      45.833  35.329  35.886  1.00  0.00     0.012 A 
ATOM    105  C   UNL A   1      44.942  37.594  35.829  1.00  0.00     0.148 A 
ATOM    106  C   UNL A   1      47.020  35.806  36.440  1.00  0.00     0.002 A 
ATOM    107  C   UNL A   1      46.147  38.068  36.331  1.00  0.00     0.091 A 
ATOM    108  F   UNL A   1      43.920  38.418  35.556  1.00  0.00    -0.205 F 
ATOM    109  C   UNL A   1      47.182  37.174  36.651  1.00  0.00     0.022 A 
BRANCH 107 110
ATOM    110  S   UNL A   1      46.474  39.822  36.530  1.00  0.00     0.127 S 
ATOM    111  O   UNL A   1      47.883  39.821  36.919  1.00  0.00    -0.237 OA
ATOM    112  O   UNL A   1      46.212  40.344  35.188  1.00  0.00    -0.237 OA
ATOM    113  O   UNL A   1      45.541  40.287  37.547  1.00  0.00    -0.744 OA
ENDBRANCH 107 110
ENDBRANCH  80 103
ENDBRANCH  54  55
ENDBRANCH  47  49
ENDBRANCH  46  47
ENDBRANCH  45  46
ENDBRANCH  44  45
ENDBRANCH  43  44
ENDBRANCH  42  43
ENDBRANCH   1  42
TORSDOF 24
ENDMDL
MODEL 2
REMARK VINA RESULT:     -10.0      1.749      1.996
REMARK SMILES C[C@H]1[C@H](C)CC[C@@]2(C(=O)OCCOCCOCCOCCOC(=O)c3ccc(-c4c5nc(c(-c6cccc(S(=O)(=O)[O-])c6F)c6ccc([nH]6)c(-c6cccc(S(=O)(=O)[O-])c6F)c6nc(c(-c7cccc(S(=O)(=O)[O-])c7F)c7ccc4[nH]7)C=C6)C=C5)cc3)CC[C@@]3(C)C(=CC[C@@H]4[C@@]5(C)CC[C@H](O)C(C)(C)[C@@H]5CC[C@]43C)[C@H]12
REMARK SMILES IDX 17 1 16 2 15 3 14 4 13 5 12 6 11 7 10 8 8 9 9 10 7 11 1 12
REMARK SMILES IDX 2 13 3 14 110 15 4 16 5 17 92 18 6 19 88 20 90 21 93 22
REMARK SMILES IDX 89 23 91 24 108 25 94 26 95 27 107 28 109 29 96 30 106 31
REMARK SMILES IDX 97 32 98 33 105 34 99 35 102 36 100 37 103 38 104 39 101 40
REMARK SMILES IDX 18 42 19 43 20 44 21 45 22 46 23 47 24 48 25 49 26 50 87 51
REMARK SMILES IDX 27 52 86 53 28 54 29 55 30 56 80 57 31 58 85 59 79 60 81 61
REMARK SMILES IDX 32 62 84 63 78 64 77 65 33 67 65 68 45 69 64 70 46 71 49 72
REMARK SMILES IDX 63 73 82 74 47 75 48 76 62 78 83 79 50 80 34 81 35 82 43 83
REMARK SMILES IDX 36 84 38 85 44 86 37 87 39 88 40 89 41 90 42 91 66 92 67 93
REMARK SMILES IDX 75 94 68 95 70 96 76 97 69 98 71 99 72 100 73 101 74 102
REMARK SMILES IDX 51 103 52 104 60 105 53 106 55 107 61 108 54 109 56 110
REMARK SMILES IDX 57 111 58 112 59 113
REMARK H PARENT 101 41 81 66 49 77
REMARK Flexibility Score: inf
ROOT
ATOM      1  C   UNL A   1      33.482  26.107  25.027  1.00  0.00     0.188 C 
ENDROOT
BRANCH   1   2
ATOM      2  O   UNL A   1      34.434  25.532  25.884  1.00  0.00    -0.377 OA
BRANCH   2   3
ATOM      3  C   UNL A   1      35.142  24.426  25.379  1.00  0.00     0.188 C 
BRANCH   3   4
ATOM      4  C   UNL A   1      36.441  23.993  26.092  1.00  0.00     0.188 C 
BRANCH   4   5
ATOM      5  O   UNL A   1      37.671  24.503  25.600  1.00  0.00    -0.376 OA
BRANCH   5   6
ATOM      6  C   UNL A   1      38.865  24.278  26.315  1.00  0.00     0.202 C 
BRANCH   6   7
ATOM      7  C   UNL A   1      38.939  24.658  27.780  1.00  0.00     0.261 C 
BRANCH   7   8
ATOM      8  O   UNL A   1      39.084  26.083  28.107  1.00  0.00    -0.463 OA
BRANCH   8   9
ATOM      9  C   UNL A   1      39.396  26.965  29.086  1.00  0.00     0.312 C 
ATOM     10  O   UNL A   1      39.718  26.735  30.243  1.00  0.00    -0.252 OA
BRANCH   9  11
ATOM     11  C   UNL A   1      39.420  28.405  28.527  1.00  0.00     0.075 C 
ATOM     12  C   UNL A   1      41.127  30.521  31.418  1.00  0.00     0.008 C 
ATOM     13  C   UNL A   1      40.189  29.528  30.735  1.00  0.00    -0.003 C 
ATOM     14  C   UNL A   1      38.676  29.905  31.000  1.00  0.00    -0.011 C 
ATOM     15  C   UNL A   1      40.584  29.208  29.191  1.00  0.00     0.036 C 
ATOM     16  C   UNL A   1      38.253  29.788  32.479  1.00  0.00     0.008 C 
ATOM     17  C   UNL A   1      37.670  29.044  30.235  1.00  0.00     0.005 C 
ATOM     18  C   UNL A   1      41.893  28.363  28.755  1.00  0.00    -0.063 C 
ATOM     19  C   UNL A   1      38.016  28.982  28.773  1.00  0.00     0.020 C 
ATOM     20  C   UNL A   1      39.586  28.415  26.995  1.00  0.00     0.020 C 
ATOM     21  C   UNL A   1      42.153  28.136  27.207  1.00  0.00    -0.006 C 
ATOM     22  C   UNL A   1      42.603  27.626  29.639  1.00  0.00    -0.027 C 
ATOM     23  C   UNL A   1      40.835  27.709  26.509  1.00  0.00     0.013 C 
ATOM     24  C   UNL A   1      42.579  29.502  26.619  1.00  0.00     0.017 C 
ATOM     25  C   UNL A   1      43.309  26.989  26.885  1.00  0.00    -0.020 C 
ATOM     26  C   UNL A   1      43.376  26.369  29.274  1.00  0.00     0.032 C 
ATOM     27  C   UNL A   1      43.033  25.803  27.872  1.00  0.00     0.006 C 
ATOM     28  C   UNL A   1      43.297  26.458  25.427  1.00  0.00     0.008 C 
ATOM     29  C   UNL A   1      44.732  27.591  27.098  1.00  0.00     0.012 C 
ATOM     30  C   UNL A   1      43.607  24.324  27.543  1.00  0.00    -0.025 C 
ATOM     31  C   UNL A   1      44.203  25.230  25.215  1.00  0.00     0.005 C 
ATOM     32  C   UNL A   1      44.943  24.118  28.284  1.00  0.00     0.012 C 
ATOM     33  C   UNL A   1      42.619  23.235  28.086  1.00  0.00     0.010 C 
ATOM     34  C   UNL A   1      43.642  24.039  25.997  1.00  0.00     0.003 C 
ATOM     35  C   UNL A   1      42.963  21.781  27.729  1.00  0.00     0.033 C 
ATOM     36  C   UNL A   1      44.164  22.602  25.572  1.00  0.00    -0.006 C 
ATOM     37  C   UNL A   1      43.223  21.549  26.237  1.00  0.00     0.120 C 
ATOM     38  C   UNL A   1      45.647  22.320  25.897  1.00  0.00     0.014 C 
ATOM     39  C   UNL A   1      44.046  22.408  24.035  1.00  0.00     0.014 C 
BRANCH  37  40
ATOM     40  O   UNL A   1      43.706  20.219  26.035  1.00  0.00    -0.393 OA
ATOM     41  H   UNL A   1      43.261  19.827  25.267  1.00  0.00     0.210 HD
ENDBRANCH  37  40
ENDBRANCH   9  11
ENDBRANCH   8   9
ENDBRANCH   7   8
ENDBRANCH   6   7
ENDBRANCH   5   6
ENDBRANCH   4   5
ENDBRANCH   3   4
ENDBRANCH   2   3
ENDBRANCH   1   2
BRANCH   1  42
ATOM     42  C   UNL A   1      33.474  27.644  25.019  1.00  0.00     0.188 C 
BRANCH  42  43
ATOM     43  O   UNL A   1      32.926  28.420  26.080  1.00  0.00    -0.376 OA
BRANCH  43  44
ATOM     44  C   UNL A   1      33.705  29.321  26.844  1.00  0.00     0.202 C 
BRANCH  44  45
ATOM     45  C   UNL A   1      33.279  30.790  27.032  1.00  0.00     0.261 C 
BRANCH  45  46
ATOM     46  O   UNL A   1      34.310  31.751  27.277  1.00  0.00    -0.460 OA
BRANCH  46  47
ATOM     47  C   UNL A   1      33.948  32.861  27.959  1.00  0.00     0.338 C 
ATOM     48  O   UNL A   1      32.953  33.544  27.769  1.00  0.00    -0.246 OA
BRANCH  47  49
ATOM     49  C   UNL A   1      34.823  32.978  29.154  1.00  0.00     0.060 A 
ATOM     50  C   UNL A   1      35.101  34.272  29.626  1.00  0.00     0.016 A 
ATOM     51  C   UNL A   1      35.237  31.859  29.892  1.00  0.00     0.016 A 
ATOM     52  C   UNL A   1      35.801  34.455  30.813  1.00  0.00     0.010 A 
ATOM     53  C   UNL A   1      36.017  32.040  31.042  1.00  0.00     0.010 A 
ATOM     54  C   UNL A   1      36.348  33.340  31.462  1.00  0.00    -0.014 A 
BRANCH  54  55
ATOM     55  C   UNL A   1      37.614  33.585  32.192  1.00  0.00     0.031 A 
ATOM     56  C   UNL A   1      38.802  33.931  31.324  1.00  0.00     0.074 A 
ATOM     57  C   UNL A   1      37.708  33.598  33.531  1.00  0.00     0.049 A 
ATOM     58  N   UNL A   1      39.995  34.329  31.666  1.00  0.00    -0.248 NA
ATOM     59  C   UNL A   1      38.597  33.839  29.865  1.00  0.00     0.031 C 
ATOM     60  C   UNL A   1      36.629  33.305  34.470  1.00  0.00     0.029 A 
ATOM     61  N   UNL A   1      38.788  33.873  34.331  1.00  0.00    -0.354 N 
ATOM     62  C   UNL A   1      40.671  34.537  30.468  1.00  0.00     0.074 A 
ATOM     63  C   UNL A   1      39.771  34.212  29.392  1.00  0.00     0.031 C 
ATOM     64  C   UNL A   1      37.112  33.390  35.725  1.00  0.00     0.029 A 
ATOM     65  C   UNL A   1      38.531  33.739  35.674  1.00  0.00     0.049 A 
ATOM     66  H   UNL A   1      39.666  34.142  33.976  1.00  0.00     0.167 HD
ATOM     67  C   UNL A   1      41.934  34.972  30.270  1.00  0.00     0.034 A 
ATOM     68  C   UNL A   1      39.360  33.880  36.729  1.00  0.00     0.034 A 
ATOM     69  C   UNL A   1      42.844  35.262  31.336  1.00  0.00     0.049 A 
ATOM     70  C   UNL A   1      40.786  34.313  36.484  1.00  0.00     0.074 A 
ATOM     71  C   UNL A   1      44.152  35.694  31.255  1.00  0.00     0.029 A 
ATOM     72  N   UNL A   1      42.540  35.122  32.679  1.00  0.00    -0.354 N 
ATOM     73  N   UNL A   1      41.378  34.613  35.352  1.00  0.00    -0.248 NA
ATOM     74  C   UNL A   1      41.647  34.467  37.666  1.00  0.00     0.031 C 
ATOM     75  C   UNL A   1      44.651  35.793  32.557  1.00  0.00     0.029 A 
ATOM     76  C   UNL A   1      43.639  35.455  33.445  1.00  0.00     0.049 A 
ATOM     77  H   UNL A   1      41.670  34.828  33.035  1.00  0.00     0.167 HD
ATOM     78  C   UNL A   1      42.662  35.033  35.689  1.00  0.00     0.074 A 
ATOM     79  C   UNL A   1      42.755  34.963  37.133  1.00  0.00     0.031 C 
ATOM     80  C   UNL A   1      43.679  35.432  34.884  1.00  0.00     0.034 A 
BRANCH  67  81
ATOM     81  C   UNL A   1      42.384  35.141  28.847  1.00  0.00     0.023 A 
ATOM     82  C   UNL A   1      41.918  36.236  28.091  1.00  0.00     0.012 A 
ATOM     83  C   UNL A   1      43.256  34.208  28.257  1.00  0.00     0.148 A 
ATOM     84  C   UNL A   1      42.294  36.386  26.757  1.00  0.00     0.002 A 
ATOM     85  C   UNL A   1      43.663  34.391  26.942  1.00  0.00     0.091 A 
ATOM     86  F   UNL A   1      43.647  33.151  28.981  1.00  0.00    -0.205 F 
ATOM     87  C   UNL A   1      43.175  35.471  26.187  1.00  0.00     0.022 A 
BRANCH  85  88
ATOM     88  S   UNL A   1      44.849  33.306  26.142  1.00  0.00     0.127 S 
ATOM     89  O   UNL A   1      44.004  32.177  25.758  1.00  0.00    -0.237 OA
ATOM     90  O   UNL A   1      45.312  34.130  25.025  1.00  0.00    -0.237 OA
ATOM     91  O   UNL A   1      45.865  33.013  27.144  1.00  0.00    -0.744 OA
ENDBRANCH  85  88
ENDBRANCH  67  81
BRANCH  68  92
ATOM     92  C   UNL A   1      38.863  33.644  38.117  1.00  0.00     0.023 A 
ATOM     93  C   UNL A   1      38.321  32.391  38.465  1.00  0.00     0.012 A 
ATOM     94  C   UNL A   1      38.915  34.661  39.090  1.00  0.00     0.148 A 
ATOM     95  C   UNL A   1      37.808  32.167  39.745  1.00  0.00     0.002 A 
ATOM     96  C   UNL A   1      38.453  34.415  40.378  1.00  0.00     0.091 A 
ATOM     97  F   UNL A   1      39.414  35.854  38.736  1.00  0.00    -0.205 F 
ATOM     98  C   UNL A   1      37.883  33.174  40.704  1.00  0.00     0.022 A 
BRANCH  96  99
ATOM     99  S   UNL A   1      38.624  35.610  41.708  1.00  0.00     0.127 S 
ATOM    100  O   UNL A   1      39.958  35.302  42.218  1.00  0.00    -0.237 OA
ATOM    101  O   UNL A   1      38.516  36.879  40.988  1.00  0.00    -0.237 OA
ATOM    102  O   UNL A   1      37.520  35.343  42.620  1.00  0.00    -0.744 OA
ENDBRANCH  96  99
ENDBRANCH  68  92
BRANCH  80 103
ATOM    103  C   UNL A   1      44.961  35.877  35.535  1.00  0.00     0.023 A 
ATOM    104  C   UNL A   1      45.135  37.226  35.900  1.00  0.00     0.012 A 
ATOM    105  C   UNL A   1      45.953  34.933  35.869  1.00  0.00     0.148 A 
ATOM    106  C   UNL A   1      46.296  37.636  36.555  1.00  0.00     0.002 A 
ATOM    107  C   UNL A   1      47.082  35.340  36.568  1.00  0.00     0.091 A 
ATOM    108  F   UNL A   1      45.773  33.656  35.501  1.00  0.00    -0.205 F 
ATOM    109  C   UNL A   1      47.263  36.692  36.898  1.00  0.00     0.022 A 
BRANCH 107 110
ATOM    110  S   UNL A   1      48.320  34.172  37.142  1.00  0.00     0.127 S 
ATOM    111  O   UNL A   1      48.019  32.995  36.330  1.00  0.00    -0.237 OA
ATOM    112  O   UNL A   1      49.572  34.848  36.795  1.00  0.00    -0.237 OA
ATOM    113  O   UNL A   1      48.094  34.025  38.573  1.00  0.00    -0.744 OA
ENDBRANCH 107 110
ENDBRANCH  80 103
ENDBRANCH  54  55
ENDBRANCH  47  49
ENDBRANCH  46  47
ENDBRANCH  45  46
ENDBRANCH  44  45
ENDBRANCH  43  44
ENDBRANCH  42  43
ENDBRANCH   1  42
TORSDOF 24
ENDMDL
MODEL 3
REMARK VINA RESULT:      -9.5      4.534     13.602
REMARK SMILES C[C@H]1[C@H](C)CC[C@@]2(C(=O)OCCOCCOCCOCCOC(=O)c3ccc(-c4c5nc(c(-c6cccc(S(=O)(=O)[O-])c6F)c6ccc([nH]6)c(-c6cccc(S(=O)(=O)[O-])c6F)c6nc(c(-c7cccc(S(=O)(=O)[O-])c7F)c7ccc4[nH]7)C=C6)C=C5)cc3)CC[C@@]3(C)C(=CC[C@@H]4[C@@]5(C)CC[C@H](O)C(C)(C)[C@@H]5CC[C@]43C)[C@H]12
REMARK SMILES IDX 17 1 16 2 15 3 14 4 13 5 12 6 11 7 10 8 8 9 9 10 7 11 1 12
REMARK SMILES IDX 2 13 3 14 110 15 4 16 5 17 92 18 6 19 88 20 90 21 93 22
REMARK SMILES IDX 89 23 91 24 108 25 94 26 95 27 107 28 109 29 96 30 106 31
REMARK SMILES IDX 97 32 98 33 105 34 99 35 102 36 100 37 103 38 104 39 101 40
REMARK SMILES IDX 18 42 19 43 20 44 21 45 22 46 23 47 24 48 25 49 26 50 87 51
REMARK SMILES IDX 27 52 86 53 28 54 29 55 30 56 80 57 31 58 85 59 79 60 81 61
REMARK SMILES IDX 32 62 84 63 78 64 77 65 33 67 65 68 45 69 64 70 46 71 49 72
REMARK SMILES IDX 63 73 82 74 47 75 48 76 62 78 83 79 50 80 34 81 35 82 43 83
REMARK SMILES IDX 36 84 38 85 44 86 37 87 39 88 40 89 41 90 42 91 66 92 67 93
REMARK SMILES IDX 75 94 68 95 70 96 76 97 69 98 71 99 72 100 73 101 74 102
REMARK SMILES IDX 51 103 52 104 60 105 53 106 55 107 61 108 54 109 56 110
REMARK SMILES IDX 57 111 58 112 59 113
REMARK H PARENT 101 41 81 66 49 77
REMARK Flexibility Score: inf
ROOT
ATOM      1  C   UNL A   1      50.165  32.951  32.134  1.00  0.00     0.188 C 
ENDROOT
BRANCH   1   2
ATOM      2  O   UNL A   1      49.667  32.261  33.251  1.00  0.00    -0.377 OA
BRANCH   2   3
ATOM      3  C   UNL A   1      48.850  31.148  32.984  1.00  0.00     0.188 C 
BRANCH   3   4
ATOM      4  C   UNL A   1      48.251  30.995  31.570  1.00  0.00     0.188 C 
BRANCH   4   5
ATOM      5  O   UNL A   1      48.472  29.772  30.883  1.00  0.00    -0.376 OA
BRANCH   5   6
ATOM      6  C   UNL A   1      47.376  28.999  30.448  1.00  0.00     0.202 C 
BRANCH   6   7
ATOM      7  C   UNL A   1      45.970  29.416  30.834  1.00  0.00     0.261 C 
BRANCH   7   8
ATOM      8  O   UNL A   1      45.227  28.539  31.748  1.00  0.00    -0.463 OA
BRANCH   8   9
ATOM      9  C   UNL A   1      45.344  27.624  32.740  1.00  0.00     0.312 C 
ATOM     10  O   UNL A   1      46.212  27.539  33.596  1.00  0.00    -0.252 OA
BRANCH   9  11
ATOM     11  C   UNL A   1      44.115  26.689  32.760  1.00  0.00     0.075 C 
ATOM     12  C   UNL A   1      44.442  24.757  36.210  1.00  0.00     0.008 C 
ATOM     13  C   UNL A   1      44.838  25.353  34.861  1.00  0.00    -0.003 C 
ATOM     14  C   UNL A   1      45.383  24.232  33.886  1.00  0.00    -0.011 C 
ATOM     15  C   UNL A   1      43.727  26.361  34.237  1.00  0.00     0.036 C 
ATOM     16  C   UNL A   1      46.702  23.583  34.356  1.00  0.00     0.008 C 
ATOM     17  C   UNL A   1      45.671  24.719  32.465  1.00  0.00     0.005 C 
ATOM     18  C   UNL A   1      43.393  27.821  34.849  1.00  0.00    -0.063 C 
ATOM     19  C   UNL A   1      44.493  25.469  31.905  1.00  0.00     0.020 C 
ATOM     20  C   UNL A   1      42.912  27.321  32.031  1.00  0.00     0.020 C 
ATOM     21  C   UNL A   1      42.276  28.691  34.135  1.00  0.00    -0.006 C 
ATOM     22  C   UNL A   1      44.198  28.425  35.751  1.00  0.00    -0.027 C 
ATOM     23  C   UNL A   1      42.485  28.659  32.598  1.00  0.00     0.013 C 
ATOM     24  C   UNL A   1      40.917  28.018  34.443  1.00  0.00     0.017 C 
ATOM     25  C   UNL A   1      42.252  30.278  34.625  1.00  0.00    -0.020 C 
ATOM     26  C   UNL A   1      44.345  29.932  35.887  1.00  0.00     0.032 C 
ATOM     27  C   UNL A   1      43.750  30.733  34.701  1.00  0.00     0.006 C 
ATOM     28  C   UNL A   1      41.472  31.229  33.678  1.00  0.00     0.008 C 
ATOM     29  C   UNL A   1      41.546  30.398  36.010  1.00  0.00     0.012 C 
ATOM     30  C   UNL A   1      44.122  32.309  34.650  1.00  0.00    -0.025 C 
ATOM     31  C   UNL A   1      41.668  32.720  34.013  1.00  0.00     0.005 C 
ATOM     32  C   UNL A   1      44.292  32.841  36.087  1.00  0.00     0.012 C 
ATOM     33  C   UNL A   1      45.499  32.509  33.930  1.00  0.00     0.010 C 
ATOM     34  C   UNL A   1      43.122  33.118  33.745  1.00  0.00     0.003 C 
ATOM     35  C   UNL A   1      45.922  33.966  33.684  1.00  0.00     0.033 C 
ATOM     36  C   UNL A   1      43.418  34.671  33.607  1.00  0.00    -0.006 C 
ATOM     37  C   UNL A   1      44.850  34.820  33.001  1.00  0.00     0.120 C 
ATOM     38  C   UNL A   1      43.269  35.486  34.911  1.00  0.00     0.014 C 
ATOM     39  C   UNL A   1      42.432  35.331  32.606  1.00  0.00     0.014 C 
BRANCH  37  40
ATOM     40  O   UNL A   1      45.266  36.188  32.981  1.00  0.00    -0.393 OA
ATOM     41  H   UNL A   1      45.611  36.433  33.855  1.00  0.00     0.210 HD
ENDBRANCH  37  40
ENDBRANCH   9  11
ENDBRANCH   8   9
ENDBRANCH   7   8
ENDBRANCH   6   7
ENDBRANCH   5   6
ENDBRANCH   4   5
ENDBRANCH   3   4
ENDBRANCH   2   3
ENDBRANCH   1   2
BRANCH   1  42
ATOM     42  C   UNL A   1      50.559  34.412  32.408  1.00  0.00     0.188 C 
BRANCH  42  43
ATOM     43  O   UNL A   1      50.672  35.388  31.377  1.00  0.00    -0.376 OA
BRANCH  43  44
ATOM     44  C   UNL A   1      49.782  35.440  30.278  1.00  0.00     0.202 C 
BRANCH  44  45
ATOM     45  C   UNL A   1      48.958  36.706  29.972  1.00  0.00     0.261 C 
BRANCH  45  46
ATOM     46  O   UNL A   1      47.539  36.559  29.861  1.00  0.00    -0.460 OA
BRANCH  46  47
ATOM     47  C   UNL A   1      47.047  36.392  28.614  1.00  0.00     0.338 C 
ATOM     48  O   UNL A   1      47.417  36.964  27.599  1.00  0.00    -0.246 OA
BRANCH  47  49
ATOM     49  C   UNL A   1      46.150  35.207  28.622  1.00  0.00     0.060 A 
ATOM     50  C   UNL A   1      46.267  34.316  29.702  1.00  0.00     0.016 A 
ATOM     51  C   UNL A   1      45.115  35.046  27.689  1.00  0.00     0.016 A 
ATOM     52  C   UNL A   1      45.376  33.260  29.845  1.00  0.00     0.010 A 
ATOM     53  C   UNL A   1      44.269  33.933  27.783  1.00  0.00     0.010 A 
ATOM     54  C   UNL A   1      44.444  33.010  28.828  1.00  0.00    -0.014 A 
BRANCH  54  55
ATOM     55  C   UNL A   1      44.083  31.586  28.631  1.00  0.00     0.031 A 
ATOM     56  C   UNL A   1      42.754  31.171  29.217  1.00  0.00     0.074 A 
ATOM     57  C   UNL A   1      44.818  30.728  27.906  1.00  0.00     0.049 A 
ATOM     58  N   UNL A   1      42.104  30.048  29.094  1.00  0.00    -0.248 NA
ATOM     59  C   UNL A   1      42.053  32.181  30.034  1.00  0.00     0.031 C 
ATOM     60  C   UNL A   1      46.102  31.019  27.273  1.00  0.00     0.029 A 
ATOM     61  N   UNL A   1      44.574  29.416  27.588  1.00  0.00    -0.354 N 
ATOM     62  C   UNL A   1      40.925  30.225  29.811  1.00  0.00     0.074 A 
ATOM     63  C   UNL A   1      40.947  31.549  30.377  1.00  0.00     0.031 C 
ATOM     64  C   UNL A   1      46.546  29.903  26.662  1.00  0.00     0.029 A 
ATOM     65  C   UNL A   1      45.581  28.824  26.865  1.00  0.00     0.049 A 
ATOM     66  H   UNL A   1      43.752  28.942  27.853  1.00  0.00     0.167 HD
ATOM     67  C   UNL A   1      39.897  29.365  29.981  1.00  0.00     0.034 A 
ATOM     68  C   UNL A   1      45.698  27.552  26.430  1.00  0.00     0.034 A 
ATOM     69  C   UNL A   1      39.886  28.037  29.451  1.00  0.00     0.049 A 
ATOM     70  C   UNL A   1      44.562  26.588  26.679  1.00  0.00     0.074 A 
ATOM     71  C   UNL A   1      38.907  27.072  29.571  1.00  0.00     0.029 A 
ATOM     72  N   UNL A   1      40.921  27.481  28.717  1.00  0.00    -0.354 N 
ATOM     73  N   UNL A   1      43.405  26.803  27.262  1.00  0.00    -0.248 NA
ATOM     74  C   UNL A   1      44.729  25.217  26.174  1.00  0.00     0.031 C 
ATOM     75  C   UNL A   1      39.362  25.917  28.929  1.00  0.00     0.029 A 
ATOM     76  C   UNL A   1      40.609  26.179  28.380  1.00  0.00     0.049 A 
ATOM     77  H   UNL A   1      41.754  27.945  28.473  1.00  0.00     0.167 HD
ATOM     78  C   UNL A   1      42.693  25.612  27.152  1.00  0.00     0.074 A 
ATOM     79  C   UNL A   1      43.543  24.685  26.435  1.00  0.00     0.031 C 
ATOM     80  C   UNL A   1      41.453  25.303  27.610  1.00  0.00     0.034 A 
BRANCH  67  81
ATOM     81  C   UNL A   1      38.724  29.852  30.781  1.00  0.00     0.023 A 
ATOM     82  C   UNL A   1      38.577  29.450  32.125  1.00  0.00     0.012 A 
ATOM     83  C   UNL A   1      37.760  30.696  30.200  1.00  0.00     0.148 A 
ATOM     84  C   UNL A   1      37.474  29.860  32.870  1.00  0.00     0.002 A 
ATOM     85  C   UNL A   1      36.689  31.138  30.963  1.00  0.00     0.091 A 
ATOM     86  F   UNL A   1      37.896  31.026  28.908  1.00  0.00    -0.205 F 
ATOM     87  C   UNL A   1      36.537  30.713  32.294  1.00  0.00     0.022 A 
BRANCH  85  88
ATOM     88  S   UNL A   1      35.469  32.294  30.332  1.00  0.00     0.127 S 
ATOM     89  O   UNL A   1      36.303  33.441  29.979  1.00  0.00    -0.237 OA
ATOM     90  O   UNL A   1      34.919  31.563  29.189  1.00  0.00    -0.237 OA
ATOM     91  O   UNL A   1      34.526  32.518  31.420  1.00  0.00    -0.744 OA
ENDBRANCH  85  88
ENDBRANCH  67  81
BRANCH  68  92
ATOM     92  C   UNL A   1      46.916  27.117  25.686  1.00  0.00     0.023 A 
ATOM     93  C   UNL A   1      47.880  26.312  26.326  1.00  0.00     0.012 A 
ATOM     94  C   UNL A   1      47.130  27.507  24.349  1.00  0.00     0.148 A 
ATOM     95  C   UNL A   1      49.049  25.935  25.661  1.00  0.00     0.002 A 
ATOM     96  C   UNL A   1      48.269  27.082  23.675  1.00  0.00     0.091 A 
ATOM     97  F   UNL A   1      46.213  28.290  23.763  1.00  0.00    -0.205 F 
ATOM     98  C   UNL A   1      49.239  26.311  24.333  1.00  0.00     0.022 A 
BRANCH  96  99
ATOM     99  S   UNL A   1      48.535  27.414  21.930  1.00  0.00     0.127 S 
ATOM    100  O   UNL A   1      47.291  28.084  21.559  1.00  0.00    -0.237 OA
ATOM    101  O   UNL A   1      49.715  28.280  21.964  1.00  0.00    -0.237 OA
ATOM    102  O   UNL A   1      48.763  26.115  21.313  1.00  0.00    -0.744 OA
ENDBRANCH  96  99
ENDBRANCH  68  92
BRANCH  80 103
ATOM    103  C   UNL A   1      40.912  23.932  27.307  1.00  0.00     0.023 A 
ATOM    104  C   UNL A   1      41.483  22.797  27.915  1.00  0.00     0.012 A 
ATOM    105  C   UNL A   1      39.773  23.782  26.490  1.00  0.00     0.148 A 
ATOM    106  C   UNL A   1      40.952  21.529  27.683  1.00  0.00     0.002 A 
ATOM    107  C   UNL A   1      39.218  22.523  26.306  1.00  0.00     0.091 A 
ATOM    108  F   UNL A   1      39.252  24.874  25.910  1.00  0.00    -0.205 F 
ATOM    109  C   UNL A   1      39.814  21.393  26.890  1.00  0.00     0.022 A 
BRANCH 107 110
ATOM    110  S   UNL A   1      37.693  22.277  25.389  1.00  0.00     0.127 S 
ATOM    111  O   UNL A   1      36.705  22.216  26.464  1.00  0.00    -0.237 OA
ATOM    112  O   UNL A   1      37.625  23.485  24.565  1.00  0.00    -0.237 OA
ATOM    113  O   UNL A   1      37.879  21.046  24.633  1.00  0.00    -0.744 OA
ENDBRANCH 107 110
ENDBRANCH  80 103
ENDBRANCH  54  55
ENDBRANCH  47  49
ENDBRANCH  46  47
ENDBRANCH  45  46
ENDBRANCH  44  45
ENDBRANCH  43  44
ENDBRANCH  42  43
ENDBRANCH   1  42
TORSDOF 24
ENDMDL
