MODEL 1
REMARK VINA RESULT:     -10.9      0.000      0.000
REMARK SMILES O=C(OCCOCCOCCOCCOC(=O)c1c(F)cccc1NC(=O)C1CCCCC1)c1ccc(-c2c3nc(c(-c4cccc(S(=O)(=O)[O-])c4F)c4ccc([nH]4)c(-c4cccc(S(=O)(=O)[O-])c4F)c4nc(c(-c5cccc(S(=O)(=O)[O-])c5F)c5ccc2[nH]5)C=C4)C=C3)cc1
REMARK SMILES IDX 8 1 7 2 6 3 5 4 4 5 3 6 2 7 1 8 34 9 35 10 96 11 36 12 95 13
REMARK SMILES IDX 37 14 38 15 39 16 89 17 40 18 94 19 88 20 90 21 41 22 93 23
REMARK SMILES IDX 87 24 86 25 42 27 74 28 54 29 73 30 55 31 58 32 72 33 91 34
REMARK SMILES IDX 56 35 57 36 71 38 92 39 59 40 43 41 44 42 52 43 45 44 47 45
REMARK SMILES IDX 53 46 46 47 48 48 49 49 50 50 51 51 75 52 76 53 84 54 77 55
REMARK SMILES IDX 79 56 85 57 78 58 80 59 81 60 82 61 83 62 60 63 61 64 69 65
REMARK SMILES IDX 62 66 64 67 70 68 63 69 65 70 66 71 67 72 68 73 9 74 10 75
REMARK SMILES IDX 11 76 12 77 13 78 14 79 15 80 16 81 17 82 18 83 19 84 24 85
REMARK SMILES IDX 20 86 21 87 23 88 22 89 25 90 26 91 27 93 28 94 29 95 33 96
REMARK SMILES IDX 30 97 32 98 31 99
REMARK H PARENT 90 26 58 37 25 92
REMARK Flexibility Score: inf
ROOT
ATOM      1  C   UNL A   1      33.479  21.832  27.112  1.00  0.00     0.188 C 
ENDROOT
BRANCH   1   2
ATOM      2  C   UNL A   1      34.527  22.054  26.024  1.00  0.00     0.188 C 
BRANCH   2   3
ATOM      3  O   UNL A   1      35.381  20.923  25.886  1.00  0.00    -0.376 OA
BRANCH   3   4
ATOM      4  C   UNL A   1      36.120  20.808  24.671  1.00  0.00     0.202 C 
BRANCH   4   5
ATOM      5  C   UNL A   1      37.637  20.752  24.853  1.00  0.00     0.261 C 
BRANCH   5   6
ATOM      6  O   UNL A   1      38.095  21.478  26.006  1.00  0.00    -0.460 OA
BRANCH   6   7
ATOM      7  C   UNL A   1      39.378  21.755  26.362  1.00  0.00     0.338 C 
ATOM      8  O   UNL A   1      40.210  20.851  26.281  1.00  0.00    -0.246 OA
BRANCH   7   9
ATOM      9  C   UNL A   1      39.841  23.096  26.836  1.00  0.00     0.060 A 
ATOM     10  C   UNL A   1      39.310  24.313  26.418  1.00  0.00     0.016 A 
ATOM     11  C   UNL A   1      40.847  23.132  27.815  1.00  0.00     0.016 A 
ATOM     12  C   UNL A   1      39.809  25.521  26.846  1.00  0.00     0.010 A 
ATOM     13  C   UNL A   1      41.334  24.353  28.298  1.00  0.00     0.010 A 
ATOM     14  C   UNL A   1      40.835  25.550  27.775  1.00  0.00    -0.014 A 
BRANCH  14  15
ATOM     15  C   UNL A   1      41.450  26.864  27.996  1.00  0.00     0.031 A 
ATOM     16  C   UNL A   1      40.657  27.877  28.756  1.00  0.00     0.074 A 
ATOM     17  C   UNL A   1      42.758  27.029  27.727  1.00  0.00     0.049 A 
ATOM     18  N   UNL A   1      41.000  29.077  29.129  1.00  0.00    -0.248 NA
ATOM     19  C   UNL A   1      39.303  27.475  29.184  1.00  0.00     0.031 C 
ATOM     20  C   UNL A   1      43.631  26.003  27.144  1.00  0.00     0.029 A 
ATOM     21  N   UNL A   1      43.591  28.089  27.950  1.00  0.00    -0.354 N 
ATOM     22  C   UNL A   1      39.885  29.594  29.772  1.00  0.00     0.074 A 
ATOM     23  C   UNL A   1      38.862  28.578  29.766  1.00  0.00     0.031 C 
ATOM     24  C   UNL A   1      44.882  26.481  27.075  1.00  0.00     0.029 A 
ATOM     25  C   UNL A   1      44.880  27.867  27.527  1.00  0.00     0.049 A 
ATOM     26  H   UNL A   1      43.297  28.928  28.372  1.00  0.00     0.167 HD
ATOM     27  C   UNL A   1      39.738  30.824  30.310  1.00  0.00     0.034 A 
ATOM     28  C   UNL A   1      45.927  28.711  27.476  1.00  0.00     0.034 A 
ATOM     29  C   UNL A   1      40.790  31.799  30.306  1.00  0.00     0.049 A 
ATOM     30  C   UNL A   1      45.716  30.104  27.998  1.00  0.00     0.074 A 
ATOM     31  C   UNL A   1      40.759  33.099  30.767  1.00  0.00     0.029 A 
ATOM     32  N   UNL A   1      42.065  31.572  29.801  1.00  0.00    -0.354 N 
ATOM     33  N   UNL A   1      44.649  30.607  28.577  1.00  0.00    -0.248 NA
ATOM     34  C   UNL A   1      46.834  31.045  27.876  1.00  0.00     0.031 C 
ATOM     35  C   UNL A   1      42.003  33.674  30.495  1.00  0.00     0.029 A 
ATOM     36  C   UNL A   1      42.827  32.716  29.918  1.00  0.00     0.049 A 
ATOM     37  H   UNL A   1      42.378  30.721  29.418  1.00  0.00     0.167 HD
ATOM     38  C   UNL A   1      44.971  31.913  28.910  1.00  0.00     0.074 A 
ATOM     39  C   UNL A   1      46.339  32.122  28.475  1.00  0.00     0.031 C 
ATOM     40  C   UNL A   1      44.205  32.858  29.510  1.00  0.00     0.034 A 
BRANCH  27  41
ATOM     41  C   UNL A   1      38.386  31.182  30.857  1.00  0.00     0.023 A 
ATOM     42  C   UNL A   1      38.057  30.915  32.200  1.00  0.00     0.012 A 
ATOM     43  C   UNL A   1      37.424  31.770  30.012  1.00  0.00     0.148 A 
ATOM     44  C   UNL A   1      36.779  31.193  32.685  1.00  0.00     0.002 A 
ATOM     45  C   UNL A   1      36.170  32.090  30.514  1.00  0.00     0.091 A 
ATOM     46  F   UNL A   1      37.745  31.978  28.727  1.00  0.00    -0.205 F 
ATOM     47  C   UNL A   1      35.840  31.788  31.845  1.00  0.00     0.022 A 
BRANCH  45  48
ATOM     48  S   UNL A   1      34.921  32.923  29.530  1.00  0.00     0.127 S 
ATOM     49  O   UNL A   1      34.401  31.822  28.719  1.00  0.00    -0.237 OA
ATOM     50  O   UNL A   1      34.001  33.410  30.557  1.00  0.00    -0.237 OA
ATOM     51  O   UNL A   1      35.618  33.966  28.791  1.00  0.00    -0.744 OA
ENDBRANCH  45  48
ENDBRANCH  27  41
BRANCH  28  52
ATOM     52  C   UNL A   1      47.221  28.246  26.904  1.00  0.00     0.023 A 
ATOM     53  C   UNL A   1      48.265  27.842  27.756  1.00  0.00     0.012 A 
ATOM     54  C   UNL A   1      47.385  28.109  25.508  1.00  0.00     0.148 A 
ATOM     55  C   UNL A   1      49.447  27.315  27.229  1.00  0.00     0.002 A 
ATOM     56  C   UNL A   1      48.539  27.529  24.994  1.00  0.00     0.091 A 
ATOM     57  F   UNL A   1      46.385  28.510  24.710  1.00  0.00    -0.205 F 
ATOM     58  C   UNL A   1      49.579  27.144  25.853  1.00  0.00     0.022 A 
BRANCH  56  59
ATOM     59  S   UNL A   1      48.737  27.142  23.250  1.00  0.00     0.127 S 
ATOM     60  O   UNL A   1      50.192  27.073  23.122  1.00  0.00    -0.237 OA
ATOM     61  O   UNL A   1      48.048  25.855  23.148  1.00  0.00    -0.237 OA
ATOM     62  O   UNL A   1      48.097  28.230  22.524  1.00  0.00    -0.744 OA
ENDBRANCH  56  59
ENDBRANCH  28  52
BRANCH  40  63
ATOM     63  C   UNL A   1      44.826  34.200  29.774  1.00  0.00     0.023 A 
ATOM     64  C   UNL A   1      45.561  34.409  30.955  1.00  0.00     0.012 A 
ATOM     65  C   UNL A   1      44.834  35.177  28.759  1.00  0.00     0.148 A 
ATOM     66  C   UNL A   1      46.300  35.577  31.122  1.00  0.00     0.002 A 
ATOM     67  C   UNL A   1      45.619  36.309  28.907  1.00  0.00     0.091 A 
ATOM     68  F   UNL A   1      44.112  34.952  27.652  1.00  0.00    -0.205 F 
ATOM     69  C   UNL A   1      46.345  36.516  30.092  1.00  0.00     0.022 A 
BRANCH  67  70
ATOM     70  S   UNL A   1      45.845  37.501  27.584  1.00  0.00     0.127 S 
ATOM     71  O   UNL A   1      44.472  37.940  27.343  1.00  0.00    -0.237 OA
ATOM     72  O   UNL A   1      46.705  38.502  28.216  1.00  0.00    -0.237 OA
ATOM     73  O   UNL A   1      46.465  36.774  26.485  1.00  0.00    -0.744 OA
ENDBRANCH  67  70
ENDBRANCH  40  63
ENDBRANCH  14  15
ENDBRANCH   7   9
ENDBRANCH   6   7
ENDBRANCH   5   6
ENDBRANCH   4   5
ENDBRANCH   3   4
ENDBRANCH   2   3
ENDBRANCH   1   2
BRANCH   1  74
ATOM     74  O   UNL A   1      32.967  23.024  27.704  1.00  0.00    -0.377 OA
BRANCH  74  75
ATOM     75  C   UNL A   1      31.917  23.679  26.995  1.00  0.00     0.188 C 
BRANCH  75  76
ATOM     76  C   UNL A   1      30.806  22.834  26.325  1.00  0.00     0.188 C 
BRANCH  76  77
ATOM     77  O   UNL A   1      30.697  23.071  24.936  1.00  0.00    -0.376 OA
BRANCH  77  78
ATOM     78  C   UNL A   1      31.433  24.165  24.416  1.00  0.00     0.202 C 
BRANCH  78  79
ATOM     79  C   UNL A   1      31.110  24.703  23.009  1.00  0.00     0.261 C 
BRANCH  79  80
ATOM     80  O   UNL A   1      30.795  26.101  22.858  1.00  0.00    -0.460 OA
BRANCH  80  81
ATOM     81  C   UNL A   1      30.050  26.746  23.793  1.00  0.00     0.343 C 
ATOM     82  O   UNL A   1      29.923  26.458  24.954  1.00  0.00    -0.246 OA
BRANCH  81  83
ATOM     83  C   UNL A   1      29.498  27.992  23.187  1.00  0.00     0.119 A 
ATOM     84  C   UNL A   1      28.108  28.136  23.202  1.00  0.00     0.139 A 
ATOM     85  C   UNL A   1      30.302  28.973  22.534  1.00  0.00     0.058 A 
ATOM     86  F   UNL A   1      27.318  27.192  23.734  1.00  0.00    -0.206 F 
ATOM     87  C   UNL A   1      27.502  29.254  22.648  1.00  0.00     0.040 A 
ATOM     88  C   UNL A   1      29.687  30.155  22.132  1.00  0.00     0.027 A 
ATOM     89  C   UNL A   1      28.293  30.284  22.153  1.00  0.00     0.005 A 
BRANCH  85  90
ATOM     90  N   UNL A   1      31.649  28.688  22.209  1.00  0.00    -0.325 N 
ATOM     91  C   UNL A   1      32.856  28.704  22.837  1.00  0.00     0.227 C 
ATOM     92  H   UNL A   1      31.736  28.396  21.273  1.00  0.00     0.169 HD
ATOM     93  O   UNL A   1      33.814  28.577  22.050  1.00  0.00    -0.274 OA
BRANCH  91  94
ATOM     94  C   UNL A   1      33.241  28.819  24.333  1.00  0.00     0.079 C 
ATOM     95  C   UNL A   1      32.519  29.770  25.302  1.00  0.00     0.013 C 
ATOM     96  C   UNL A   1      33.584  27.399  24.827  1.00  0.00     0.013 C 
ATOM     97  C   UNL A   1      32.234  29.258  26.723  1.00  0.00     0.001 C 
ATOM     98  C   UNL A   1      33.529  27.186  26.330  1.00  0.00     0.001 C 
ATOM     99  C   UNL A   1      32.235  27.746  26.879  1.00  0.00     0.000 C 
ENDBRANCH  91  94
ENDBRANCH  85  90
ENDBRANCH  81  83
ENDBRANCH  80  81
ENDBRANCH  79  80
ENDBRANCH  78  79
ENDBRANCH  77  78
ENDBRANCH  76  77
ENDBRANCH  75  76
ENDBRANCH  74  75
ENDBRANCH   1  74
TORSDOF 25
ENDMDL
MODEL 2
REMARK VINA RESULT:     -10.7      1.188      7.437
REMARK SMILES O=C(OCCOCCOCCOCCOC(=O)c1c(F)cccc1NC(=O)C1CCCCC1)c1ccc(-c2c3nc(c(-c4cccc(S(=O)(=O)[O-])c4F)c4ccc([nH]4)c(-c4cccc(S(=O)(=O)[O-])c4F)c4nc(c(-c5cccc(S(=O)(=O)[O-])c5F)c5ccc2[nH]5)C=C4)C=C3)cc1
REMARK SMILES IDX 8 1 7 2 6 3 5 4 4 5 3 6 2 7 1 8 34 9 35 10 96 11 36 12 95 13
REMARK SMILES IDX 37 14 38 15 39 16 89 17 40 18 94 19 88 20 90 21 41 22 93 23
REMARK SMILES IDX 87 24 86 25 42 27 74 28 54 29 73 30 55 31 58 32 72 33 91 34
REMARK SMILES IDX 56 35 57 36 71 38 92 39 59 40 43 41 44 42 52 43 45 44 47 45
REMARK SMILES IDX 53 46 46 47 48 48 49 49 50 50 51 51 75 52 76 53 84 54 77 55
REMARK SMILES IDX 79 56 85 57 78 58 80 59 81 60 82 61 83 62 60 63 61 64 69 65
REMARK SMILES IDX 62 66 64 67 70 68 63 69 65 70 66 71 67 72 68 73 9 74 10 75
REMARK SMILES IDX 11 76 12 77 13 78 14 79 15 80 16 81 17 82 18 83 19 84 24 85
REMARK SMILES IDX 20 86 21 87 23 88 22 89 25 90 26 91 27 93 28 94 29 95 33 96
REMARK SMILES IDX 30 97 32 98 31 99
REMARK H PARENT 90 26 58 37 25 92
REMARK Flexibility Score: inf
ROOT
ATOM      1  C   UNL A   1      32.940  21.514  25.782  1.00  0.00     0.188 C 
ENDROOT
BRANCH   1   2
ATOM      2  C   UNL A   1      34.422  21.867  25.880  1.00  0.00     0.188 C 
BRANCH   2   3
ATOM      3  O   UNL A   1      35.227  20.701  26.014  1.00  0.00    -0.376 OA
BRANCH   3   4
ATOM      4  C   UNL A   1      35.903  20.238  24.846  1.00  0.00     0.202 C 
BRANCH   4   5
ATOM      5  C   UNL A   1      37.429  20.299  24.928  1.00  0.00     0.261 C 
BRANCH   5   6
ATOM      6  O   UNL A   1      37.907  21.360  25.771  1.00  0.00    -0.460 OA
BRANCH   6   7
ATOM      7  C   UNL A   1      39.182  21.588  26.184  1.00  0.00     0.338 C 
ATOM      8  O   UNL A   1      40.001  20.676  26.067  1.00  0.00    -0.246 OA
BRANCH   7   9
ATOM      9  C   UNL A   1      39.652  22.885  26.762  1.00  0.00     0.060 A 
ATOM     10  C   UNL A   1      39.041  24.117  26.549  1.00  0.00     0.016 A 
ATOM     11  C   UNL A   1      40.759  22.853  27.626  1.00  0.00     0.016 A 
ATOM     12  C   UNL A   1      39.546  25.290  27.062  1.00  0.00     0.010 A 
ATOM     13  C   UNL A   1      41.258  24.031  28.195  1.00  0.00     0.010 A 
ATOM     14  C   UNL A   1      40.667  25.257  27.874  1.00  0.00    -0.014 A 
BRANCH  14  15
ATOM     15  C   UNL A   1      41.261  26.563  28.182  1.00  0.00     0.031 A 
ATOM     16  C   UNL A   1      42.553  26.907  27.513  1.00  0.00     0.074 A 
ATOM     17  C   UNL A   1      40.530  27.476  28.847  1.00  0.00     0.049 A 
ATOM     18  N   UNL A   1      43.240  28.012  27.574  1.00  0.00    -0.248 NA
ATOM     19  C   UNL A   1      43.137  25.881  26.628  1.00  0.00     0.031 C 
ATOM     20  C   UNL A   1      39.178  27.248  29.372  1.00  0.00     0.029 A 
ATOM     21  N   UNL A   1      40.790  28.782  29.150  1.00  0.00    -0.354 N 
ATOM     22  C   UNL A   1      44.365  27.788  26.794  1.00  0.00     0.074 A 
ATOM     23  C   UNL A   1      44.264  26.458  26.248  1.00  0.00     0.031 C 
ATOM     24  C   UNL A   1      38.723  28.385  29.915  1.00  0.00     0.029 A 
ATOM     25  C   UNL A   1      39.777  29.390  29.852  1.00  0.00     0.049 A 
ATOM     26  H   UNL A   1      41.620  29.243  28.891  1.00  0.00     0.167 HD
ATOM     27  C   UNL A   1      45.396  28.631  26.571  1.00  0.00     0.034 A 
ATOM     28  C   UNL A   1      39.731  30.613  30.414  1.00  0.00     0.034 A 
ATOM     29  C   UNL A   1      45.447  29.953  27.123  1.00  0.00     0.049 A 
ATOM     30  C   UNL A   1      40.927  31.502  30.228  1.00  0.00     0.074 A 
ATOM     31  C   UNL A   1      46.454  30.889  27.022  1.00  0.00     0.029 A 
ATOM     32  N   UNL A   1      44.438  30.517  27.896  1.00  0.00    -0.354 N 
ATOM     33  N   UNL A   1      42.009  31.278  29.517  1.00  0.00    -0.248 NA
ATOM     34  C   UNL A   1      40.908  32.805  30.901  1.00  0.00     0.031 C 
ATOM     35  C   UNL A   1      46.075  32.003  27.775  1.00  0.00     0.029 A 
ATOM     36  C   UNL A   1      44.806  31.784  28.298  1.00  0.00     0.049 A 
ATOM     37  H   UNL A   1      43.586  30.077  28.121  1.00  0.00     0.167 HD
ATOM     38  C   UNL A   1      42.791  32.417  29.636  1.00  0.00     0.074 A 
ATOM     39  C   UNL A   1      42.051  33.336  30.482  1.00  0.00     0.031 C 
ATOM     40  C   UNL A   1      44.011  32.679  29.106  1.00  0.00     0.034 A 
BRANCH  27  41
ATOM     41  C   UNL A   1      46.555  28.108  25.771  1.00  0.00     0.023 A 
ATOM     42  C   UNL A   1      46.544  28.163  24.363  1.00  0.00     0.012 A 
ATOM     43  C   UNL A   1      47.657  27.532  26.432  1.00  0.00     0.148 A 
ATOM     44  C   UNL A   1      47.595  27.619  23.625  1.00  0.00     0.002 A 
ATOM     45  C   UNL A   1      48.722  27.037  25.694  1.00  0.00     0.091 A 
ATOM     46  F   UNL A   1      47.628  27.452  27.770  1.00  0.00    -0.205 F 
ATOM     47  C   UNL A   1      48.687  27.065  24.289  1.00  0.00     0.022 A 
BRANCH  45  48
ATOM     48  S   UNL A   1      50.203  26.371  26.461  1.00  0.00     0.127 S 
ATOM     49  O   UNL A   1      50.794  27.570  27.052  1.00  0.00    -0.237 OA
ATOM     50  O   UNL A   1      49.644  25.426  27.429  1.00  0.00    -0.237 OA
ATOM     51  O   UNL A   1      50.974  25.760  25.388  1.00  0.00    -0.744 OA
ENDBRANCH  45  48
ENDBRANCH  27  41
BRANCH  28  52
ATOM     52  C   UNL A   1      38.529  31.021  31.193  1.00  0.00     0.023 A 
ATOM     53  C   UNL A   1      38.526  30.912  32.596  1.00  0.00     0.012 A 
ATOM     54  C   UNL A   1      37.420  31.615  30.551  1.00  0.00     0.148 A 
ATOM     55  C   UNL A   1      37.443  31.381  33.342  1.00  0.00     0.002 A 
ATOM     56  C   UNL A   1      36.373  32.132  31.303  1.00  0.00     0.091 A 
ATOM     57  F   UNL A   1      37.434  31.700  29.213  1.00  0.00    -0.205 F 
ATOM     58  C   UNL A   1      36.375  32.003  32.700  1.00  0.00     0.022 A 
BRANCH  56  59
ATOM     59  S   UNL A   1      35.025  33.072  30.574  1.00  0.00     0.127 S 
ATOM     60  O   UNL A   1      35.740  34.179  29.942  1.00  0.00    -0.237 OA
ATOM     61  O   UNL A   1      34.450  32.099  29.644  1.00  0.00    -0.237 OA
ATOM     62  O   UNL A   1      34.151  33.441  31.679  1.00  0.00    -0.744 OA
ENDBRANCH  56  59
ENDBRANCH  28  52
BRANCH  40  63
ATOM     63  C   UNL A   1      44.623  34.022  29.382  1.00  0.00     0.023 A 
ATOM     64  C   UNL A   1      45.634  34.141  30.353  1.00  0.00     0.012 A 
ATOM     65  C   UNL A   1      44.321  35.112  28.543  1.00  0.00     0.148 A 
ATOM     66  C   UNL A   1      46.342  35.334  30.482  1.00  0.00     0.002 A 
ATOM     67  C   UNL A   1      45.069  36.274  28.638  1.00  0.00     0.091 A 
ATOM     68  F   UNL A   1      43.342  34.968  27.638  1.00  0.00    -0.205 F 
ATOM     69  C   UNL A   1      46.074  36.391  29.613  1.00  0.00     0.022 A 
BRANCH  67  70
ATOM     70  S   UNL A   1      44.888  37.631  27.477  1.00  0.00     0.127 S 
ATOM     71  O   UNL A   1      44.845  38.785  28.373  1.00  0.00    -0.237 OA
ATOM     72  O   UNL A   1      46.111  37.520  26.680  1.00  0.00    -0.237 OA
ATOM     73  O   UNL A   1      43.658  37.373  26.740  1.00  0.00    -0.744 OA
ENDBRANCH  67  70
ENDBRANCH  40  63
ENDBRANCH  14  15
ENDBRANCH   7   9
ENDBRANCH   6   7
ENDBRANCH   5   6
ENDBRANCH   4   5
ENDBRANCH   3   4
ENDBRANCH   2   3
ENDBRANCH   1   2
BRANCH   1  74
ATOM     74  O   UNL A   1      32.061  22.633  25.698  1.00  0.00    -0.377 OA
BRANCH  74  75
ATOM     75  C   UNL A   1      31.399  22.824  24.449  1.00  0.00     0.188 C 
BRANCH  75  76
ATOM     76  C   UNL A   1      32.144  22.493  23.133  1.00  0.00     0.188 C 
BRANCH  76  77
ATOM     77  O   UNL A   1      33.024  23.520  22.726  1.00  0.00    -0.376 OA
BRANCH  77  78
ATOM     78  C   UNL A   1      32.678  24.843  23.101  1.00  0.00     0.202 C 
BRANCH  78  79
ATOM     79  C   UNL A   1      31.603  25.607  22.303  1.00  0.00     0.261 C 
BRANCH  79  80
ATOM     80  O   UNL A   1      30.286  25.743  22.871  1.00  0.00    -0.460 OA
BRANCH  80  81
ATOM     81  C   UNL A   1      30.073  26.562  23.934  1.00  0.00     0.343 C 
ATOM     82  O   UNL A   1      30.447  26.404  25.066  1.00  0.00    -0.246 OA
BRANCH  81  83
ATOM     83  C   UNL A   1      29.400  27.803  23.452  1.00  0.00     0.119 A 
ATOM     84  C   UNL A   1      28.003  27.810  23.480  1.00  0.00     0.139 A 
ATOM     85  C   UNL A   1      30.101  28.915  22.899  1.00  0.00     0.058 A 
ATOM     86  F   UNL A   1      27.310  26.747  23.916  1.00  0.00    -0.206 F 
ATOM     87  C   UNL A   1      27.288  28.914  23.037  1.00  0.00     0.040 A 
ATOM     88  C   UNL A   1      29.373  30.066  22.614  1.00  0.00     0.027 A 
ATOM     89  C   UNL A   1      27.973  30.059  22.647  1.00  0.00     0.005 A 
BRANCH  85  90
ATOM     90  N   UNL A   1      31.466  28.793  22.549  1.00  0.00    -0.325 N 
ATOM     91  C   UNL A   1      32.674  28.992  23.144  1.00  0.00     0.227 C 
ATOM     92  H   UNL A   1      31.570  28.476  21.623  1.00  0.00     0.169 HD
ATOM     93  O   UNL A   1      33.624  28.957  22.337  1.00  0.00    -0.274 OA
BRANCH  91  94
ATOM     94  C   UNL A   1      33.073  29.219  24.623  1.00  0.00     0.079 C 
ATOM     95  C   UNL A   1      32.235  30.078  25.583  1.00  0.00     0.013 C 
ATOM     96  C   UNL A   1      33.649  27.889  25.150  1.00  0.00     0.013 C 
ATOM     97  C   UNL A   1      32.070  29.579  27.027  1.00  0.00     0.001 C 
ATOM     98  C   UNL A   1      33.666  27.724  26.660  1.00  0.00     0.001 C 
ATOM     99  C   UNL A   1      32.314  28.092  27.230  1.00  0.00     0.000 C 
ENDBRANCH  91  94
ENDBRANCH  85  90
ENDBRANCH  81  83
ENDBRANCH  80  81
ENDBRANCH  79  80
ENDBRANCH  78  79
ENDBRANCH  77  78
ENDBRANCH  76  77
ENDBRANCH  75  76
ENDBRANCH  74  75
ENDBRANCH   1  74
TORSDOF 25
ENDMDL
MODEL 3
REMARK VINA RESULT:     -10.2      1.266      2.670
REMARK SMILES O=C(OCCOCCOCCOCCOC(=O)c1c(F)cccc1NC(=O)C1CCCCC1)c1ccc(-c2c3nc(c(-c4cccc(S(=O)(=O)[O-])c4F)c4ccc([nH]4)c(-c4cccc(S(=O)(=O)[O-])c4F)c4nc(c(-c5cccc(S(=O)(=O)[O-])c5F)c5ccc2[nH]5)C=C4)C=C3)cc1
REMARK SMILES IDX 8 1 7 2 6 3 5 4 4 5 3 6 2 7 1 8 34 9 35 10 96 11 36 12 95 13
REMARK SMILES IDX 37 14 38 15 39 16 89 17 40 18 94 19 88 20 90 21 41 22 93 23
REMARK SMILES IDX 87 24 86 25 42 27 74 28 54 29 73 30 55 31 58 32 72 33 91 34
REMARK SMILES IDX 56 35 57 36 71 38 92 39 59 40 43 41 44 42 52 43 45 44 47 45
REMARK SMILES IDX 53 46 46 47 48 48 49 49 50 50 51 51 75 52 76 53 84 54 77 55
REMARK SMILES IDX 79 56 85 57 78 58 80 59 81 60 82 61 83 62 60 63 61 64 69 65
REMARK SMILES IDX 62 66 64 67 70 68 63 69 65 70 66 71 67 72 68 73 9 74 10 75
REMARK SMILES IDX 11 76 12 77 13 78 14 79 15 80 16 81 17 82 18 83 19 84 24 85
REMARK SMILES IDX 20 86 21 87 23 88 22 89 25 90 26 91 27 93 28 94 29 95 33 96
REMARK SMILES IDX 30 97 32 98 31 99
REMARK H PARENT 90 26 58 37 25 92
REMARK Flexibility Score: inf
ROOT
ATOM      1  C   UNL A   1      33.392  21.695  25.469  1.00  0.00     0.188 C 
ENDROOT
BRANCH   1   2
ATOM      2  C   UNL A   1      34.908  21.754  25.640  1.00  0.00     0.188 C 
BRANCH   2   3
ATOM      3  O   UNL A   1      35.472  20.450  25.729  1.00  0.00    -0.376 OA
BRANCH   3   4
ATOM      4  C   UNL A   1      36.297  20.022  24.646  1.00  0.00     0.202 C 
BRANCH   4   5
ATOM      5  C   UNL A   1      37.794  19.991  24.960  1.00  0.00     0.261 C 
BRANCH   5   6
ATOM      6  O   UNL A   1      38.269  21.207  25.562  1.00  0.00    -0.460 OA
BRANCH   6   7
ATOM      7  C   UNL A   1      39.432  21.404  26.239  1.00  0.00     0.338 C 
ATOM      8  O   UNL A   1      40.145  20.425  26.461  1.00  0.00    -0.246 OA
BRANCH   7   9
ATOM      9  C   UNL A   1      39.900  22.741  26.719  1.00  0.00     0.060 A 
ATOM     10  C   UNL A   1      39.395  23.963  26.286  1.00  0.00     0.016 A 
ATOM     11  C   UNL A   1      40.886  22.767  27.720  1.00  0.00     0.016 A 
ATOM     12  C   UNL A   1      39.899  25.166  26.721  1.00  0.00     0.010 A 
ATOM     13  C   UNL A   1      41.378  23.984  28.209  1.00  0.00     0.010 A 
ATOM     14  C   UNL A   1      40.905  25.185  27.672  1.00  0.00    -0.014 A 
BRANCH  14  15
ATOM     15  C   UNL A   1      41.532  26.492  27.903  1.00  0.00     0.031 A 
ATOM     16  C   UNL A   1      40.751  27.503  28.677  1.00  0.00     0.074 A 
ATOM     17  C   UNL A   1      42.839  26.650  27.627  1.00  0.00     0.049 A 
ATOM     18  N   UNL A   1      41.105  28.697  29.060  1.00  0.00    -0.248 NA
ATOM     19  C   UNL A   1      39.396  27.108  29.109  1.00  0.00     0.031 C 
ATOM     20  C   UNL A   1      43.701  25.623  27.029  1.00  0.00     0.029 A 
ATOM     21  N   UNL A   1      43.681  27.701  27.856  1.00  0.00    -0.354 N 
ATOM     22  C   UNL A   1      39.998  29.216  29.715  1.00  0.00     0.074 A 
ATOM     23  C   UNL A   1      38.967  28.208  29.705  1.00  0.00     0.031 C 
ATOM     24  C   UNL A   1      44.955  26.092  26.957  1.00  0.00     0.029 A 
ATOM     25  C   UNL A   1      44.966  27.474  27.423  1.00  0.00     0.049 A 
ATOM     26  H   UNL A   1      43.396  28.538  28.289  1.00  0.00     0.167 HD
ATOM     27  C   UNL A   1      39.864  30.442  30.266  1.00  0.00     0.034 A 
ATOM     28  C   UNL A   1      46.019  28.310  27.375  1.00  0.00     0.034 A 
ATOM     29  C   UNL A   1      40.922  31.408  30.266  1.00  0.00     0.049 A 
ATOM     30  C   UNL A   1      45.822  29.699  27.912  1.00  0.00     0.074 A 
ATOM     31  C   UNL A   1      40.905  32.704  30.740  1.00  0.00     0.029 A 
ATOM     32  N   UNL A   1      42.193  31.177  29.752  1.00  0.00    -0.354 N 
ATOM     33  N   UNL A   1      44.762  30.204  28.502  1.00  0.00    -0.248 NA
ATOM     34  C   UNL A   1      46.946  30.632  27.792  1.00  0.00     0.031 C 
ATOM     35  C   UNL A   1      42.151  33.272  30.466  1.00  0.00     0.029 A 
ATOM     36  C   UNL A   1      42.965  32.313  29.875  1.00  0.00     0.049 A 
ATOM     37  H   UNL A   1      42.497  30.327  29.358  1.00  0.00     0.167 HD
ATOM     38  C   UNL A   1      45.096  31.505  28.847  1.00  0.00     0.074 A 
ATOM     39  C   UNL A   1      46.464  31.708  28.405  1.00  0.00     0.031 C 
ATOM     40  C   UNL A   1      44.342  32.450  29.460  1.00  0.00     0.034 A 
BRANCH  27  41
ATOM     41  C   UNL A   1      38.517  30.805  30.825  1.00  0.00     0.023 A 
ATOM     42  C   UNL A   1      38.202  30.544  32.172  1.00  0.00     0.012 A 
ATOM     43  C   UNL A   1      37.548  31.390  29.987  1.00  0.00     0.148 A 
ATOM     44  C   UNL A   1      36.928  30.827  32.668  1.00  0.00     0.002 A 
ATOM     45  C   UNL A   1      36.300  31.714  30.499  1.00  0.00     0.091 A 
ATOM     46  F   UNL A   1      37.856  31.592  28.698  1.00  0.00    -0.205 F 
ATOM     47  C   UNL A   1      35.982  31.419  31.835  1.00  0.00     0.022 A 
BRANCH  45  48
ATOM     48  S   UNL A   1      35.042  32.545  29.523  1.00  0.00     0.127 S 
ATOM     49  O   UNL A   1      34.047  32.874  30.543  1.00  0.00    -0.237 OA
ATOM     50  O   UNL A   1      35.778  33.693  28.995  1.00  0.00    -0.237 OA
ATOM     51  O   UNL A   1      34.610  31.583  28.519  1.00  0.00    -0.744 OA
ENDBRANCH  45  48
ENDBRANCH  27  41
BRANCH  28  52
ATOM     52  C   UNL A   1      47.307  27.841  26.790  1.00  0.00     0.023 A 
ATOM     53  C   UNL A   1      48.288  27.264  27.616  1.00  0.00     0.012 A 
ATOM     54  C   UNL A   1      47.520  27.876  25.394  1.00  0.00     0.148 A 
ATOM     55  C   UNL A   1      49.457  26.734  27.065  1.00  0.00     0.002 A 
ATOM     56  C   UNL A   1      48.658  27.295  24.848  1.00  0.00     0.091 A 
ATOM     57  F   UNL A   1      46.580  28.441  24.624  1.00  0.00    -0.205 F 
ATOM     58  C   UNL A   1      49.636  26.735  25.683  1.00  0.00     0.022 A 
BRANCH  56  59
ATOM     59  S   UNL A   1      48.906  27.125  23.076  1.00  0.00     0.127 S 
ATOM     60  O   UNL A   1      48.245  25.851  22.801  1.00  0.00    -0.237 OA
ATOM     61  O   UNL A   1      48.209  28.305  22.562  1.00  0.00    -0.237 OA
ATOM     62  O   UNL A   1      50.348  27.139  22.871  1.00  0.00    -0.744 OA
ENDBRANCH  56  59
ENDBRANCH  28  52
BRANCH  40  63
ATOM     63  C   UNL A   1      44.974  33.784  29.734  1.00  0.00     0.023 A 
ATOM     64  C   UNL A   1      45.724  33.973  30.909  1.00  0.00     0.012 A 
ATOM     65  C   UNL A   1      44.976  34.773  28.732  1.00  0.00     0.148 A 
ATOM     66  C   UNL A   1      46.473  35.134  31.083  1.00  0.00     0.002 A 
ATOM     67  C   UNL A   1      45.770  35.899  28.885  1.00  0.00     0.091 A 
ATOM     68  F   UNL A   1      44.240  34.567  27.630  1.00  0.00    -0.205 F 
ATOM     69  C   UNL A   1      46.512  36.085  30.064  1.00  0.00     0.022 A 
BRANCH  67  70
ATOM     70  S   UNL A   1      45.989  37.106  27.575  1.00  0.00     0.127 S 
ATOM     71  O   UNL A   1      46.284  36.249  26.428  1.00  0.00    -0.237 OA
ATOM     72  O   UNL A   1      44.679  37.756  27.533  1.00  0.00    -0.237 OA
ATOM     73  O   UNL A   1      47.083  37.970  27.998  1.00  0.00    -0.744 OA
ENDBRANCH  67  70
ENDBRANCH  40  63
ENDBRANCH  14  15
ENDBRANCH   7   9
ENDBRANCH   6   7
ENDBRANCH   5   6
ENDBRANCH   4   5
ENDBRANCH   3   4
ENDBRANCH   2   3
ENDBRANCH   1   2
BRANCH   1  74
ATOM     74  O   UNL A   1      32.777  22.938  25.139  1.00  0.00    -0.377 OA
BRANCH  74  75
ATOM     75  C   UNL A   1      31.903  22.930  24.012  1.00  0.00     0.188 C 
BRANCH  75  76
ATOM     76  C   UNL A   1      32.392  22.329  22.671  1.00  0.00     0.188 C 
BRANCH  76  77
ATOM     77  O   UNL A   1      33.396  23.108  22.054  1.00  0.00    -0.376 OA
BRANCH  77  78
ATOM     78  C   UNL A   1      33.450  24.479  22.410  1.00  0.00     0.202 C 
BRANCH  78  79
ATOM     79  C   UNL A   1      32.762  25.529  21.515  1.00  0.00     0.261 C 
BRANCH  79  80
ATOM     80  O   UNL A   1      32.037  26.604  22.143  1.00  0.00    -0.460 OA
BRANCH  80  81
ATOM     81  C   UNL A   1      32.699  27.649  22.705  1.00  0.00     0.343 C 
ATOM     82  O   UNL A   1      33.309  28.518  22.140  1.00  0.00    -0.246 OA
BRANCH  81  83
ATOM     83  C   UNL A   1      32.438  27.644  24.174  1.00  0.00     0.119 A 
ATOM     84  C   UNL A   1      33.537  27.412  25.005  1.00  0.00     0.139 A 
ATOM     85  C   UNL A   1      31.137  27.776  24.743  1.00  0.00     0.058 A 
ATOM     86  F   UNL A   1      34.761  27.200  24.498  1.00  0.00    -0.206 F 
ATOM     87  C   UNL A   1      33.390  27.373  26.385  1.00  0.00     0.040 A 
ATOM     88  C   UNL A   1      31.042  27.895  26.126  1.00  0.00     0.027 A 
ATOM     89  C   UNL A   1      32.151  27.660  26.947  1.00  0.00     0.005 A 
BRANCH  85  90
ATOM     90  N   UNL A   1      29.988  27.669  23.924  1.00  0.00    -0.325 N 
ATOM     91  C   UNL A   1      29.224  28.494  23.158  1.00  0.00     0.227 C 
ATOM     92  H   UNL A   1      29.650  26.745  23.902  1.00  0.00     0.169 HD
ATOM     93  O   UNL A   1      28.156  27.966  22.792  1.00  0.00    -0.274 OA
BRANCH  91  94
ATOM     94  C   UNL A   1      29.458  29.936  22.643  1.00  0.00     0.079 C 
ATOM     95  C   UNL A   1      28.894  30.438  21.304  1.00  0.00     0.013 C 
ATOM     96  C   UNL A   1      29.380  30.876  23.864  1.00  0.00     0.013 C 
ATOM     97  C   UNL A   1      28.335  31.869  21.257  1.00  0.00     0.001 C 
ATOM     98  C   UNL A   1      29.108  32.339  23.560  1.00  0.00     0.001 C 
ATOM     99  C   UNL A   1      27.941  32.455  22.604  1.00  0.00     0.000 C 
ENDBRANCH  91  94
ENDBRANCH  85  90
ENDBRANCH  81  83
ENDBRANCH  80  81
ENDBRANCH  79  80
ENDBRANCH  78  79
ENDBRANCH  77  78
ENDBRANCH  76  77
ENDBRANCH  75  76
ENDBRANCH  74  75
ENDBRANCH   1  74
TORSDOF 25
ENDMDL
