MODEL 1
REMARK VINA RESULT:     -10.8      0.000      0.000
REMARK SMILES CCNC(=O)c1ccc(N2C[C@@H](C)[C@H](C(=O)OCCOCCOCCOCCOC(=O)c3ccc(-c4c5nc(c(-c6cccc(S(=O)(=O)[O-])c6F)c6ccc([nH]6)c(-c6cccc(S(=O)(=O)[O-])c6F)c6nc(c(-c7cccc(S(=O)(=O)[O-])c7F)c7ccc4[nH]7)C=C6)C=C5)cc3)C2)nn1
REMARK SMILES IDX 23 1 22 2 21 3 20 4 19 5 18 6 17 7 15 8 16 9 14 10 10 11
REMARK SMILES IDX 11 12 95 13 12 14 13 15 9 16 6 17 7 18 97 19 8 20 96 21 4 22
REMARK SMILES IDX 3 23 5 25 2 26 1 27 24 28 25 29 26 30 27 31 28 32 29 33
REMARK SMILES IDX 30 34 31 35 32 36 33 37 94 38 34 39 93 40 35 41 36 42 37 43
REMARK SMILES IDX 87 44 38 45 92 46 86 47 88 48 39 49 91 50 85 51 84 52 40 54
REMARK SMILES IDX 72 55 52 56 71 57 53 58 56 59 70 60 89 61 54 62 55 63 69 65
REMARK SMILES IDX 90 66 57 67 41 68 42 69 50 70 43 71 45 72 51 73 44 74 46 75
REMARK SMILES IDX 47 76 48 77 49 78 73 79 74 80 82 81 75 82 77 83 83 84 76 85
REMARK SMILES IDX 78 86 79 87 80 88 81 89 58 90 59 91 67 92 60 93 62 94 68 95
REMARK SMILES IDX 61 96 63 97 64 98 65 99 66 100
REMARK H PARENT 3 24 88 53 56 64
REMARK Flexibility Score: inf
ROOT
ATOM      1  O   UNL A   1      40.887  20.723  26.857  1.00  0.00    -0.377 OA
ENDROOT
BRANCH   1   2
ATOM      2  C   UNL A   1      40.323  21.769  26.096  1.00  0.00     0.188 C 
BRANCH   2   3
ATOM      3  C   UNL A   1      39.580  22.843  26.898  1.00  0.00     0.188 C 
BRANCH   3   4
ATOM      4  O   UNL A   1      38.678  23.736  26.266  1.00  0.00    -0.376 OA
BRANCH   4   5
ATOM      5  C   UNL A   1      37.369  23.320  25.901  1.00  0.00     0.202 C 
BRANCH   5   6
ATOM      6  C   UNL A   1      36.799  23.515  24.481  1.00  0.00     0.261 C 
BRANCH   6   7
ATOM      7  O   UNL A   1      35.504  24.137  24.376  1.00  0.00    -0.463 OA
BRANCH   7   8
ATOM      8  C   UNL A   1      34.541  23.406  23.772  1.00  0.00     0.311 C 
ATOM      9  O   UNL A   1      34.391  23.341  22.553  1.00  0.00    -0.252 OA
BRANCH   8  10
ATOM     10  C   UNL A   1      33.629  22.623  24.705  1.00  0.00     0.123 C 
ATOM     11  N   UNL A   1      31.980  23.988  25.610  1.00  0.00    -0.354 N 
ATOM     12  C   UNL A   1      32.572  23.410  26.791  1.00  0.00     0.122 C 
ATOM     13  C   UNL A   1      32.209  23.123  24.462  1.00  0.00     0.133 C 
ATOM     14  C   UNL A   1      33.805  22.683  26.246  1.00  0.00     0.021 C 
ATOM     15  C   UNL A   1      33.899  21.279  26.852  1.00  0.00     0.010 C 
BRANCH  11  16
ATOM     16  C   UNL A   1      31.888  25.335  25.356  1.00  0.00     0.151 A 
ATOM     17  C   UNL A   1      31.526  27.995  24.835  1.00  0.00     0.150 A 
ATOM     18  C   UNL A   1      32.755  27.582  25.314  1.00  0.00     0.040 A 
ATOM     19  N   UNL A   1      30.519  27.126  24.610  1.00  0.00    -0.143 NA
ATOM     20  C   UNL A   1      32.939  26.225  25.560  1.00  0.00     0.051 A 
ATOM     21  N   UNL A   1      30.715  25.796  24.867  1.00  0.00    -0.132 NA
BRANCH  17  22
ATOM     22  C   UNL A   1      31.208  29.421  24.618  1.00  0.00     0.271 C 
ATOM     23  N   UNL A   1      30.625  29.817  23.439  1.00  0.00    -0.351 N 
ATOM     24  H   UNL A   1      30.796  30.751  23.179  1.00  0.00     0.163 HD
ATOM     25  O   UNL A   1      31.483  30.238  25.496  1.00  0.00    -0.267 OA
BRANCH  23  26
ATOM     26  C   UNL A   1      29.797  29.062  22.521  1.00  0.00     0.113 C 
ATOM     27  C   UNL A   1      28.438  29.722  22.348  1.00  0.00     0.027 C 
ENDBRANCH  23  26
ENDBRANCH  17  22
ENDBRANCH  11  16
ENDBRANCH   8  10
ENDBRANCH   7   8
ENDBRANCH   6   7
ENDBRANCH   5   6
ENDBRANCH   4   5
ENDBRANCH   3   4
ENDBRANCH   2   3
ENDBRANCH   1   2
BRANCH   1  28
ATOM     28  C   UNL A   1      41.228  19.520  26.179  1.00  0.00     0.188 C 
BRANCH  28  29
ATOM     29  C   UNL A   1      42.722  19.174  26.018  1.00  0.00     0.188 C 
BRANCH  29  30
ATOM     30  O   UNL A   1      43.367  19.858  24.953  1.00  0.00    -0.376 OA
BRANCH  30  31
ATOM     31  C   UNL A   1      44.334  20.853  25.259  1.00  0.00     0.202 C 
BRANCH  31  32
ATOM     32  C   UNL A   1      44.418  22.103  24.365  1.00  0.00     0.261 C 
BRANCH  32  33
ATOM     33  O   UNL A   1      43.698  23.268  24.800  1.00  0.00    -0.460 OA
BRANCH  33  34
ATOM     34  C   UNL A   1      44.386  24.420  24.968  1.00  0.00     0.338 C 
ATOM     35  O   UNL A   1      45.387  24.764  24.379  1.00  0.00    -0.246 OA
BRANCH  34  36
ATOM     36  C   UNL A   1      43.581  25.296  25.850  1.00  0.00     0.060 A 
ATOM     37  C   UNL A   1      43.820  26.676  25.825  1.00  0.00     0.016 A 
ATOM     38  C   UNL A   1      42.606  24.763  26.696  1.00  0.00     0.016 A 
ATOM     39  C   UNL A   1      43.119  27.524  26.682  1.00  0.00     0.010 A 
ATOM     40  C   UNL A   1      41.919  25.610  27.570  1.00  0.00     0.010 A 
ATOM     41  C   UNL A   1      42.204  26.988  27.596  1.00  0.00    -0.014 A 
BRANCH  41  42
ATOM     42  C   UNL A   1      41.708  27.831  28.710  1.00  0.00     0.031 A 
ATOM     43  C   UNL A   1      42.502  27.874  29.987  1.00  0.00     0.074 A 
ATOM     44  C   UNL A   1      40.577  28.548  28.601  1.00  0.00     0.049 A 
ATOM     45  N   UNL A   1      42.246  28.503  31.102  1.00  0.00    -0.248 NA
ATOM     46  C   UNL A   1      43.748  27.092  30.006  1.00  0.00     0.031 C 
ATOM     47  C   UNL A   1      39.713  28.595  27.425  1.00  0.00     0.029 A 
ATOM     48  N   UNL A   1      39.946  29.349  29.521  1.00  0.00    -0.354 N 
ATOM     49  C   UNL A   1      43.273  28.160  31.973  1.00  0.00     0.074 A 
ATOM     50  C   UNL A   1      44.152  27.262  31.255  1.00  0.00     0.031 C 
ATOM     51  C   UNL A   1      38.639  29.354  27.708  1.00  0.00     0.029 A 
ATOM     52  C   UNL A   1      38.730  29.819  29.092  1.00  0.00     0.049 A 
ATOM     53  H   UNL A   1      40.329  29.563  30.403  1.00  0.00     0.167 HD
ATOM     54  C   UNL A   1      43.475  28.558  33.252  1.00  0.00     0.034 A 
ATOM     55  C   UNL A   1      37.783  30.514  29.753  1.00  0.00     0.034 A 
ATOM     56  C   UNL A   1      42.607  29.454  33.965  1.00  0.00     0.049 A 
ATOM     57  C   UNL A   1      38.006  30.922  31.182  1.00  0.00     0.074 A 
ATOM     58  C   UNL A   1      42.765  29.973  35.237  1.00  0.00     0.029 A 
ATOM     59  N   UNL A   1      41.401  29.939  33.484  1.00  0.00    -0.354 N 
ATOM     60  N   UNL A   1      39.040  30.694  31.952  1.00  0.00    -0.248 NA
ATOM     61  C   UNL A   1      36.941  31.711  31.821  1.00  0.00     0.031 C 
ATOM     62  C   UNL A   1      41.628  30.728  35.547  1.00  0.00     0.029 A 
ATOM     63  C   UNL A   1      40.789  30.725  34.446  1.00  0.00     0.049 A 
ATOM     64  H   UNL A   1      41.033  29.750  32.591  1.00  0.00     0.167 HD
ATOM     65  C   UNL A   1      38.766  31.334  33.156  1.00  0.00     0.074 A 
ATOM     66  C   UNL A   1      37.475  31.973  33.006  1.00  0.00     0.031 C 
ATOM     67  C   UNL A   1      39.516  31.383  34.284  1.00  0.00     0.034 A 
BRANCH  54  68
ATOM     68  C   UNL A   1      44.679  28.002  33.965  1.00  0.00     0.023 A 
ATOM     69  C   UNL A   1      45.922  28.662  33.885  1.00  0.00     0.012 A 
ATOM     70  C   UNL A   1      44.572  26.823  34.729  1.00  0.00     0.148 A 
ATOM     71  C   UNL A   1      47.050  28.130  34.509  1.00  0.00     0.002 A 
ATOM     72  C   UNL A   1      45.689  26.328  35.391  1.00  0.00     0.091 A 
ATOM     73  F   UNL A   1      43.389  26.194  34.773  1.00  0.00    -0.205 F 
ATOM     74  C   UNL A   1      46.931  26.970  35.268  1.00  0.00     0.022 A 
BRANCH  72  75
ATOM     75  S   UNL A   1      45.611  24.888  36.461  1.00  0.00     0.127 S 
ATOM     76  O   UNL A   1      44.828  23.959  35.646  1.00  0.00    -0.237 OA
ATOM     77  O   UNL A   1      47.024  24.534  36.601  1.00  0.00    -0.237 OA
ATOM     78  O   UNL A   1      44.974  25.337  37.690  1.00  0.00    -0.744 OA
ENDBRANCH  72  75
ENDBRANCH  54  68
BRANCH  55  79
ATOM     79  C   UNL A   1      36.514  30.853  29.063  1.00  0.00     0.023 A 
ATOM     80  C   UNL A   1      35.656  29.830  28.619  1.00  0.00     0.012 A 
ATOM     81  C   UNL A   1      36.148  32.196  28.876  1.00  0.00     0.148 A 
ATOM     82  C   UNL A   1      34.457  30.141  27.979  1.00  0.00     0.002 A 
ATOM     83  C   UNL A   1      34.926  32.497  28.294  1.00  0.00     0.091 A 
ATOM     84  F   UNL A   1      36.991  33.154  29.288  1.00  0.00    -0.205 F 
ATOM     85  C   UNL A   1      34.087  31.473  27.826  1.00  0.00     0.022 A 
BRANCH  83  86
ATOM     86  S   UNL A   1      34.281  34.166  28.270  1.00  0.00     0.127 S 
ATOM     87  O   UNL A   1      34.968  34.738  27.118  1.00  0.00    -0.237 OA
ATOM     88  O   UNL A   1      32.854  33.901  28.087  1.00  0.00    -0.237 OA
ATOM     89  O   UNL A   1      34.619  34.723  29.575  1.00  0.00    -0.744 OA
ENDBRANCH  83  86
ENDBRANCH  55  79
BRANCH  67  90
ATOM     90  C   UNL A   1      38.992  32.192  35.443  1.00  0.00     0.023 A 
ATOM     91  C   UNL A   1      39.050  33.599  35.413  1.00  0.00     0.012 A 
ATOM     92  C   UNL A   1      38.378  31.549  36.537  1.00  0.00     0.148 A 
ATOM     93  C   UNL A   1      38.537  34.352  36.470  1.00  0.00     0.002 A 
ATOM     94  C   UNL A   1      37.820  32.307  37.558  1.00  0.00     0.091 A 
ATOM     95  F   UNL A   1      38.350  30.210  36.556  1.00  0.00    -0.205 F 
ATOM     96  C   UNL A   1      37.911  33.708  37.534  1.00  0.00     0.022 A 
BRANCH  94  97
ATOM     97  S   UNL A   1      36.909  31.567  38.919  1.00  0.00     0.127 S 
ATOM     98  O   UNL A   1      37.800  31.826  40.049  1.00  0.00    -0.237 OA
ATOM     99  O   UNL A   1      35.673  32.349  38.923  1.00  0.00    -0.237 OA
ATOM    100  O   UNL A   1      36.736  30.163  38.571  1.00  0.00    -0.744 OA
ENDBRANCH  94  97
ENDBRANCH  67  90
ENDBRANCH  41  42
ENDBRANCH  34  36
ENDBRANCH  33  34
ENDBRANCH  32  33
ENDBRANCH  31  32
ENDBRANCH  30  31
ENDBRANCH  29  30
ENDBRANCH  28  29
ENDBRANCH   1  28
TORSDOF 26
ENDMDL
MODEL 2
REMARK VINA RESULT:     -10.0      4.949      7.518
REMARK SMILES CCNC(=O)c1ccc(N2C[C@@H](C)[C@H](C(=O)OCCOCCOCCOCCOC(=O)c3ccc(-c4c5nc(c(-c6cccc(S(=O)(=O)[O-])c6F)c6ccc([nH]6)c(-c6cccc(S(=O)(=O)[O-])c6F)c6nc(c(-c7cccc(S(=O)(=O)[O-])c7F)c7ccc4[nH]7)C=C6)C=C5)cc3)C2)nn1
REMARK SMILES IDX 23 1 22 2 21 3 20 4 19 5 18 6 17 7 15 8 16 9 14 10 10 11
REMARK SMILES IDX 11 12 95 13 12 14 13 15 9 16 6 17 7 18 97 19 8 20 96 21 4 22
REMARK SMILES IDX 3 23 5 25 2 26 1 27 24 28 25 29 26 30 27 31 28 32 29 33
REMARK SMILES IDX 30 34 31 35 32 36 33 37 94 38 34 39 93 40 35 41 36 42 37 43
REMARK SMILES IDX 87 44 38 45 92 46 86 47 88 48 39 49 91 50 85 51 84 52 40 54
REMARK SMILES IDX 72 55 52 56 71 57 53 58 56 59 70 60 89 61 54 62 55 63 69 65
REMARK SMILES IDX 90 66 57 67 41 68 42 69 50 70 43 71 45 72 51 73 44 74 46 75
REMARK SMILES IDX 47 76 48 77 49 78 73 79 74 80 82 81 75 82 77 83 83 84 76 85
REMARK SMILES IDX 78 86 79 87 80 88 81 89 58 90 59 91 67 92 60 93 62 94 68 95
REMARK SMILES IDX 61 96 63 97 64 98 65 99 66 100
REMARK H PARENT 3 24 88 53 56 64
REMARK Flexibility Score: inf
ROOT
ATOM      1  O   UNL A   1      34.182  20.687  25.590  1.00  0.00    -0.377 OA
ENDROOT
BRANCH   1   2
ATOM      2  C   UNL A   1      33.419  21.863  25.751  1.00  0.00     0.188 C 
BRANCH   2   3
ATOM      3  C   UNL A   1      33.229  22.334  27.197  1.00  0.00     0.188 C 
BRANCH   3   4
ATOM      4  O   UNL A   1      31.996  22.885  27.632  1.00  0.00    -0.376 OA
BRANCH   4   5
ATOM      5  C   UNL A   1      30.820  22.764  26.843  1.00  0.00     0.202 C 
BRANCH   5   6
ATOM      6  C   UNL A   1      29.847  23.938  26.614  1.00  0.00     0.261 C 
BRANCH   6   7
ATOM      7  O   UNL A   1      30.320  25.029  25.799  1.00  0.00    -0.463 OA
BRANCH   7   8
ATOM      8  C   UNL A   1      30.882  24.689  24.618  1.00  0.00     0.311 C 
ATOM      9  O   UNL A   1      30.281  24.110  23.715  1.00  0.00    -0.252 OA
BRANCH   8  10
ATOM     10  C   UNL A   1      32.339  25.089  24.445  1.00  0.00     0.123 C 
ATOM     11  N   UNL A   1      32.523  27.223  23.543  1.00  0.00    -0.354 N 
ATOM     12  C   UNL A   1      33.326  26.443  22.634  1.00  0.00     0.122 C 
ATOM     13  C   UNL A   1      32.445  26.560  24.836  1.00  0.00     0.133 C 
ATOM     14  C   UNL A   1      33.044  25.001  23.065  1.00  0.00     0.021 C 
ATOM     15  C   UNL A   1      34.354  24.213  23.158  1.00  0.00     0.010 C 
BRANCH  11  16
ATOM     16  C   UNL A   1      31.441  27.987  23.177  1.00  0.00     0.151 A 
ATOM     17  C   UNL A   1      29.382  29.559  22.302  1.00  0.00     0.150 A 
ATOM     18  C   UNL A   1      29.136  28.668  23.330  1.00  0.00     0.040 A 
ATOM     19  N   UNL A   1      30.601  29.678  21.738  1.00  0.00    -0.143 NA
ATOM     20  C   UNL A   1      30.192  27.884  23.783  1.00  0.00     0.051 A 
ATOM     21  N   UNL A   1      31.626  28.892  22.189  1.00  0.00    -0.132 NA
BRANCH  17  22
ATOM     22  C   UNL A   1      28.309  30.377  21.700  1.00  0.00     0.271 C 
ATOM     23  N   UNL A   1      27.701  31.358  22.446  1.00  0.00    -0.351 N 
ATOM     24  H   UNL A   1      26.783  31.584  22.174  1.00  0.00     0.163 HD
ATOM     25  O   UNL A   1      27.966  30.158  20.540  1.00  0.00    -0.267 OA
BRANCH  23  26
ATOM     26  C   UNL A   1      28.213  32.109  23.575  1.00  0.00     0.113 C 
ATOM     27  C   UNL A   1      28.821  33.425  23.120  1.00  0.00     0.027 C 
ENDBRANCH  23  26
ENDBRANCH  17  22
ENDBRANCH  11  16
ENDBRANCH   8  10
ENDBRANCH   7   8
ENDBRANCH   6   7
ENDBRANCH   5   6
ENDBRANCH   4   5
ENDBRANCH   3   4
ENDBRANCH   2   3
ENDBRANCH   1   2
BRANCH   1  28
ATOM     28  C   UNL A   1      35.418  20.790  24.894  1.00  0.00     0.188 C 
BRANCH  28  29
ATOM     29  C   UNL A   1      36.507  21.710  25.479  1.00  0.00     0.188 C 
BRANCH  29  30
ATOM     30  O   UNL A   1      37.833  21.230  25.302  1.00  0.00    -0.376 OA
BRANCH  30  31
ATOM     31  C   UNL A   1      38.033  19.861  24.982  1.00  0.00     0.202 C 
BRANCH  31  32
ATOM     32  C   UNL A   1      39.244  19.129  25.588  1.00  0.00     0.261 C 
BRANCH  32  33
ATOM     33  O   UNL A   1      40.100  19.887  26.457  1.00  0.00    -0.460 OA
BRANCH  33  34
ATOM     34  C   UNL A   1      41.437  19.769  26.302  1.00  0.00     0.338 C 
ATOM     35  O   UNL A   1      42.044  18.791  25.924  1.00  0.00    -0.246 OA
BRANCH  34  36
ATOM     36  C   UNL A   1      42.028  21.117  26.469  1.00  0.00     0.060 A 
ATOM     37  C   UNL A   1      42.463  21.507  27.741  1.00  0.00     0.016 A 
ATOM     38  C   UNL A   1      42.146  21.989  25.384  1.00  0.00     0.016 A 
ATOM     39  C   UNL A   1      42.973  22.789  27.945  1.00  0.00     0.010 A 
ATOM     40  C   UNL A   1      42.637  23.280  25.592  1.00  0.00     0.010 A 
ATOM     41  C   UNL A   1      43.012  23.699  26.882  1.00  0.00    -0.014 A 
BRANCH  41  42
ATOM     42  C   UNL A   1      43.243  25.137  27.162  1.00  0.00     0.031 A 
ATOM     43  C   UNL A   1      44.607  25.711  26.891  1.00  0.00     0.074 A 
ATOM     44  C   UNL A   1      42.269  25.925  27.646  1.00  0.00     0.049 A 
ATOM     45  N   UNL A   1      45.053  26.921  27.094  1.00  0.00    -0.248 NA
ATOM     46  C   UNL A   1      45.602  24.787  26.324  1.00  0.00     0.031 C 
ATOM     47  C   UNL A   1      40.906  25.499  27.953  1.00  0.00     0.029 A 
ATOM     48  N   UNL A   1      42.299  27.253  27.996  1.00  0.00    -0.354 N 
ATOM     49  C   UNL A   1      46.391  26.897  26.722  1.00  0.00     0.074 A 
ATOM     50  C   UNL A   1      46.684  25.548  26.287  1.00  0.00     0.031 C 
ATOM     51  C   UNL A   1      40.239  26.538  28.488  1.00  0.00     0.029 A 
ATOM     52  C   UNL A   1      41.137  27.689  28.582  1.00  0.00     0.049 A 
ATOM     53  H   UNL A   1      43.079  27.834  27.842  1.00  0.00     0.167 HD
ATOM     54  C   UNL A   1      47.297  27.904  26.733  1.00  0.00     0.034 A 
ATOM     55  C   UNL A   1      40.845  28.870  29.162  1.00  0.00     0.034 A 
ATOM     56  C   UNL A   1      47.007  29.246  27.160  1.00  0.00     0.049 A 
ATOM     57  C   UNL A   1      41.870  29.968  29.196  1.00  0.00     0.074 A 
ATOM     58  C   UNL A   1      47.838  30.352  27.139  1.00  0.00     0.029 A 
ATOM     59  N   UNL A   1      45.807  29.659  27.715  1.00  0.00    -0.354 N 
ATOM     60  N   UNL A   1      43.092  29.969  28.728  1.00  0.00    -0.248 NA
ATOM     61  C   UNL A   1      41.460  31.239  29.813  1.00  0.00     0.031 C 
ATOM     62  C   UNL A   1      47.157  31.421  27.733  1.00  0.00     0.029 A 
ATOM     63  C   UNL A   1      45.884  30.995  28.071  1.00  0.00     0.049 A 
ATOM     64  H   UNL A   1      45.016  29.086  27.839  1.00  0.00     0.167 HD
ATOM     65  C   UNL A   1      43.590  31.245  28.965  1.00  0.00     0.074 A 
ATOM     66  C   UNL A   1      42.529  31.996  29.605  1.00  0.00     0.031 C 
ATOM     67  C   UNL A   1      44.817  31.747  28.682  1.00  0.00     0.034 A 
BRANCH  54  68
ATOM     68  C   UNL A   1      48.698  27.576  26.287  1.00  0.00     0.023 A 
ATOM     69  C   UNL A   1      49.663  27.152  27.223  1.00  0.00     0.012 A 
ATOM     70  C   UNL A   1      49.054  27.680  24.927  1.00  0.00     0.148 A 
ATOM     71  C   UNL A   1      50.972  26.889  26.822  1.00  0.00     0.002 A 
ATOM     72  C   UNL A   1      50.345  27.364  24.529  1.00  0.00     0.091 A 
ATOM     73  F   UNL A   1      48.130  28.109  24.055  1.00  0.00    -0.205 F 
ATOM     74  C   UNL A   1      51.310  26.985  25.476  1.00  0.00     0.022 A 
BRANCH  72  75
ATOM     75  S   UNL A   1      50.849  27.377  22.805  1.00  0.00     0.127 S 
ATOM     76  O   UNL A   1      52.162  26.735  22.878  1.00  0.00    -0.237 OA
ATOM     77  O   UNL A   1      49.807  26.564  22.175  1.00  0.00    -0.237 OA
ATOM     78  O   UNL A   1      50.854  28.774  22.400  1.00  0.00    -0.744 OA
ENDBRANCH  72  75
ENDBRANCH  54  68
BRANCH  55  79
ATOM     79  C   UNL A   1      39.511  29.065  29.781  1.00  0.00     0.023 A 
ATOM     80  C   UNL A   1      39.250  28.567  31.071  1.00  0.00     0.012 A 
ATOM     81  C   UNL A   1      38.511  29.777  29.098  1.00  0.00     0.148 A 
ATOM     82  C   UNL A   1      38.003  28.756  31.665  1.00  0.00     0.002 A 
ATOM     83  C   UNL A   1      37.295  30.013  29.718  1.00  0.00     0.091 A 
ATOM     84  F   UNL A   1      38.774  30.224  27.861  1.00  0.00    -0.205 F 
ATOM     85  C   UNL A   1      37.029  29.489  30.993  1.00  0.00     0.022 A 
BRANCH  83  86
ATOM     86  S   UNL A   1      36.084  31.132  29.021  1.00  0.00     0.127 S 
ATOM     87  O   UNL A   1      35.010  31.067  30.006  1.00  0.00    -0.237 OA
ATOM     88  O   UNL A   1      36.849  32.379  29.001  1.00  0.00    -0.237 OA
ATOM     89  O   UNL A   1      35.789  30.595  27.697  1.00  0.00    -0.744 OA
ENDBRANCH  83  86
ENDBRANCH  55  79
BRANCH  67  90
ATOM     90  C   UNL A   1      45.079  33.194  29.015  1.00  0.00     0.023 A 
ATOM     91  C   UNL A   1      45.825  33.538  30.158  1.00  0.00     0.012 A 
ATOM     92  C   UNL A   1      44.634  34.213  28.148  1.00  0.00     0.148 A 
ATOM     93  C   UNL A   1      46.096  34.875  30.452  1.00  0.00     0.002 A 
ATOM     94  C   UNL A   1      44.955  35.537  28.417  1.00  0.00     0.091 A 
ATOM     95  F   UNL A   1      43.908  33.867  27.076  1.00  0.00    -0.205 F 
ATOM     96  C   UNL A   1      45.673  35.872  29.576  1.00  0.00     0.022 A 
BRANCH  94  97
ATOM     97  S   UNL A   1      44.537  36.877  27.296  1.00  0.00     0.127 S 
ATOM     98  O   UNL A   1      45.785  37.042  26.552  1.00  0.00    -0.237 OA
ATOM     99  O   UNL A   1      43.436  36.300  26.523  1.00  0.00    -0.237 OA
ATOM    100  O   UNL A   1      44.159  38.004  28.138  1.00  0.00    -0.744 OA
ENDBRANCH  94  97
ENDBRANCH  67  90
ENDBRANCH  41  42
ENDBRANCH  34  36
ENDBRANCH  33  34
ENDBRANCH  32  33
ENDBRANCH  31  32
ENDBRANCH  30  31
ENDBRANCH  29  30
ENDBRANCH  28  29
ENDBRANCH   1  28
TORSDOF 26
ENDMDL
MODEL 3
REMARK VINA RESULT:      -9.7      4.574      6.558
REMARK SMILES CCNC(=O)c1ccc(N2C[C@@H](C)[C@H](C(=O)OCCOCCOCCOCCOC(=O)c3ccc(-c4c5nc(c(-c6cccc(S(=O)(=O)[O-])c6F)c6ccc([nH]6)c(-c6cccc(S(=O)(=O)[O-])c6F)c6nc(c(-c7cccc(S(=O)(=O)[O-])c7F)c7ccc4[nH]7)C=C6)C=C5)cc3)C2)nn1
REMARK SMILES IDX 23 1 22 2 21 3 20 4 19 5 18 6 17 7 15 8 16 9 14 10 10 11
REMARK SMILES IDX 11 12 95 13 12 14 13 15 9 16 6 17 7 18 97 19 8 20 96 21 4 22
REMARK SMILES IDX 3 23 5 25 2 26 1 27 24 28 25 29 26 30 27 31 28 32 29 33
REMARK SMILES IDX 30 34 31 35 32 36 33 37 94 38 34 39 93 40 35 41 36 42 37 43
REMARK SMILES IDX 87 44 38 45 92 46 86 47 88 48 39 49 91 50 85 51 84 52 40 54
REMARK SMILES IDX 72 55 52 56 71 57 53 58 56 59 70 60 89 61 54 62 55 63 69 65
REMARK SMILES IDX 90 66 57 67 41 68 42 69 50 70 43 71 45 72 51 73 44 74 46 75
REMARK SMILES IDX 47 76 48 77 49 78 73 79 74 80 82 81 75 82 77 83 83 84 76 85
REMARK SMILES IDX 78 86 79 87 80 88 81 89 58 90 59 91 67 92 60 93 62 94 68 95
REMARK SMILES IDX 61 96 63 97 64 98 65 99 66 100
REMARK H PARENT 3 24 88 53 56 64
REMARK Flexibility Score: inf
ROOT
ATOM      1  O   UNL A   1      34.494  21.697  26.727  1.00  0.00    -0.377 OA
ENDROOT
BRANCH   1   2
ATOM      2  C   UNL A   1      34.159  23.043  26.469  1.00  0.00     0.188 C 
BRANCH   2   3
ATOM      3  C   UNL A   1      32.964  23.589  27.258  1.00  0.00     0.188 C 
BRANCH   3   4
ATOM      4  O   UNL A   1      31.796  22.807  27.453  1.00  0.00    -0.376 OA
BRANCH   4   5
ATOM      5  C   UNL A   1      30.670  22.944  26.596  1.00  0.00     0.202 C 
BRANCH   5   6
ATOM      6  C   UNL A   1      29.789  24.209  26.577  1.00  0.00     0.261 C 
BRANCH   6   7
ATOM      7  O   UNL A   1      30.196  25.277  25.699  1.00  0.00    -0.463 OA
BRANCH   7   8
ATOM      8  C   UNL A   1      30.767  24.903  24.533  1.00  0.00     0.311 C 
ATOM      9  O   UNL A   1      30.193  24.240  23.671  1.00  0.00    -0.252 OA
BRANCH   8  10
ATOM     10  C   UNL A   1      32.197  25.375  24.320  1.00  0.00     0.123 C 
ATOM     11  N   UNL A   1      32.263  27.626  23.745  1.00  0.00    -0.354 N 
ATOM     12  C   UNL A   1      33.013  27.020  22.673  1.00  0.00     0.122 C 
ATOM     13  C   UNL A   1      32.299  26.772  24.924  1.00  0.00     0.133 C 
ATOM     14  C   UNL A   1      32.798  25.521  22.896  1.00  0.00     0.021 C 
ATOM     15  C   UNL A   1      34.130  24.773  22.773  1.00  0.00     0.010 C 
BRANCH  11  16
ATOM     16  C   UNL A   1      31.139  28.399  23.579  1.00  0.00     0.151 A 
ATOM     17  C   UNL A   1      28.988  30.069  23.340  1.00  0.00     0.150 A 
ATOM     18  C   UNL A   1      29.011  28.917  22.577  1.00  0.00     0.040 A 
ATOM     19  N   UNL A   1      29.982  30.378  24.197  1.00  0.00    -0.143 NA
ATOM     20  C   UNL A   1      30.100  28.062  22.717  1.00  0.00     0.051 A 
ATOM     21  N   UNL A   1      31.050  29.530  24.314  1.00  0.00    -0.132 NA
BRANCH  17  22
ATOM     22  C   UNL A   1      27.916  31.076  23.205  1.00  0.00     0.271 C 
ATOM     23  N   UNL A   1      27.913  31.927  22.125  1.00  0.00    -0.351 N 
ATOM     24  H   UNL A   1      27.459  32.788  22.270  1.00  0.00     0.163 HD
ATOM     25  O   UNL A   1      27.045  31.147  24.071  1.00  0.00    -0.267 OA
BRANCH  23  26
ATOM     26  C   UNL A   1      28.480  31.742  20.804  1.00  0.00     0.113 C 
ATOM     27  C   UNL A   1      27.746  32.586  19.776  1.00  0.00     0.027 C 
ENDBRANCH  23  26
ENDBRANCH  17  22
ENDBRANCH  11  16
ENDBRANCH   8  10
ENDBRANCH   7   8
ENDBRANCH   6   7
ENDBRANCH   5   6
ENDBRANCH   4   5
ENDBRANCH   3   4
ENDBRANCH   2   3
ENDBRANCH   1   2
BRANCH   1  28
ATOM     28  C   UNL A   1      35.353  21.039  25.805  1.00  0.00     0.188 C 
BRANCH  28  29
ATOM     29  C   UNL A   1      36.595  21.799  25.299  1.00  0.00     0.188 C 
BRANCH  29  30
ATOM     30  O   UNL A   1      37.445  21.033  24.456  1.00  0.00    -0.376 OA
BRANCH  30  31
ATOM     31  C   UNL A   1      37.735  19.688  24.809  1.00  0.00     0.202 C 
BRANCH  31  32
ATOM     32  C   UNL A   1      39.059  19.382  25.533  1.00  0.00     0.261 C 
BRANCH  32  33
ATOM     33  O   UNL A   1      39.797  20.501  26.048  1.00  0.00    -0.460 OA
BRANCH  33  34
ATOM     34  C   UNL A   1      41.079  20.302  26.427  1.00  0.00     0.338 C 
ATOM     35  O   UNL A   1      41.706  19.268  26.365  1.00  0.00    -0.246 OA
BRANCH  34  36
ATOM     36  C   UNL A   1      41.664  21.628  26.736  1.00  0.00     0.060 A 
ATOM     37  C   UNL A   1      41.841  21.987  28.079  1.00  0.00     0.016 A 
ATOM     38  C   UNL A   1      42.029  22.507  25.715  1.00  0.00     0.016 A 
ATOM     39  C   UNL A   1      42.338  23.248  28.406  1.00  0.00     0.010 A 
ATOM     40  C   UNL A   1      42.507  23.778  26.044  1.00  0.00     0.010 A 
ATOM     41  C   UNL A   1      42.622  24.169  27.391  1.00  0.00    -0.014 A 
BRANCH  41  42
ATOM     42  C   UNL A   1      42.835  25.595  27.739  1.00  0.00     0.031 A 
ATOM     43  C   UNL A   1      44.230  26.152  27.659  1.00  0.00     0.074 A 
ATOM     44  C   UNL A   1      41.819  26.387  28.119  1.00  0.00     0.049 A 
ATOM     45  N   UNL A   1      44.663  27.349  27.951  1.00  0.00    -0.248 NA
ATOM     46  C   UNL A   1      45.276  25.227  27.196  1.00  0.00     0.031 C 
ATOM     47  C   UNL A   1      40.422  25.975  28.240  1.00  0.00     0.029 A 
ATOM     48  N   UNL A   1      41.822  27.704  28.508  1.00  0.00    -0.354 N 
ATOM     49  C   UNL A   1      46.037  27.313  27.751  1.00  0.00     0.074 A 
ATOM     50  C   UNL A   1      46.364  25.971  27.318  1.00  0.00     0.031 C 
ATOM     51  C   UNL A   1      39.707  27.011  28.715  1.00  0.00     0.029 A 
ATOM     52  C   UNL A   1      40.601  28.143  28.955  1.00  0.00     0.049 A 
ATOM     53  H   UNL A   1      42.623  28.275  28.471  1.00  0.00     0.167 HD
ATOM     54  C   UNL A   1      46.948  28.303  27.905  1.00  0.00     0.034 A 
ATOM     55  C   UNL A   1      40.254  29.313  29.527  1.00  0.00     0.034 A 
ATOM     56  C   UNL A   1      46.625  29.638  28.330  1.00  0.00     0.049 A 
ATOM     57  C   UNL A   1      41.281  30.392  29.722  1.00  0.00     0.074 A 
ATOM     58  C   UNL A   1      47.466  30.730  28.446  1.00  0.00     0.029 A 
ATOM     59  N   UNL A   1      45.369  30.056  28.741  1.00  0.00    -0.354 N 
ATOM     60  N   UNL A   1      42.553  30.385  29.412  1.00  0.00    -0.248 NA
ATOM     61  C   UNL A   1      40.813  31.653  30.318  1.00  0.00     0.031 C 
ATOM     62  C   UNL A   1      46.730  31.793  28.980  1.00  0.00     0.029 A 
ATOM     63  C   UNL A   1      45.418  31.380  29.142  1.00  0.00     0.049 A 
ATOM     64  H   UNL A   1      44.561  29.493  28.748  1.00  0.00     0.167 HD
ATOM     65  C   UNL A   1      43.034  31.646  29.747  1.00  0.00     0.074 A 
ATOM     66  C   UNL A   1      41.911  32.397  30.270  1.00  0.00     0.031 C 
ATOM     67  C   UNL A   1      44.293  32.134  29.635  1.00  0.00     0.034 A 
BRANCH  54  68
ATOM     68  C   UNL A   1      48.389  27.964  27.630  1.00  0.00     0.023 A 
ATOM     69  C   UNL A   1      49.251  27.605  28.686  1.00  0.00     0.012 A 
ATOM     70  C   UNL A   1      48.887  27.991  26.312  1.00  0.00     0.148 A 
ATOM     71  C   UNL A   1      50.596  27.331  28.443  1.00  0.00     0.002 A 
ATOM     72  C   UNL A   1      50.215  27.665  26.072  1.00  0.00     0.091 A 
ATOM     73  F   UNL A   1      48.060  28.359  25.322  1.00  0.00    -0.205 F 
ATOM     74  C   UNL A   1      51.075  27.352  27.136  1.00  0.00     0.022 A 
BRANCH  72  75
ATOM     75  S   UNL A   1      50.899  27.581  24.414  1.00  0.00     0.127 S 
ATOM     76  O   UNL A   1      51.021  28.999  24.075  1.00  0.00    -0.237 OA
ATOM     77  O   UNL A   1      52.173  26.897  24.641  1.00  0.00    -0.237 OA
ATOM     78  O   UNL A   1      49.939  26.827  23.622  1.00  0.00    -0.744 OA
ENDBRANCH  72  75
ENDBRANCH  54  68
BRANCH  55  79
ATOM     79  C   UNL A   1      38.855  29.515  29.979  1.00  0.00     0.023 A 
ATOM     80  C   UNL A   1      38.465  29.117  31.272  1.00  0.00     0.012 A 
ATOM     81  C   UNL A   1      37.920  30.132  29.131  1.00  0.00     0.148 A 
ATOM     82  C   UNL A   1      37.155  29.313  31.707  1.00  0.00     0.002 A 
ATOM     83  C   UNL A   1      36.637  30.378  29.593  1.00  0.00     0.091 A 
ATOM     84  F   UNL A   1      38.308  30.482  27.897  1.00  0.00    -0.205 F 
ATOM     85  C   UNL A   1      36.244  29.954  30.873  1.00  0.00     0.022 A 
BRANCH  83  86
ATOM     86  S   UNL A   1      35.484  31.392  28.674  1.00  0.00     0.127 S 
ATOM     87  O   UNL A   1      34.717  30.390  27.942  1.00  0.00    -0.237 OA
ATOM     88  O   UNL A   1      34.775  32.055  29.768  1.00  0.00    -0.237 OA
ATOM     89  O   UNL A   1      36.316  32.287  27.877  1.00  0.00    -0.744 OA
ENDBRANCH  83  86
ENDBRANCH  55  79
BRANCH  67  90
ATOM     90  C   UNL A   1      44.530  33.567  30.040  1.00  0.00     0.023 A 
ATOM     91  C   UNL A   1      44.297  34.613  29.127  1.00  0.00     0.012 A 
ATOM     92  C   UNL A   1      44.925  33.875  31.358  1.00  0.00     0.148 A 
ATOM     93  C   UNL A   1      44.485  35.942  29.508  1.00  0.00     0.002 A 
ATOM     94  C   UNL A   1      45.056  35.202  31.746  1.00  0.00     0.091 A 
ATOM     95  F   UNL A   1      45.161  32.865  32.206  1.00  0.00    -0.205 F 
ATOM     96  C   UNL A   1      44.851  36.237  30.819  1.00  0.00     0.022 A 
BRANCH  94  97
ATOM     97  S   UNL A   1      45.428  35.678  33.438  1.00  0.00     0.127 S 
ATOM     98  O   UNL A   1      44.245  35.197  34.150  1.00  0.00    -0.237 OA
ATOM     99  O   UNL A   1      46.653  34.925  33.708  1.00  0.00    -0.237 OA
ATOM    100  O   UNL A   1      45.599  37.125  33.421  1.00  0.00    -0.744 OA
ENDBRANCH  94  97
ENDBRANCH  67  90
ENDBRANCH  41  42
ENDBRANCH  34  36
ENDBRANCH  33  34
ENDBRANCH  32  33
ENDBRANCH  31  32
ENDBRANCH  30  31
ENDBRANCH  29  30
ENDBRANCH  28  29
ENDBRANCH   1  28
TORSDOF 26
ENDMDL
