MODEL 1
REMARK VINA RESULT:      -9.0      0.000      0.000
REMARK SMILES COC(=O)c1ccc(NC(=O)[C@@H]2CC=CC[C@@H]2C(=O)OCCOCCOCCOCCOC(=O)c2ccc(-c3c4nc(c(-c5cccc(S(=O)(=O)[O-])c5F)c5ccc([nH]5)c(-c5cccc(S(=O)(=O)[O-])c5F)c5nc(c(-c6cccc(S(=O)(=O)[O-])c6F)c6ccc3[nH]6)C=C5)C=C4)cc2)c(C)c1
REMARK SMILES IDX 25 1 24 2 23 3 22 4 21 5 20 6 18 7 19 8 17 9 12 10 13 11
REMARK SMILES IDX 14 12 16 13 15 14 10 15 9 16 11 18 8 19 5 20 6 21 100 22
REMARK SMILES IDX 7 23 98 24 99 25 3 26 4 27 2 28 1 29 26 30 27 31 28 32 29 33
REMARK SMILES IDX 30 34 31 35 32 36 33 37 34 38 35 39 36 40 97 41 37 42 96 43
REMARK SMILES IDX 38 44 39 45 40 46 90 47 41 48 95 49 89 50 91 51 42 52 94 53
REMARK SMILES IDX 88 54 87 55 43 57 75 58 55 59 74 60 56 61 59 62 73 63 92 64
REMARK SMILES IDX 57 65 58 66 72 68 93 69 60 70 44 71 45 72 53 73 46 74 48 75
REMARK SMILES IDX 54 76 47 77 49 78 50 79 51 80 52 81 76 82 77 83 85 84 78 85
REMARK SMILES IDX 80 86 86 87 79 88 81 89 82 90 83 91 84 92 61 93 62 94 70 95
REMARK SMILES IDX 63 96 65 97 71 98 64 99 66 100 67 101 68 102 69 103
REMARK H PARENT 9 17 91 56 59 67
REMARK Flexibility Score: inf
ROOT
ATOM      1  C   UNL A   1      39.469  22.058  26.331  1.00  0.00     0.188 C 
ENDROOT
BRANCH   1   2
ATOM      2  C   UNL A   1      38.073  22.407  25.808  1.00  0.00     0.188 C 
BRANCH   2   3
ATOM      3  O   UNL A   1      37.359  23.568  26.203  1.00  0.00    -0.376 OA
BRANCH   3   4
ATOM      4  C   UNL A   1      35.960  23.628  26.042  1.00  0.00     0.202 C 
BRANCH   4   5
ATOM      5  C   UNL A   1      35.378  23.982  24.678  1.00  0.00     0.261 C 
BRANCH   5   6
ATOM      6  O   UNL A   1      34.042  23.562  24.474  1.00  0.00    -0.463 OA
BRANCH   6   7
ATOM      7  C   UNL A   1      33.680  23.888  23.262  1.00  0.00     0.310 C 
ATOM      8  O   UNL A   1      34.469  24.251  22.402  1.00  0.00    -0.252 OA
BRANCH   7   9
ATOM      9  C   UNL A   1      32.239  23.566  23.007  1.00  0.00     0.116 C 
ATOM     10  C   UNL A   1      31.570  24.936  22.994  1.00  0.00     0.097 C 
ATOM     11  C   UNL A   1      31.617  25.456  24.462  1.00  0.00     0.041 C 
ATOM     12  C   UNL A   1      31.134  24.422  25.465  1.00  0.00    -0.030 C 
ATOM     13  C   UNL A   1      31.450  22.571  23.861  1.00  0.00     0.043 C 
ATOM     14  C   UNL A   1      31.037  23.114  25.185  1.00  0.00    -0.030 C 
BRANCH  10  15
ATOM     15  C   UNL A   1      32.260  25.845  21.951  1.00  0.00     0.228 C 
ATOM     16  N   UNL A   1      32.306  27.224  22.119  1.00  0.00    -0.326 N 
ATOM     17  H   UNL A   1      32.412  27.714  21.272  1.00  0.00     0.169 HD
ATOM     18  O   UNL A   1      32.710  25.366  20.906  1.00  0.00    -0.274 OA
BRANCH  16  19
ATOM     19  C   UNL A   1      32.233  28.074  23.249  1.00  0.00     0.044 A 
ATOM     20  C   UNL A   1      32.180  29.841  25.459  1.00  0.00     0.060 A 
ATOM     21  C   UNL A   1      33.296  29.060  25.224  1.00  0.00     0.018 A 
ATOM     22  C   UNL A   1      31.053  29.685  24.640  1.00  0.00     0.021 A 
ATOM     23  C   UNL A   1      33.338  28.266  24.088  1.00  0.00     0.027 A 
ATOM     24  C   UNL A   1      31.042  28.771  23.561  1.00  0.00    -0.027 A 
ATOM     25  C   UNL A   1      29.719  28.554  22.861  1.00  0.00     0.046 C 
BRANCH  20  26
ATOM     26  C   UNL A   1      32.293  30.841  26.549  1.00  0.00     0.337 C 
ATOM     27  O   UNL A   1      31.434  31.667  26.814  1.00  0.00    -0.246 OA
BRANCH  26  28
ATOM     28  O   UNL A   1      33.398  30.628  27.295  1.00  0.00    -0.465 OA
ATOM     29  C   UNL A   1      33.861  31.818  27.924  1.00  0.00     0.282 C 
ENDBRANCH  26  28
ENDBRANCH  20  26
ENDBRANCH  16  19
ENDBRANCH  10  15
ENDBRANCH   7   9
ENDBRANCH   6   7
ENDBRANCH   5   6
ENDBRANCH   4   5
ENDBRANCH   3   4
ENDBRANCH   2   3
ENDBRANCH   1   2
BRANCH   1  30
ATOM     30  O   UNL A   1      39.825  20.694  26.228  1.00  0.00    -0.377 OA
BRANCH  30  31
ATOM     31  C   UNL A   1      41.049  20.329  26.819  1.00  0.00     0.188 C 
BRANCH  31  32
ATOM     32  C   UNL A   1      42.337  20.438  25.963  1.00  0.00     0.188 C 
BRANCH  32  33
ATOM     33  O   UNL A   1      42.989  21.677  25.944  1.00  0.00    -0.376 OA
BRANCH  33  34
ATOM     34  C   UNL A   1      43.167  22.151  27.257  1.00  0.00     0.202 C 
BRANCH  34  35
ATOM     35  C   UNL A   1      42.570  23.541  27.694  1.00  0.00     0.261 C 
BRANCH  35  36
ATOM     36  O   UNL A   1      42.218  24.794  26.823  1.00  0.00    -0.460 OA
BRANCH  36  37
ATOM     37  C   UNL A   1      41.901  25.835  26.013  1.00  0.00     0.338 C 
ATOM     38  O   UNL A   1      41.249  25.567  25.003  1.00  0.00    -0.246 OA
BRANCH  37  39
ATOM     39  C   UNL A   1      42.421  27.278  26.108  1.00  0.00     0.060 A 
ATOM     40  C   UNL A   1      43.736  27.543  26.462  1.00  0.00     0.016 A 
ATOM     41  C   UNL A   1      41.707  28.439  25.940  1.00  0.00     0.016 A 
ATOM     42  C   UNL A   1      44.052  28.667  27.261  1.00  0.00     0.010 A 
ATOM     43  C   UNL A   1      41.928  29.470  26.862  1.00  0.00     0.010 A 
ATOM     44  C   UNL A   1      43.032  29.464  27.717  1.00  0.00    -0.014 A 
BRANCH  44  45
ATOM     45  C   UNL A   1      42.972  30.208  29.024  1.00  0.00     0.031 A 
ATOM     46  C   UNL A   1      42.397  29.386  30.230  1.00  0.00     0.074 A 
ATOM     47  C   UNL A   1      43.823  31.304  29.111  1.00  0.00     0.049 A 
ATOM     48  N   UNL A   1      42.289  29.736  31.477  1.00  0.00    -0.248 NA
ATOM     49  C   UNL A   1      41.903  28.001  30.081  1.00  0.00     0.031 C 
ATOM     50  C   UNL A   1      44.844  31.607  30.104  1.00  0.00     0.029 A 
ATOM     51  N   UNL A   1      44.095  32.378  28.249  1.00  0.00    -0.354 N 
ATOM     52  C   UNL A   1      42.175  28.570  32.287  1.00  0.00     0.074 A 
ATOM     53  C   UNL A   1      41.848  27.539  31.339  1.00  0.00     0.031 C 
ATOM     54  C   UNL A   1      45.425  32.794  30.017  1.00  0.00     0.029 A 
ATOM     55  C   UNL A   1      44.766  33.423  28.957  1.00  0.00     0.049 A 
ATOM     56  H   UNL A   1      43.857  32.408  27.295  1.00  0.00     0.167 HD
ATOM     57  C   UNL A   1      42.552  28.562  33.623  1.00  0.00     0.034 A 
ATOM     58  C   UNL A   1      44.302  34.670  29.200  1.00  0.00     0.034 A 
ATOM     59  C   UNL A   1      43.000  29.932  34.061  1.00  0.00     0.049 A 
ATOM     60  C   UNL A   1      43.582  34.784  30.564  1.00  0.00     0.074 A 
ATOM     61  C   UNL A   1      44.068  30.435  34.802  1.00  0.00     0.029 A 
ATOM     62  N   UNL A   1      42.379  31.065  33.538  1.00  0.00    -0.354 N 
ATOM     63  N   UNL A   1      43.585  33.895  31.548  1.00  0.00    -0.248 NA
ATOM     64  C   UNL A   1      42.818  35.965  30.928  1.00  0.00     0.031 C 
ATOM     65  C   UNL A   1      44.094  31.856  34.669  1.00  0.00     0.029 A 
ATOM     66  C   UNL A   1      43.034  32.236  33.868  1.00  0.00     0.049 A 
ATOM     67  H   UNL A   1      41.561  31.034  32.991  1.00  0.00     0.167 HD
ATOM     68  C   UNL A   1      42.714  34.280  32.563  1.00  0.00     0.074 A 
ATOM     69  C   UNL A   1      42.310  35.612  32.122  1.00  0.00     0.031 C 
ATOM     70  C   UNL A   1      42.349  33.504  33.655  1.00  0.00     0.034 A 
BRANCH  57  71
ATOM     71  C   UNL A   1      42.787  27.318  34.605  1.00  0.00     0.023 A 
ATOM     72  C   UNL A   1      41.636  26.544  34.935  1.00  0.00     0.012 A 
ATOM     73  C   UNL A   1      43.972  26.859  35.256  1.00  0.00     0.148 A 
ATOM     74  C   UNL A   1      41.607  25.499  35.879  1.00  0.00     0.002 A 
ATOM     75  C   UNL A   1      43.963  25.746  36.148  1.00  0.00     0.091 A 
ATOM     76  F   UNL A   1      45.133  27.482  35.043  1.00  0.00    -0.205 F 
ATOM     77  C   UNL A   1      42.774  25.092  36.484  1.00  0.00     0.022 A 
BRANCH  75  78
ATOM     78  S   UNL A   1      45.442  25.009  36.904  1.00  0.00     0.127 S 
ATOM     79  O   UNL A   1      44.887  23.896  37.679  1.00  0.00    -0.237 OA
ATOM     80  O   UNL A   1      46.217  24.591  35.734  1.00  0.00    -0.237 OA
ATOM     81  O   UNL A   1      46.056  26.060  37.706  1.00  0.00    -0.744 OA
ENDBRANCH  75  78
ENDBRANCH  57  71
BRANCH  58  82
ATOM     82  C   UNL A   1      44.232  35.359  27.869  1.00  0.00     0.023 A 
ATOM     83  C   UNL A   1      42.942  35.225  27.248  1.00  0.00     0.012 A 
ATOM     84  C   UNL A   1      44.845  36.613  27.845  1.00  0.00     0.148 A 
ATOM     85  C   UNL A   1      42.156  36.358  26.986  1.00  0.00     0.002 A 
ATOM     86  C   UNL A   1      44.047  37.733  27.622  1.00  0.00     0.091 A 
ATOM     87  F   UNL A   1      46.096  36.707  28.313  1.00  0.00    -0.205 F 
ATOM     88  C   UNL A   1      42.691  37.612  27.244  1.00  0.00     0.022 A 
BRANCH  86  89
ATOM     89  S   UNL A   1      44.603  39.317  28.243  1.00  0.00     0.127 S 
ATOM     90  O   UNL A   1      44.671  39.102  29.681  1.00  0.00    -0.237 OA
ATOM     91  O   UNL A   1      45.903  39.439  27.591  1.00  0.00    -0.237 OA
ATOM     92  O   UNL A   1      43.597  40.265  27.787  1.00  0.00    -0.744 OA
ENDBRANCH  86  89
ENDBRANCH  58  82
BRANCH  70  93
ATOM     93  C   UNL A   1      41.230  33.776  34.705  1.00  0.00     0.023 A 
ATOM     94  C   UNL A   1      41.488  34.291  35.979  1.00  0.00     0.012 A 
ATOM     95  C   UNL A   1      39.836  33.530  34.430  1.00  0.00     0.148 A 
ATOM     96  C   UNL A   1      40.465  34.661  36.864  1.00  0.00     0.002 A 
ATOM     97  C   UNL A   1      38.818  33.921  35.295  1.00  0.00     0.091 A 
ATOM     98  F   UNL A   1      39.458  32.846  33.350  1.00  0.00    -0.205 F 
ATOM     99  C   UNL A   1      39.132  34.510  36.511  1.00  0.00     0.022 A 
BRANCH  97 100
ATOM    100  S   UNL A   1      37.069  33.697  34.913  1.00  0.00     0.127 S 
ATOM    101  O   UNL A   1      36.461  33.848  36.235  1.00  0.00    -0.237 OA
ATOM    102  O   UNL A   1      36.820  34.812  33.998  1.00  0.00    -0.237 OA
ATOM    103  O   UNL A   1      36.934  32.378  34.314  1.00  0.00    -0.744 OA
ENDBRANCH  97 100
ENDBRANCH  70  93
ENDBRANCH  44  45
ENDBRANCH  37  39
ENDBRANCH  36  37
ENDBRANCH  35  36
ENDBRANCH  34  35
ENDBRANCH  33  34
ENDBRANCH  32  33
ENDBRANCH  31  32
ENDBRANCH  30  31
ENDBRANCH   1  30
TORSDOF 27
ENDMDL
MODEL 2
REMARK VINA RESULT:      -8.7      4.168      9.161
REMARK SMILES COC(=O)c1ccc(NC(=O)[C@@H]2CC=CC[C@@H]2C(=O)OCCOCCOCCOCCOC(=O)c2ccc(-c3c4nc(c(-c5cccc(S(=O)(=O)[O-])c5F)c5ccc([nH]5)c(-c5cccc(S(=O)(=O)[O-])c5F)c5nc(c(-c6cccc(S(=O)(=O)[O-])c6F)c6ccc3[nH]6)C=C5)C=C4)cc2)c(C)c1
REMARK SMILES IDX 25 1 24 2 23 3 22 4 21 5 20 6 18 7 19 8 17 9 12 10 13 11
REMARK SMILES IDX 14 12 16 13 15 14 10 15 9 16 11 18 8 19 5 20 6 21 100 22
REMARK SMILES IDX 7 23 98 24 99 25 3 26 4 27 2 28 1 29 26 30 27 31 28 32 29 33
REMARK SMILES IDX 30 34 31 35 32 36 33 37 34 38 35 39 36 40 97 41 37 42 96 43
REMARK SMILES IDX 38 44 39 45 40 46 90 47 41 48 95 49 89 50 91 51 42 52 94 53
REMARK SMILES IDX 88 54 87 55 43 57 75 58 55 59 74 60 56 61 59 62 73 63 92 64
REMARK SMILES IDX 57 65 58 66 72 68 93 69 60 70 44 71 45 72 53 73 46 74 48 75
REMARK SMILES IDX 54 76 47 77 49 78 50 79 51 80 52 81 76 82 77 83 85 84 78 85
REMARK SMILES IDX 80 86 86 87 79 88 81 89 82 90 83 91 84 92 61 93 62 94 70 95
REMARK SMILES IDX 63 96 65 97 71 98 64 99 66 100 67 101 68 102 69 103
REMARK H PARENT 9 17 91 56 59 67
REMARK Flexibility Score: inf
ROOT
ATOM      1  C   UNL A   1      40.490  29.086  28.664  1.00  0.00     0.188 C 
ENDROOT
BRANCH   1   2
ATOM      2  C   UNL A   1      40.411  27.865  27.745  1.00  0.00     0.188 C 
BRANCH   2   3
ATOM      3  O   UNL A   1      40.757  27.900  26.369  1.00  0.00    -0.376 OA
BRANCH   3   4
ATOM      4  C   UNL A   1      41.693  26.984  25.850  1.00  0.00     0.202 C 
BRANCH   4   5
ATOM      5  C   UNL A   1      43.017  26.774  26.576  1.00  0.00     0.261 C 
BRANCH   5   6
ATOM      6  O   UNL A   1      43.178  25.494  27.161  1.00  0.00    -0.463 OA
BRANCH   6   7
ATOM      7  C   UNL A   1      44.017  24.804  26.435  1.00  0.00     0.310 C 
ATOM      8  O   UNL A   1      45.229  24.953  26.487  1.00  0.00    -0.252 OA
BRANCH   7   9
ATOM      9  C   UNL A   1      43.331  23.691  25.703  1.00  0.00     0.116 C 
ATOM     10  C   UNL A   1      43.542  22.488  26.617  1.00  0.00     0.097 C 
ATOM     11  C   UNL A   1      45.061  22.148  26.544  1.00  0.00     0.041 C 
ATOM     12  C   UNL A   1      45.575  22.074  25.116  1.00  0.00    -0.030 C 
ATOM     13  C   UNL A   1      43.644  23.342  24.247  1.00  0.00     0.043 C 
ATOM     14  C   UNL A   1      44.921  22.597  24.069  1.00  0.00    -0.030 C 
BRANCH  10  15
ATOM     15  C   UNL A   1      43.006  22.805  28.032  1.00  0.00     0.228 C 
ATOM     16  N   UNL A   1      41.699  23.238  28.224  1.00  0.00    -0.326 N 
ATOM     17  H   UNL A   1      41.580  23.753  29.055  1.00  0.00     0.169 HD
ATOM     18  O   UNL A   1      43.758  22.759  29.010  1.00  0.00    -0.274 OA
BRANCH  16  19
ATOM     19  C   UNL A   1      40.503  23.096  27.480  1.00  0.00     0.044 A 
ATOM     20  C   UNL A   1      38.157  22.898  25.911  1.00  0.00     0.060 A 
ATOM     21  C   UNL A   1      38.468  24.086  26.543  1.00  0.00     0.018 A 
ATOM     22  C   UNL A   1      38.972  21.777  26.124  1.00  0.00     0.021 A 
ATOM     23  C   UNL A   1      39.665  24.191  27.235  1.00  0.00     0.027 A 
ATOM     24  C   UNL A   1      40.122  21.843  26.946  1.00  0.00    -0.027 A 
ATOM     25  C   UNL A   1      40.820  20.537  27.250  1.00  0.00     0.046 C 
BRANCH  20  26
ATOM     26  C   UNL A   1      36.991  22.923  24.994  1.00  0.00     0.337 C 
ATOM     27  O   UNL A   1      37.032  23.327  23.842  1.00  0.00    -0.246 OA
BRANCH  26  28
ATOM     28  O   UNL A   1      35.920  22.314  25.548  1.00  0.00    -0.465 OA
ATOM     29  C   UNL A   1      34.985  23.246  26.079  1.00  0.00     0.282 C 
ENDBRANCH  26  28
ENDBRANCH  20  26
ENDBRANCH  16  19
ENDBRANCH  10  15
ENDBRANCH   7   9
ENDBRANCH   6   7
ENDBRANCH   5   6
ENDBRANCH   4   5
ENDBRANCH   3   4
ENDBRANCH   2   3
ENDBRANCH   1   2
BRANCH   1  30
ATOM     30  O   UNL A   1      39.364  29.285  29.496  1.00  0.00    -0.377 OA
BRANCH  30  31
ATOM     31  C   UNL A   1      38.115  28.967  28.931  1.00  0.00     0.188 C 
BRANCH  31  32
ATOM     32  C   UNL A   1      36.836  29.337  29.727  1.00  0.00     0.188 C 
BRANCH  32  33
ATOM     33  O   UNL A   1      35.912  30.179  29.096  1.00  0.00    -0.376 OA
BRANCH  33  34
ATOM     34  C   UNL A   1      36.573  31.045  28.206  1.00  0.00     0.202 C 
BRANCH  34  35
ATOM     35  C   UNL A   1      36.781  32.562  28.570  1.00  0.00     0.261 C 
BRANCH  35  36
ATOM     36  O   UNL A   1      38.012  33.271  29.228  1.00  0.00    -0.460 OA
BRANCH  36  37
ATOM     37  C   UNL A   1      39.034  33.928  29.833  1.00  0.00     0.338 C 
ATOM     38  O   UNL A   1      39.248  35.080  29.453  1.00  0.00    -0.246 OA
BRANCH  37  39
ATOM     39  C   UNL A   1      40.073  33.341  30.801  1.00  0.00     0.060 A 
ATOM     40  C   UNL A   1      41.184  34.076  31.190  1.00  0.00     0.016 A 
ATOM     41  C   UNL A   1      40.101  32.077  31.336  1.00  0.00     0.016 A 
ATOM     42  C   UNL A   1      42.431  33.440  31.387  1.00  0.00     0.010 A 
ATOM     43  C   UNL A   1      41.334  31.413  31.355  1.00  0.00     0.010 A 
ATOM     44  C   UNL A   1      42.535  32.094  31.146  1.00  0.00    -0.014 A 
BRANCH  44  45
ATOM     45  C   UNL A   1      43.734  31.353  30.615  1.00  0.00     0.031 A 
ATOM     46  C   UNL A   1      44.290  30.229  31.558  1.00  0.00     0.074 A 
ATOM     47  C   UNL A   1      43.899  31.423  29.237  1.00  0.00     0.049 A 
ATOM     48  N   UNL A   1      45.259  29.390  31.341  1.00  0.00    -0.248 NA
ATOM     49  C   UNL A   1      43.712  29.954  32.889  1.00  0.00     0.031 C 
ATOM     50  C   UNL A   1      44.025  30.348  28.263  1.00  0.00     0.029 A 
ATOM     51  N   UNL A   1      43.862  32.484  28.318  1.00  0.00    -0.354 N 
ATOM     52  C   UNL A   1      45.120  28.273  32.214  1.00  0.00     0.074 A 
ATOM     53  C   UNL A   1      44.192  28.742  33.207  1.00  0.00     0.031 C 
ATOM     54  C   UNL A   1      44.305  30.702  27.018  1.00  0.00     0.029 A 
ATOM     55  C   UNL A   1      44.457  32.090  27.080  1.00  0.00     0.049 A 
ATOM     56  H   UNL A   1      43.482  33.373  28.501  1.00  0.00     0.167 HD
ATOM     57  C   UNL A   1      45.647  27.026  31.903  1.00  0.00     0.034 A 
ATOM     58  C   UNL A   1      45.581  32.591  26.521  1.00  0.00     0.034 A 
ATOM     59  C   UNL A   1      46.406  27.074  30.603  1.00  0.00     0.049 A 
ATOM     60  C   UNL A   1      46.847  31.786  26.900  1.00  0.00     0.074 A 
ATOM     61  C   UNL A   1      46.475  26.274  29.465  1.00  0.00     0.029 A 
ATOM     62  N   UNL A   1      47.127  28.219  30.263  1.00  0.00    -0.354 N 
ATOM     63  N   UNL A   1      46.895  30.599  27.488  1.00  0.00    -0.248 NA
ATOM     64  C   UNL A   1      48.181  32.274  26.595  1.00  0.00     0.031 C 
ATOM     65  C   UNL A   1      47.194  26.973  28.450  1.00  0.00     0.029 A 
ATOM     66  C   UNL A   1      47.590  28.194  28.962  1.00  0.00     0.049 A 
ATOM     67  H   UNL A   1      47.289  28.966  30.885  1.00  0.00     0.167 HD
ATOM     68  C   UNL A   1      48.208  30.254  27.796  1.00  0.00     0.074 A 
ATOM     69  C   UNL A   1      48.958  31.332  27.159  1.00  0.00     0.031 C 
ATOM     70  C   UNL A   1      48.601  29.163  28.561  1.00  0.00     0.034 A 
BRANCH  57  71
ATOM     71  C   UNL A   1      45.352  25.603  32.577  1.00  0.00     0.023 A 
ATOM     72  C   UNL A   1      44.517  24.713  31.840  1.00  0.00     0.012 A 
ATOM     73  C   UNL A   1      45.758  25.070  33.838  1.00  0.00     0.148 A 
ATOM     74  C   UNL A   1      44.034  23.478  32.313  1.00  0.00     0.002 A 
ATOM     75  C   UNL A   1      45.339  23.781  34.285  1.00  0.00     0.091 A 
ATOM     76  F   UNL A   1      46.546  25.787  34.642  1.00  0.00    -0.205 F 
ATOM     77  C   UNL A   1      44.450  23.005  33.537  1.00  0.00     0.022 A 
BRANCH  75  78
ATOM     78  S   UNL A   1      45.920  22.970  35.803  1.00  0.00     0.127 S 
ATOM     79  O   UNL A   1      47.371  22.912  35.602  1.00  0.00    -0.237 OA
ATOM     80  O   UNL A   1      45.502  23.913  36.843  1.00  0.00    -0.237 OA
ATOM     81  O   UNL A   1      45.262  21.671  35.849  1.00  0.00    -0.744 OA
ENDBRANCH  75  78
ENDBRANCH  57  71
BRANCH  58  82
ATOM     82  C   UNL A   1      45.263  34.005  26.134  1.00  0.00     0.023 A 
ATOM     83  C   UNL A   1      44.087  34.100  25.313  1.00  0.00     0.012 A 
ATOM     84  C   UNL A   1      45.414  34.926  27.173  1.00  0.00     0.148 A 
ATOM     85  C   UNL A   1      42.960  34.806  25.760  1.00  0.00     0.002 A 
ATOM     86  C   UNL A   1      44.280  35.592  27.634  1.00  0.00     0.091 A 
ATOM     87  F   UNL A   1      46.566  34.915  27.857  1.00  0.00    -0.205 F 
ATOM     88  C   UNL A   1      43.041  35.494  26.963  1.00  0.00     0.022 A 
BRANCH  86  89
ATOM     89  S   UNL A   1      44.275  36.209  29.314  1.00  0.00     0.127 S 
ATOM     90  O   UNL A   1      45.128  37.385  29.236  1.00  0.00    -0.237 OA
ATOM     91  O   UNL A   1      42.859  36.505  29.505  1.00  0.00    -0.237 OA
ATOM     92  O   UNL A   1      44.783  35.103  30.114  1.00  0.00    -0.744 OA
ENDBRANCH  86  89
ENDBRANCH  58  82
BRANCH  70  93
ATOM     93  C   UNL A   1      50.017  28.836  29.123  1.00  0.00     0.023 A 
ATOM     94  C   UNL A   1      50.429  29.194  30.409  1.00  0.00     0.012 A 
ATOM     95  C   UNL A   1      51.005  28.120  28.354  1.00  0.00     0.148 A 
ATOM     96  C   UNL A   1      51.653  28.774  30.953  1.00  0.00     0.002 A 
ATOM     97  C   UNL A   1      52.208  27.681  28.899  1.00  0.00     0.091 A 
ATOM     98  F   UNL A   1      50.839  27.904  27.049  1.00  0.00    -0.205 F 
ATOM     99  C   UNL A   1      52.526  27.991  30.214  1.00  0.00     0.022 A 
BRANCH  97 100
ATOM    100  S   UNL A   1      53.408  26.707  27.967  1.00  0.00     0.127 S 
ATOM    101  O   UNL A   1      53.880  27.686  26.988  1.00  0.00    -0.237 OA
ATOM    102  O   UNL A   1      54.382  26.365  29.005  1.00  0.00    -0.237 OA
ATOM    103  O   UNL A   1      52.687  25.571  27.412  1.00  0.00    -0.744 OA
ENDBRANCH  97 100
ENDBRANCH  70  93
ENDBRANCH  44  45
ENDBRANCH  37  39
ENDBRANCH  36  37
ENDBRANCH  35  36
ENDBRANCH  34  35
ENDBRANCH  33  34
ENDBRANCH  32  33
ENDBRANCH  31  32
ENDBRANCH  30  31
ENDBRANCH   1  30
TORSDOF 27
ENDMDL
MODEL 3
REMARK VINA RESULT:      -8.5      5.400     10.275
REMARK SMILES COC(=O)c1ccc(NC(=O)[C@@H]2CC=CC[C@@H]2C(=O)OCCOCCOCCOCCOC(=O)c2ccc(-c3c4nc(c(-c5cccc(S(=O)(=O)[O-])c5F)c5ccc([nH]5)c(-c5cccc(S(=O)(=O)[O-])c5F)c5nc(c(-c6cccc(S(=O)(=O)[O-])c6F)c6ccc3[nH]6)C=C5)C=C4)cc2)c(C)c1
REMARK SMILES IDX 25 1 24 2 23 3 22 4 21 5 20 6 18 7 19 8 17 9 12 10 13 11
REMARK SMILES IDX 14 12 16 13 15 14 10 15 9 16 11 18 8 19 5 20 6 21 100 22
REMARK SMILES IDX 7 23 98 24 99 25 3 26 4 27 2 28 1 29 26 30 27 31 28 32 29 33
REMARK SMILES IDX 30 34 31 35 32 36 33 37 34 38 35 39 36 40 97 41 37 42 96 43
REMARK SMILES IDX 38 44 39 45 40 46 90 47 41 48 95 49 89 50 91 51 42 52 94 53
REMARK SMILES IDX 88 54 87 55 43 57 75 58 55 59 74 60 56 61 59 62 73 63 92 64
REMARK SMILES IDX 57 65 58 66 72 68 93 69 60 70 44 71 45 72 53 73 46 74 48 75
REMARK SMILES IDX 54 76 47 77 49 78 50 79 51 80 52 81 76 82 77 83 85 84 78 85
REMARK SMILES IDX 80 86 86 87 79 88 81 89 82 90 83 91 84 92 61 93 62 94 70 95
REMARK SMILES IDX 63 96 65 97 71 98 64 99 66 100 67 101 68 102 69 103
REMARK H PARENT 9 17 91 56 59 67
REMARK Flexibility Score: inf
ROOT
ATOM      1  C   UNL A   1      41.636  29.173  27.505  1.00  0.00     0.188 C 
ENDROOT
BRANCH   1   2
ATOM      2  C   UNL A   1      41.335  28.323  26.269  1.00  0.00     0.188 C 
BRANCH   2   3
ATOM      3  O   UNL A   1      41.983  28.505  25.019  1.00  0.00    -0.376 OA
BRANCH   3   4
ATOM      4  C   UNL A   1      43.109  27.726  24.685  1.00  0.00     0.202 C 
BRANCH   4   5
ATOM      5  C   UNL A   1      44.184  27.474  25.736  1.00  0.00     0.261 C 
BRANCH   5   6
ATOM      6  O   UNL A   1      44.171  26.176  26.302  1.00  0.00    -0.463 OA
BRANCH   6   7
ATOM      7  C   UNL A   1      44.455  26.271  27.574  1.00  0.00     0.310 C 
ATOM      8  O   UNL A   1      44.406  27.322  28.196  1.00  0.00    -0.252 OA
BRANCH   7   9
ATOM      9  C   UNL A   1      44.640  24.924  28.203  1.00  0.00     0.116 C 
ATOM     10  C   UNL A   1      43.353  24.726  28.996  1.00  0.00     0.097 C 
ATOM     11  C   UNL A   1      43.411  25.739  30.179  1.00  0.00     0.041 C 
ATOM     12  C   UNL A   1      44.735  25.693  30.922  1.00  0.00    -0.030 C 
ATOM     13  C   UNL A   1      45.868  24.564  29.041  1.00  0.00     0.043 C 
ATOM     14  C   UNL A   1      45.847  25.140  30.414  1.00  0.00    -0.030 C 
BRANCH  10  15
ATOM     15  C   UNL A   1      42.133  24.879  28.058  1.00  0.00     0.228 C 
ATOM     16  N   UNL A   1      42.053  24.174  26.864  1.00  0.00    -0.326 N 
ATOM     17  H   UNL A   1      41.468  24.604  26.199  1.00  0.00     0.169 HD
ATOM     18  O   UNL A   1      41.244  25.696  28.318  1.00  0.00    -0.274 OA
BRANCH  16  19
ATOM     19  C   UNL A   1      42.634  22.969  26.398  1.00  0.00     0.044 A 
ATOM     20  C   UNL A   1      43.908  20.604  25.509  1.00  0.00     0.060 A 
ATOM     21  C   UNL A   1      44.232  21.821  24.940  1.00  0.00     0.018 A 
ATOM     22  C   UNL A   1      42.888  20.550  26.469  1.00  0.00     0.021 A 
ATOM     23  C   UNL A   1      43.663  22.978  25.447  1.00  0.00     0.027 A 
ATOM     24  C   UNL A   1      42.204  21.715  26.890  1.00  0.00    -0.027 A 
ATOM     25  C   UNL A   1      41.005  21.517  27.790  1.00  0.00     0.046 C 
BRANCH  20  26
ATOM     26  C   UNL A   1      44.724  19.440  25.088  1.00  0.00     0.337 C 
ATOM     27  O   UNL A   1      44.333  18.565  24.331  1.00  0.00    -0.246 OA
BRANCH  26  28
ATOM     28  O   UNL A   1      45.995  19.548  25.532  1.00  0.00    -0.465 OA
ATOM     29  C   UNL A   1      46.666  18.292  25.555  1.00  0.00     0.282 C 
ENDBRANCH  26  28
ENDBRANCH  20  26
ENDBRANCH  16  19
ENDBRANCH  10  15
ENDBRANCH   7   9
ENDBRANCH   6   7
ENDBRANCH   5   6
ENDBRANCH   4   5
ENDBRANCH   3   4
ENDBRANCH   2   3
ENDBRANCH   1   2
BRANCH   1  30
ATOM     30  O   UNL A   1      40.520  29.460  28.324  1.00  0.00    -0.377 OA
BRANCH  30  31
ATOM     31  C   UNL A   1      39.363  28.698  28.080  1.00  0.00     0.188 C 
BRANCH  31  32
ATOM     32  C   UNL A   1      38.130  28.925  28.993  1.00  0.00     0.188 C 
BRANCH  32  33
ATOM     33  O   UNL A   1      36.922  29.254  28.366  1.00  0.00    -0.376 OA
BRANCH  33  34
ATOM     34  C   UNL A   1      36.930  30.605  27.973  1.00  0.00     0.202 C 
BRANCH  34  35
ATOM     35  C   UNL A   1      35.879  31.617  28.563  1.00  0.00     0.261 C 
BRANCH  35  36
ATOM     36  O   UNL A   1      35.932  32.452  29.887  1.00  0.00    -0.460 OA
BRANCH  36  37
ATOM     37  C   UNL A   1      35.909  33.195  31.022  1.00  0.00     0.338 C 
ATOM     38  O   UNL A   1      35.158  34.172  31.025  1.00  0.00    -0.246 OA
BRANCH  37  39
ATOM     39  C   UNL A   1      36.848  33.073  32.232  1.00  0.00     0.060 A 
ATOM     40  C   UNL A   1      36.674  33.868  33.356  1.00  0.00     0.016 A 
ATOM     41  C   UNL A   1      37.957  32.272  32.356  1.00  0.00     0.016 A 
ATOM     42  C   UNL A   1      37.793  34.349  34.074  1.00  0.00     0.010 A 
ATOM     43  C   UNL A   1      39.104  32.845  32.920  1.00  0.00     0.010 A 
ATOM     44  C   UNL A   1      39.052  34.054  33.616  1.00  0.00    -0.014 A 
BRANCH  44  45
ATOM     45  C   UNL A   1      40.283  34.917  33.713  1.00  0.00     0.031 A 
ATOM     46  C   UNL A   1      40.439  35.701  35.063  1.00  0.00     0.074 A 
ATOM     47  C   UNL A   1      41.310  34.567  32.845  1.00  0.00     0.049 A 
ATOM     48  N   UNL A   1      41.418  36.460  35.456  1.00  0.00    -0.248 NA
ATOM     49  C   UNL A   1      39.427  35.637  36.138  1.00  0.00     0.031 C 
ATOM     50  C   UNL A   1      42.701  34.247  33.137  1.00  0.00     0.029 A 
ATOM     51  N   UNL A   1      41.348  34.268  31.474  1.00  0.00    -0.354 N 
ATOM     52  C   UNL A   1      41.387  36.574  36.875  1.00  0.00     0.074 A 
ATOM     53  C   UNL A   1      40.068  36.114  37.216  1.00  0.00     0.031 C 
ATOM     54  C   UNL A   1      43.502  34.072  32.097  1.00  0.00     0.029 A 
ATOM     55  C   UNL A   1      42.691  34.334  30.990  1.00  0.00     0.049 A 
ATOM     56  H   UNL A   1      40.563  34.045  30.925  1.00  0.00     0.167 HD
ATOM     57  C   UNL A   1      42.527  36.859  37.616  1.00  0.00     0.034 A 
ATOM     58  C   UNL A   1      43.187  35.205  30.082  1.00  0.00     0.034 A 
ATOM     59  C   UNL A   1      43.710  37.087  36.712  1.00  0.00     0.049 A 
ATOM     60  C   UNL A   1      43.809  36.461  30.737  1.00  0.00     0.074 A 
ATOM     61  C   UNL A   1      45.041  36.674  36.698  1.00  0.00     0.029 A 
ATOM     62  N   UNL A   1      43.530  37.710  35.478  1.00  0.00    -0.354 N 
ATOM     63  N   UNL A   1      44.091  36.639  32.019  1.00  0.00    -0.248 NA
ATOM     64  C   UNL A   1      44.197  37.619  29.950  1.00  0.00     0.031 C 
ATOM     65  C   UNL A   1      45.618  37.015  35.439  1.00  0.00     0.029 A 
ATOM     66  C   UNL A   1      44.657  37.657  34.681  1.00  0.00     0.049 A 
ATOM     67  H   UNL A   1      42.688  38.142  35.203  1.00  0.00     0.167 HD
ATOM     68  C   UNL A   1      44.511  37.944  32.256  1.00  0.00     0.074 A 
ATOM     69  C   UNL A   1      44.598  38.481  30.901  1.00  0.00     0.031 C 
ATOM     70  C   UNL A   1      44.723  38.514  33.505  1.00  0.00     0.034 A 
BRANCH  57  71
ATOM     71  C   UNL A   1      42.769  36.735  39.194  1.00  0.00     0.023 A 
ATOM     72  C   UNL A   1      43.931  36.017  39.603  1.00  0.00     0.012 A 
ATOM     73  C   UNL A   1      41.983  37.195  40.295  1.00  0.00     0.148 A 
ATOM     74  C   UNL A   1      44.251  35.684  40.933  1.00  0.00     0.002 A 
ATOM     75  C   UNL A   1      42.349  36.932  41.648  1.00  0.00     0.091 A 
ATOM     76  F   UNL A   1      40.864  37.886  40.071  1.00  0.00    -0.205 F 
ATOM     77  C   UNL A   1      43.462  36.147  41.962  1.00  0.00     0.022 A 
BRANCH  75  78
ATOM     78  S   UNL A   1      41.490  37.598  43.104  1.00  0.00     0.127 S 
ATOM     79  O   UNL A   1      42.404  37.263  44.199  1.00  0.00    -0.237 OA
ATOM     80  O   UNL A   1      41.423  39.029  42.801  1.00  0.00    -0.237 OA
ATOM     81  O   UNL A   1      40.202  36.920  43.162  1.00  0.00    -0.744 OA
ENDBRANCH  75  78
ENDBRANCH  57  71
BRANCH  58  82
ATOM     82  C   UNL A   1      42.532  34.867  28.775  1.00  0.00     0.023 A 
ATOM     83  C   UNL A   1      41.873  35.999  28.181  1.00  0.00     0.012 A 
ATOM     84  C   UNL A   1      43.303  34.049  27.947  1.00  0.00     0.148 A 
ATOM     85  C   UNL A   1      42.291  36.496  26.937  1.00  0.00     0.002 A 
ATOM     86  C   UNL A   1      43.744  34.568  26.732  1.00  0.00     0.091 A 
ATOM     87  F   UNL A   1      43.814  32.929  28.475  1.00  0.00    -0.205 F 
ATOM     88  C   UNL A   1      43.283  35.812  26.248  1.00  0.00     0.022 A 
BRANCH  86  89
ATOM     89  S   UNL A   1      45.224  33.881  25.995  1.00  0.00     0.127 S 
ATOM     90  O   UNL A   1      45.636  34.915  25.058  1.00  0.00    -0.237 OA
ATOM     91  O   UNL A   1      46.089  33.748  27.163  1.00  0.00    -0.237 OA
ATOM     92  O   UNL A   1      44.791  32.622  25.406  1.00  0.00    -0.744 OA
ENDBRANCH  86  89
ENDBRANCH  58  82
BRANCH  70  93
ATOM     93  C   UNL A   1      44.981  40.011  33.854  1.00  0.00     0.023 A 
ATOM     94  C   UNL A   1      46.254  40.523  34.120  1.00  0.00     0.012 A 
ATOM     95  C   UNL A   1      43.919  40.985  33.913  1.00  0.00     0.148 A 
ATOM     96  C   UNL A   1      46.493  41.894  34.297  1.00  0.00     0.002 A 
ATOM     97  C   UNL A   1      44.156  42.348  34.063  1.00  0.00     0.091 A 
ATOM     98  F   UNL A   1      42.640  40.610  33.896  1.00  0.00    -0.205 F 
ATOM     99  C   UNL A   1      45.454  42.810  34.234  1.00  0.00     0.022 A 
BRANCH  97 100
ATOM    100  S   UNL A   1      42.837  43.579  34.046  1.00  0.00     0.127 S 
ATOM    101  O   UNL A   1      43.601  44.825  34.124  1.00  0.00    -0.237 OA
ATOM    102  O   UNL A   1      42.214  43.328  32.745  1.00  0.00    -0.237 OA
ATOM    103  O   UNL A   1      41.986  43.299  35.192  1.00  0.00    -0.744 OA
ENDBRANCH  97 100
ENDBRANCH  70  93
ENDBRANCH  44  45
ENDBRANCH  37  39
ENDBRANCH  36  37
ENDBRANCH  35  36
ENDBRANCH  34  35
ENDBRANCH  33  34
ENDBRANCH  32  33
ENDBRANCH  31  32
ENDBRANCH  30  31
ENDBRANCH   1  30
TORSDOF 27
ENDMDL
