MODEL 1
REMARK VINA RESULT:     -10.2      0.000      0.000
REMARK SMILES Cc1cc(F)ccc1-n1ccc(C)c(C(=O)OCCOCCOCCOCCOC(=O)c2ccc(-c3c4nc(c(-c5cccc(S(=O)(=O)[O-])c5F)c5ccc([nH]5)c(-c5cccc(S(=O)(=O)[O-])c5F)c5nc(c(-c6cccc(S(=O)(=O)[O-])c6F)c6ccc3[nH]6)C=C5)C=C4)cc2)c1=O
REMARK SMILES IDX 24 1 23 2 22 3 21 4 20 5 19 6 18 7 17 8 15 9 16 10 14 11
REMARK SMILES IDX 9 12 10 13 95 14 11 15 96 16 12 17 13 18 8 19 1 20 2 21 3 22
REMARK SMILES IDX 4 23 7 24 5 25 6 26 25 27 26 28 27 29 28 30 29 31 30 32
REMARK SMILES IDX 31 33 32 34 33 35 94 36 34 37 93 38 35 39 36 40 37 41 87 42
REMARK SMILES IDX 38 43 92 44 86 45 88 46 39 47 91 48 85 49 84 50 40 52 72 53
REMARK SMILES IDX 52 54 71 55 53 56 56 57 70 58 89 59 54 60 55 61 69 63 90 64
REMARK SMILES IDX 57 65 41 66 42 67 50 68 43 69 45 70 51 71 44 72 46 73 47 74
REMARK SMILES IDX 48 75 49 76 73 77 74 78 82 79 75 80 77 81 83 82 76 83 78 84
REMARK SMILES IDX 79 85 80 86 81 87 58 88 59 89 67 90 60 91 62 92 68 93 61 94
REMARK SMILES IDX 63 95 64 96 65 97 66 98
REMARK H PARENT 88 51 56 62
REMARK Flexibility Score: inf
ROOT
ATOM      1  C   UNL A   1      32.877  28.266  26.400  1.00  0.00     0.188 C 
ENDROOT
BRANCH   1   2
ATOM      2  O   UNL A   1      33.834  28.685  25.442  1.00  0.00    -0.377 OA
BRANCH   2   3
ATOM      3  C   UNL A   1      33.405  29.035  24.135  1.00  0.00     0.188 C 
BRANCH   3   4
ATOM      4  C   UNL A   1      33.931  28.327  22.866  1.00  0.00     0.188 C 
BRANCH   4   5
ATOM      5  O   UNL A   1      33.028  27.435  22.228  1.00  0.00    -0.376 OA
BRANCH   5   6
ATOM      6  C   UNL A   1      31.642  27.672  22.431  1.00  0.00     0.202 C 
BRANCH   6   7
ATOM      7  C   UNL A   1      30.861  26.418  22.819  1.00  0.00     0.261 C 
BRANCH   7   8
ATOM      8  O   UNL A   1      31.693  25.430  23.435  1.00  0.00    -0.459 OA
BRANCH   8   9
ATOM      9  C   UNL A   1      31.167  24.212  23.689  1.00  0.00     0.344 C 
ATOM     10  O   UNL A   1      30.325  23.634  23.019  1.00  0.00    -0.246 OA
BRANCH   9  11
ATOM     11  C   UNL A   1      31.920  23.618  24.821  1.00  0.00     0.128 A 
ATOM     12  N   UNL A   1      33.791  22.195  25.607  1.00  0.00    -0.283 N 
ATOM     13  C   UNL A   1      33.277  22.310  26.890  1.00  0.00     0.095 A 
ATOM     14  C   UNL A   1      33.115  22.760  24.508  1.00  0.00     0.270 A 
ATOM     15  C   UNL A   1      32.188  23.038  27.154  1.00  0.00     0.023 A 
ATOM     16  O   UNL A   1      33.443  22.596  23.334  1.00  0.00    -0.268 OA
ATOM     17  C   UNL A   1      31.486  23.740  26.095  1.00  0.00    -0.029 A 
ATOM     18  C   UNL A   1      30.276  24.501  26.567  1.00  0.00     0.045 C 
BRANCH  12  19
ATOM     19  C   UNL A   1      35.014  21.473  25.380  1.00  0.00     0.052 A 
ATOM     20  C   UNL A   1      33.793  19.290  24.736  1.00  0.00     0.047 C 
ATOM     21  C   UNL A   1      35.029  20.113  24.988  1.00  0.00    -0.024 A 
ATOM     22  C   UNL A   1      36.266  19.472  24.791  1.00  0.00     0.044 A 
ATOM     23  C   UNL A   1      37.456  20.173  24.929  1.00  0.00     0.123 A 
ATOM     24  C   UNL A   1      36.239  22.162  25.502  1.00  0.00     0.030 A 
ATOM     25  F   UNL A   1      38.620  19.548  24.703  1.00  0.00    -0.207 F 
ATOM     26  C   UNL A   1      37.456  21.513  25.279  1.00  0.00     0.041 A 
ENDBRANCH  12  19
ENDBRANCH   9  11
ENDBRANCH   8   9
ENDBRANCH   7   8
ENDBRANCH   6   7
ENDBRANCH   5   6
ENDBRANCH   4   5
ENDBRANCH   3   4
ENDBRANCH   2   3
ENDBRANCH   1   2
BRANCH   1  27
ATOM     27  C   UNL A   1      31.990  29.357  27.028  1.00  0.00     0.188 C 
BRANCH  27  28
ATOM     28  O   UNL A   1      32.436  30.686  26.764  1.00  0.00    -0.376 OA
BRANCH  28  29
ATOM     29  C   UNL A   1      31.418  31.639  26.489  1.00  0.00     0.202 C 
BRANCH  29  30
ATOM     30  C   UNL A   1      31.796  33.098  26.775  1.00  0.00     0.261 C 
BRANCH  30  31
ATOM     31  O   UNL A   1      32.595  33.313  27.946  1.00  0.00    -0.460 OA
BRANCH  31  32
ATOM     32  C   UNL A   1      33.735  34.027  27.813  1.00  0.00     0.338 C 
ATOM     33  O   UNL A   1      33.834  35.206  27.524  1.00  0.00    -0.246 OA
BRANCH  32  34
ATOM     34  C   UNL A   1      34.842  33.169  28.287  1.00  0.00     0.060 A 
ATOM     35  C   UNL A   1      36.154  33.651  28.289  1.00  0.00     0.016 A 
ATOM     36  C   UNL A   1      34.568  31.852  28.682  1.00  0.00     0.016 A 
ATOM     37  C   UNL A   1      37.188  32.826  28.728  1.00  0.00     0.010 A 
ATOM     38  C   UNL A   1      35.608  31.023  29.113  1.00  0.00     0.010 A 
ATOM     39  C   UNL A   1      36.918  31.520  29.172  1.00  0.00    -0.014 A 
BRANCH  39  40
ATOM     40  C   UNL A   1      37.958  30.797  29.941  1.00  0.00     0.031 A 
ATOM     41  C   UNL A   1      38.865  29.777  29.331  1.00  0.00     0.074 A 
ATOM     42  C   UNL A   1      38.069  31.110  31.247  1.00  0.00     0.049 A 
ATOM     43  N   UNL A   1      39.911  29.200  29.866  1.00  0.00    -0.248 NA
ATOM     44  C   UNL A   1      38.565  29.335  27.962  1.00  0.00     0.031 C 
ATOM     45  C   UNL A   1      37.188  32.042  31.956  1.00  0.00     0.029 A 
ATOM     46  N   UNL A   1      38.961  30.701  32.201  1.00  0.00    -0.354 N 
ATOM     47  C   UNL A   1      40.405  28.333  28.901  1.00  0.00     0.074 A 
ATOM     48  C   UNL A   1      39.523  28.436  27.756  1.00  0.00     0.031 C 
ATOM     49  C   UNL A   1      37.606  32.163  33.223  1.00  0.00     0.029 A 
ATOM     50  C   UNL A   1      38.779  31.316  33.416  1.00  0.00     0.049 A 
ATOM     51  H   UNL A   1      39.664  30.032  32.033  1.00  0.00     0.167 HD
ATOM     52  C   UNL A   1      41.510  27.551  28.964  1.00  0.00     0.034 A 
ATOM     53  C   UNL A   1      39.493  31.239  34.555  1.00  0.00     0.034 A 
ATOM     54  C   UNL A   1      42.383  27.469  30.107  1.00  0.00     0.049 A 
ATOM     55  C   UNL A   1      40.729  30.393  34.587  1.00  0.00     0.074 A 
ATOM     56  C   UNL A   1      43.555  26.747  30.240  1.00  0.00     0.029 A 
ATOM     57  N   UNL A   1      42.179  28.123  31.312  1.00  0.00    -0.354 N 
ATOM     58  N   UNL A   1      41.262  29.687  33.619  1.00  0.00    -0.248 NA
ATOM     59  C   UNL A   1      41.481  30.354  35.848  1.00  0.00     0.031 C 
ATOM     60  C   UNL A   1      44.058  26.957  31.528  1.00  0.00     0.029 A 
ATOM     61  C   UNL A   1      43.202  27.820  32.194  1.00  0.00     0.049 A 
ATOM     62  H   UNL A   1      41.419  28.716  31.512  1.00  0.00     0.167 HD
ATOM     63  C   UNL A   1      42.422  29.136  34.146  1.00  0.00     0.074 A 
ATOM     64  C   UNL A   1      42.521  29.596  35.516  1.00  0.00     0.031 C 
ATOM     65  C   UNL A   1      43.315  28.316  33.542  1.00  0.00     0.034 A 
BRANCH  52  66
ATOM     66  C   UNL A   1      41.905  26.779  27.734  1.00  0.00     0.023 A 
ATOM     67  C   UNL A   1      42.632  27.444  26.725  1.00  0.00     0.012 A 
ATOM     68  C   UNL A   1      41.683  25.392  27.628  1.00  0.00     0.148 A 
ATOM     69  C   UNL A   1      43.124  26.745  25.625  1.00  0.00     0.002 A 
ATOM     70  C   UNL A   1      42.199  24.696  26.539  1.00  0.00     0.091 A 
ATOM     71  F   UNL A   1      40.986  24.781  28.596  1.00  0.00    -0.205 F 
ATOM     72  C   UNL A   1      42.917  25.370  25.538  1.00  0.00     0.022 A 
BRANCH  70  73
ATOM     73  S   UNL A   1      42.038  22.915  26.354  1.00  0.00     0.127 S 
ATOM     74  O   UNL A   1      42.655  22.699  25.045  1.00  0.00    -0.237 OA
ATOM     75  O   UNL A   1      42.819  22.415  27.486  1.00  0.00    -0.237 OA
ATOM     76  O   UNL A   1      40.612  22.629  26.422  1.00  0.00    -0.744 OA
ENDBRANCH  70  73
ENDBRANCH  52  66
BRANCH  53  77
ATOM     77  C   UNL A   1      39.098  32.101  35.698  1.00  0.00     0.023 A 
ATOM     78  C   UNL A   1      38.324  31.544  36.733  1.00  0.00     0.012 A 
ATOM     79  C   UNL A   1      39.598  33.410  35.830  1.00  0.00     0.148 A 
ATOM     80  C   UNL A   1      38.051  32.281  37.886  1.00  0.00     0.002 A 
ATOM     81  C   UNL A   1      39.354  34.124  36.996  1.00  0.00     0.091 A 
ATOM     82  F   UNL A   1      40.343  33.906  34.833  1.00  0.00    -0.205 F 
ATOM     83  C   UNL A   1      38.574  33.564  38.022  1.00  0.00     0.022 A 
BRANCH  81  84
ATOM     84  S   UNL A   1      40.073  35.739  37.314  1.00  0.00     0.127 S 
ATOM     85  O   UNL A   1      41.498  35.420  37.396  1.00  0.00    -0.237 OA
ATOM     86  O   UNL A   1      39.676  36.482  36.119  1.00  0.00    -0.237 OA
ATOM     87  O   UNL A   1      39.468  36.209  38.552  1.00  0.00    -0.744 OA
ENDBRANCH  81  84
ENDBRANCH  53  77
BRANCH  65  88
ATOM     88  C   UNL A   1      44.495  27.843  34.343  1.00  0.00     0.023 A 
ATOM     89  C   UNL A   1      45.640  28.659  34.426  1.00  0.00     0.012 A 
ATOM     90  C   UNL A   1      44.410  26.678  35.129  1.00  0.00     0.148 A 
ATOM     91  C   UNL A   1      46.684  28.322  35.286  1.00  0.00     0.002 A 
ATOM     92  C   UNL A   1      45.440  26.366  36.008  1.00  0.00     0.091 A 
ATOM     93  F   UNL A   1      43.309  25.918  35.026  1.00  0.00    -0.205 F 
ATOM     94  C   UNL A   1      46.579  27.185  36.085  1.00  0.00     0.022 A 
BRANCH  92  95
ATOM     95  S   UNL A   1      45.372  24.965  37.132  1.00  0.00     0.127 S 
ATOM     96  O   UNL A   1      46.485  25.255  38.036  1.00  0.00    -0.237 OA
ATOM     97  O   UNL A   1      44.045  25.116  37.728  1.00  0.00    -0.237 OA
ATOM     98  O   UNL A   1      45.545  23.776  36.309  1.00  0.00    -0.744 OA
ENDBRANCH  92  95
ENDBRANCH  65  88
ENDBRANCH  39  40
ENDBRANCH  32  34
ENDBRANCH  31  32
ENDBRANCH  30  31
ENDBRANCH  29  30
ENDBRANCH  28  29
ENDBRANCH  27  28
ENDBRANCH   1  27
TORSDOF 24
ENDMDL
MODEL 2
REMARK VINA RESULT:      -9.4      2.026      2.578
REMARK SMILES Cc1cc(F)ccc1-n1ccc(C)c(C(=O)OCCOCCOCCOCCOC(=O)c2ccc(-c3c4nc(c(-c5cccc(S(=O)(=O)[O-])c5F)c5ccc([nH]5)c(-c5cccc(S(=O)(=O)[O-])c5F)c5nc(c(-c6cccc(S(=O)(=O)[O-])c6F)c6ccc3[nH]6)C=C5)C=C4)cc2)c1=O
REMARK SMILES IDX 24 1 23 2 22 3 21 4 20 5 19 6 18 7 17 8 15 9 16 10 14 11
REMARK SMILES IDX 9 12 10 13 95 14 11 15 96 16 12 17 13 18 8 19 1 20 2 21 3 22
REMARK SMILES IDX 4 23 7 24 5 25 6 26 25 27 26 28 27 29 28 30 29 31 30 32
REMARK SMILES IDX 31 33 32 34 33 35 94 36 34 37 93 38 35 39 36 40 37 41 87 42
REMARK SMILES IDX 38 43 92 44 86 45 88 46 39 47 91 48 85 49 84 50 40 52 72 53
REMARK SMILES IDX 52 54 71 55 53 56 56 57 70 58 89 59 54 60 55 61 69 63 90 64
REMARK SMILES IDX 57 65 41 66 42 67 50 68 43 69 45 70 51 71 44 72 46 73 47 74
REMARK SMILES IDX 48 75 49 76 73 77 74 78 82 79 75 80 77 81 83 82 76 83 78 84
REMARK SMILES IDX 79 85 80 86 81 87 58 88 59 89 67 90 60 91 62 92 68 93 61 94
REMARK SMILES IDX 63 95 64 96 65 97 66 98
REMARK H PARENT 88 51 56 62
REMARK Flexibility Score: inf
ROOT
ATOM      1  C   UNL A   1      33.680  28.266  26.144  1.00  0.00     0.188 C 
ENDROOT
BRANCH   1   2
ATOM      2  O   UNL A   1      34.330  28.744  24.979  1.00  0.00    -0.377 OA
BRANCH   2   3
ATOM      3  C   UNL A   1      33.606  28.826  23.761  1.00  0.00     0.188 C 
BRANCH   3   4
ATOM      4  C   UNL A   1      34.243  28.513  22.388  1.00  0.00     0.188 C 
BRANCH   4   5
ATOM      5  O   UNL A   1      33.665  27.439  21.661  1.00  0.00    -0.376 OA
BRANCH   5   6
ATOM      6  C   UNL A   1      32.379  27.000  22.078  1.00  0.00     0.202 C 
BRANCH   6   7
ATOM      7  C   UNL A   1      32.348  25.539  22.520  1.00  0.00     0.261 C 
BRANCH   7   8
ATOM      8  O   UNL A   1      33.624  24.904  22.382  1.00  0.00    -0.459 OA
BRANCH   8   9
ATOM      9  C   UNL A   1      33.659  23.600  22.029  1.00  0.00     0.344 C 
ATOM     10  O   UNL A   1      33.588  23.156  20.894  1.00  0.00    -0.246 OA
BRANCH   9  11
ATOM     11  C   UNL A   1      33.984  22.810  23.242  1.00  0.00     0.128 A 
ATOM     12  N   UNL A   1      35.700  21.793  24.713  1.00  0.00    -0.283 N 
ATOM     13  C   UNL A   1      34.672  21.171  25.404  1.00  0.00     0.095 A 
ATOM     14  C   UNL A   1      35.432  22.567  23.566  1.00  0.00     0.270 A 
ATOM     15  C   UNL A   1      33.388  21.358  25.082  1.00  0.00     0.023 A 
ATOM     16  O   UNL A   1      36.298  23.045  22.835  1.00  0.00    -0.268 OA
ATOM     17  C   UNL A   1      33.015  22.221  23.978  1.00  0.00    -0.029 A 
ATOM     18  C   UNL A   1      31.529  22.307  23.747  1.00  0.00     0.045 C 
BRANCH  12  19
ATOM     19  C   UNL A   1      37.063  21.635  25.146  1.00  0.00     0.052 A 
ATOM     20  C   UNL A   1      37.197  24.020  26.127  1.00  0.00     0.047 C 
ATOM     21  C   UNL A   1      37.777  22.671  25.792  1.00  0.00    -0.024 A 
ATOM     22  C   UNL A   1      39.111  22.443  26.181  1.00  0.00     0.044 A 
ATOM     23  C   UNL A   1      39.705  21.205  25.979  1.00  0.00     0.123 A 
ATOM     24  C   UNL A   1      37.690  20.384  24.964  1.00  0.00     0.030 A 
ATOM     25  F   UNL A   1      40.964  21.003  26.388  1.00  0.00    -0.207 F 
ATOM     26  C   UNL A   1      39.007  20.171  25.378  1.00  0.00     0.041 A 
ENDBRANCH  12  19
ENDBRANCH   9  11
ENDBRANCH   8   9
ENDBRANCH   7   8
ENDBRANCH   6   7
ENDBRANCH   5   6
ENDBRANCH   4   5
ENDBRANCH   3   4
ENDBRANCH   2   3
ENDBRANCH   1   2
BRANCH   1  27
ATOM     27  C   UNL A   1      32.990  29.309  27.041  1.00  0.00     0.188 C 
BRANCH  27  28
ATOM     28  O   UNL A   1      33.167  30.655  26.601  1.00  0.00    -0.376 OA
BRANCH  28  29
ATOM     29  C   UNL A   1      32.087  31.542  26.863  1.00  0.00     0.202 C 
BRANCH  29  30
ATOM     30  C   UNL A   1      32.482  32.882  27.496  1.00  0.00     0.261 C 
BRANCH  30  31
ATOM     31  O   UNL A   1      33.654  32.856  28.322  1.00  0.00    -0.460 OA
BRANCH  31  32
ATOM     32  C   UNL A   1      34.783  33.423  27.840  1.00  0.00     0.338 C 
ATOM     33  O   UNL A   1      34.868  34.450  27.189  1.00  0.00    -0.246 OA
BRANCH  32  34
ATOM     34  C   UNL A   1      35.923  32.683  28.422  1.00  0.00     0.060 A 
ATOM     35  C   UNL A   1      37.025  33.377  28.928  1.00  0.00     0.016 A 
ATOM     36  C   UNL A   1      35.909  31.281  28.410  1.00  0.00     0.016 A 
ATOM     37  C   UNL A   1      38.098  32.665  29.464  1.00  0.00     0.010 A 
ATOM     38  C   UNL A   1      36.990  30.569  28.939  1.00  0.00     0.010 A 
ATOM     39  C   UNL A   1      38.073  31.260  29.501  1.00  0.00    -0.014 A 
BRANCH  39  40
ATOM     40  C   UNL A   1      39.045  30.551  30.366  1.00  0.00     0.031 A 
ATOM     41  C   UNL A   1      39.940  29.462  29.868  1.00  0.00     0.074 A 
ATOM     42  C   UNL A   1      39.103  30.943  31.654  1.00  0.00     0.049 A 
ATOM     43  N   UNL A   1      40.934  28.883  30.492  1.00  0.00    -0.248 NA
ATOM     44  C   UNL A   1      39.691  28.944  28.516  1.00  0.00     0.031 C 
ATOM     45  C   UNL A   1      38.225  31.950  32.257  1.00  0.00     0.029 A 
ATOM     46  N   UNL A   1      39.930  30.564  32.677  1.00  0.00    -0.354 N 
ATOM     47  C   UNL A   1      41.441  27.939  29.609  1.00  0.00     0.074 A 
ATOM     48  C   UNL A   1      40.622  28.001  28.416  1.00  0.00     0.031 C 
ATOM     49  C   UNL A   1      38.585  32.136  33.534  1.00  0.00     0.029 A 
ATOM     50  C   UNL A   1      39.712  31.261  33.840  1.00  0.00     0.049 A 
ATOM     51  H   UNL A   1      40.613  29.860  32.588  1.00  0.00     0.167 HD
ATOM     52  C   UNL A   1      42.510  27.123  29.778  1.00  0.00     0.034 A 
ATOM     53  C   UNL A   1      40.365  31.232  35.017  1.00  0.00     0.034 A 
ATOM     54  C   UNL A   1      43.321  27.083  30.968  1.00  0.00     0.049 A 
ATOM     55  C   UNL A   1      41.564  30.346  35.166  1.00  0.00     0.074 A 
ATOM     56  C   UNL A   1      44.457  26.329  31.206  1.00  0.00     0.029 A 
ATOM     57  N   UNL A   1      43.084  27.819  32.118  1.00  0.00    -0.354 N 
ATOM     58  N   UNL A   1      42.116  29.560  34.273  1.00  0.00    -0.248 NA
ATOM     59  C   UNL A   1      42.251  30.360  36.464  1.00  0.00     0.031 C 
ATOM     60  C   UNL A   1      44.902  26.603  32.503  1.00  0.00     0.029 A 
ATOM     61  C   UNL A   1      44.049  27.537  33.068  1.00  0.00     0.049 A 
ATOM     62  H   UNL A   1      42.339  28.451  32.241  1.00  0.00     0.167 HD
ATOM     63  C   UNL A   1      43.226  29.003  34.892  1.00  0.00     0.074 A 
ATOM     64  C   UNL A   1      43.275  29.546  36.234  1.00  0.00     0.031 C 
ATOM     65  C   UNL A   1      44.115  28.114  34.388  1.00  0.00     0.034 A 
BRANCH  52  66
ATOM     66  C   UNL A   1      42.935  26.261  28.620  1.00  0.00     0.023 A 
ATOM     67  C   UNL A   1      42.185  25.102  28.332  1.00  0.00     0.012 A 
ATOM     68  C   UNL A   1      43.970  26.650  27.748  1.00  0.00     0.148 A 
ATOM     69  C   UNL A   1      42.464  24.337  27.202  1.00  0.00     0.002 A 
ATOM     70  C   UNL A   1      44.226  25.895  26.607  1.00  0.00     0.091 A 
ATOM     71  F   UNL A   1      44.673  27.752  28.043  1.00  0.00    -0.205 F 
ATOM     72  C   UNL A   1      43.476  24.740  26.334  1.00  0.00     0.022 A 
BRANCH  70  73
ATOM     73  S   UNL A   1      45.472  26.353  25.394  1.00  0.00     0.127 S 
ATOM     74  O   UNL A   1      45.453  25.192  24.503  1.00  0.00    -0.237 OA
ATOM     75  O   UNL A   1      44.907  27.573  24.816  1.00  0.00    -0.237 OA
ATOM     76  O   UNL A   1      46.709  26.545  26.137  1.00  0.00    -0.744 OA
ENDBRANCH  70  73
ENDBRANCH  52  66
BRANCH  53  77
ATOM     77  C   UNL A   1      39.949  32.179  36.082  1.00  0.00     0.023 A 
ATOM     78  C   UNL A   1      40.502  33.473  36.096  1.00  0.00     0.012 A 
ATOM     79  C   UNL A   1      38.918  31.853  36.984  1.00  0.00     0.148 A 
ATOM     80  C   UNL A   1      40.034  34.432  36.994  1.00  0.00     0.002 A 
ATOM     81  C   UNL A   1      38.432  32.824  37.851  1.00  0.00     0.091 A 
ATOM     82  F   UNL A   1      38.404  30.617  36.937  1.00  0.00    -0.205 F 
ATOM     83  C   UNL A   1      38.994  34.112  37.862  1.00  0.00     0.022 A 
BRANCH  81  84
ATOM     84  S   UNL A   1      37.023  32.545  38.929  1.00  0.00     0.127 S 
ATOM     85  O   UNL A   1      37.330  33.426  40.055  1.00  0.00    -0.237 OA
ATOM     86  O   UNL A   1      35.912  32.986  38.087  1.00  0.00    -0.237 OA
ATOM     87  O   UNL A   1      37.029  31.121  39.233  1.00  0.00    -0.744 OA
ENDBRANCH  81  84
ENDBRANCH  53  77
BRANCH  65  88
ATOM     88  C   UNL A   1      45.235  27.651  35.276  1.00  0.00     0.023 A 
ATOM     89  C   UNL A   1      46.451  28.360  35.274  1.00  0.00     0.012 A 
ATOM     90  C   UNL A   1      45.028  26.622  36.215  1.00  0.00     0.148 A 
ATOM     91  C   UNL A   1      47.447  28.052  36.198  1.00  0.00     0.002 A 
ATOM     92  C   UNL A   1      46.013  26.342  37.155  1.00  0.00     0.091 A 
ATOM     93  F   UNL A   1      43.861  25.962  36.191  1.00  0.00    -0.205 F 
ATOM     94  C   UNL A   1      47.224  27.055  37.146  1.00  0.00     0.022 A 
BRANCH  92  95
ATOM     95  S   UNL A   1      45.797  25.128  38.461  1.00  0.00     0.127 S 
ATOM     96  O   UNL A   1      45.496  23.918  37.696  1.00  0.00    -0.237 OA
ATOM     97  O   UNL A   1      47.111  25.133  39.104  1.00  0.00    -0.237 OA
ATOM     98  O   UNL A   1      44.704  25.616  39.292  1.00  0.00    -0.744 OA
ENDBRANCH  92  95
ENDBRANCH  65  88
ENDBRANCH  39  40
ENDBRANCH  32  34
ENDBRANCH  31  32
ENDBRANCH  30  31
ENDBRANCH  29  30
ENDBRANCH  28  29
ENDBRANCH  27  28
ENDBRANCH   1  27
TORSDOF 24
ENDMDL
MODEL 3
REMARK VINA RESULT:      -8.9      2.163      7.607
REMARK SMILES Cc1cc(F)ccc1-n1ccc(C)c(C(=O)OCCOCCOCCOCCOC(=O)c2ccc(-c3c4nc(c(-c5cccc(S(=O)(=O)[O-])c5F)c5ccc([nH]5)c(-c5cccc(S(=O)(=O)[O-])c5F)c5nc(c(-c6cccc(S(=O)(=O)[O-])c6F)c6ccc3[nH]6)C=C5)C=C4)cc2)c1=O
REMARK SMILES IDX 24 1 23 2 22 3 21 4 20 5 19 6 18 7 17 8 15 9 16 10 14 11
REMARK SMILES IDX 9 12 10 13 95 14 11 15 96 16 12 17 13 18 8 19 1 20 2 21 3 22
REMARK SMILES IDX 4 23 7 24 5 25 6 26 25 27 26 28 27 29 28 30 29 31 30 32
REMARK SMILES IDX 31 33 32 34 33 35 94 36 34 37 93 38 35 39 36 40 37 41 87 42
REMARK SMILES IDX 38 43 92 44 86 45 88 46 39 47 91 48 85 49 84 50 40 52 72 53
REMARK SMILES IDX 52 54 71 55 53 56 56 57 70 58 89 59 54 60 55 61 69 63 90 64
REMARK SMILES IDX 57 65 41 66 42 67 50 68 43 69 45 70 51 71 44 72 46 73 47 74
REMARK SMILES IDX 48 75 49 76 73 77 74 78 82 79 75 80 77 81 83 82 76 83 78 84
REMARK SMILES IDX 79 85 80 86 81 87 58 88 59 89 67 90 60 91 62 92 68 93 61 94
REMARK SMILES IDX 63 95 64 96 65 97 66 98
REMARK H PARENT 88 51 56 62
REMARK Flexibility Score: inf
ROOT
ATOM      1  C   UNL A   1      33.615  27.977  25.802  1.00  0.00     0.188 C 
ENDROOT
BRANCH   1   2
ATOM      2  O   UNL A   1      34.251  28.768  24.814  1.00  0.00    -0.377 OA
BRANCH   2   3
ATOM      3  C   UNL A   1      33.558  29.077  23.614  1.00  0.00     0.188 C 
BRANCH   3   4
ATOM      4  C   UNL A   1      32.063  28.741  23.404  1.00  0.00     0.188 C 
BRANCH   4   5
ATOM      5  O   UNL A   1      31.716  28.203  22.136  1.00  0.00    -0.376 OA
BRANCH   5   6
ATOM      6  C   UNL A   1      31.527  26.796  22.066  1.00  0.00     0.202 C 
BRANCH   6   7
ATOM      7  C   UNL A   1      32.342  26.021  23.100  1.00  0.00     0.261 C 
BRANCH   7   8
ATOM      8  O   UNL A   1      32.229  24.604  22.927  1.00  0.00    -0.459 OA
BRANCH   8   9
ATOM      9  C   UNL A   1      31.261  23.948  23.605  1.00  0.00     0.344 C 
ATOM     10  O   UNL A   1      30.075  23.912  23.318  1.00  0.00    -0.246 OA
BRANCH   9  11
ATOM     11  C   UNL A   1      31.917  23.130  24.654  1.00  0.00     0.128 A 
ATOM     12  N   UNL A   1      32.937  20.975  25.333  1.00  0.00    -0.283 N 
ATOM     13  C   UNL A   1      32.985  21.461  26.631  1.00  0.00     0.095 A 
ATOM     14  C   UNL A   1      32.339  21.730  24.304  1.00  0.00     0.270 A 
ATOM     15  C   UNL A   1      32.567  22.692  26.942  1.00  0.00     0.023 A 
ATOM     16  O   UNL A   1      32.150  21.316  23.161  1.00  0.00    -0.268 OA
ATOM     17  C   UNL A   1      32.031  23.576  25.925  1.00  0.00    -0.029 A 
ATOM     18  C   UNL A   1      31.597  24.918  26.452  1.00  0.00     0.045 C 
BRANCH  12  19
ATOM     19  C   UNL A   1      33.477  19.678  25.025  1.00  0.00     0.052 A 
ATOM     20  C   UNL A   1      35.906  20.546  24.886  1.00  0.00     0.047 C 
ATOM     21  C   UNL A   1      34.858  19.467  24.799  1.00  0.00    -0.024 A 
ATOM     22  C   UNL A   1      35.311  18.170  24.495  1.00  0.00     0.044 A 
ATOM     23  C   UNL A   1      34.426  17.100  24.466  1.00  0.00     0.123 A 
ATOM     24  C   UNL A   1      32.604  18.570  24.999  1.00  0.00     0.030 A 
ATOM     25  F   UNL A   1      34.887  15.869  24.208  1.00  0.00    -0.207 F 
ATOM     26  C   UNL A   1      33.077  17.286  24.719  1.00  0.00     0.041 A 
ENDBRANCH  12  19
ENDBRANCH   9  11
ENDBRANCH   8   9
ENDBRANCH   7   8
ENDBRANCH   6   7
ENDBRANCH   5   6
ENDBRANCH   4   5
ENDBRANCH   3   4
ENDBRANCH   2   3
ENDBRANCH   1   2
BRANCH   1  27
ATOM     27  C   UNL A   1      32.990  28.719  26.998  1.00  0.00     0.188 C 
BRANCH  27  28
ATOM     28  O   UNL A   1      33.185  30.132  26.966  1.00  0.00    -0.376 OA
BRANCH  28  29
ATOM     29  C   UNL A   1      32.079  30.900  26.510  1.00  0.00     0.202 C 
BRANCH  29  30
ATOM     30  C   UNL A   1      32.014  32.335  27.049  1.00  0.00     0.261 C 
BRANCH  30  31
ATOM     31  O   UNL A   1      32.895  32.626  28.143  1.00  0.00    -0.460 OA
BRANCH  31  32
ATOM     32  C   UNL A   1      33.876  33.535  27.943  1.00  0.00     0.338 C 
ATOM     33  O   UNL A   1      33.818  34.538  27.254  1.00  0.00    -0.246 OA
BRANCH  32  34
ATOM     34  C   UNL A   1      34.971  33.204  28.879  1.00  0.00     0.060 A 
ATOM     35  C   UNL A   1      34.856  32.107  29.736  1.00  0.00     0.016 A 
ATOM     36  C   UNL A   1      36.100  34.034  28.935  1.00  0.00     0.016 A 
ATOM     37  C   UNL A   1      35.892  31.814  30.621  1.00  0.00     0.010 A 
ATOM     38  C   UNL A   1      37.134  33.746  29.830  1.00  0.00     0.010 A 
ATOM     39  C   UNL A   1      37.050  32.612  30.652  1.00  0.00    -0.014 A 
BRANCH  39  40
ATOM     40  C   UNL A   1      38.257  32.094  31.338  1.00  0.00     0.031 A 
ATOM     41  C   UNL A   1      38.703  32.576  32.682  1.00  0.00     0.074 A 
ATOM     42  C   UNL A   1      38.952  31.137  30.695  1.00  0.00     0.049 A 
ATOM     43  N   UNL A   1      39.646  32.087  33.445  1.00  0.00    -0.248 NA
ATOM     44  C   UNL A   1      38.025  33.754  33.239  1.00  0.00     0.031 C 
ATOM     45  C   UNL A   1      38.640  30.644  29.350  1.00  0.00     0.029 A 
ATOM     46  N   UNL A   1      40.041  30.400  31.077  1.00  0.00    -0.354 N 
ATOM     47  C   UNL A   1      39.673  32.886  34.579  1.00  0.00     0.074 A 
ATOM     48  C   UNL A   1      38.671  33.915  34.390  1.00  0.00     0.031 C 
ATOM     49  C   UNL A   1      39.494  29.662  29.034  1.00  0.00     0.029 A 
ATOM     50  C   UNL A   1      40.414  29.458  30.149  1.00  0.00     0.049 A 
ATOM     51  H   UNL A   1      40.511  30.533  31.932  1.00  0.00     0.167 HD
ATOM     52  C   UNL A   1      40.446  32.747  35.684  1.00  0.00     0.034 A 
ATOM     53  C   UNL A   1      41.366  28.508  30.197  1.00  0.00     0.034 A 
ATOM     54  C   UNL A   1      41.431  31.711  35.861  1.00  0.00     0.049 A 
ATOM     55  C   UNL A   1      42.184  28.354  31.442  1.00  0.00     0.074 A 
ATOM     56  C   UNL A   1      42.220  31.459  36.969  1.00  0.00     0.029 A 
ATOM     57  N   UNL A   1      41.766  30.760  34.909  1.00  0.00    -0.354 N 
ATOM     58  N   UNL A   1      42.102  29.031  32.562  1.00  0.00    -0.248 NA
ATOM     59  C   UNL A   1      43.200  27.294  31.450  1.00  0.00     0.031 C 
ATOM     60  C   UNL A   1      43.039  30.361  36.685  1.00  0.00     0.029 A 
ATOM     61  C   UNL A   1      42.751  29.923  35.403  1.00  0.00     0.049 A 
ATOM     62  H   UNL A   1      41.363  30.691  34.013  1.00  0.00     0.167 HD
ATOM     63  C   UNL A   1      43.039  28.466  33.416  1.00  0.00     0.074 A 
ATOM     64  C   UNL A   1      43.673  27.386  32.688  1.00  0.00     0.031 C 
ATOM     65  C   UNL A   1      43.347  28.823  34.686  1.00  0.00     0.034 A 
BRANCH  52  66
ATOM     66  C   UNL A   1      40.208  33.681  36.840  1.00  0.00     0.023 A 
ATOM     67  C   UNL A   1      40.629  35.021  36.721  1.00  0.00     0.012 A 
ATOM     68  C   UNL A   1      39.465  33.287  37.969  1.00  0.00     0.148 A 
ATOM     69  C   UNL A   1      40.325  35.953  37.711  1.00  0.00     0.002 A 
ATOM     70  C   UNL A   1      39.143  34.228  38.942  1.00  0.00     0.091 A 
ATOM     71  F   UNL A   1      39.077  32.007  38.063  1.00  0.00    -0.205 F 
ATOM     72  C   UNL A   1      39.573  35.559  38.816  1.00  0.00     0.022 A 
BRANCH  70  73
ATOM     73  S   UNL A   1      38.133  33.841  40.378  1.00  0.00     0.127 S 
ATOM     74  O   UNL A   1      36.921  33.313  39.751  1.00  0.00    -0.237 OA
ATOM     75  O   UNL A   1      38.947  32.840  41.068  1.00  0.00    -0.237 OA
ATOM     76  O   UNL A   1      37.962  35.093  41.101  1.00  0.00    -0.744 OA
ENDBRANCH  70  73
ENDBRANCH  52  66
BRANCH  53  77
ATOM     77  C   UNL A   1      41.481  27.562  29.058  1.00  0.00     0.023 A 
ATOM     78  C   UNL A   1      40.589  26.475  28.984  1.00  0.00     0.012 A 
ATOM     79  C   UNL A   1      42.364  27.811  27.990  1.00  0.00     0.148 A 
ATOM     80  C   UNL A   1      40.575  25.647  27.862  1.00  0.00     0.002 A 
ATOM     81  C   UNL A   1      42.319  27.005  26.860  1.00  0.00     0.091 A 
ATOM     82  F   UNL A   1      43.190  28.861  28.085  1.00  0.00    -0.205 F 
ATOM     83  C   UNL A   1      41.431  25.918  26.797  1.00  0.00     0.022 A 
BRANCH  81  84
ATOM     84  S   UNL A   1      43.300  27.335  25.392  1.00  0.00     0.127 S 
ATOM     85  O   UNL A   1      43.503  25.989  24.860  1.00  0.00    -0.237 OA
ATOM     86  O   UNL A   1      42.391  28.175  24.611  1.00  0.00    -0.237 OA
ATOM     87  O   UNL A   1      44.502  28.010  25.859  1.00  0.00    -0.744 OA
ENDBRANCH  81  84
ENDBRANCH  53  77
BRANCH  65  88
ATOM     88  C   UNL A   1      44.421  28.051  35.399  1.00  0.00     0.023 A 
ATOM     89  C   UNL A   1      44.071  26.892  36.118  1.00  0.00     0.012 A 
ATOM     90  C   UNL A   1      45.779  28.383  35.226  1.00  0.00     0.148 A 
ATOM     91  C   UNL A   1      45.061  26.071  36.654  1.00  0.00     0.002 A 
ATOM     92  C   UNL A   1      46.760  27.542  35.736  1.00  0.00     0.091 A 
ATOM     93  F   UNL A   1      46.081  29.495  34.540  1.00  0.00    -0.205 F 
ATOM     94  C   UNL A   1      46.403  26.387  36.453  1.00  0.00     0.022 A 
BRANCH  92  95
ATOM     95  S   UNL A   1      48.516  27.820  35.471  1.00  0.00     0.127 S 
ATOM     96  O   UNL A   1      49.113  26.808  36.341  1.00  0.00    -0.237 OA
ATOM     97  O   UNL A   1      48.655  27.554  34.039  1.00  0.00    -0.237 OA
ATOM     98  O   UNL A   1      48.773  29.198  35.867  1.00  0.00    -0.744 OA
ENDBRANCH  92  95
ENDBRANCH  65  88
ENDBRANCH  39  40
ENDBRANCH  32  34
ENDBRANCH  31  32
ENDBRANCH  30  31
ENDBRANCH  29  30
ENDBRANCH  28  29
ENDBRANCH  27  28
ENDBRANCH   1  27
TORSDOF 24
ENDMDL
