MODEL 1
REMARK VINA RESULT:     -10.6      0.000      0.000
REMARK SMILES C[C@H]1c2ccc(O)cc2OC(=O)[C@@H]1CC(=O)N[C@@H](CC1=c2ccccc2=NC1)C(=O)OCCOCCOCCOCCOC(=O)c1ccc(-c2c3nc(c(-c4cccc(S(=O)(=O)[O-])c4F)c4ccc([nH]4)c(-c4cccc(S(=O)(=O)[O-])c4F)c4nc(c(-c5cccc(S(=O)(=O)[O-])c5F)c5ccc2[nH]5)C=C4)C=C3)cc1
REMARK SMILES IDX 36 1 35 2 34 3 33 4 32 5 31 6 29 7 30 8 18 9 17 10 15 11
REMARK SMILES IDX 16 12 14 14 13 15 1 16 2 17 3 18 4 19 9 20 11 21 5 22 8 23
REMARK SMILES IDX 10 24 12 25 6 26 7 27 19 29 20 30 21 31 28 32 22 33 26 34
REMARK SMILES IDX 27 35 23 36 25 37 24 38 37 39 38 40 39 41 40 42 41 43 42 44
REMARK SMILES IDX 43 45 44 46 45 47 46 48 47 49 108 50 48 51 107 52 49 53
REMARK SMILES IDX 50 54 51 55 101 56 52 57 106 58 100 59 102 60 53 61 105 62
REMARK SMILES IDX 99 63 98 64 54 66 86 67 66 68 85 69 67 70 70 71 84 72 103 73
REMARK SMILES IDX 68 74 69 75 83 77 104 78 71 79 55 80 56 81 64 82 57 83 59 84
REMARK SMILES IDX 65 85 58 86 60 87 61 88 62 89 63 90 87 91 88 92 96 93 89 94
REMARK SMILES IDX 91 95 97 96 90 97 92 98 93 99 94 100 95 101 72 102 73 103
REMARK SMILES IDX 81 104 74 105 76 106 82 107 75 108 77 109 78 110 79 111
REMARK SMILES IDX 80 112
REMARK H PARENT 17 13 7 28 102 65 70 76
REMARK Flexibility Score: inf
ROOT
ATOM      1  C   UNL A   1      41.071  21.975  27.660  1.00  0.00     0.188 C 
ENDROOT
BRANCH   1   2
ATOM      2  C   UNL A   1      40.410  23.140  26.903  1.00  0.00     0.188 C 
BRANCH   2   3
ATOM      3  O   UNL A   1      39.012  23.370  27.057  1.00  0.00    -0.376 OA
BRANCH   3   4
ATOM      4  C   UNL A   1      38.237  23.654  25.889  1.00  0.00     0.202 C 
BRANCH   4   5
ATOM      5  C   UNL A   1      36.719  23.774  26.040  1.00  0.00     0.261 C 
BRANCH   5   6
ATOM      6  O   UNL A   1      36.049  23.982  24.783  1.00  0.00    -0.462 OA
BRANCH   6   7
ATOM      7  C   UNL A   1      35.178  23.023  24.409  1.00  0.00     0.329 C 
ATOM      8  O   UNL A   1      34.712  22.917  23.277  1.00  0.00    -0.250 OA
BRANCH   7   9
ATOM      9  C   UNL A   1      34.721  22.118  25.567  1.00  0.00     0.196 C 
BRANCH   9  10
ATOM     10  N   UNL A   1      33.367  22.191  26.144  1.00  0.00    -0.342 N 
ATOM     11  C   UNL A   1      32.681  23.232  26.702  1.00  0.00     0.221 C 
ATOM     12  O   UNL A   1      31.787  22.991  27.517  1.00  0.00    -0.275 OA
ATOM     13  H   UNL A   1      32.871  21.341  26.124  1.00  0.00     0.164 HD
BRANCH  11  14
ATOM     14  C   UNL A   1      32.869  24.654  26.193  1.00  0.00     0.116 C 
BRANCH  14  15
ATOM     15  C   UNL A   1      31.740  25.285  25.354  1.00  0.00     0.116 C 
ATOM     16  C   UNL A   1      31.093  27.016  23.581  1.00  0.00     0.014 C 
ATOM     17  C   UNL A   1      32.213  26.476  24.481  1.00  0.00     0.034 C 
ATOM     18  C   UNL A   1      32.720  27.573  25.389  1.00  0.00    -0.001 A 
ATOM     19  C   UNL A   1      33.723  28.465  24.998  1.00  0.00     0.011 A 
ATOM     20  C   UNL A   1      32.200  27.673  26.683  1.00  0.00     0.138 A 
ATOM     21  C   UNL A   1      30.671  25.853  26.248  1.00  0.00     0.315 C 
ATOM     22  C   UNL A   1      34.238  29.385  25.917  1.00  0.00     0.047 A 
ATOM     23  C   UNL A   1      32.732  28.549  27.621  1.00  0.00     0.093 A 
ATOM     24  O   UNL A   1      31.092  26.894  27.070  1.00  0.00    -0.426 OA
ATOM     25  O   UNL A   1      29.540  25.384  26.311  1.00  0.00    -0.251 OA
ATOM     26  C   UNL A   1      33.760  29.396  27.227  1.00  0.00     0.119 A 
BRANCH  26  27
ATOM     27  O   UNL A   1      34.271  30.248  28.160  1.00  0.00    -0.508 OA
ATOM     28  H   UNL A   1      33.954  30.221  29.042  1.00  0.00     0.293 HD
ENDBRANCH  26  27
ENDBRANCH  14  15
ENDBRANCH  11  14
ENDBRANCH   9  10
BRANCH   9  29
ATOM     29  C   UNL A   1      35.132  20.635  25.287  1.00  0.00     0.070 C 
BRANCH  29  30
ATOM     30  C   UNL A   1      34.203  19.772  24.428  1.00  0.00    -0.037 C 
ATOM     31  C   UNL A   1      34.194  18.436  24.572  1.00  0.00     0.001 A 
ATOM     32  C   UNL A   1      32.777  20.224  24.285  1.00  0.00     0.174 C 
ATOM     33  C   UNL A   1      34.386  17.433  23.538  1.00  0.00     0.010 A 
ATOM     34  C   UNL A   1      32.834  18.281  25.178  1.00  0.00     0.065 A 
ATOM     35  N   UNL A   1      32.025  19.294  25.150  1.00  0.00    -0.280 NA
ATOM     36  C   UNL A   1      33.826  16.223  23.733  1.00  0.00     0.001 A 
ATOM     37  C   UNL A   1      32.574  16.932  25.712  1.00  0.00     0.028 A 
ATOM     38  C   UNL A   1      33.095  15.938  24.968  1.00  0.00     0.002 A 
ENDBRANCH  29  30
ENDBRANCH   9  29
ENDBRANCH   7   9
ENDBRANCH   6   7
ENDBRANCH   5   6
ENDBRANCH   4   5
ENDBRANCH   3   4
ENDBRANCH   2   3
ENDBRANCH   1   2
BRANCH   1  39
ATOM     39  O   UNL A   1      40.419  20.733  27.503  1.00  0.00    -0.377 OA
BRANCH  39  40
ATOM     40  C   UNL A   1      40.755  19.960  26.357  1.00  0.00     0.188 C 
BRANCH  40  41
ATOM     41  C   UNL A   1      42.138  19.282  26.333  1.00  0.00     0.188 C 
BRANCH  41  42
ATOM     42  O   UNL A   1      42.754  19.281  25.046  1.00  0.00    -0.376 OA
BRANCH  42  43
ATOM     43  C   UNL A   1      44.103  18.830  24.970  1.00  0.00     0.202 C 
BRANCH  43  44
ATOM     44  C   UNL A   1      45.011  19.579  23.982  1.00  0.00     0.261 C 
BRANCH  44  45
ATOM     45  O   UNL A   1      45.467  20.880  24.388  1.00  0.00    -0.460 OA
BRANCH  45  46
ATOM     46  C   UNL A   1      44.811  21.974  23.946  1.00  0.00     0.338 C 
ATOM     47  O   UNL A   1      44.273  22.120  22.862  1.00  0.00    -0.246 OA
BRANCH  46  48
ATOM     48  C   UNL A   1      44.673  22.893  25.096  1.00  0.00     0.060 A 
ATOM     49  C   UNL A   1      44.593  22.392  26.399  1.00  0.00     0.016 A 
ATOM     50  C   UNL A   1      44.590  24.270  24.860  1.00  0.00     0.016 A 
ATOM     51  C   UNL A   1      44.466  23.279  27.471  1.00  0.00     0.010 A 
ATOM     52  C   UNL A   1      44.446  25.153  25.932  1.00  0.00     0.010 A 
ATOM     53  C   UNL A   1      44.413  24.665  27.246  1.00  0.00    -0.014 A 
BRANCH  53  54
ATOM     54  C   UNL A   1      44.564  25.599  28.386  1.00  0.00     0.031 A 
ATOM     55  C   UNL A   1      43.406  26.331  28.992  1.00  0.00     0.074 A 
ATOM     56  C   UNL A   1      45.810  25.798  28.856  1.00  0.00     0.049 A 
ATOM     57  N   UNL A   1      43.402  27.118  30.036  1.00  0.00    -0.248 NA
ATOM     58  C   UNL A   1      42.092  26.170  28.352  1.00  0.00     0.031 C 
ATOM     59  C   UNL A   1      47.020  25.181  28.304  1.00  0.00     0.029 A 
ATOM     60  N   UNL A   1      46.273  26.573  29.888  1.00  0.00    -0.354 N 
ATOM     61  C   UNL A   1      42.093  27.555  30.184  1.00  0.00     0.074 A 
ATOM     62  C   UNL A   1      41.329  26.953  29.110  1.00  0.00     0.031 C 
ATOM     63  C   UNL A   1      48.084  25.598  29.004  1.00  0.00     0.029 A 
ATOM     64  C   UNL A   1      47.636  26.513  30.047  1.00  0.00     0.049 A 
ATOM     65  H   UNL A   1      45.686  27.119  30.458  1.00  0.00     0.167 HD
ATOM     66  C   UNL A   1      41.581  28.366  31.141  1.00  0.00     0.034 A 
ATOM     67  C   UNL A   1      48.443  27.116  30.941  1.00  0.00     0.034 A 
ATOM     68  C   UNL A   1      42.347  28.948  32.215  1.00  0.00     0.049 A 
ATOM     69  C   UNL A   1      47.843  27.985  32.006  1.00  0.00     0.074 A 
ATOM     70  C   UNL A   1      41.891  29.726  33.268  1.00  0.00     0.029 A 
ATOM     71  N   UNL A   1      43.718  28.831  32.373  1.00  0.00    -0.354 N 
ATOM     72  N   UNL A   1      46.582  28.271  32.213  1.00  0.00    -0.248 NA
ATOM     73  C   UNL A   1      48.767  28.583  32.980  1.00  0.00     0.031 C 
ATOM     74  C   UNL A   1      42.988  30.087  34.055  1.00  0.00     0.029 A 
ATOM     75  C   UNL A   1      44.127  29.522  33.502  1.00  0.00     0.049 A 
ATOM     76  H   UNL A   1      44.315  28.329  31.771  1.00  0.00     0.167 HD
ATOM     77  C   UNL A   1      46.554  29.061  33.354  1.00  0.00     0.074 A 
ATOM     78  C   UNL A   1      47.925  29.200  33.802  1.00  0.00     0.031 C 
ATOM     79  C   UNL A   1      45.486  29.623  33.968  1.00  0.00     0.034 A 
BRANCH  66  80
ATOM     80  C   UNL A   1      40.100  28.629  31.136  1.00  0.00     0.023 A 
ATOM     81  C   UNL A   1      39.288  27.951  32.068  1.00  0.00     0.012 A 
ATOM     82  C   UNL A   1      39.539  29.641  30.332  1.00  0.00     0.148 A 
ATOM     83  C   UNL A   1      37.938  28.274  32.198  1.00  0.00     0.002 A 
ATOM     84  C   UNL A   1      38.198  29.976  30.487  1.00  0.00     0.091 A 
ATOM     85  F   UNL A   1      40.331  30.270  29.453  1.00  0.00    -0.205 F 
ATOM     86  C   UNL A   1      37.397  29.292  31.417  1.00  0.00     0.022 A 
BRANCH  84  87
ATOM     87  S   UNL A   1      37.414  31.313  29.578  1.00  0.00     0.127 S 
ATOM     88  O   UNL A   1      37.374  30.763  28.223  1.00  0.00    -0.237 OA
ATOM     89  O   UNL A   1      36.110  31.408  30.235  1.00  0.00    -0.237 OA
ATOM     90  O   UNL A   1      38.272  32.477  29.748  1.00  0.00    -0.744 OA
ENDBRANCH  84  87
ENDBRANCH  66  80
BRANCH  67  91
ATOM     91  C   UNL A   1      49.899  26.823  30.906  1.00  0.00     0.023 A 
ATOM     92  C   UNL A   1      50.748  27.666  30.165  1.00  0.00     0.012 A 
ATOM     93  C   UNL A   1      50.452  25.784  31.678  1.00  0.00     0.148 A 
ATOM     94  C   UNL A   1      52.129  27.476  30.189  1.00  0.00     0.002 A 
ATOM     95  C   UNL A   1      51.830  25.624  31.729  1.00  0.00     0.091 A 
ATOM     96  F   UNL A   1      49.617  25.002  32.375  1.00  0.00    -0.205 F 
ATOM     97  C   UNL A   1      52.670  26.464  30.977  1.00  0.00     0.022 A 
BRANCH  95  98
ATOM     98  S   UNL A   1      52.628  24.422  32.797  1.00  0.00     0.127 S 
ATOM     99  O   UNL A   1      51.890  23.202  32.475  1.00  0.00    -0.237 OA
ATOM    100  O   UNL A   1      54.007  24.456  32.307  1.00  0.00    -0.237 OA
ATOM    101  O   UNL A   1      52.454  24.919  34.155  1.00  0.00    -0.744 OA
ENDBRANCH  95  98
ENDBRANCH  67  91
BRANCH  79 102
ATOM    102  C   UNL A   1      45.733  30.437  35.207  1.00  0.00     0.023 A 
ATOM    103  C   UNL A   1      45.742  31.842  35.123  1.00  0.00     0.012 A 
ATOM    104  C   UNL A   1      45.846  29.814  36.466  1.00  0.00     0.148 A 
ATOM    105  C   UNL A   1      45.871  32.618  36.274  1.00  0.00     0.002 A 
ATOM    106  C   UNL A   1      45.939  30.594  37.612  1.00  0.00     0.091 A 
ATOM    107  F   UNL A   1      45.847  28.475  36.517  1.00  0.00    -0.205 F 
ATOM    108  C   UNL A   1      45.957  31.996  37.517  1.00  0.00     0.022 A 
BRANCH 106 109
ATOM    109  S   UNL A   1      45.985  29.889  39.264  1.00  0.00     0.127 S 
ATOM    110  O   UNL A   1      45.906  31.086  40.101  1.00  0.00    -0.237 OA
ATOM    111  O   UNL A   1      44.784  29.054  39.277  1.00  0.00    -0.237 OA
ATOM    112  O   UNL A   1      47.238  29.152  39.354  1.00  0.00    -0.744 OA
ENDBRANCH 106 109
ENDBRANCH  79 102
ENDBRANCH  53  54
ENDBRANCH  46  48
ENDBRANCH  45  46
ENDBRANCH  44  45
ENDBRANCH  43  44
ENDBRANCH  42  43
ENDBRANCH  41  42
ENDBRANCH  40  41
ENDBRANCH  39  40
ENDBRANCH   1  39
TORSDOF 29
ENDMDL
MODEL 2
REMARK VINA RESULT:     -10.3      1.311      1.604
REMARK SMILES C[C@H]1c2ccc(O)cc2OC(=O)[C@@H]1CC(=O)N[C@@H](CC1=c2ccccc2=NC1)C(=O)OCCOCCOCCOCCOC(=O)c1ccc(-c2c3nc(c(-c4cccc(S(=O)(=O)[O-])c4F)c4ccc([nH]4)c(-c4cccc(S(=O)(=O)[O-])c4F)c4nc(c(-c5cccc(S(=O)(=O)[O-])c5F)c5ccc2[nH]5)C=C4)C=C3)cc1
REMARK SMILES IDX 36 1 35 2 34 3 33 4 32 5 31 6 29 7 30 8 18 9 17 10 15 11
REMARK SMILES IDX 16 12 14 14 13 15 1 16 2 17 3 18 4 19 9 20 11 21 5 22 8 23
REMARK SMILES IDX 10 24 12 25 6 26 7 27 19 29 20 30 21 31 28 32 22 33 26 34
REMARK SMILES IDX 27 35 23 36 25 37 24 38 37 39 38 40 39 41 40 42 41 43 42 44
REMARK SMILES IDX 43 45 44 46 45 47 46 48 47 49 108 50 48 51 107 52 49 53
REMARK SMILES IDX 50 54 51 55 101 56 52 57 106 58 100 59 102 60 53 61 105 62
REMARK SMILES IDX 99 63 98 64 54 66 86 67 66 68 85 69 67 70 70 71 84 72 103 73
REMARK SMILES IDX 68 74 69 75 83 77 104 78 71 79 55 80 56 81 64 82 57 83 59 84
REMARK SMILES IDX 65 85 58 86 60 87 61 88 62 89 63 90 87 91 88 92 96 93 89 94
REMARK SMILES IDX 91 95 97 96 90 97 92 98 93 99 94 100 95 101 72 102 73 103
REMARK SMILES IDX 81 104 74 105 76 106 82 107 75 108 77 109 78 110 79 111
REMARK SMILES IDX 80 112
REMARK H PARENT 17 13 7 28 102 65 70 76
REMARK Flexibility Score: inf
ROOT
ATOM      1  C   UNL A   1      41.221  22.027  27.698  1.00  0.00     0.188 C 
ENDROOT
BRANCH   1   2
ATOM      2  C   UNL A   1      40.402  23.151  27.039  1.00  0.00     0.188 C 
BRANCH   2   3
ATOM      3  O   UNL A   1      38.982  23.049  26.998  1.00  0.00    -0.376 OA
BRANCH   3   4
ATOM      4  C   UNL A   1      38.282  23.729  25.952  1.00  0.00     0.202 C 
BRANCH   4   5
ATOM      5  C   UNL A   1      36.754  23.785  26.023  1.00  0.00     0.261 C 
BRANCH   5   6
ATOM      6  O   UNL A   1      36.143  23.952  24.731  1.00  0.00    -0.462 OA
BRANCH   6   7
ATOM      7  C   UNL A   1      35.223  23.027  24.385  1.00  0.00     0.329 C 
ATOM      8  O   UNL A   1      34.668  22.981  23.291  1.00  0.00    -0.250 OA
BRANCH   7   9
ATOM      9  C   UNL A   1      34.837  22.080  25.536  1.00  0.00     0.196 C 
BRANCH   9  10
ATOM     10  N   UNL A   1      33.516  22.121  26.188  1.00  0.00    -0.342 N 
ATOM     11  C   UNL A   1      32.831  23.147  26.773  1.00  0.00     0.221 C 
ATOM     12  O   UNL A   1      31.992  22.890  27.640  1.00  0.00    -0.275 OA
ATOM     13  H   UNL A   1      33.045  21.256  26.204  1.00  0.00     0.164 HD
BRANCH  11  14
ATOM     14  C   UNL A   1      32.949  24.568  26.240  1.00  0.00     0.116 C 
BRANCH  14  15
ATOM     15  C   UNL A   1      31.782  25.135  25.407  1.00  0.00     0.116 C 
ATOM     16  C   UNL A   1      31.040  26.793  23.602  1.00  0.00     0.014 C 
ATOM     17  C   UNL A   1      32.195  26.320  24.495  1.00  0.00     0.034 C 
ATOM     18  C   UNL A   1      32.676  27.458  25.365  1.00  0.00    -0.001 A 
ATOM     19  C   UNL A   1      33.638  28.376  24.933  1.00  0.00     0.011 A 
ATOM     20  C   UNL A   1      32.175  27.572  26.665  1.00  0.00     0.138 A 
ATOM     21  C   UNL A   1      30.709  25.686  26.306  1.00  0.00     0.315 C 
ATOM     22  C   UNL A   1      34.134  29.338  25.819  1.00  0.00     0.047 A 
ATOM     23  C   UNL A   1      32.690  28.492  27.571  1.00  0.00     0.093 A 
ATOM     24  O   UNL A   1      31.105  26.763  27.093  1.00  0.00    -0.426 OA
ATOM     25  O   UNL A   1      29.597  25.177  26.402  1.00  0.00    -0.251 OA
ATOM     26  C   UNL A   1      33.678  29.366  27.136  1.00  0.00     0.119 A 
BRANCH  26  27
ATOM     27  O   UNL A   1      34.173  30.261  28.038  1.00  0.00    -0.508 OA
ATOM     28  H   UNL A   1      33.688  30.458  28.816  1.00  0.00     0.293 HD
ENDBRANCH  26  27
ENDBRANCH  14  15
ENDBRANCH  11  14
ENDBRANCH   9  10
BRANCH   9  29
ATOM     29  C   UNL A   1      35.245  20.611  25.185  1.00  0.00     0.070 C 
BRANCH  29  30
ATOM     30  C   UNL A   1      34.255  19.750  24.395  1.00  0.00    -0.037 C 
ATOM     31  C   UNL A   1      34.247  18.415  24.546  1.00  0.00     0.001 A 
ATOM     32  C   UNL A   1      32.826  20.211  24.344  1.00  0.00     0.174 C 
ATOM     33  C   UNL A   1      34.363  17.406  23.507  1.00  0.00     0.010 A 
ATOM     34  C   UNL A   1      32.929  18.273  25.242  1.00  0.00     0.065 A 
ATOM     35  N   UNL A   1      32.127  19.291  25.262  1.00  0.00    -0.280 NA
ATOM     36  C   UNL A   1      33.810  16.201  23.746  1.00  0.00     0.001 A 
ATOM     37  C   UNL A   1      32.697  16.928  25.799  1.00  0.00     0.028 A 
ATOM     38  C   UNL A   1      33.160  15.927  25.027  1.00  0.00     0.002 A 
ENDBRANCH  29  30
ENDBRANCH   9  29
ENDBRANCH   7   9
ENDBRANCH   6   7
ENDBRANCH   5   6
ENDBRANCH   4   5
ENDBRANCH   3   4
ENDBRANCH   2   3
ENDBRANCH   1   2
BRANCH   1  39
ATOM     39  O   UNL A   1      40.608  20.757  27.654  1.00  0.00    -0.377 OA
BRANCH  39  40
ATOM     40  C   UNL A   1      40.808  19.976  26.482  1.00  0.00     0.188 C 
BRANCH  40  41
ATOM     41  C   UNL A   1      42.120  19.177  26.371  1.00  0.00     0.188 C 
BRANCH  41  42
ATOM     42  O   UNL A   1      42.647  19.119  25.047  1.00  0.00    -0.376 OA
BRANCH  42  43
ATOM     43  C   UNL A   1      44.005  18.716  24.902  1.00  0.00     0.202 C 
BRANCH  43  44
ATOM     44  C   UNL A   1      44.897  19.638  24.056  1.00  0.00     0.261 C 
BRANCH  44  45
ATOM     45  O   UNL A   1      45.281  20.887  24.655  1.00  0.00    -0.460 OA
BRANCH  45  46
ATOM     46  C   UNL A   1      44.805  22.039  24.135  1.00  0.00     0.338 C 
ATOM     47  O   UNL A   1      44.403  22.221  23.000  1.00  0.00    -0.246 OA
BRANCH  46  48
ATOM     48  C   UNL A   1      44.655  22.991  25.256  1.00  0.00     0.060 A 
ATOM     49  C   UNL A   1      44.639  22.536  26.578  1.00  0.00     0.016 A 
ATOM     50  C   UNL A   1      44.494  24.353  24.973  1.00  0.00     0.016 A 
ATOM     51  C   UNL A   1      44.499  23.454  27.621  1.00  0.00     0.010 A 
ATOM     52  C   UNL A   1      44.336  25.267  26.018  1.00  0.00     0.010 A 
ATOM     53  C   UNL A   1      44.368  24.827  27.349  1.00  0.00    -0.014 A 
BRANCH  53  54
ATOM     54  C   UNL A   1      44.504  25.810  28.450  1.00  0.00     0.031 A 
ATOM     55  C   UNL A   1      43.331  26.520  29.051  1.00  0.00     0.074 A 
ATOM     56  C   UNL A   1      45.751  26.074  28.886  1.00  0.00     0.049 A 
ATOM     57  N   UNL A   1      43.317  27.345  30.065  1.00  0.00    -0.248 NA
ATOM     58  C   UNL A   1      42.012  26.283  28.446  1.00  0.00     0.031 C 
ATOM     59  C   UNL A   1      46.972  25.482  28.331  1.00  0.00     0.029 A 
ATOM     60  N   UNL A   1      46.203  26.905  29.877  1.00  0.00    -0.354 N 
ATOM     61  C   UNL A   1      41.994  27.737  30.224  1.00  0.00     0.074 A 
ATOM     62  C   UNL A   1      41.234  27.066  29.189  1.00  0.00     0.031 C 
ATOM     63  C   UNL A   1      48.033  25.966  28.993  1.00  0.00     0.029 A 
ATOM     64  C   UNL A   1      47.571  26.903  30.011  1.00  0.00     0.049 A 
ATOM     65  H   UNL A   1      45.607  27.450  30.439  1.00  0.00     0.167 HD
ATOM     66  C   UNL A   1      41.470  28.564  31.159  1.00  0.00     0.034 A 
ATOM     67  C   UNL A   1      48.370  27.570  30.864  1.00  0.00     0.034 A 
ATOM     68  C   UNL A   1      42.233  29.216  32.195  1.00  0.00     0.049 A 
ATOM     69  C   UNL A   1      47.758  28.455  31.907  1.00  0.00     0.074 A 
ATOM     70  C   UNL A   1      41.768  30.016  33.227  1.00  0.00     0.029 A 
ATOM     71  N   UNL A   1      43.611  29.157  32.328  1.00  0.00    -0.354 N 
ATOM     72  N   UNL A   1      46.491  28.701  32.130  1.00  0.00    -0.248 NA
ATOM     73  C   UNL A   1      48.676  29.126  32.839  1.00  0.00     0.031 C 
ATOM     74  C   UNL A   1      42.866  30.448  33.976  1.00  0.00     0.029 A 
ATOM     75  C   UNL A   1      44.014  29.907  33.422  1.00  0.00     0.049 A 
ATOM     76  H   UNL A   1      44.215  28.656  31.733  1.00  0.00     0.167 HD
ATOM     77  C   UNL A   1      46.454  29.533  33.241  1.00  0.00     0.074 A 
ATOM     78  C   UNL A   1      47.828  29.742  33.654  1.00  0.00     0.031 C 
ATOM     79  C   UNL A   1      45.377  30.077  33.855  1.00  0.00     0.034 A 
BRANCH  66  80
ATOM     80  C   UNL A   1      39.980  28.770  31.176  1.00  0.00     0.023 A 
ATOM     81  C   UNL A   1      39.208  28.061  32.117  1.00  0.00     0.012 A 
ATOM     82  C   UNL A   1      39.370  29.761  30.381  1.00  0.00     0.148 A 
ATOM     83  C   UNL A   1      37.848  28.332  32.267  1.00  0.00     0.002 A 
ATOM     84  C   UNL A   1      38.019  30.044  30.555  1.00  0.00     0.091 A 
ATOM     85  F   UNL A   1      40.125  30.420  29.492  1.00  0.00    -0.205 F 
ATOM     86  C   UNL A   1      37.258  29.329  31.495  1.00  0.00     0.022 A 
BRANCH  84  87
ATOM     87  S   UNL A   1      37.171  31.351  29.659  1.00  0.00     0.127 S 
ATOM     88  O   UNL A   1      35.856  31.340  30.298  1.00  0.00    -0.237 OA
ATOM     89  O   UNL A   1      37.991  32.521  29.973  1.00  0.00    -0.237 OA
ATOM     90  O   UNL A   1      37.182  30.954  28.259  1.00  0.00    -0.744 OA
ENDBRANCH  84  87
ENDBRANCH  66  80
BRANCH  67  91
ATOM     91  C   UNL A   1      49.835  27.332  30.809  1.00  0.00     0.023 A 
ATOM     92  C   UNL A   1      50.645  28.219  30.077  1.00  0.00     0.012 A 
ATOM     93  C   UNL A   1      50.434  26.300  31.556  1.00  0.00     0.148 A 
ATOM     94  C   UNL A   1      52.033  28.080  30.084  1.00  0.00     0.002 A 
ATOM     95  C   UNL A   1      51.818  26.190  31.591  1.00  0.00     0.091 A 
ATOM     96  F   UNL A   1      49.635  25.474  32.246  1.00  0.00    -0.205 F 
ATOM     97  C   UNL A   1      52.619  27.073  30.848  1.00  0.00     0.022 A 
BRANCH  95  98
ATOM     98  S   UNL A   1      52.670  24.998  32.628  1.00  0.00     0.127 S 
ATOM     99  O   UNL A   1      54.031  25.061  32.098  1.00  0.00    -0.237 OA
ATOM    100  O   UNL A   1      52.499  25.584  33.958  1.00  0.00    -0.237 OA
ATOM    101  O   UNL A   1      51.979  23.731  32.429  1.00  0.00    -0.744 OA
ENDBRANCH  95  98
ENDBRANCH  67  91
BRANCH  79 102
ATOM    102  C   UNL A   1      45.616  30.947  35.057  1.00  0.00     0.023 A 
ATOM    103  C   UNL A   1      45.689  30.360  36.335  1.00  0.00     0.012 A 
ATOM    104  C   UNL A   1      45.875  32.324  34.908  1.00  0.00     0.148 A 
ATOM    105  C   UNL A   1      46.007  31.132  37.451  1.00  0.00     0.002 A 
ATOM    106  C   UNL A   1      46.226  33.080  36.020  1.00  0.00     0.091 A 
ATOM    107  F   UNL A   1      45.786  32.860  33.683  1.00  0.00    -0.205 F 
ATOM    108  C   UNL A   1      46.287  32.488  37.292  1.00  0.00     0.022 A 
BRANCH 106 109
ATOM    109  S   UNL A   1      46.671  34.817  35.908  1.00  0.00     0.127 S 
ATOM    110  O   UNL A   1      46.879  35.162  37.314  1.00  0.00    -0.237 OA
ATOM    111  O   UNL A   1      47.892  34.772  35.104  1.00  0.00    -0.237 OA
ATOM    112  O   UNL A   1      45.546  35.483  35.267  1.00  0.00    -0.744 OA
ENDBRANCH 106 109
ENDBRANCH  79 102
ENDBRANCH  53  54
ENDBRANCH  46  48
ENDBRANCH  45  46
ENDBRANCH  44  45
ENDBRANCH  43  44
ENDBRANCH  42  43
ENDBRANCH  41  42
ENDBRANCH  40  41
ENDBRANCH  39  40
ENDBRANCH   1  39
TORSDOF 29
ENDMDL
MODEL 3
REMARK VINA RESULT:     -10.0      2.257      7.529
REMARK SMILES C[C@H]1c2ccc(O)cc2OC(=O)[C@@H]1CC(=O)N[C@@H](CC1=c2ccccc2=NC1)C(=O)OCCOCCOCCOCCOC(=O)c1ccc(-c2c3nc(c(-c4cccc(S(=O)(=O)[O-])c4F)c4ccc([nH]4)c(-c4cccc(S(=O)(=O)[O-])c4F)c4nc(c(-c5cccc(S(=O)(=O)[O-])c5F)c5ccc2[nH]5)C=C4)C=C3)cc1
REMARK SMILES IDX 36 1 35 2 34 3 33 4 32 5 31 6 29 7 30 8 18 9 17 10 15 11
REMARK SMILES IDX 16 12 14 14 13 15 1 16 2 17 3 18 4 19 9 20 11 21 5 22 8 23
REMARK SMILES IDX 10 24 12 25 6 26 7 27 19 29 20 30 21 31 28 32 22 33 26 34
REMARK SMILES IDX 27 35 23 36 25 37 24 38 37 39 38 40 39 41 40 42 41 43 42 44
REMARK SMILES IDX 43 45 44 46 45 47 46 48 47 49 108 50 48 51 107 52 49 53
REMARK SMILES IDX 50 54 51 55 101 56 52 57 106 58 100 59 102 60 53 61 105 62
REMARK SMILES IDX 99 63 98 64 54 66 86 67 66 68 85 69 67 70 70 71 84 72 103 73
REMARK SMILES IDX 68 74 69 75 83 77 104 78 71 79 55 80 56 81 64 82 57 83 59 84
REMARK SMILES IDX 65 85 58 86 60 87 61 88 62 89 63 90 87 91 88 92 96 93 89 94
REMARK SMILES IDX 91 95 97 96 90 97 92 98 93 99 94 100 95 101 72 102 73 103
REMARK SMILES IDX 81 104 74 105 76 106 82 107 75 108 77 109 78 110 79 111
REMARK SMILES IDX 80 112
REMARK H PARENT 17 13 7 28 102 65 70 76
REMARK Flexibility Score: inf
ROOT
ATOM      1  C   UNL A   1      41.354  22.028  27.504  1.00  0.00     0.188 C 
ENDROOT
BRANCH   1   2
ATOM      2  C   UNL A   1      40.477  23.072  26.789  1.00  0.00     0.188 C 
BRANCH   2   3
ATOM      3  O   UNL A   1      39.059  22.996  26.913  1.00  0.00    -0.376 OA
BRANCH   3   4
ATOM      4  C   UNL A   1      38.260  23.871  26.112  1.00  0.00     0.202 C 
BRANCH   4   5
ATOM      5  C   UNL A   1      36.781  23.526  25.922  1.00  0.00     0.261 C 
BRANCH   5   6
ATOM      6  O   UNL A   1      36.235  24.071  24.706  1.00  0.00    -0.462 OA
BRANCH   6   7
ATOM      7  C   UNL A   1      35.742  23.177  23.824  1.00  0.00     0.329 C 
ATOM      8  O   UNL A   1      36.249  22.935  22.732  1.00  0.00    -0.250 OA
BRANCH   7   9
ATOM      9  C   UNL A   1      34.405  22.552  24.260  1.00  0.00     0.196 C 
BRANCH   9  10
ATOM     10  N   UNL A   1      33.168  22.697  23.474  1.00  0.00    -0.342 N 
ATOM     11  C   UNL A   1      32.182  23.642  23.511  1.00  0.00     0.221 C 
ATOM     12  O   UNL A   1      31.051  23.342  23.122  1.00  0.00    -0.275 OA
ATOM     13  H   UNL A   1      33.027  21.989  22.804  1.00  0.00     0.164 HD
BRANCH  11  14
ATOM     14  C   UNL A   1      32.504  25.093  23.838  1.00  0.00     0.116 C 
BRANCH  14  15
ATOM     15  C   UNL A   1      33.348  25.900  22.832  1.00  0.00     0.116 C 
ATOM     16  C   UNL A   1      34.436  28.146  22.257  1.00  0.00     0.014 C 
ATOM     17  C   UNL A   1      33.506  27.393  23.220  1.00  0.00     0.034 C 
ATOM     18  C   UNL A   1      32.141  28.041  23.230  1.00  0.00    -0.001 A 
ATOM     19  C   UNL A   1      31.828  29.115  24.069  1.00  0.00     0.011 A 
ATOM     20  C   UNL A   1      31.141  27.519  22.405  1.00  0.00     0.138 A 
ATOM     21  C   UNL A   1      32.689  25.912  21.479  1.00  0.00     0.315 C 
ATOM     22  C   UNL A   1      30.517  29.599  24.124  1.00  0.00     0.047 A 
ATOM     23  C   UNL A   1      29.824  27.959  22.482  1.00  0.00     0.093 A 
ATOM     24  O   UNL A   1      31.447  26.538  21.443  1.00  0.00    -0.426 OA
ATOM     25  O   UNL A   1      33.167  25.345  20.503  1.00  0.00    -0.251 OA
ATOM     26  C   UNL A   1      29.523  28.997  23.354  1.00  0.00     0.119 A 
BRANCH  26  27
ATOM     27  O   UNL A   1      28.227  29.414  23.419  1.00  0.00    -0.508 OA
ATOM     28  H   UNL A   1      27.635  29.010  24.024  1.00  0.00     0.293 HD
ENDBRANCH  26  27
ENDBRANCH  14  15
ENDBRANCH  11  14
ENDBRANCH   9  10
BRANCH   9  29
ATOM     29  C   UNL A   1      34.622  21.065  24.696  1.00  0.00     0.070 C 
BRANCH  29  30
ATOM     30  C   UNL A   1      33.575  20.026  24.283  1.00  0.00    -0.037 C 
ATOM     31  C   UNL A   1      33.907  18.727  24.197  1.00  0.00     0.001 A 
ATOM     32  C   UNL A   1      32.224  20.109  24.935  1.00  0.00     0.174 C 
ATOM     33  C   UNL A   1      33.731  17.841  23.059  1.00  0.00     0.010 A 
ATOM     34  C   UNL A   1      33.119  18.213  25.362  1.00  0.00     0.065 A 
ATOM     35  N   UNL A   1      32.231  18.990  25.898  1.00  0.00    -0.280 NA
ATOM     36  C   UNL A   1      33.606  16.523  23.310  1.00  0.00     0.001 A 
ATOM     37  C   UNL A   1      33.447  16.825  25.732  1.00  0.00     0.028 A 
ATOM     38  C   UNL A   1      33.692  16.021  24.681  1.00  0.00     0.002 A 
ENDBRANCH  29  30
ENDBRANCH   9  29
ENDBRANCH   7   9
ENDBRANCH   6   7
ENDBRANCH   5   6
ENDBRANCH   4   5
ENDBRANCH   3   4
ENDBRANCH   2   3
ENDBRANCH   1   2
BRANCH   1  39
ATOM     39  O   UNL A   1      40.785  20.738  27.573  1.00  0.00    -0.377 OA
BRANCH  39  40
ATOM     40  C   UNL A   1      40.838  19.938  26.398  1.00  0.00     0.188 C 
BRANCH  40  41
ATOM     41  C   UNL A   1      42.073  19.039  26.201  1.00  0.00     0.188 C 
BRANCH  41  42
ATOM     42  O   UNL A   1      42.807  19.325  25.012  1.00  0.00    -0.376 OA
BRANCH  42  43
ATOM     43  C   UNL A   1      44.101  18.744  24.889  1.00  0.00     0.202 C 
BRANCH  43  44
ATOM     44  C   UNL A   1      45.151  19.583  24.145  1.00  0.00     0.261 C 
BRANCH  44  45
ATOM     45  O   UNL A   1      45.462  20.870  24.706  1.00  0.00    -0.460 OA
BRANCH  45  46
ATOM     46  C   UNL A   1      44.894  21.973  24.174  1.00  0.00     0.338 C 
ATOM     47  O   UNL A   1      44.400  22.083  23.065  1.00  0.00    -0.246 OA
BRANCH  46  48
ATOM     48  C   UNL A   1      44.783  22.971  25.259  1.00  0.00     0.060 A 
ATOM     49  C   UNL A   1      44.783  22.568  26.597  1.00  0.00     0.016 A 
ATOM     50  C   UNL A   1      44.643  24.324  24.926  1.00  0.00     0.016 A 
ATOM     51  C   UNL A   1      44.681  23.528  27.606  1.00  0.00     0.010 A 
ATOM     52  C   UNL A   1      44.523  25.281  25.937  1.00  0.00     0.010 A 
ATOM     53  C   UNL A   1      44.571  24.892  27.283  1.00  0.00    -0.014 A 
BRANCH  53  54
ATOM     54  C   UNL A   1      44.746  25.913  28.342  1.00  0.00     0.031 A 
ATOM     55  C   UNL A   1      46.090  26.306  28.874  1.00  0.00     0.074 A 
ATOM     56  C   UNL A   1      43.629  26.473  28.846  1.00  0.00     0.049 A 
ATOM     57  N   UNL A   1      46.375  27.237  29.747  1.00  0.00    -0.248 NA
ATOM     58  C   UNL A   1      47.259  25.568  28.374  1.00  0.00     0.031 C 
ATOM     59  C   UNL A   1      42.264  26.123  28.443  1.00  0.00     0.029 A 
ATOM     60  N   UNL A   1      43.457  27.437  29.805  1.00  0.00    -0.354 N 
ATOM     61  C   UNL A   1      47.753  27.200  29.912  1.00  0.00     0.074 A 
ATOM     62  C   UNL A   1      48.247  26.142  29.054  1.00  0.00     0.031 C 
ATOM     63  C   UNL A   1      41.396  26.864  29.145  1.00  0.00     0.029 A 
ATOM     64  C   UNL A   1      42.138  27.735  30.050  1.00  0.00     0.049 A 
ATOM     65  H   UNL A   1      44.204  27.874  30.272  1.00  0.00     0.167 HD
ATOM     66  C   UNL A   1      48.526  27.992  30.692  1.00  0.00     0.034 A 
ATOM     67  C   UNL A   1      41.580  28.619  30.898  1.00  0.00     0.034 A 
ATOM     68  C   UNL A   1      48.026  29.053  31.531  1.00  0.00     0.049 A 
ATOM     69  C   UNL A   1      42.464  29.501  31.727  1.00  0.00     0.074 A 
ATOM     70  C   UNL A   1      48.751  29.949  32.302  1.00  0.00     0.029 A 
ATOM     71  N   UNL A   1      46.688  29.357  31.722  1.00  0.00    -0.354 N 
ATOM     72  N   UNL A   1      43.772  29.547  31.762  1.00  0.00    -0.248 NA
ATOM     73  C   UNL A   1      41.801  30.476  32.605  1.00  0.00     0.031 C 
ATOM     74  C   UNL A   1      47.849  30.786  32.965  1.00  0.00     0.029 A 
ATOM     75  C   UNL A   1      46.564  30.423  32.598  1.00  0.00     0.049 A 
ATOM     76  H   UNL A   1      45.936  28.884  31.297  1.00  0.00     0.167 HD
ATOM     77  C   UNL A   1      44.093  30.571  32.644  1.00  0.00     0.074 A 
ATOM     78  C   UNL A   1      42.841  31.127  33.114  1.00  0.00     0.031 C 
ATOM     79  C   UNL A   1      45.317  31.001  33.030  1.00  0.00     0.034 A 
BRANCH  66  80
ATOM     80  C   UNL A   1      50.019  27.810  30.637  1.00  0.00     0.023 A 
ATOM     81  C   UNL A   1      50.772  28.643  29.785  1.00  0.00     0.012 A 
ATOM     82  C   UNL A   1      50.684  26.940  31.523  1.00  0.00     0.148 A 
ATOM     83  C   UNL A   1      52.166  28.611  29.812  1.00  0.00     0.002 A 
ATOM     84  C   UNL A   1      52.074  26.933  31.564  1.00  0.00     0.091 A 
ATOM     85  F   UNL A   1      49.946  26.157  32.322  1.00  0.00    -0.205 F 
ATOM     86  C   UNL A   1      52.815  27.765  30.708  1.00  0.00     0.022 A 
BRANCH  84  87
ATOM     87  S   UNL A   1      53.012  25.929  32.722  1.00  0.00     0.127 S 
ATOM     88  O   UNL A   1      52.622  24.577  32.323  1.00  0.00    -0.237 OA
ATOM     89  O   UNL A   1      54.392  26.287  32.391  1.00  0.00    -0.237 OA
ATOM     90  O   UNL A   1      52.577  26.332  34.052  1.00  0.00    -0.744 OA
ENDBRANCH  84  87
ENDBRANCH  66  80
BRANCH  67  91
ATOM     91  C   UNL A   1      40.102  28.762  30.916  1.00  0.00     0.023 A 
ATOM     92  C   UNL A   1      39.366  28.131  31.936  1.00  0.00     0.012 A 
ATOM     93  C   UNL A   1      39.440  29.596  29.995  1.00  0.00     0.148 A 
ATOM     94  C   UNL A   1      37.988  28.325  32.037  1.00  0.00     0.002 A 
ATOM     95  C   UNL A   1      38.075  29.815  30.124  1.00  0.00     0.091 A 
ATOM     96  F   UNL A   1      40.170  30.185  29.038  1.00  0.00    -0.205 F 
ATOM     97  C   UNL A   1      37.346  29.173  31.139  1.00  0.00     0.022 A 
BRANCH  95  98
ATOM     98  S   UNL A   1      37.177  30.972  29.086  1.00  0.00     0.127 S 
ATOM     99  O   UNL A   1      37.141  30.262  27.809  1.00  0.00    -0.237 OA
ATOM    100  O   UNL A   1      35.891  31.059  29.780  1.00  0.00    -0.237 OA
ATOM    101  O   UNL A   1      37.956  32.203  29.096  1.00  0.00    -0.744 OA
ENDBRANCH  95  98
ENDBRANCH  67  91
BRANCH  79 102
ATOM    102  C   UNL A   1      45.388  32.146  34.003  1.00  0.00     0.023 A 
ATOM    103  C   UNL A   1      45.494  31.878  35.381  1.00  0.00     0.012 A 
ATOM    104  C   UNL A   1      45.457  33.476  33.544  1.00  0.00     0.148 A 
ATOM    105  C   UNL A   1      45.659  32.920  36.292  1.00  0.00     0.002 A 
ATOM    106  C   UNL A   1      45.657  34.506  34.455  1.00  0.00     0.091 A 
ATOM    107  F   UNL A   1      45.341  33.704  32.228  1.00  0.00    -0.205 F 
ATOM    108  C   UNL A   1      45.753  34.231  35.829  1.00  0.00     0.022 A 
BRANCH 106 109
ATOM    109  S   UNL A   1      45.860  36.219  33.952  1.00  0.00     0.127 S 
ATOM    110  O   UNL A   1      47.032  36.136  33.080  1.00  0.00    -0.237 OA
ATOM    111  O   UNL A   1      44.601  36.489  33.259  1.00  0.00    -0.237 OA
ATOM    112  O   UNL A   1      46.054  36.980  35.179  1.00  0.00    -0.744 OA
ENDBRANCH 106 109
ENDBRANCH  79 102
ENDBRANCH  53  54
ENDBRANCH  46  48
ENDBRANCH  45  46
ENDBRANCH  44  45
ENDBRANCH  43  44
ENDBRANCH  42  43
ENDBRANCH  41  42
ENDBRANCH  40  41
ENDBRANCH  39  40
ENDBRANCH   1  39
TORSDOF 29
ENDMDL
