MODEL 1
REMARK VINA RESULT:     -10.3      0.000      0.000
REMARK SMILES O=C(OCCOCCOCCOCCOC(=O)c1ccc(-c2c3nc(c(-c4cccc(S(=O)(=O)[O-])c4F)c4ccc([nH]4)c(-c4cccc(S(=O)(=O)[O-])c4F)c4nc(c(-c5cccc(S(=O)(=O)[O-])c5F)c5ccc2[nH]5)C=C4)C=C3)cc1)C1=Cc2c(ccc(Cl)c2-c2ccccc2)O[C@H]1C(F)(F)F
REMARK SMILES IDX 10 1 9 2 8 3 7 4 6 5 5 6 4 7 3 8 2 9 1 10 81 11 82 12 97 13
REMARK SMILES IDX 83 14 96 15 84 16 89 17 85 18 87 19 86 20 88 21 98 22 99 23
REMARK SMILES IDX 100 24 101 25 90 26 91 27 95 28 92 29 94 30 93 31 11 32
REMARK SMILES IDX 12 33 13 34 14 35 15 36 16 37 17 38 18 39 19 40 80 41 20 42
REMARK SMILES IDX 79 43 21 44 22 45 23 46 73 47 24 48 78 49 72 50 74 51 25 52
REMARK SMILES IDX 77 53 71 54 70 55 26 57 58 58 38 59 57 60 39 61 42 62 56 63
REMARK SMILES IDX 75 64 40 65 41 66 55 68 76 69 43 70 27 71 28 72 36 73 29 74
REMARK SMILES IDX 31 75 37 76 30 77 32 78 33 79 34 80 35 81 59 82 60 83 68 84
REMARK SMILES IDX 61 85 63 86 69 87 62 88 64 89 65 90 66 91 67 92 44 93 45 94
REMARK SMILES IDX 53 95 46 96 48 97 54 98 47 99 49 100 50 101 51 102 52 103
REMARK H PARENT 74 56 42 67
REMARK Flexibility Score: inf
ROOT
ATOM      1  C   UNL A   1      33.878  31.694  27.933  1.00  0.00     0.188 C 
ENDROOT
BRANCH   1   2
ATOM      2  O   UNL A   1      32.787  30.832  27.419  1.00  0.00    -0.377 OA
BRANCH   2   3
ATOM      3  C   UNL A   1      31.846  29.557  26.252  1.00  0.00     0.188 C 
BRANCH   3   4
ATOM      4  C   UNL A   1      31.445  29.540  24.640  1.00  0.00     0.188 C 
BRANCH   4   5
ATOM      5  O   UNL A   1      32.101  28.716  23.683  1.00  0.00    -0.376 OA
BRANCH   5   6
ATOM      6  C   UNL A   1      31.296  27.966  22.810  1.00  0.00     0.202 C 
BRANCH   6   7
ATOM      7  C   UNL A   1      31.083  26.458  23.062  1.00  0.00     0.261 C 
BRANCH   7   8
ATOM      8  O   UNL A   1      32.320  25.736  22.882  1.00  0.00    -0.460 OA
BRANCH   8   9
ATOM      9  C   UNL A   1      33.126  25.360  23.903  1.00  0.00     0.338 C 
ATOM     10  O   UNL A   1      34.001  26.114  24.314  1.00  0.00    -0.246 OA
BRANCH   9  11
ATOM     11  C   UNL A   1      32.917  24.064  24.582  1.00  0.00     0.087 C 
ATOM     12  C   UNL A   1      33.825  23.437  25.342  1.00  0.00     0.028 C 
ATOM     13  C   UNL A   1      31.508  23.729  24.971  1.00  0.00     0.316 C 
ATOM     14  C   UNL A   1      33.807  22.002  25.159  1.00  0.00     0.027 A 
ATOM     15  O   UNL A   1      31.352  22.265  25.074  1.00  0.00    -0.475 OA
ATOM     16  C   UNL A   1      32.498  21.484  24.976  1.00  0.00     0.128 A 
ATOM     17  C   UNL A   1      35.018  21.251  25.109  1.00  0.00     0.011 A 
ATOM     18  C   UNL A   1      32.353  20.149  24.673  1.00  0.00     0.049 A 
ATOM     19  C   UNL A   1      34.807  19.896  24.782  1.00  0.00     0.049 A 
ATOM     20  C   UNL A   1      33.506  19.368  24.556  1.00  0.00     0.025 A 
ATOM     21  Cl  UNL A   1      36.083  18.734  24.674  1.00  0.00    -0.084 Cl
BRANCH  13  22
ATOM     22  C   UNL A   1      31.156  24.500  26.280  1.00  0.00     0.430 C 
ATOM     23  F   UNL A   1      32.078  25.460  26.580  1.00  0.00    -0.167 F 
ATOM     24  F   UNL A   1      29.963  25.129  26.206  1.00  0.00    -0.167 F 
ATOM     25  F   UNL A   1      31.121  23.681  27.359  1.00  0.00    -0.167 F 
ENDBRANCH  13  22
BRANCH  17  26
ATOM     26  C   UNL A   1      36.400  21.854  25.411  1.00  0.00    -0.016 A 
ATOM     27  C   UNL A   1      37.896  20.814  25.390  1.00  0.00     0.009 A 
ATOM     28  C   UNL A   1      36.572  23.571  26.014  1.00  0.00     0.009 A 
ATOM     29  C   UNL A   1      39.480  21.414  26.042  1.00  0.00     0.001 A 
ATOM     30  C   UNL A   1      38.164  24.181  26.685  1.00  0.00     0.001 A 
ATOM     31  C   UNL A   1      39.619  23.103  26.675  1.00  0.00     0.000 A 
ENDBRANCH  17  26
ENDBRANCH   9  11
ENDBRANCH   8   9
ENDBRANCH   7   8
ENDBRANCH   6   7
ENDBRANCH   5   6
ENDBRANCH   4   5
ENDBRANCH   3   4
ENDBRANCH   2   3
ENDBRANCH   1   2
BRANCH   1  32
ATOM     32  C   UNL A   1      33.849  33.074  28.657  1.00  0.00     0.188 C 
BRANCH  32  33
ATOM     33  O   UNL A   1      34.009  33.250  30.053  1.00  0.00    -0.376 OA
BRANCH  33  34
ATOM     34  C   UNL A   1      35.148  32.927  30.821  1.00  0.00     0.202 C 
BRANCH  34  35
ATOM     35  C   UNL A   1      36.468  32.292  30.347  1.00  0.00     0.261 C 
BRANCH  35  36
ATOM     36  O   UNL A   1      37.263  31.616  31.308  1.00  0.00    -0.460 OA
BRANCH  36  37
ATOM     37  C   UNL A   1      37.153  30.263  31.321  1.00  0.00     0.338 C 
ATOM     38  O   UNL A   1      36.216  29.607  30.934  1.00  0.00    -0.246 OA
BRANCH  37  39
ATOM     39  C   UNL A   1      38.496  29.717  31.649  1.00  0.00     0.060 A 
ATOM     40  C   UNL A   1      39.598  30.539  31.381  1.00  0.00     0.016 A 
ATOM     41  C   UNL A   1      38.669  28.491  32.300  1.00  0.00     0.016 A 
ATOM     42  C   UNL A   1      40.879  30.138  31.749  1.00  0.00     0.010 A 
ATOM     43  C   UNL A   1      39.961  28.064  32.623  1.00  0.00     0.010 A 
ATOM     44  C   UNL A   1      41.072  28.871  32.309  1.00  0.00    -0.014 A 
BRANCH  44  45
ATOM     45  C   UNL A   1      42.419  28.262  32.213  1.00  0.00     0.031 A 
ATOM     46  C   UNL A   1      43.264  28.313  33.457  1.00  0.00     0.074 A 
ATOM     47  C   UNL A   1      42.880  27.674  31.097  1.00  0.00     0.049 A 
ATOM     48  N   UNL A   1      44.492  27.913  33.646  1.00  0.00    -0.248 NA
ATOM     49  C   UNL A   1      42.634  28.906  34.653  1.00  0.00     0.031 C 
ATOM     50  C   UNL A   1      42.144  27.530  29.844  1.00  0.00     0.029 A 
ATOM     51  N   UNL A   1      44.104  27.107  30.839  1.00  0.00    -0.354 N 
ATOM     52  C   UNL A   1      44.793  28.244  34.962  1.00  0.00     0.074 A 
ATOM     53  C   UNL A   1      43.623  28.872  35.529  1.00  0.00     0.031 C 
ATOM     54  C   UNL A   1      42.945  26.942  28.936  1.00  0.00     0.029 A 
ATOM     55  C   UNL A   1      44.260  26.705  29.533  1.00  0.00     0.049 A 
ATOM     56  H   UNL A   1      44.803  26.998  31.524  1.00  0.00     0.167 HD
ATOM     57  C   UNL A   1      45.943  28.047  35.642  1.00  0.00     0.034 A 
ATOM     58  C   UNL A   1      45.353  26.240  28.892  1.00  0.00     0.034 A 
ATOM     59  C   UNL A   1      47.106  27.426  35.079  1.00  0.00     0.049 A 
ATOM     60  C   UNL A   1      46.644  26.074  29.661  1.00  0.00     0.074 A 
ATOM     61  C   UNL A   1      48.310  27.147  35.694  1.00  0.00     0.029 A 
ATOM     62  N   UNL A   1      47.219  27.016  33.760  1.00  0.00    -0.354 N 
ATOM     63  N   UNL A   1      46.886  26.294  30.932  1.00  0.00    -0.248 NA
ATOM     64  C   UNL A   1      47.809  25.577  28.912  1.00  0.00     0.031 C 
ATOM     65  C   UNL A   1      49.173  26.613  34.733  1.00  0.00     0.029 A 
ATOM     66  C   UNL A   1      48.484  26.507  33.534  1.00  0.00     0.049 A 
ATOM     67  H   UNL A   1      46.505  27.076  33.085  1.00  0.00     0.167 HD
ATOM     68  C   UNL A   1      48.215  25.931  31.139  1.00  0.00     0.074 A 
ATOM     69  C   UNL A   1      48.720  25.458  29.868  1.00  0.00     0.031 C 
ATOM     70  C   UNL A   1      48.954  25.993  32.274  1.00  0.00     0.034 A 
BRANCH  57  71
ATOM     71  C   UNL A   1      46.003  28.536  37.062  1.00  0.00     0.023 A 
ATOM     72  C   UNL A   1      46.162  29.910  37.335  1.00  0.00     0.012 A 
ATOM     73  C   UNL A   1      45.871  27.627  38.130  1.00  0.00     0.148 A 
ATOM     74  C   UNL A   1      46.222  30.368  38.649  1.00  0.00     0.002 A 
ATOM     75  C   UNL A   1      45.877  28.097  39.435  1.00  0.00     0.091 A 
ATOM     76  F   UNL A   1      45.753  26.322  37.847  1.00  0.00    -0.205 F 
ATOM     77  C   UNL A   1      46.066  29.464  39.698  1.00  0.00     0.022 A 
BRANCH  75  78
ATOM     78  S   UNL A   1      45.603  27.027  40.849  1.00  0.00     0.127 S 
ATOM     79  O   UNL A   1      46.453  25.882  40.521  1.00  0.00    -0.237 OA
ATOM     80  O   UNL A   1      46.092  27.852  41.954  1.00  0.00    -0.237 OA
ATOM     81  O   UNL A   1      44.174  26.750  40.878  1.00  0.00    -0.744 OA
ENDBRANCH  75  78
ENDBRANCH  57  71
BRANCH  58  82
ATOM     82  C   UNL A   1      45.294  25.909  27.438  1.00  0.00     0.023 A 
ATOM     83  C   UNL A   1      45.621  26.889  26.480  1.00  0.00     0.012 A 
ATOM     84  C   UNL A   1      44.895  24.630  26.999  1.00  0.00     0.148 A 
ATOM     85  C   UNL A   1      45.514  26.615  25.115  1.00  0.00     0.002 A 
ATOM     86  C   UNL A   1      44.850  24.345  25.640  1.00  0.00     0.091 A 
ATOM     87  F   UNL A   1      44.565  23.718  27.923  1.00  0.00    -0.205 F 
ATOM     88  C   UNL A   1      45.139  25.341  24.695  1.00  0.00     0.022 A 
BRANCH  86  89
ATOM     89  S   UNL A   1      44.499  22.699  25.011  1.00  0.00     0.127 S 
ATOM     90  O   UNL A   1      45.004  21.852  26.087  1.00  0.00    -0.237 OA
ATOM     91  O   UNL A   1      43.041  22.734  24.885  1.00  0.00    -0.237 OA
ATOM     92  O   UNL A   1      45.209  22.600  23.744  1.00  0.00    -0.744 OA
ENDBRANCH  86  89
ENDBRANCH  58  82
BRANCH  70  93
ATOM     93  C   UNL A   1      50.377  25.496  32.225  1.00  0.00     0.023 A 
ATOM     94  C   UNL A   1      51.426  26.381  31.915  1.00  0.00     0.012 A 
ATOM     95  C   UNL A   1      50.676  24.169  32.594  1.00  0.00     0.148 A 
ATOM     96  C   UNL A   1      52.752  25.945  31.945  1.00  0.00     0.002 A 
ATOM     97  C   UNL A   1      51.999  23.757  32.675  1.00  0.00     0.091 A 
ATOM     98  F   UNL A   1      49.660  23.340  32.877  1.00  0.00    -0.205 F 
ATOM     99  C   UNL A   1      53.039  24.639  32.337  1.00  0.00     0.022 A 
BRANCH  97 100
ATOM    100  S   UNL A   1      52.471  22.128  33.268  1.00  0.00     0.127 S 
ATOM    101  O   UNL A   1      53.763  22.403  33.895  1.00  0.00    -0.237 OA
ATOM    102  O   UNL A   1      51.391  21.817  34.205  1.00  0.00    -0.237 OA
ATOM    103  O   UNL A   1      52.523  21.268  32.094  1.00  0.00    -0.744 OA
ENDBRANCH  97 100
ENDBRANCH  70  93
ENDBRANCH  44  45
ENDBRANCH  37  39
ENDBRANCH  36  37
ENDBRANCH  35  36
ENDBRANCH  34  35
ENDBRANCH  33  34
ENDBRANCH  32  33
ENDBRANCH   1  32
TORSDOF 25
ENDMDL
MODEL 2
REMARK VINA RESULT:     -10.2     12.773     18.365
REMARK SMILES O=C(OCCOCCOCCOCCOC(=O)c1ccc(-c2c3nc(c(-c4cccc(S(=O)(=O)[O-])c4F)c4ccc([nH]4)c(-c4cccc(S(=O)(=O)[O-])c4F)c4nc(c(-c5cccc(S(=O)(=O)[O-])c5F)c5ccc2[nH]5)C=C4)C=C3)cc1)C1=Cc2c(ccc(Cl)c2-c2ccccc2)O[C@H]1C(F)(F)F
REMARK SMILES IDX 10 1 9 2 8 3 7 4 6 5 5 6 4 7 3 8 2 9 1 10 81 11 82 12 97 13
REMARK SMILES IDX 83 14 96 15 84 16 89 17 85 18 87 19 86 20 88 21 98 22 99 23
REMARK SMILES IDX 100 24 101 25 90 26 91 27 95 28 92 29 94 30 93 31 11 32
REMARK SMILES IDX 12 33 13 34 14 35 15 36 16 37 17 38 18 39 19 40 80 41 20 42
REMARK SMILES IDX 79 43 21 44 22 45 23 46 73 47 24 48 78 49 72 50 74 51 25 52
REMARK SMILES IDX 77 53 71 54 70 55 26 57 58 58 38 59 57 60 39 61 42 62 56 63
REMARK SMILES IDX 75 64 40 65 41 66 55 68 76 69 43 70 27 71 28 72 36 73 29 74
REMARK SMILES IDX 31 75 37 76 30 77 32 78 33 79 34 80 35 81 59 82 60 83 68 84
REMARK SMILES IDX 61 85 63 86 69 87 62 88 64 89 65 90 66 91 67 92 44 93 45 94
REMARK SMILES IDX 53 95 46 96 48 97 54 98 47 99 49 100 50 101 51 102 52 103
REMARK H PARENT 74 56 42 67
REMARK Flexibility Score: inf
ROOT
ATOM      1  C   UNL A   1      44.526  41.910  27.943  1.00  0.00     0.188 C 
ENDROOT
BRANCH   1   2
ATOM      2  O   UNL A   1      45.655  42.846  28.158  1.00  0.00    -0.377 OA
BRANCH   2   3
ATOM      3  C   UNL A   1      47.473  43.590  28.043  1.00  0.00     0.188 C 
BRANCH   3   4
ATOM      4  C   UNL A   1      48.149  44.884  27.249  1.00  0.00     0.188 C 
BRANCH   4   5
ATOM      5  O   UNL A   1      47.530  45.526  26.140  1.00  0.00    -0.376 OA
BRANCH   5   6
ATOM      6  C   UNL A   1      47.204  44.730  25.029  1.00  0.00     0.202 C 
BRANCH   6   7
ATOM      7  C   UNL A   1      47.757  45.093  23.634  1.00  0.00     0.261 C 
BRANCH   7   8
ATOM      8  O   UNL A   1      46.740  45.740  22.840  1.00  0.00    -0.460 OA
BRANCH   8   9
ATOM      9  C   UNL A   1      45.456  45.315  22.771  1.00  0.00     0.338 C 
ATOM     10  O   UNL A   1      44.664  45.579  23.670  1.00  0.00    -0.246 OA
BRANCH   9  11
ATOM     11  C   UNL A   1      44.973  44.588  21.579  1.00  0.00     0.087 C 
ATOM     12  C   UNL A   1      45.170  44.972  20.310  1.00  0.00     0.028 C 
ATOM     13  C   UNL A   1      44.816  43.103  21.715  1.00  0.00     0.316 C 
ATOM     14  C   UNL A   1      44.019  44.724  19.470  1.00  0.00     0.027 A 
ATOM     15  O   UNL A   1      43.822  42.613  20.738  1.00  0.00    -0.475 OA
ATOM     16  C   UNL A   1      43.350  43.513  19.790  1.00  0.00     0.128 A 
ATOM     17  C   UNL A   1      43.609  45.669  18.484  1.00  0.00     0.011 A 
ATOM     18  C   UNL A   1      42.171  43.220  19.143  1.00  0.00     0.049 A 
ATOM     19  C   UNL A   1      42.390  45.321  17.867  1.00  0.00     0.049 A 
ATOM     20  C   UNL A   1      41.686  44.133  18.203  1.00  0.00     0.025 A 
ATOM     21  Cl  UNL A   1      41.658  46.261  16.614  1.00  0.00    -0.084 Cl
BRANCH  13  22
ATOM     22  C   UNL A   1      46.220  42.438  21.580  1.00  0.00     0.430 C 
ATOM     23  F   UNL A   1      46.178  41.279  20.862  1.00  0.00    -0.167 F 
ATOM     24  F   UNL A   1      47.114  43.238  20.958  1.00  0.00    -0.167 F 
ATOM     25  F   UNL A   1      46.740  42.100  22.784  1.00  0.00    -0.167 F 
ENDBRANCH  13  22
BRANCH  17  26
ATOM     26  C   UNL A   1      44.431  46.917  18.117  1.00  0.00    -0.016 A 
ATOM     27  C   UNL A   1      43.815  48.587  18.507  1.00  0.00     0.009 A 
ATOM     28  C   UNL A   1      45.936  46.789  17.088  1.00  0.00     0.009 A 
ATOM     29  C   UNL A   1      44.595  50.073  17.817  1.00  0.00     0.001 A 
ATOM     30  C   UNL A   1      46.723  48.283  16.377  1.00  0.00     0.001 A 
ATOM     31  C   UNL A   1      46.059  49.923  16.764  1.00  0.00     0.000 A 
ENDBRANCH  17  26
ENDBRANCH   9  11
ENDBRANCH   8   9
ENDBRANCH   7   8
ENDBRANCH   6   7
ENDBRANCH   5   6
ENDBRANCH   4   5
ENDBRANCH   3   4
ENDBRANCH   2   3
ENDBRANCH   1   2
BRANCH   1  32
ATOM     32  C   UNL A   1      43.922  41.303  26.640  1.00  0.00     0.188 C 
BRANCH  32  33
ATOM     33  O   UNL A   1      44.664  41.023  25.468  1.00  0.00    -0.376 OA
BRANCH  33  34
ATOM     34  C   UNL A   1      45.970  40.490  25.400  1.00  0.00     0.202 C 
BRANCH  34  35
ATOM     35  C   UNL A   1      46.510  39.207  26.057  1.00  0.00     0.261 C 
BRANCH  35  36
ATOM     36  O   UNL A   1      45.629  38.102  26.179  1.00  0.00    -0.460 OA
BRANCH  36  37
ATOM     37  C   UNL A   1      46.191  36.939  26.596  1.00  0.00     0.338 C 
ATOM     38  O   UNL A   1      47.207  36.434  26.182  1.00  0.00    -0.246 OA
BRANCH  37  39
ATOM     39  C   UNL A   1      45.483  36.529  27.837  1.00  0.00     0.060 A 
ATOM     40  C   UNL A   1      44.412  37.333  28.251  1.00  0.00     0.016 A 
ATOM     41  C   UNL A   1      45.778  35.340  28.512  1.00  0.00     0.016 A 
ATOM     42  C   UNL A   1      43.639  36.962  29.348  1.00  0.00     0.010 A 
ATOM     43  C   UNL A   1      45.035  34.994  29.645  1.00  0.00     0.010 A 
ATOM     44  C   UNL A   1      43.990  35.828  30.088  1.00  0.00    -0.014 A 
BRANCH  44  45
ATOM     45  C   UNL A   1      43.521  35.736  31.490  1.00  0.00     0.031 A 
ATOM     46  C   UNL A   1      42.312  34.872  31.733  1.00  0.00     0.074 A 
ATOM     47  C   UNL A   1      44.129  36.363  32.510  1.00  0.00     0.049 A 
ATOM     48  N   UNL A   1      41.654  34.654  32.839  1.00  0.00    -0.248 NA
ATOM     49  C   UNL A   1      41.768  34.162  30.559  1.00  0.00     0.031 C 
ATOM     50  C   UNL A   1      45.324  37.195  32.406  1.00  0.00     0.029 A 
ATOM     51  N   UNL A   1      43.797  36.409  33.842  1.00  0.00    -0.354 N 
ATOM     52  C   UNL A   1      40.600  33.820  32.486  1.00  0.00     0.074 A 
ATOM     53  C   UNL A   1      40.705  33.566  31.068  1.00  0.00     0.031 C 
ATOM     54  C   UNL A   1      45.609  37.699  33.622  1.00  0.00     0.029 A 
ATOM     55  C   UNL A   1      44.594  37.256  34.578  1.00  0.00     0.049 A 
ATOM     56  H   UNL A   1      43.060  35.886  34.233  1.00  0.00     0.167 HD
ATOM     57  C   UNL A   1      39.626  33.311  33.270  1.00  0.00     0.034 A 
ATOM     58  C   UNL A   1      44.483  37.653  35.863  1.00  0.00     0.034 A 
ATOM     59  C   UNL A   1      39.520  33.564  34.677  1.00  0.00     0.049 A 
ATOM     60  C   UNL A   1      43.355  37.108  36.709  1.00  0.00     0.074 A 
ATOM     61  C   UNL A   1      38.590  33.067  35.569  1.00  0.00     0.029 A 
ATOM     62  N   UNL A   1      40.354  34.410  35.389  1.00  0.00    -0.354 N 
ATOM     63  N   UNL A   1      42.425  36.239  36.390  1.00  0.00    -0.248 NA
ATOM     64  C   UNL A   1      43.272  37.584  38.100  1.00  0.00     0.031 C 
ATOM     65  C   UNL A   1      38.831  33.653  36.814  1.00  0.00     0.029 A 
ATOM     66  C   UNL A   1      39.946  34.470  36.709  1.00  0.00     0.049 A 
ATOM     67  H   UNL A   1      41.124  34.896  35.013  1.00  0.00     0.167 HD
ATOM     68  C   UNL A   1      41.671  36.040  37.545  1.00  0.00     0.074 A 
ATOM     69  C   UNL A   1      42.265  36.863  38.576  1.00  0.00     0.031 C 
ATOM     70  C   UNL A   1      40.581  35.257  37.734  1.00  0.00     0.034 A 
BRANCH  57  71
ATOM     71  C   UNL A   1      38.583  32.450  32.612  1.00  0.00     0.023 A 
ATOM     72  C   UNL A   1      38.747  31.051  32.557  1.00  0.00     0.012 A 
ATOM     73  C   UNL A   1      37.420  33.034  32.073  1.00  0.00     0.148 A 
ATOM     74  C   UNL A   1      37.785  30.250  31.946  1.00  0.00     0.002 A 
ATOM     75  C   UNL A   1      36.442  32.224  31.514  1.00  0.00     0.091 A 
ATOM     76  F   UNL A   1      37.301  34.369  32.108  1.00  0.00    -0.205 F 
ATOM     77  C   UNL A   1      36.628  30.834  31.437  1.00  0.00     0.022 A 
BRANCH  75  78
ATOM     78  S   UNL A   1      34.883  32.873  30.907  1.00  0.00     0.127 S 
ATOM     79  O   UNL A   1      34.019  32.707  32.075  1.00  0.00    -0.237 OA
ATOM     80  O   UNL A   1      35.231  34.260  30.597  1.00  0.00    -0.237 OA
ATOM     81  O   UNL A   1      34.528  32.059  29.752  1.00  0.00    -0.744 OA
ENDBRANCH  75  78
ENDBRANCH  57  71
BRANCH  58  82
ATOM     82  C   UNL A   1      45.453  38.630  36.439  1.00  0.00     0.023 A 
ATOM     83  C   UNL A   1      46.593  38.168  37.126  1.00  0.00     0.012 A 
ATOM     84  C   UNL A   1      45.239  40.019  36.326  1.00  0.00     0.148 A 
ATOM     85  C   UNL A   1      47.479  39.068  37.721  1.00  0.00     0.002 A 
ATOM     86  C   UNL A   1      46.157  40.910  36.868  1.00  0.00     0.091 A 
ATOM     87  F   UNL A   1      44.138  40.441  35.690  1.00  0.00    -0.205 F 
ATOM     88  C   UNL A   1      47.267  40.437  37.584  1.00  0.00     0.022 A 
BRANCH  86  89
ATOM     89  S   UNL A   1      46.032  42.686  36.633  1.00  0.00     0.127 S 
ATOM     90  O   UNL A   1      46.018  42.797  35.177  1.00  0.00    -0.237 OA
ATOM     91  O   UNL A   1      44.758  42.984  37.288  1.00  0.00    -0.237 OA
ATOM     92  O   UNL A   1      47.196  43.256  37.297  1.00  0.00    -0.744 OA
ENDBRANCH  86  89
ENDBRANCH  58  82
BRANCH  70  93
ATOM     93  C   UNL A   1      39.975  35.200  39.113  1.00  0.00     0.023 A 
ATOM     94  C   UNL A   1      39.138  36.240  39.562  1.00  0.00     0.012 A 
ATOM     95  C   UNL A   1      40.154  34.058  39.919  1.00  0.00     0.148 A 
ATOM     96  C   UNL A   1      38.512  36.157  40.807  1.00  0.00     0.002 A 
ATOM     97  C   UNL A   1      39.485  33.957  41.132  1.00  0.00     0.091 A 
ATOM     98  F   UNL A   1      40.963  33.084  39.476  1.00  0.00    -0.205 F 
ATOM     99  C   UNL A   1      38.674  35.011  41.584  1.00  0.00     0.022 A 
BRANCH  97 100
ATOM    100  S   UNL A   1      39.550  32.481  42.153  1.00  0.00     0.127 S 
ATOM    101  O   UNL A   1      38.707  32.864  43.284  1.00  0.00    -0.237 OA
ATOM    102  O   UNL A   1      38.966  31.470  41.271  1.00  0.00    -0.237 OA
ATOM    103  O   UNL A   1      40.956  32.270  42.472  1.00  0.00    -0.744 OA
ENDBRANCH  97 100
ENDBRANCH  70  93
ENDBRANCH  44  45
ENDBRANCH  37  39
ENDBRANCH  36  37
ENDBRANCH  35  36
ENDBRANCH  34  35
ENDBRANCH  33  34
ENDBRANCH  32  33
ENDBRANCH   1  32
TORSDOF 25
ENDMDL
MODEL 3
REMARK VINA RESULT:     -10.1      1.781      7.546
REMARK SMILES O=C(OCCOCCOCCOCCOC(=O)c1ccc(-c2c3nc(c(-c4cccc(S(=O)(=O)[O-])c4F)c4ccc([nH]4)c(-c4cccc(S(=O)(=O)[O-])c4F)c4nc(c(-c5cccc(S(=O)(=O)[O-])c5F)c5ccc2[nH]5)C=C4)C=C3)cc1)C1=Cc2c(ccc(Cl)c2-c2ccccc2)O[C@H]1C(F)(F)F
REMARK SMILES IDX 10 1 9 2 8 3 7 4 6 5 5 6 4 7 3 8 2 9 1 10 81 11 82 12 97 13
REMARK SMILES IDX 83 14 96 15 84 16 89 17 85 18 87 19 86 20 88 21 98 22 99 23
REMARK SMILES IDX 100 24 101 25 90 26 91 27 95 28 92 29 94 30 93 31 11 32
REMARK SMILES IDX 12 33 13 34 14 35 15 36 16 37 17 38 18 39 19 40 80 41 20 42
REMARK SMILES IDX 79 43 21 44 22 45 23 46 73 47 24 48 78 49 72 50 74 51 25 52
REMARK SMILES IDX 77 53 71 54 70 55 26 57 58 58 38 59 57 60 39 61 42 62 56 63
REMARK SMILES IDX 75 64 40 65 41 66 55 68 76 69 43 70 27 71 28 72 36 73 29 74
REMARK SMILES IDX 31 75 37 76 30 77 32 78 33 79 34 80 35 81 59 82 60 83 68 84
REMARK SMILES IDX 61 85 63 86 69 87 62 88 64 89 65 90 66 91 67 92 44 93 45 94
REMARK SMILES IDX 53 95 46 96 48 97 54 98 47 99 49 100 50 101 51 102 52 103
REMARK H PARENT 74 56 42 67
REMARK Flexibility Score: inf
ROOT
ATOM      1  C   UNL A   1      33.636  31.373  27.288  1.00  0.00     0.188 C 
ENDROOT
BRANCH   1   2
ATOM      2  O   UNL A   1      32.775  30.166  27.306  1.00  0.00    -0.377 OA
BRANCH   2   3
ATOM      3  C   UNL A   1      31.924  28.506  26.681  1.00  0.00     0.188 C 
BRANCH   3   4
ATOM      4  C   UNL A   1      31.007  28.102  25.355  1.00  0.00     0.188 C 
BRANCH   4   5
ATOM      5  O   UNL A   1      31.070  26.827  24.725  1.00  0.00    -0.376 OA
BRANCH   5   6
ATOM      6  C   UNL A   1      30.065  25.897  25.039  1.00  0.00     0.202 C 
BRANCH   6   7
ATOM      7  C   UNL A   1      30.218  24.985  26.274  1.00  0.00     0.261 C 
BRANCH   7   8
ATOM      8  O   UNL A   1      31.464  24.259  26.216  1.00  0.00    -0.460 OA
BRANCH   8   9
ATOM      9  C   UNL A   1      31.658  23.159  25.450  1.00  0.00     0.338 C 
ATOM     10  O   UNL A   1      30.781  22.309  25.349  1.00  0.00    -0.246 OA
BRANCH   9  11
ATOM     11  C   UNL A   1      32.903  23.003  24.670  1.00  0.00     0.087 C 
ATOM     12  C   UNL A   1      33.399  21.836  24.234  1.00  0.00     0.028 C 
ATOM     13  C   UNL A   1      33.303  24.159  23.803  1.00  0.00     0.316 C 
ATOM     14  C   UNL A   1      34.841  21.778  24.320  1.00  0.00     0.027 A 
ATOM     15  O   UNL A   1      34.761  24.131  23.571  1.00  0.00    -0.475 OA
ATOM     16  C   UNL A   1      35.464  23.017  24.013  1.00  0.00     0.128 A 
ATOM     17  C   UNL A   1      35.507  20.590  24.741  1.00  0.00     0.011 A 
ATOM     18  C   UNL A   1      36.827  23.128  24.173  1.00  0.00     0.049 A 
ATOM     19  C   UNL A   1      36.897  20.770  24.899  1.00  0.00     0.049 A 
ATOM     20  C   UNL A   1      37.532  22.014  24.635  1.00  0.00     0.025 A 
ATOM     21  Cl  UNL A   1      37.971  19.500  25.374  1.00  0.00    -0.084 Cl
BRANCH  13  22
ATOM     22  C   UNL A   1      32.451  24.120  22.497  1.00  0.00     0.430 C 
ATOM     23  F   UNL A   1      31.127  23.906  22.748  1.00  0.00    -0.167 F 
ATOM     24  F   UNL A   1      32.523  25.274  21.797  1.00  0.00    -0.167 F 
ATOM     25  F   UNL A   1      32.830  23.116  21.671  1.00  0.00    -0.167 F 
ENDBRANCH  13  22
BRANCH  17  26
ATOM     26  C   UNL A   1      34.785  19.251  24.966  1.00  0.00    -0.016 A 
ATOM     27  C   UNL A   1      35.423  17.712  24.228  1.00  0.00     0.009 A 
ATOM     28  C   UNL A   1      33.154  19.182  25.789  1.00  0.00     0.009 A 
ATOM     29  C   UNL A   1      34.438  16.188  24.208  1.00  0.00     0.001 A 
ATOM     30  C   UNL A   1      32.149  17.651  25.763  1.00  0.00     0.001 A 
ATOM     31  C   UNL A   1      32.807  16.152  24.990  1.00  0.00     0.000 A 
ENDBRANCH  17  26
ENDBRANCH   9  11
ENDBRANCH   8   9
ENDBRANCH   7   8
ENDBRANCH   6   7
ENDBRANCH   5   6
ENDBRANCH   4   5
ENDBRANCH   3   4
ENDBRANCH   2   3
ENDBRANCH   1   2
BRANCH   1  32
ATOM     32  C   UNL A   1      33.522  32.734  28.039  1.00  0.00     0.188 C 
BRANCH  32  33
ATOM     33  O   UNL A   1      33.782  32.911  29.419  1.00  0.00    -0.376 OA
BRANCH  33  34
ATOM     34  C   UNL A   1      34.995  32.650  30.093  1.00  0.00     0.202 C 
BRANCH  34  35
ATOM     35  C   UNL A   1      36.205  31.841  29.594  1.00  0.00     0.261 C 
BRANCH  35  36
ATOM     36  O   UNL A   1      37.171  31.433  30.549  1.00  0.00    -0.460 OA
BRANCH  36  37
ATOM     37  C   UNL A   1      37.047  30.163  31.011  1.00  0.00     0.338 C 
ATOM     38  O   UNL A   1      36.098  29.430  30.873  1.00  0.00    -0.246 OA
BRANCH  37  39
ATOM     39  C   UNL A   1      38.388  29.736  31.488  1.00  0.00     0.060 A 
ATOM     40  C   UNL A   1      39.389  30.717  31.530  1.00  0.00     0.016 A 
ATOM     41  C   UNL A   1      38.635  28.451  31.983  1.00  0.00     0.016 A 
ATOM     42  C   UNL A   1      40.642  30.418  32.056  1.00  0.00     0.010 A 
ATOM     43  C   UNL A   1      39.911  28.136  32.462  1.00  0.00     0.010 A 
ATOM     44  C   UNL A   1      40.928  29.110  32.460  1.00  0.00    -0.014 A 
BRANCH  44  45
ATOM     45  C   UNL A   1      42.347  28.689  32.515  1.00  0.00     0.031 A 
ATOM     46  C   UNL A   1      42.906  28.063  31.266  1.00  0.00     0.074 A 
ATOM     47  C   UNL A   1      43.121  28.861  33.599  1.00  0.00     0.049 A 
ATOM     48  N   UNL A   1      44.089  27.555  31.046  1.00  0.00    -0.248 NA
ATOM     49  C   UNL A   1      41.998  27.995  30.104  1.00  0.00     0.031 C 
ATOM     50  C   UNL A   1      42.706  29.485  34.851  1.00  0.00     0.029 A 
ATOM     51  N   UNL A   1      44.427  28.494  33.818  1.00  0.00    -0.354 N 
ATOM     52  C   UNL A   1      44.051  27.073  29.744  1.00  0.00     0.074 A 
ATOM     53  C   UNL A   1      42.735  27.350  29.217  1.00  0.00     0.031 C 
ATOM     54  C   UNL A   1      43.730  29.429  35.724  1.00  0.00     0.029 A 
ATOM     55  C   UNL A   1      44.856  28.731  35.104  1.00  0.00     0.049 A 
ATOM     56  H   UNL A   1      45.001  28.099  33.122  1.00  0.00     0.167 HD
ATOM     57  C   UNL A   1      45.023  26.450  29.044  1.00  0.00     0.034 A 
ATOM     58  C   UNL A   1      46.009  28.383  35.712  1.00  0.00     0.034 A 
ATOM     59  C   UNL A   1      46.329  26.172  29.566  1.00  0.00     0.049 A 
ATOM     60  C   UNL A   1      47.065  27.641  34.923  1.00  0.00     0.074 A 
ATOM     61  C   UNL A   1      47.398  25.577  28.927  1.00  0.00     0.029 A 
ATOM     62  N   UNL A   1      46.731  26.443  30.864  1.00  0.00    -0.354 N 
ATOM     63  N   UNL A   1      47.057  27.282  33.661  1.00  0.00    -0.248 NA
ATOM     64  C   UNL A   1      48.298  27.273  35.638  1.00  0.00     0.031 C 
ATOM     65  C   UNL A   1      48.435  25.441  29.854  1.00  0.00     0.029 A 
ATOM     66  C   UNL A   1      48.028  26.004  31.054  1.00  0.00     0.049 A 
ATOM     67  H   UNL A   1      46.177  26.883  31.549  1.00  0.00     0.167 HD
ATOM     68  C   UNL A   1      48.290  26.680  33.424  1.00  0.00     0.074 A 
ATOM     69  C   UNL A   1      49.028  26.741  34.667  1.00  0.00     0.031 C 
ATOM     70  C   UNL A   1      48.766  26.118  32.286  1.00  0.00     0.034 A 
BRANCH  57  71
ATOM     71  C   UNL A   1      44.696  26.003  27.646  1.00  0.00     0.023 A 
ATOM     72  C   UNL A   1      44.911  26.869  26.555  1.00  0.00     0.012 A 
ATOM     73  C   UNL A   1      44.201  24.705  27.415  1.00  0.00     0.148 A 
ATOM     74  C   UNL A   1      44.607  26.461  25.258  1.00  0.00     0.002 A 
ATOM     75  C   UNL A   1      43.952  24.288  26.115  1.00  0.00     0.091 A 
ATOM     76  F   UNL A   1      43.974  23.911  28.471  1.00  0.00    -0.205 F 
ATOM     77  C   UNL A   1      44.140  25.168  25.037  1.00  0.00     0.022 A 
BRANCH  75  78
ATOM     78  S   UNL A   1      43.427  22.618  25.722  1.00  0.00     0.127 S 
ATOM     79  O   UNL A   1      43.223  22.705  24.276  1.00  0.00    -0.237 OA
ATOM     80  O   UNL A   1      44.591  21.830  26.128  1.00  0.00    -0.237 OA
ATOM     81  O   UNL A   1      42.222  22.376  26.504  1.00  0.00    -0.744 OA
ENDBRANCH  75  78
ENDBRANCH  57  71
BRANCH  58  82
ATOM     82  C   UNL A   1      46.235  28.711  37.150  1.00  0.00     0.023 A 
ATOM     83  C   UNL A   1      46.793  29.954  37.509  1.00  0.00     0.012 A 
ATOM     84  C   UNL A   1      45.917  27.786  38.166  1.00  0.00     0.148 A 
ATOM     85  C   UNL A   1      47.065  30.254  38.845  1.00  0.00     0.002 A 
ATOM     86  C   UNL A   1      46.134  28.115  39.498  1.00  0.00     0.091 A 
ATOM     87  F   UNL A   1      45.410  26.600  37.806  1.00  0.00    -0.205 F 
ATOM     88  C   UNL A   1      46.728  29.340  39.839  1.00  0.00     0.022 A 
BRANCH  86  89
ATOM     89  S   UNL A   1      45.616  27.054  40.851  1.00  0.00     0.127 S 
ATOM     90  O   UNL A   1      46.426  25.861  40.624  1.00  0.00    -0.237 OA
ATOM     91  O   UNL A   1      46.001  27.849  42.018  1.00  0.00    -0.237 OA
ATOM     92  O   UNL A   1      44.179  26.880  40.691  1.00  0.00    -0.744 OA
ENDBRANCH  86  89
ENDBRANCH  58  82
BRANCH  70  93
ATOM     93  C   UNL A   1      50.168  25.563  32.297  1.00  0.00     0.023 A 
ATOM     94  C   UNL A   1      50.399  24.231  32.690  1.00  0.00     0.012 A 
ATOM     95  C   UNL A   1      51.241  26.338  31.814  1.00  0.00     0.148 A 
ATOM     96  C   UNL A   1      51.683  23.688  32.629  1.00  0.00     0.002 A 
ATOM     97  C   UNL A   1      52.505  25.775  31.704  1.00  0.00     0.091 A 
ATOM     98  F   UNL A   1      51.000  27.608  31.453  1.00  0.00    -0.205 F 
ATOM     99  C   UNL A   1      52.731  24.454  32.124  1.00  0.00     0.022 A 
BRANCH  97 100
ATOM    100  S   UNL A   1      53.893  26.648  30.970  1.00  0.00     0.127 S 
ATOM    101  O   UNL A   1      54.114  27.721  31.938  1.00  0.00    -0.237 OA
ATOM    102  O   UNL A   1      54.931  25.617  30.953  1.00  0.00    -0.237 OA
ATOM    103  O   UNL A   1      53.448  27.083  29.654  1.00  0.00    -0.744 OA
ENDBRANCH  97 100
ENDBRANCH  70  93
ENDBRANCH  44  45
ENDBRANCH  37  39
ENDBRANCH  36  37
ENDBRANCH  35  36
ENDBRANCH  34  35
ENDBRANCH  33  34
ENDBRANCH  32  33
ENDBRANCH   1  32
TORSDOF 25
ENDMDL
