MODEL 1
REMARK VINA RESULT:     -10.2      0.000      0.000
REMARK SMILES CC[C@H]([NH2+]C1c2ccccc2-c2ccccc21)C(=O)OCCOCCOCCOCCOC(=O)c1ccc(-c2c3nc(c(-c4cccc(S(=O)(=O)[O-])c4F)c4ccc([nH]4)c(-c4cccc(S(=O)(=O)[O-])c4F)c4nc(c(-c5cccc(S(=O)(=O)[O-])c5F)c5ccc2[nH]5)C=C4)C=C3)cc1
REMARK SMILES IDX 27 1 26 2 25 3 24 4 23 5 22 6 21 7 20 8 18 9 19 10 3 11 2 12
REMARK SMILES IDX 1 13 4 14 5 17 6 18 17 19 7 20 11 21 12 22 16 23 8 24 10 25
REMARK SMILES IDX 13 26 15 27 9 28 14 29 28 30 29 31 30 32 31 33 32 34 33 35
REMARK SMILES IDX 34 36 35 37 36 38 97 39 37 40 96 41 38 42 39 43 40 44 90 45
REMARK SMILES IDX 41 46 95 47 89 48 91 49 42 50 94 51 88 52 87 53 43 55 75 56
REMARK SMILES IDX 55 57 74 58 56 59 59 60 73 61 92 62 57 63 58 64 72 66 93 67
REMARK SMILES IDX 60 68 44 69 45 70 53 71 46 72 48 73 54 74 47 75 49 76 50 77
REMARK SMILES IDX 51 78 52 79 76 80 77 81 85 82 78 83 80 84 86 85 79 86 81 87
REMARK SMILES IDX 82 88 83 89 84 90 61 91 62 92 70 93 63 94 65 95 71 96 64 97
REMARK SMILES IDX 66 98 67 99 68 100 69 101
REMARK H PARENT 4 15 4 16 91 54 59 65
REMARK Flexibility Score: inf
ROOT
ATOM      1  C   UNL A   1      35.276  21.929  25.715  1.00  0.00     0.188 C 
ENDROOT
BRANCH   1   2
ATOM      2  O   UNL A   1      34.250  20.966  25.898  1.00  0.00    -0.377 OA
BRANCH   2   3
ATOM      3  C   UNL A   1      32.936  21.454  26.063  1.00  0.00     0.188 C 
BRANCH   3   4
ATOM      4  C   UNL A   1      32.035  21.249  24.836  1.00  0.00     0.188 C 
BRANCH   4   5
ATOM      5  O   UNL A   1      32.565  21.099  23.527  1.00  0.00    -0.376 OA
BRANCH   5   6
ATOM      6  C   UNL A   1      32.645  22.142  22.568  1.00  0.00     0.202 C 
BRANCH   6   7
ATOM      7  C   UNL A   1      33.045  23.602  22.848  1.00  0.00     0.261 C 
BRANCH   7   8
ATOM      8  O   UNL A   1      32.214  24.634  22.328  1.00  0.00    -0.459 OA
BRANCH   8   9
ATOM      9  C   UNL A   1      31.080  24.857  23.034  1.00  0.00     0.364 C 
ATOM     10  O   UNL A   1      30.187  24.025  23.182  1.00  0.00    -0.245 OA
BRANCH   9  11
ATOM     11  C   UNL A   1      31.008  26.285  23.625  1.00  0.00     0.293 C 
BRANCH  11  12
ATOM     12  C   UNL A   1      29.930  26.150  24.713  1.00  0.00     0.074 C 
ATOM     13  C   UNL A   1      30.520  26.297  26.105  1.00  0.00     0.011 C 
ENDBRANCH  11  12
BRANCH  11  14
ATOM     14  N   UNL A   1      30.851  27.311  22.562  1.00  0.00    -0.325 N 
ATOM     15  H   UNL A   1      29.855  27.333  22.339  1.00  0.00     0.347 HD
ATOM     16  H   UNL A   1      31.521  26.988  21.864  1.00  0.00     0.347 HD
BRANCH  14  17
ATOM     17  C   UNL A   1      31.256  28.704  22.736  1.00  0.00     0.246 C 
ATOM     18  C   UNL A   1      30.108  29.686  22.622  1.00  0.00     0.022 A 
ATOM     19  C   UNL A   1      31.865  29.083  24.086  1.00  0.00     0.022 A 
ATOM     20  C   UNL A   1      29.210  29.827  21.574  1.00  0.00     0.011 A 
ATOM     21  C   UNL A   1      29.964  30.404  23.829  1.00  0.00    -0.008 A 
ATOM     22  C   UNL A   1      31.080  30.089  24.698  1.00  0.00    -0.008 A 
ATOM     23  C   UNL A   1      33.066  28.679  24.653  1.00  0.00     0.011 A 
ATOM     24  C   UNL A   1      28.069  30.593  21.799  1.00  0.00     0.001 A 
ATOM     25  C   UNL A   1      28.839  31.179  24.043  1.00  0.00     0.009 A 
ATOM     26  C   UNL A   1      31.461  30.653  25.906  1.00  0.00     0.009 A 
ATOM     27  C   UNL A   1      33.464  29.268  25.860  1.00  0.00     0.001 A 
ATOM     28  C   UNL A   1      27.873  31.242  23.031  1.00  0.00     0.001 A 
ATOM     29  C   UNL A   1      32.663  30.238  26.486  1.00  0.00     0.001 A 
ENDBRANCH  14  17
ENDBRANCH  11  14
ENDBRANCH   9  11
ENDBRANCH   8   9
ENDBRANCH   7   8
ENDBRANCH   6   7
ENDBRANCH   5   6
ENDBRANCH   4   5
ENDBRANCH   3   4
ENDBRANCH   2   3
ENDBRANCH   1   2
BRANCH   1  30
ATOM     30  C   UNL A   1      36.174  21.818  24.464  1.00  0.00     0.188 C 
BRANCH  30  31
ATOM     31  O   UNL A   1      37.569  21.883  24.733  1.00  0.00    -0.376 OA
BRANCH  31  32
ATOM     32  C   UNL A   1      38.209  20.747  25.291  1.00  0.00     0.202 C 
BRANCH  32  33
ATOM     33  C   UNL A   1      39.521  20.975  26.059  1.00  0.00     0.261 C 
BRANCH  33  34
ATOM     34  O   UNL A   1      40.249  19.800  26.445  1.00  0.00    -0.460 OA
BRANCH  34  35
ATOM     35  C   UNL A   1      41.557  19.729  26.106  1.00  0.00     0.338 C 
ATOM     36  O   UNL A   1      42.116  18.815  25.539  1.00  0.00    -0.246 OA
BRANCH  35  37
ATOM     37  C   UNL A   1      42.156  21.060  26.357  1.00  0.00     0.060 A 
ATOM     38  C   UNL A   1      42.400  21.453  27.680  1.00  0.00     0.016 A 
ATOM     39  C   UNL A   1      42.476  21.911  25.297  1.00  0.00     0.016 A 
ATOM     40  C   UNL A   1      42.923  22.717  27.949  1.00  0.00     0.010 A 
ATOM     41  C   UNL A   1      42.977  23.186  25.569  1.00  0.00     0.010 A 
ATOM     42  C   UNL A   1      43.165  23.609  26.898  1.00  0.00    -0.014 A 
BRANCH  42  43
ATOM     43  C   UNL A   1      43.405  25.043  27.191  1.00  0.00     0.031 A 
ATOM     44  C   UNL A   1      44.743  25.628  26.825  1.00  0.00     0.074 A 
ATOM     45  C   UNL A   1      42.465  25.812  27.768  1.00  0.00     0.049 A 
ATOM     46  N   UNL A   1      45.207  26.832  27.030  1.00  0.00    -0.248 NA
ATOM     47  C   UNL A   1      45.685  24.729  26.136  1.00  0.00     0.031 C 
ATOM     48  C   UNL A   1      41.128  25.367  28.156  1.00  0.00     0.029 A 
ATOM     49  N   UNL A   1      42.510  27.129  28.153  1.00  0.00    -0.354 N 
ATOM     50  C   UNL A   1      46.502  26.828  26.526  1.00  0.00     0.074 A 
ATOM     51  C   UNL A   1      46.756  25.499  26.016  1.00  0.00     0.031 C 
ATOM     52  C   UNL A   1      40.491  26.387  28.758  1.00  0.00     0.029 A 
ATOM     53  C   UNL A   1      41.383  27.543  28.825  1.00  0.00     0.049 A 
ATOM     54  H   UNL A   1      43.274  27.721  27.967  1.00  0.00     0.167 HD
ATOM     55  C   UNL A   1      47.397  27.842  26.478  1.00  0.00     0.034 A 
ATOM     56  C   UNL A   1      41.119  28.708  29.450  1.00  0.00     0.034 A 
ATOM     57  C   UNL A   1      47.140  29.165  26.978  1.00  0.00     0.049 A 
ATOM     58  C   UNL A   1      42.148  29.812  29.419  1.00  0.00     0.074 A 
ATOM     59  C   UNL A   1      47.969  30.272  26.943  1.00  0.00     0.029 A 
ATOM     60  N   UNL A   1      45.976  29.556  27.618  1.00  0.00    -0.354 N 
ATOM     61  N   UNL A   1      43.329  29.827  28.848  1.00  0.00    -0.248 NA
ATOM     62  C   UNL A   1      41.794  31.070  30.092  1.00  0.00     0.031 C 
ATOM     63  C   UNL A   1      47.320  31.322  27.599  1.00  0.00     0.029 A 
ATOM     64  C   UNL A   1      46.068  30.884  27.998  1.00  0.00     0.049 A 
ATOM     65  H   UNL A   1      45.197  28.976  27.780  1.00  0.00     0.167 HD
ATOM     66  C   UNL A   1      43.839  31.105  29.057  1.00  0.00     0.074 A 
ATOM     67  C   UNL A   1      42.832  31.841  29.792  1.00  0.00     0.031 C 
ATOM     68  C   UNL A   1      45.037  31.621  28.684  1.00  0.00     0.034 A 
BRANCH  55  69
ATOM     69  C   UNL A   1      48.739  27.560  25.854  1.00  0.00     0.023 A 
ATOM     70  C   UNL A   1      49.806  27.108  26.658  1.00  0.00     0.012 A 
ATOM     71  C   UNL A   1      48.927  27.694  24.465  1.00  0.00     0.148 A 
ATOM     72  C   UNL A   1      51.050  26.827  26.094  1.00  0.00     0.002 A 
ATOM     73  C   UNL A   1      50.155  27.366  23.904  1.00  0.00     0.091 A 
ATOM     74  F   UNL A   1      47.908  28.147  23.722  1.00  0.00    -0.205 F 
ATOM     75  C   UNL A   1      51.221  26.946  24.717  1.00  0.00     0.022 A 
BRANCH  73  76
ATOM     76  S   UNL A   1      50.453  27.408  22.133  1.00  0.00     0.127 S 
ATOM     77  O   UNL A   1      49.503  26.406  21.650  1.00  0.00    -0.237 OA
ATOM     78  O   UNL A   1      50.105  28.789  21.798  1.00  0.00    -0.237 OA
ATOM     79  O   UNL A   1      51.858  27.072  21.951  1.00  0.00    -0.744 OA
ENDBRANCH  73  76
ENDBRANCH  55  69
BRANCH  56  80
ATOM     80  C   UNL A   1      39.819  28.902  30.154  1.00  0.00     0.023 A 
ATOM     81  C   UNL A   1      39.603  28.296  31.406  1.00  0.00     0.012 A 
ATOM     82  C   UNL A   1      38.797  29.685  29.584  1.00  0.00     0.148 A 
ATOM     83  C   UNL A   1      38.378  28.435  32.061  1.00  0.00     0.002 A 
ATOM     84  C   UNL A   1      37.601  29.869  30.269  1.00  0.00     0.091 A 
ATOM     85  F   UNL A   1      39.016  30.240  28.384  1.00  0.00    -0.205 F 
ATOM     86  C   UNL A   1      37.383  29.228  31.499  1.00  0.00     0.022 A 
BRANCH  84  87
ATOM     87  S   UNL A   1      36.314  30.975  29.683  1.00  0.00     0.127 S 
ATOM     88  O   UNL A   1      35.480  31.121  30.874  1.00  0.00    -0.237 OA
ATOM     89  O   UNL A   1      37.084  32.164  29.318  1.00  0.00    -0.237 OA
ATOM     90  O   UNL A   1      35.689  30.294  28.557  1.00  0.00    -0.744 OA
ENDBRANCH  84  87
ENDBRANCH  56  80
BRANCH  68  91
ATOM     91  C   UNL A   1      45.315  33.066  29.010  1.00  0.00     0.023 A 
ATOM     92  C   UNL A   1      46.057  33.404  30.159  1.00  0.00     0.012 A 
ATOM     93  C   UNL A   1      44.904  34.088  28.129  1.00  0.00     0.148 A 
ATOM     94  C   UNL A   1      46.351  34.738  30.446  1.00  0.00     0.002 A 
ATOM     95  C   UNL A   1      45.249  35.407  28.391  1.00  0.00     0.091 A 
ATOM     96  F   UNL A   1      44.188  33.747  27.047  1.00  0.00    -0.205 F 
ATOM     97  C   UNL A   1      45.960  35.736  29.557  1.00  0.00     0.022 A 
BRANCH  95  98
ATOM     98  S   UNL A   1      44.874  36.747  27.256  1.00  0.00     0.127 S 
ATOM     99  O   UNL A   1      46.069  36.767  26.413  1.00  0.00    -0.237 OA
ATOM    100  O   UNL A   1      43.666  36.258  26.591  1.00  0.00    -0.237 OA
ATOM    101  O   UNL A   1      44.674  37.931  28.080  1.00  0.00    -0.744 OA
ENDBRANCH  95  98
ENDBRANCH  68  91
ENDBRANCH  42  43
ENDBRANCH  35  37
ENDBRANCH  34  35
ENDBRANCH  33  34
ENDBRANCH  32  33
ENDBRANCH  31  32
ENDBRANCH  30  31
ENDBRANCH   1  30
TORSDOF 26
ENDMDL
MODEL 2
REMARK VINA RESULT:      -9.8      3.237      8.241
REMARK SMILES CC[C@H]([NH2+]C1c2ccccc2-c2ccccc21)C(=O)OCCOCCOCCOCCOC(=O)c1ccc(-c2c3nc(c(-c4cccc(S(=O)(=O)[O-])c4F)c4ccc([nH]4)c(-c4cccc(S(=O)(=O)[O-])c4F)c4nc(c(-c5cccc(S(=O)(=O)[O-])c5F)c5ccc2[nH]5)C=C4)C=C3)cc1
REMARK SMILES IDX 27 1 26 2 25 3 24 4 23 5 22 6 21 7 20 8 18 9 19 10 3 11 2 12
REMARK SMILES IDX 1 13 4 14 5 17 6 18 17 19 7 20 11 21 12 22 16 23 8 24 10 25
REMARK SMILES IDX 13 26 15 27 9 28 14 29 28 30 29 31 30 32 31 33 32 34 33 35
REMARK SMILES IDX 34 36 35 37 36 38 97 39 37 40 96 41 38 42 39 43 40 44 90 45
REMARK SMILES IDX 41 46 95 47 89 48 91 49 42 50 94 51 88 52 87 53 43 55 75 56
REMARK SMILES IDX 55 57 74 58 56 59 59 60 73 61 92 62 57 63 58 64 72 66 93 67
REMARK SMILES IDX 60 68 44 69 45 70 53 71 46 72 48 73 54 74 47 75 49 76 50 77
REMARK SMILES IDX 51 78 52 79 76 80 77 81 85 82 78 83 80 84 86 85 79 86 81 87
REMARK SMILES IDX 82 88 83 89 84 90 61 91 62 92 70 93 63 94 65 95 71 96 64 97
REMARK SMILES IDX 66 98 67 99 68 100 69 101
REMARK H PARENT 4 15 4 16 91 54 59 65
REMARK Flexibility Score: inf
ROOT
ATOM      1  C   UNL A   1      35.551  20.845  25.012  1.00  0.00     0.188 C 
ENDROOT
BRANCH   1   2
ATOM      2  O   UNL A   1      34.554  19.887  24.690  1.00  0.00    -0.377 OA
BRANCH   2   3
ATOM      3  C   UNL A   1      33.217  20.236  24.978  1.00  0.00     0.188 C 
BRANCH   3   4
ATOM      4  C   UNL A   1      32.307  20.292  23.741  1.00  0.00     0.188 C 
BRANCH   4   5
ATOM      5  O   UNL A   1      32.442  21.301  22.751  1.00  0.00    -0.376 OA
BRANCH   5   6
ATOM      6  C   UNL A   1      32.773  22.654  23.021  1.00  0.00     0.202 C 
BRANCH   6   7
ATOM      7  C   UNL A   1      34.049  23.383  22.560  1.00  0.00     0.261 C 
BRANCH   7   8
ATOM      8  O   UNL A   1      34.150  24.780  22.816  1.00  0.00    -0.459 OA
BRANCH   8   9
ATOM      9  C   UNL A   1      33.355  25.555  22.043  1.00  0.00     0.364 C 
ATOM     10  O   UNL A   1      33.177  25.374  20.839  1.00  0.00    -0.245 OA
BRANCH   9  11
ATOM     11  C   UNL A   1      32.702  26.719  22.826  1.00  0.00     0.293 C 
BRANCH  11  12
ATOM     12  C   UNL A   1      33.911  27.581  23.226  1.00  0.00     0.074 C 
ATOM     13  C   UNL A   1      33.861  28.951  22.575  1.00  0.00     0.011 C 
ENDBRANCH  11  12
BRANCH  11  14
ATOM     14  N   UNL A   1      31.777  26.222  23.876  1.00  0.00    -0.325 N 
ATOM     15  H   UNL A   1      32.357  25.713  24.543  1.00  0.00     0.347 HD
ATOM     16  H   UNL A   1      31.085  25.720  23.320  1.00  0.00     0.347 HD
BRANCH  14  17
ATOM     17  C   UNL A   1      30.929  27.107  24.672  1.00  0.00     0.246 C 
ATOM     18  C   UNL A   1      31.700  27.943  25.674  1.00  0.00     0.022 A 
ATOM     19  C   UNL A   1      30.137  28.171  23.914  1.00  0.00     0.022 A 
ATOM     20  C   UNL A   1      32.574  27.501  26.656  1.00  0.00     0.011 A 
ATOM     21  C   UNL A   1      31.518  29.315  25.400  1.00  0.00    -0.008 A 
ATOM     22  C   UNL A   1      30.507  29.458  24.372  1.00  0.00    -0.008 A 
ATOM     23  C   UNL A   1      29.096  28.013  23.008  1.00  0.00     0.011 A 
ATOM     24  C   UNL A   1      33.385  28.450  27.273  1.00  0.00     0.001 A 
ATOM     25  C   UNL A   1      32.311  30.258  26.028  1.00  0.00     0.009 A 
ATOM     26  C   UNL A   1      29.879  30.595  23.885  1.00  0.00     0.009 A 
ATOM     27  C   UNL A   1      28.444  29.160  22.536  1.00  0.00     0.001 A 
ATOM     28  C   UNL A   1      33.272  29.813  26.943  1.00  0.00     0.001 A 
ATOM     29  C   UNL A   1      28.840  30.440  22.962  1.00  0.00     0.001 A 
ENDBRANCH  14  17
ENDBRANCH  11  14
ENDBRANCH   9  11
ENDBRANCH   8   9
ENDBRANCH   7   8
ENDBRANCH   6   7
ENDBRANCH   5   6
ENDBRANCH   4   5
ENDBRANCH   3   4
ENDBRANCH   2   3
ENDBRANCH   1   2
BRANCH   1  30
ATOM     30  C   UNL A   1      37.030  20.400  24.998  1.00  0.00     0.188 C 
BRANCH  30  31
ATOM     31  O   UNL A   1      37.964  21.452  25.206  1.00  0.00    -0.376 OA
BRANCH  31  32
ATOM     32  C   UNL A   1      39.165  21.169  25.906  1.00  0.00     0.202 C 
BRANCH  32  33
ATOM     33  C   UNL A   1      40.060  22.356  26.292  1.00  0.00     0.261 C 
BRANCH  33  34
ATOM     34  O   UNL A   1      41.461  22.080  26.440  1.00  0.00    -0.460 OA
BRANCH  34  35
ATOM     35  C   UNL A   1      42.337  22.949  25.885  1.00  0.00     0.338 C 
ATOM     36  O   UNL A   1      42.927  22.820  24.834  1.00  0.00    -0.246 OA
BRANCH  35  37
ATOM     37  C   UNL A   1      42.293  24.197  26.682  1.00  0.00     0.060 A 
ATOM     38  C   UNL A   1      42.176  25.422  26.012  1.00  0.00     0.016 A 
ATOM     39  C   UNL A   1      42.361  24.156  28.076  1.00  0.00     0.016 A 
ATOM     40  C   UNL A   1      42.175  26.616  26.734  1.00  0.00     0.010 A 
ATOM     41  C   UNL A   1      42.384  25.354  28.796  1.00  0.00     0.010 A 
ATOM     42  C   UNL A   1      42.332  26.589  28.125  1.00  0.00    -0.014 A 
BRANCH  42  43
ATOM     43  C   UNL A   1      42.656  27.841  28.851  1.00  0.00     0.031 A 
ATOM     44  C   UNL A   1      41.516  28.698  29.332  1.00  0.00     0.074 A 
ATOM     45  C   UNL A   1      43.928  28.213  29.084  1.00  0.00     0.049 A 
ATOM     46  N   UNL A   1      41.545  29.856  29.936  1.00  0.00    -0.248 NA
ATOM     47  C   UNL A   1      40.158  28.178  29.092  1.00  0.00     0.031 C 
ATOM     48  C   UNL A   1      45.116  27.462  28.683  1.00  0.00     0.029 A 
ATOM     49  N   UNL A   1      44.426  29.338  29.692  1.00  0.00    -0.354 N 
ATOM     50  C   UNL A   1      40.216  30.218  30.122  1.00  0.00     0.074 A 
ATOM     51  C   UNL A   1      39.405  29.164  29.555  1.00  0.00     0.031 C 
ATOM     52  C   UNL A   1      46.209  28.167  29.025  1.00  0.00     0.029 A 
ATOM     53  C   UNL A   1      45.797  29.428  29.639  1.00  0.00     0.049 A 
ATOM     54  H   UNL A   1      43.857  30.015  30.124  1.00  0.00     0.167 HD
ATOM     55  C   UNL A   1      39.714  31.322  30.723  1.00  0.00     0.034 A 
ATOM     56  C   UNL A   1      46.620  30.429  30.014  1.00  0.00     0.034 A 
ATOM     57  C   UNL A   1      40.522  32.365  31.293  1.00  0.00     0.049 A 
ATOM     58  C   UNL A   1      46.034  31.669  30.644  1.00  0.00     0.074 A 
ATOM     59  C   UNL A   1      40.108  33.506  31.956  1.00  0.00     0.029 A 
ATOM     60  N   UNL A   1      41.906  32.404  31.253  1.00  0.00    -0.354 N 
ATOM     61  N   UNL A   1      44.781  31.951  30.908  1.00  0.00    -0.248 NA
ATOM     62  C   UNL A   1      46.981  32.715  31.059  1.00  0.00     0.031 C 
ATOM     63  C   UNL A   1      41.242  34.256  32.282  1.00  0.00     0.029 A 
ATOM     64  C   UNL A   1      42.364  33.557  31.867  1.00  0.00     0.049 A 
ATOM     65  H   UNL A   1      42.480  31.714  30.849  1.00  0.00     0.167 HD
ATOM     66  C   UNL A   1      44.793  33.184  31.553  1.00  0.00     0.074 A 
ATOM     67  C   UNL A   1      46.180  33.587  31.657  1.00  0.00     0.031 C 
ATOM     68  C   UNL A   1      43.751  33.922  32.010  1.00  0.00     0.034 A 
BRANCH  55  69
ATOM     69  C   UNL A   1      38.216  31.453  30.800  1.00  0.00     0.023 A 
ATOM     70  C   UNL A   1      37.516  30.887  31.886  1.00  0.00     0.012 A 
ATOM     71  C   UNL A   1      37.507  32.180  29.824  1.00  0.00     0.148 A 
ATOM     72  C   UNL A   1      36.130  31.012  31.981  1.00  0.00     0.002 A 
ATOM     73  C   UNL A   1      36.132  32.343  29.952  1.00  0.00     0.091 A 
ATOM     74  F   UNL A   1      38.187  32.692  28.789  1.00  0.00    -0.205 F 
ATOM     75  C   UNL A   1      35.441  31.748  31.021  1.00  0.00     0.022 A 
BRANCH  73  76
ATOM     76  S   UNL A   1      35.165  33.339  28.813  1.00  0.00     0.127 S 
ATOM     77  O   UNL A   1      35.298  32.579  27.570  1.00  0.00    -0.237 OA
ATOM     78  O   UNL A   1      33.834  33.289  29.419  1.00  0.00    -0.237 OA
ATOM     79  O   UNL A   1      35.782  34.657  28.805  1.00  0.00    -0.744 OA
ENDBRANCH  73  76
ENDBRANCH  55  69
BRANCH  56  80
ATOM     80  C   UNL A   1      48.092  30.302  29.813  1.00  0.00     0.023 A 
ATOM     81  C   UNL A   1      48.899  29.797  30.850  1.00  0.00     0.012 A 
ATOM     82  C   UNL A   1      48.693  30.683  28.597  1.00  0.00     0.148 A 
ATOM     83  C   UNL A   1      50.284  29.708  30.693  1.00  0.00     0.002 A 
ATOM     84  C   UNL A   1      50.064  30.535  28.426  1.00  0.00     0.091 A 
ATOM     85  F   UNL A   1      47.909  31.176  27.629  1.00  0.00    -0.205 F 
ATOM     86  C   UNL A   1      50.864  30.067  29.480  1.00  0.00     0.022 A 
BRANCH  84  87
ATOM     87  S   UNL A   1      50.881  30.850  26.858  1.00  0.00     0.127 S 
ATOM     88  O   UNL A   1      50.669  32.286  26.694  1.00  0.00    -0.237 OA
ATOM     89  O   UNL A   1      52.259  30.458  27.154  1.00  0.00    -0.237 OA
ATOM     90  O   UNL A   1      50.210  29.999  25.885  1.00  0.00    -0.744 OA
ENDBRANCH  84  87
ENDBRANCH  56  80
BRANCH  68  91
ATOM     91  C   UNL A   1      44.059  35.218  32.716  1.00  0.00     0.023 A 
ATOM     92  C   UNL A   1      44.192  36.412  31.981  1.00  0.00     0.012 A 
ATOM     93  C   UNL A   1      44.141  35.261  34.123  1.00  0.00     0.148 A 
ATOM     94  C   UNL A   1      44.438  37.622  32.633  1.00  0.00     0.002 A 
ATOM     95  C   UNL A   1      44.331  36.476  34.769  1.00  0.00     0.091 A 
ATOM     96  F   UNL A   1      44.026  34.111  34.804  1.00  0.00    -0.205 F 
ATOM     97  C   UNL A   1      44.495  37.655  34.024  1.00  0.00     0.022 A 
BRANCH  95  98
ATOM     98  S   UNL A   1      44.320  36.632  36.558  1.00  0.00     0.127 S 
ATOM     99  O   UNL A   1      44.137  38.072  36.730  1.00  0.00    -0.237 OA
ATOM    100  O   UNL A   1      43.160  35.820  36.930  1.00  0.00    -0.237 OA
ATOM    101  O   UNL A   1      45.598  36.107  37.017  1.00  0.00    -0.744 OA
ENDBRANCH  95  98
ENDBRANCH  68  91
ENDBRANCH  42  43
ENDBRANCH  35  37
ENDBRANCH  34  35
ENDBRANCH  33  34
ENDBRANCH  32  33
ENDBRANCH  31  32
ENDBRANCH  30  31
ENDBRANCH   1  30
TORSDOF 26
ENDMDL
MODEL 3
REMARK VINA RESULT:      -9.8      1.960      2.374
REMARK SMILES CC[C@H]([NH2+]C1c2ccccc2-c2ccccc21)C(=O)OCCOCCOCCOCCOC(=O)c1ccc(-c2c3nc(c(-c4cccc(S(=O)(=O)[O-])c4F)c4ccc([nH]4)c(-c4cccc(S(=O)(=O)[O-])c4F)c4nc(c(-c5cccc(S(=O)(=O)[O-])c5F)c5ccc2[nH]5)C=C4)C=C3)cc1
REMARK SMILES IDX 27 1 26 2 25 3 24 4 23 5 22 6 21 7 20 8 18 9 19 10 3 11 2 12
REMARK SMILES IDX 1 13 4 14 5 17 6 18 17 19 7 20 11 21 12 22 16 23 8 24 10 25
REMARK SMILES IDX 13 26 15 27 9 28 14 29 28 30 29 31 30 32 31 33 32 34 33 35
REMARK SMILES IDX 34 36 35 37 36 38 97 39 37 40 96 41 38 42 39 43 40 44 90 45
REMARK SMILES IDX 41 46 95 47 89 48 91 49 42 50 94 51 88 52 87 53 43 55 75 56
REMARK SMILES IDX 55 57 74 58 56 59 59 60 73 61 92 62 57 63 58 64 72 66 93 67
REMARK SMILES IDX 60 68 44 69 45 70 53 71 46 72 48 73 54 74 47 75 49 76 50 77
REMARK SMILES IDX 51 78 52 79 76 80 77 81 85 82 78 83 80 84 86 85 79 86 81 87
REMARK SMILES IDX 82 88 83 89 84 90 61 91 62 92 70 93 63 94 65 95 71 96 64 97
REMARK SMILES IDX 66 98 67 99 68 100 69 101
REMARK H PARENT 4 15 4 16 91 54 59 65
REMARK Flexibility Score: inf
ROOT
ATOM      1  C   UNL A   1      35.186  21.487  25.807  1.00  0.00     0.188 C 
ENDROOT
BRANCH   1   2
ATOM      2  O   UNL A   1      34.585  20.408  25.108  1.00  0.00    -0.377 OA
BRANCH   2   3
ATOM      3  C   UNL A   1      33.234  20.127  25.405  1.00  0.00     0.188 C 
BRANCH   3   4
ATOM      4  C   UNL A   1      32.388  19.762  24.176  1.00  0.00     0.188 C 
BRANCH   4   5
ATOM      5  O   UNL A   1      32.486  20.476  22.953  1.00  0.00    -0.376 OA
BRANCH   5   6
ATOM      6  C   UNL A   1      32.091  21.827  22.777  1.00  0.00     0.202 C 
BRANCH   6   7
ATOM      7  C   UNL A   1      32.577  23.029  23.608  1.00  0.00     0.261 C 
BRANCH   7   8
ATOM      8  O   UNL A   1      31.785  23.439  24.718  1.00  0.00    -0.459 OA
BRANCH   8   9
ATOM      9  C   UNL A   1      32.225  24.555  25.345  1.00  0.00     0.364 C 
ATOM     10  O   UNL A   1      32.965  24.546  26.327  1.00  0.00    -0.245 OA
BRANCH   9  11
ATOM     11  C   UNL A   1      31.682  25.857  24.711  1.00  0.00     0.293 C 
BRANCH  11  12
ATOM     12  C   UNL A   1      30.352  25.403  24.087  1.00  0.00     0.074 C 
ATOM     13  C   UNL A   1      29.203  26.306  24.501  1.00  0.00     0.011 C 
ENDBRANCH  11  12
BRANCH  11  14
ATOM     14  N   UNL A   1      32.702  26.519  23.858  1.00  0.00    -0.325 N 
ATOM     15  H   UNL A   1      32.460  26.281  22.896  1.00  0.00     0.347 HD
ATOM     16  H   UNL A   1      33.568  26.169  24.265  1.00  0.00     0.347 HD
BRANCH  14  17
ATOM     17  C   UNL A   1      32.933  27.962  23.871  1.00  0.00     0.246 C 
ATOM     18  C   UNL A   1      31.739  28.770  23.403  1.00  0.00     0.022 A 
ATOM     19  C   UNL A   1      33.236  28.601  25.226  1.00  0.00     0.022 A 
ATOM     20  C   UNL A   1      31.047  28.648  22.206  1.00  0.00     0.011 A 
ATOM     21  C   UNL A   1      31.302  29.629  24.434  1.00  0.00    -0.008 A 
ATOM     22  C   UNL A   1      32.258  29.580  25.521  1.00  0.00    -0.008 A 
ATOM     23  C   UNL A   1      34.341  28.432  26.050  1.00  0.00     0.011 A 
ATOM     24  C   UNL A   1      29.817  29.293  22.104  1.00  0.00     0.001 A 
ATOM     25  C   UNL A   1      30.089  30.282  24.322  1.00  0.00     0.009 A 
ATOM     26  C   UNL A   1      32.348  30.353  26.669  1.00  0.00     0.009 A 
ATOM     27  C   UNL A   1      34.446  29.231  27.196  1.00  0.00     0.001 A 
ATOM     28  C   UNL A   1      29.331  30.082  23.162  1.00  0.00     0.001 A 
ATOM     29  C   UNL A   1      33.452  30.175  27.508  1.00  0.00     0.001 A 
ENDBRANCH  14  17
ENDBRANCH  11  14
ENDBRANCH   9  11
ENDBRANCH   8   9
ENDBRANCH   7   8
ENDBRANCH   6   7
ENDBRANCH   5   6
ENDBRANCH   4   5
ENDBRANCH   3   4
ENDBRANCH   2   3
ENDBRANCH   1   2
BRANCH   1  30
ATOM     30  C   UNL A   1      36.309  22.283  25.106  1.00  0.00     0.188 C 
BRANCH  30  31
ATOM     31  O   UNL A   1      37.545  22.302  25.809  1.00  0.00    -0.376 OA
BRANCH  31  32
ATOM     32  C   UNL A   1      38.555  21.378  25.439  1.00  0.00     0.202 C 
BRANCH  32  33
ATOM     33  C   UNL A   1      39.787  21.267  26.351  1.00  0.00     0.261 C 
BRANCH  33  34
ATOM     34  O   UNL A   1      40.381  19.966  26.470  1.00  0.00    -0.460 OA
BRANCH  34  35
ATOM     35  C   UNL A   1      41.685  19.834  26.136  1.00  0.00     0.338 C 
ATOM     36  O   UNL A   1      42.198  18.905  25.552  1.00  0.00    -0.246 OA
BRANCH  35  37
ATOM     37  C   UNL A   1      42.350  21.127  26.418  1.00  0.00     0.060 A 
ATOM     38  C   UNL A   1      42.551  21.506  27.752  1.00  0.00     0.016 A 
ATOM     39  C   UNL A   1      42.773  21.955  25.376  1.00  0.00     0.016 A 
ATOM     40  C   UNL A   1      43.136  22.737  28.048  1.00  0.00     0.010 A 
ATOM     41  C   UNL A   1      43.338  23.198  25.675  1.00  0.00     0.010 A 
ATOM     42  C   UNL A   1      43.484  23.610  27.011  1.00  0.00    -0.014 A 
BRANCH  42  43
ATOM     43  C   UNL A   1      43.796  25.027  27.318  1.00  0.00     0.031 A 
ATOM     44  C   UNL A   1      45.233  25.469  27.249  1.00  0.00     0.074 A 
ATOM     45  C   UNL A   1      42.834  25.906  27.651  1.00  0.00     0.049 A 
ATOM     46  N   UNL A   1      45.759  26.632  27.526  1.00  0.00    -0.248 NA
ATOM     47  C   UNL A   1      46.210  24.456  26.811  1.00  0.00     0.031 C 
ATOM     48  C   UNL A   1      41.406  25.605  27.738  1.00  0.00     0.029 A 
ATOM     49  N   UNL A   1      42.924  27.229  28.006  1.00  0.00    -0.354 N 
ATOM     50  C   UNL A   1      47.127  26.485  27.325  1.00  0.00     0.074 A 
ATOM     51  C   UNL A   1      47.353  25.117  26.917  1.00  0.00     0.031 C 
ATOM     52  C   UNL A   1      40.757  26.705  28.158  1.00  0.00     0.029 A 
ATOM     53  C   UNL A   1      41.724  27.775  28.397  1.00  0.00     0.049 A 
ATOM     54  H   UNL A   1      43.766  27.738  27.983  1.00  0.00     0.167 HD
ATOM     55  C   UNL A   1      48.107  27.409  27.457  1.00  0.00     0.034 A 
ATOM     56  C   UNL A   1      41.447  28.987  28.919  1.00  0.00     0.034 A 
ATOM     57  C   UNL A   1      47.880  28.771  27.855  1.00  0.00     0.049 A 
ATOM     58  C   UNL A   1      42.563  29.988  29.095  1.00  0.00     0.074 A 
ATOM     59  C   UNL A   1      48.803  29.794  27.982  1.00  0.00     0.029 A 
ATOM     60  N   UNL A   1      46.648  29.297  28.208  1.00  0.00    -0.354 N 
ATOM     61  N   UNL A   1      43.836  29.868  28.804  1.00  0.00    -0.248 NA
ATOM     62  C   UNL A   1      42.197  31.303  29.642  1.00  0.00     0.031 C 
ATOM     63  C   UNL A   1      48.134  30.928  28.451  1.00  0.00     0.029 A 
ATOM     64  C   UNL A   1      46.787  30.627  28.568  1.00  0.00     0.049 A 
ATOM     65  H   UNL A   1      45.799  28.800  28.204  1.00  0.00     0.167 HD
ATOM     66  C   UNL A   1      44.413  31.101  29.093  1.00  0.00     0.074 A 
ATOM     67  C   UNL A   1      43.347  31.959  29.566  1.00  0.00     0.031 C 
ATOM     68  C   UNL A   1      45.709  31.486  28.987  1.00  0.00     0.034 A 
BRANCH  55  69
ATOM     69  C   UNL A   1      49.518  26.976  27.158  1.00  0.00     0.023 A 
ATOM     70  C   UNL A   1      50.237  26.219  28.106  1.00  0.00     0.012 A 
ATOM     71  C   UNL A   1      50.114  27.275  25.917  1.00  0.00     0.148 A 
ATOM     72  C   UNL A   1      51.539  25.797  27.839  1.00  0.00     0.002 A 
ATOM     73  C   UNL A   1      51.393  26.809  25.638  1.00  0.00     0.091 A 
ATOM     74  F   UNL A   1      49.423  28.014  25.038  1.00  0.00    -0.205 F 
ATOM     75  C   UNL A   1      52.112  26.082  26.602  1.00  0.00     0.022 A 
BRANCH  73  76
ATOM     76  S   UNL A   1      52.188  27.054  24.047  1.00  0.00     0.127 S 
ATOM     77  O   UNL A   1      52.734  28.404  24.194  1.00  0.00    -0.237 OA
ATOM     78  O   UNL A   1      53.191  25.988  24.039  1.00  0.00    -0.237 OA
ATOM     79  O   UNL A   1      51.141  26.913  23.046  1.00  0.00    -0.744 OA
ENDBRANCH  73  76
ENDBRANCH  55  69
BRANCH  56  80
ATOM     80  C   UNL A   1      40.050  29.332  29.308  1.00  0.00     0.023 A 
ATOM     81  C   UNL A   1      39.119  29.704  28.319  1.00  0.00     0.012 A 
ATOM     82  C   UNL A   1      39.642  29.295  30.655  1.00  0.00     0.148 A 
ATOM     83  C   UNL A   1      37.817  30.068  28.669  1.00  0.00     0.002 A 
ATOM     84  C   UNL A   1      38.327  29.600  30.991  1.00  0.00     0.091 A 
ATOM     85  F   UNL A   1      40.547  28.954  31.583  1.00  0.00    -0.205 F 
ATOM     86  C   UNL A   1      37.419  30.007  30.001  1.00  0.00     0.022 A 
BRANCH  84  87
ATOM     87  S   UNL A   1      37.692  29.425  32.661  1.00  0.00     0.127 S 
ATOM     88  O   UNL A   1      37.671  27.974  32.823  1.00  0.00    -0.237 OA
ATOM     89  O   UNL A   1      38.714  30.120  33.444  1.00  0.00    -0.237 OA
ATOM     90  O   UNL A   1      36.390  30.078  32.659  1.00  0.00    -0.744 OA
ENDBRANCH  84  87
ENDBRANCH  56  80
BRANCH  68  91
ATOM     91  C   UNL A   1      46.052  32.912  29.334  1.00  0.00     0.023 A 
ATOM     92  C   UNL A   1      46.004  33.914  28.344  1.00  0.00     0.012 A 
ATOM     93  C   UNL A   1      46.350  33.271  30.665  1.00  0.00     0.148 A 
ATOM     94  C   UNL A   1      46.284  35.243  28.666  1.00  0.00     0.002 A 
ATOM     95  C   UNL A   1      46.572  34.604  30.989  1.00  0.00     0.091 A 
ATOM     96  F   UNL A   1      46.405  32.301  31.590  1.00  0.00    -0.205 F 
ATOM     97  C   UNL A   1      46.554  35.588  29.988  1.00  0.00     0.022 A 
BRANCH  95  98
ATOM     98  S   UNL A   1      46.830  35.156  32.678  1.00  0.00     0.127 S 
ATOM     99  O   UNL A   1      47.710  34.113  33.202  1.00  0.00    -0.237 OA
ATOM    100  O   UNL A   1      47.474  36.456  32.481  1.00  0.00    -0.237 OA
ATOM    101  O   UNL A   1      45.509  35.221  33.287  1.00  0.00    -0.744 OA
ENDBRANCH  95  98
ENDBRANCH  68  91
ENDBRANCH  42  43
ENDBRANCH  35  37
ENDBRANCH  34  35
ENDBRANCH  33  34
ENDBRANCH  32  33
ENDBRANCH  31  32
ENDBRANCH  30  31
ENDBRANCH   1  30
TORSDOF 26
ENDMDL
