MODEL 1
REMARK VINA RESULT:      -8.9      0.000      0.000
REMARK SMILES Cc1ccc(NC(=O)C[NH+]2CCN(c3ccc(C(=O)OCCOCCOCCOCCOC(=O)c4ccc(-c5c6nc(c(-c7cccc(S(=O)(=O)[O-])c7F)c7ccc([nH]7)c(-c7cccc(S(=O)(=O)[O-])c7F)c7nc(c(-c8cccc(S(=O)(=O)[O-])c8F)c8ccc5[nH]8)C=C7)C=C6)cc4)cc3NS(C)(=O)=O)CC2)cc1
REMARK SMILES IDX 25 1 24 2 23 3 22 4 21 5 20 6 18 7 19 8 17 9 14 10 15 11
REMARK SMILES IDX 99 12 16 13 98 14 13 15 10 16 11 17 106 18 12 20 105 21 9 22
REMARK SMILES IDX 7 23 6 24 8 26 5 27 1 28 2 29 3 30 108 31 4 32 107 33 100 34
REMARK SMILES IDX 101 36 102 37 103 38 104 39 26 40 27 41 28 42 29 43 30 44
REMARK SMILES IDX 31 45 32 46 33 47 34 48 35 49 36 50 97 51 37 52 96 53 38 54
REMARK SMILES IDX 39 55 40 56 90 57 41 58 95 59 89 60 91 61 42 62 94 63 88 64
REMARK SMILES IDX 87 65 43 67 75 68 55 69 74 70 56 71 59 72 73 73 92 74 57 75
REMARK SMILES IDX 58 76 72 78 93 79 60 80 44 81 45 82 53 83 46 84 48 85 54 86
REMARK SMILES IDX 47 87 49 88 50 89 51 90 52 91 76 92 77 93 85 94 78 95 80 96
REMARK SMILES IDX 86 97 79 98 81 99 82 100 83 101 84 102 61 103 62 104 70 105
REMARK SMILES IDX 63 106 65 107 71 108 64 109 66 110 67 111 68 112 69 113
REMARK H PARENT 10 19 6 25 100 35 91 66 59 77
REMARK Flexibility Score: inf
ROOT
ATOM      1  C   UNL A   1      33.187  29.260  26.313  1.00  0.00     0.188 C 
ENDROOT
BRANCH   1   2
ATOM      2  C   UNL A   1      32.316  29.113  25.061  1.00  0.00     0.188 C 
BRANCH   2   3
ATOM      3  O   UNL A   1      30.988  29.604  25.038  1.00  0.00    -0.376 OA
BRANCH   3   4
ATOM      4  C   UNL A   1      30.510  30.052  23.771  1.00  0.00     0.202 C 
BRANCH   4   5
ATOM      5  C   UNL A   1      29.098  29.634  23.352  1.00  0.00     0.261 C 
BRANCH   5   6
ATOM      6  O   UNL A   1      29.137  28.350  22.730  1.00  0.00    -0.460 OA
BRANCH   6   7
ATOM      7  C   UNL A   1      28.933  27.330  23.564  1.00  0.00     0.338 C 
ATOM      8  O   UNL A   1      27.899  26.754  23.847  1.00  0.00    -0.246 OA
BRANCH   7   9
ATOM      9  C   UNL A   1      30.193  26.616  23.589  1.00  0.00     0.062 A 
ATOM     10  C   UNL A   1      32.457  25.149  24.138  1.00  0.00     0.062 A 
ATOM     11  C   UNL A   1      32.273  25.777  22.873  1.00  0.00     0.029 A 
ATOM     12  C   UNL A   1      31.434  25.252  25.120  1.00  0.00     0.073 A 
ATOM     13  C   UNL A   1      31.165  26.566  22.614  1.00  0.00     0.018 A 
ATOM     14  C   UNL A   1      30.267  25.847  24.739  1.00  0.00     0.044 A 
BRANCH  10  15
ATOM     15  N   UNL A   1      33.665  24.445  24.338  1.00  0.00    -0.359 N 
ATOM     16  N   UNL A   1      36.188  23.239  24.700  1.00  0.00    -0.324 N 
ATOM     17  C   UNL A   1      35.802  23.533  23.306  1.00  0.00     0.284 C 
ATOM     18  C   UNL A   1      35.922  24.482  25.465  1.00  0.00     0.284 C 
ATOM     19  H   UNL A   1      37.168  22.957  24.741  1.00  0.00     0.348 HD
ATOM     20  C   UNL A   1      34.405  24.167  23.082  1.00  0.00     0.178 C 
ATOM     21  C   UNL A   1      34.452  24.967  25.477  1.00  0.00     0.178 C 
BRANCH  16  22
ATOM     22  C   UNL A   1      35.412  22.108  25.281  1.00  0.00     0.364 C 
BRANCH  22  23
ATOM     23  C   UNL A   1      36.268  20.854  25.520  1.00  0.00     0.279 C 
ATOM     24  N   UNL A   1      35.875  19.578  25.211  1.00  0.00    -0.321 N 
ATOM     25  H   UNL A   1      36.549  18.895  25.431  1.00  0.00     0.170 HD
ATOM     26  O   UNL A   1      37.421  20.972  25.964  1.00  0.00    -0.268 OA
BRANCH  24  27
ATOM     27  C   UNL A   1      34.708  19.049  24.644  1.00  0.00     0.041 A 
ATOM     28  C   UNL A   1      31.806  17.795  21.775  1.00  0.00     0.044 C 
ATOM     29  C   UNL A   1      32.705  18.070  22.938  1.00  0.00    -0.051 A 
ATOM     30  C   UNL A   1      32.545  19.253  23.647  1.00  0.00     0.005 A 
ATOM     31  C   UNL A   1      33.801  17.277  23.234  1.00  0.00     0.005 A 
ATOM     32  C   UNL A   1      33.520  19.739  24.518  1.00  0.00     0.026 A 
ATOM     33  C   UNL A   1      34.789  17.757  24.103  1.00  0.00     0.026 A 
ENDBRANCH  24  27
ENDBRANCH  22  23
ENDBRANCH  16  22
ENDBRANCH  10  15
BRANCH  12  34
ATOM     34  N   UNL A   1      31.539  24.760  26.474  1.00  0.00    -0.282 N 
ATOM     35  H   UNL A   1      31.798  25.396  27.180  1.00  0.00     0.180 HD
BRANCH  34  36
ATOM     36  S   UNL A   1      31.240  23.135  26.923  1.00  0.00     0.229 S 
ATOM     37  C   UNL A   1      30.996  22.297  25.351  1.00  0.00     0.183 C 
ATOM     38  O   UNL A   1      32.501  22.653  27.465  1.00  0.00    -0.207 OA
ATOM     39  O   UNL A   1      30.040  23.020  27.710  1.00  0.00    -0.207 OA
ENDBRANCH  34  36
ENDBRANCH  12  34
ENDBRANCH   7   9
ENDBRANCH   6   7
ENDBRANCH   5   6
ENDBRANCH   4   5
ENDBRANCH   3   4
ENDBRANCH   2   3
ENDBRANCH   1   2
BRANCH   1  40
ATOM     40  O   UNL A   1      33.816  30.509  26.549  1.00  0.00    -0.377 OA
BRANCH  40  41
ATOM     41  C   UNL A   1      33.388  31.303  27.660  1.00  0.00     0.188 C 
BRANCH  41  42
ATOM     42  C   UNL A   1      32.687  32.630  27.372  1.00  0.00     0.188 C 
BRANCH  42  43
ATOM     43  O   UNL A   1      32.715  33.414  28.561  1.00  0.00    -0.376 OA
BRANCH  43  44
ATOM     44  C   UNL A   1      33.626  34.503  28.583  1.00  0.00     0.202 C 
BRANCH  44  45
ATOM     45  C   UNL A   1      34.931  34.201  29.324  1.00  0.00     0.261 C 
BRANCH  45  46
ATOM     46  O   UNL A   1      34.713  33.140  30.270  1.00  0.00    -0.460 OA
BRANCH  46  47
ATOM     47  C   UNL A   1      34.538  33.558  31.555  1.00  0.00     0.338 C 
ATOM     48  O   UNL A   1      33.534  34.121  31.963  1.00  0.00    -0.246 OA
BRANCH  47  49
ATOM     49  C   UNL A   1      35.824  33.457  32.304  1.00  0.00     0.060 A 
ATOM     50  C   UNL A   1      36.931  34.220  31.907  1.00  0.00     0.016 A 
ATOM     51  C   UNL A   1      36.011  32.401  33.186  1.00  0.00     0.016 A 
ATOM     52  C   UNL A   1      38.234  33.804  32.235  1.00  0.00     0.010 A 
ATOM     53  C   UNL A   1      37.300  31.962  33.433  1.00  0.00     0.010 A 
ATOM     54  C   UNL A   1      38.437  32.612  32.919  1.00  0.00    -0.014 A 
BRANCH  54  55
ATOM     55  C   UNL A   1      39.727  31.878  33.025  1.00  0.00     0.031 A 
ATOM     56  C   UNL A   1      40.755  32.349  34.049  1.00  0.00     0.074 A 
ATOM     57  C   UNL A   1      39.738  30.573  32.629  1.00  0.00     0.049 A 
ATOM     58  N   UNL A   1      41.800  31.698  34.462  1.00  0.00    -0.248 NA
ATOM     59  C   UNL A   1      40.663  33.665  34.695  1.00  0.00     0.031 C 
ATOM     60  C   UNL A   1      40.255  29.508  33.472  1.00  0.00     0.029 A 
ATOM     61  N   UNL A   1      39.222  29.848  31.545  1.00  0.00    -0.354 N 
ATOM     62  C   UNL A   1      42.312  32.342  35.590  1.00  0.00     0.074 A 
ATOM     63  C   UNL A   1      41.628  33.606  35.620  1.00  0.00     0.031 C 
ATOM     64  C   UNL A   1      40.142  28.319  32.886  1.00  0.00     0.029 A 
ATOM     65  C   UNL A   1      39.882  28.600  31.512  1.00  0.00     0.049 A 
ATOM     66  H   UNL A   1      38.525  30.152  30.920  1.00  0.00     0.167 HD
ATOM     67  C   UNL A   1      43.145  31.690  36.463  1.00  0.00     0.034 A 
ATOM     68  C   UNL A   1      40.645  28.046  30.526  1.00  0.00     0.034 A 
ATOM     69  C   UNL A   1      43.540  30.352  35.963  1.00  0.00     0.049 A 
ATOM     70  C   UNL A   1      42.090  27.761  30.959  1.00  0.00     0.074 A 
ATOM     71  C   UNL A   1      43.629  29.104  36.551  1.00  0.00     0.029 A 
ATOM     72  N   UNL A   1      43.883  30.144  34.627  1.00  0.00    -0.354 N 
ATOM     73  N   UNL A   1      42.598  28.153  32.106  1.00  0.00    -0.248 NA
ATOM     74  C   UNL A   1      43.082  27.019  30.177  1.00  0.00     0.031 C 
ATOM     75  C   UNL A   1      43.857  28.129  35.550  1.00  0.00     0.029 A 
ATOM     76  C   UNL A   1      44.102  28.804  34.370  1.00  0.00     0.049 A 
ATOM     77  H   UNL A   1      43.959  30.859  33.954  1.00  0.00     0.167 HD
ATOM     78  C   UNL A   1      43.941  27.884  32.161  1.00  0.00     0.074 A 
ATOM     79  C   UNL A   1      44.176  27.106  30.959  1.00  0.00     0.031 C 
ATOM     80  C   UNL A   1      44.756  28.372  33.151  1.00  0.00     0.034 A 
BRANCH  67  81
ATOM     81  C   UNL A   1      43.496  32.109  37.928  1.00  0.00     0.023 A 
ATOM     82  C   UNL A   1      44.872  32.107  38.282  1.00  0.00     0.012 A 
ATOM     83  C   UNL A   1      42.618  32.391  39.011  1.00  0.00     0.148 A 
ATOM     84  C   UNL A   1      45.345  32.250  39.597  1.00  0.00     0.002 A 
ATOM     85  C   UNL A   1      43.100  32.645  40.315  1.00  0.00     0.091 A 
ATOM     86  F   UNL A   1      41.296  32.360  38.827  1.00  0.00    -0.205 F 
ATOM     87  C   UNL A   1      44.457  32.527  40.618  1.00  0.00     0.022 A 
BRANCH  85  88
ATOM     88  S   UNL A   1      42.047  33.178  41.686  1.00  0.00     0.127 S 
ATOM     89  O   UNL A   1      43.002  33.314  42.787  1.00  0.00    -0.237 OA
ATOM     90  O   UNL A   1      41.510  34.447  41.195  1.00  0.00    -0.237 OA
ATOM     91  O   UNL A   1      41.050  32.129  41.868  1.00  0.00    -0.744 OA
ENDBRANCH  85  88
ENDBRANCH  67  81
BRANCH  68  92
ATOM     92  C   UNL A   1      40.046  28.223  29.173  1.00  0.00     0.023 A 
ATOM     93  C   UNL A   1      40.522  29.397  28.533  1.00  0.00     0.012 A 
ATOM     94  C   UNL A   1      39.851  27.067  28.405  1.00  0.00     0.148 A 
ATOM     95  C   UNL A   1      41.121  29.314  27.274  1.00  0.00     0.002 A 
ATOM     96  C   UNL A   1      40.464  26.985  27.154  1.00  0.00     0.091 A 
ATOM     97  F   UNL A   1      39.277  26.004  28.986  1.00  0.00    -0.205 F 
ATOM     98  C   UNL A   1      41.150  28.088  26.615  1.00  0.00     0.022 A 
BRANCH  96  99
ATOM     99  S   UNL A   1      40.717  25.369  26.401  1.00  0.00     0.127 S 
ATOM    100  O   UNL A   1      41.481  24.670  27.425  1.00  0.00    -0.237 OA
ATOM    101  O   UNL A   1      39.349  24.888  26.205  1.00  0.00    -0.237 OA
ATOM    102  O   UNL A   1      41.405  25.681  25.155  1.00  0.00    -0.744 OA
ENDBRANCH  96  99
ENDBRANCH  68  92
BRANCH  80 103
ATOM    103  C   UNL A   1      46.284  28.499  33.118  1.00  0.00     0.023 A 
ATOM    104  C   UNL A   1      47.095  27.964  34.132  1.00  0.00     0.012 A 
ATOM    105  C   UNL A   1      46.970  28.990  31.961  1.00  0.00     0.148 A 
ATOM    106  C   UNL A   1      48.492  27.939  34.031  1.00  0.00     0.002 A 
ATOM    107  C   UNL A   1      48.350  28.871  31.823  1.00  0.00     0.091 A 
ATOM    108  F   UNL A   1      46.299  29.599  30.978  1.00  0.00    -0.205 F 
ATOM    109  C   UNL A   1      49.118  28.366  32.869  1.00  0.00     0.022 A 
BRANCH 107 110
ATOM    110  S   UNL A   1      49.194  29.221  30.268  1.00  0.00     0.127 S 
ATOM    111  O   UNL A   1      49.138  30.681  30.220  1.00  0.00    -0.237 OA
ATOM    112  O   UNL A   1      50.529  28.673  30.518  1.00  0.00    -0.237 OA
ATOM    113  O   UNL A   1      48.444  28.523  29.234  1.00  0.00    -0.744 OA
ENDBRANCH 107 110
ENDBRANCH  80 103
ENDBRANCH  54  55
ENDBRANCH  47  49
ENDBRANCH  46  47
ENDBRANCH  45  46
ENDBRANCH  44  45
ENDBRANCH  43  44
ENDBRANCH  42  43
ENDBRANCH  41  42
ENDBRANCH  40  41
ENDBRANCH   1  40
TORSDOF 29
ENDMDL
MODEL 2
REMARK VINA RESULT:      -8.6      2.655      7.938
REMARK SMILES Cc1ccc(NC(=O)C[NH+]2CCN(c3ccc(C(=O)OCCOCCOCCOCCOC(=O)c4ccc(-c5c6nc(c(-c7cccc(S(=O)(=O)[O-])c7F)c7ccc([nH]7)c(-c7cccc(S(=O)(=O)[O-])c7F)c7nc(c(-c8cccc(S(=O)(=O)[O-])c8F)c8ccc5[nH]8)C=C7)C=C6)cc4)cc3NS(C)(=O)=O)CC2)cc1
REMARK SMILES IDX 25 1 24 2 23 3 22 4 21 5 20 6 18 7 19 8 17 9 14 10 15 11
REMARK SMILES IDX 99 12 16 13 98 14 13 15 10 16 11 17 106 18 12 20 105 21 9 22
REMARK SMILES IDX 7 23 6 24 8 26 5 27 1 28 2 29 3 30 108 31 4 32 107 33 100 34
REMARK SMILES IDX 101 36 102 37 103 38 104 39 26 40 27 41 28 42 29 43 30 44
REMARK SMILES IDX 31 45 32 46 33 47 34 48 35 49 36 50 97 51 37 52 96 53 38 54
REMARK SMILES IDX 39 55 40 56 90 57 41 58 95 59 89 60 91 61 42 62 94 63 88 64
REMARK SMILES IDX 87 65 43 67 75 68 55 69 74 70 56 71 59 72 73 73 92 74 57 75
REMARK SMILES IDX 58 76 72 78 93 79 60 80 44 81 45 82 53 83 46 84 48 85 54 86
REMARK SMILES IDX 47 87 49 88 50 89 51 90 52 91 76 92 77 93 85 94 78 95 80 96
REMARK SMILES IDX 86 97 79 98 81 99 82 100 83 101 84 102 61 103 62 104 70 105
REMARK SMILES IDX 63 106 65 107 71 108 64 109 66 110 67 111 68 112 69 113
REMARK H PARENT 10 19 6 25 100 35 91 66 59 77
REMARK Flexibility Score: inf
ROOT
ATOM      1  C   UNL A   1      34.311  29.216  27.088  1.00  0.00     0.188 C 
ENDROOT
BRANCH   1   2
ATOM      2  C   UNL A   1      34.094  28.708  25.659  1.00  0.00     0.188 C 
BRANCH   2   3
ATOM      3  O   UNL A   1      33.070  29.248  24.844  1.00  0.00    -0.376 OA
BRANCH   3   4
ATOM      4  C   UNL A   1      32.225  28.300  24.193  1.00  0.00     0.202 C 
BRANCH   4   5
ATOM      5  C   UNL A   1      30.849  28.033  24.806  1.00  0.00     0.261 C 
BRANCH   5   6
ATOM      6  O   UNL A   1      30.713  26.644  25.103  1.00  0.00    -0.460 OA
BRANCH   6   7
ATOM      7  C   UNL A   1      31.432  26.234  26.149  1.00  0.00     0.338 C 
ATOM      8  O   UNL A   1      31.477  26.677  27.281  1.00  0.00    -0.246 OA
BRANCH   7   9
ATOM      9  C   UNL A   1      31.657  24.823  25.911  1.00  0.00     0.062 A 
ATOM     10  C   UNL A   1      32.327  22.307  25.014  1.00  0.00     0.062 A 
ATOM     11  C   UNL A   1      31.575  22.489  26.210  1.00  0.00     0.029 A 
ATOM     12  C   UNL A   1      32.771  23.449  24.292  1.00  0.00     0.073 A 
ATOM     13  C   UNL A   1      31.184  23.749  26.632  1.00  0.00     0.018 A 
ATOM     14  C   UNL A   1      32.555  24.667  24.867  1.00  0.00     0.044 A 
BRANCH  10  15
ATOM     15  N   UNL A   1      32.594  20.978  24.618  1.00  0.00    -0.359 N 
ATOM     16  N   UNL A   1      32.898  18.295  23.806  1.00  0.00    -0.324 N 
ATOM     17  C   UNL A   1      32.465  18.507  25.201  1.00  0.00     0.284 C 
ATOM     18  C   UNL A   1      32.020  19.152  22.974  1.00  0.00     0.284 C 
ATOM     19  H   UNL A   1      32.826  17.307  23.562  1.00  0.00     0.348 HD
ATOM     20  C   UNL A   1      32.321  19.976  25.677  1.00  0.00     0.178 C 
ATOM     21  C   UNL A   1      32.090  20.672  23.260  1.00  0.00     0.178 C 
BRANCH  16  22
ATOM     22  C   UNL A   1      34.326  18.665  23.590  1.00  0.00     0.364 C 
BRANCH  22  23
ATOM     23  C   UNL A   1      35.293  17.866  24.478  1.00  0.00     0.279 C 
ATOM     24  N   UNL A   1      36.408  18.393  25.075  1.00  0.00    -0.321 N 
ATOM     25  H   UNL A   1      36.913  17.738  25.610  1.00  0.00     0.170 HD
ATOM     26  O   UNL A   1      35.047  16.679  24.743  1.00  0.00    -0.268 OA
BRANCH  24  27
ATOM     27  C   UNL A   1      36.974  19.675  25.080  1.00  0.00     0.041 A 
ATOM     28  C   UNL A   1      38.826  23.280  26.421  1.00  0.00     0.044 C 
ATOM     29  C   UNL A   1      38.264  22.085  25.720  1.00  0.00    -0.051 A 
ATOM     30  C   UNL A   1      36.900  22.032  25.468  1.00  0.00     0.005 A 
ATOM     31  C   UNL A   1      39.018  20.951  25.462  1.00  0.00     0.005 A 
ATOM     32  C   UNL A   1      36.249  20.848  25.123  1.00  0.00     0.026 A 
ATOM     33  C   UNL A   1      38.374  19.755  25.121  1.00  0.00     0.026 A 
ENDBRANCH  24  27
ENDBRANCH  22  23
ENDBRANCH  16  22
ENDBRANCH  10  15
BRANCH  12  34
ATOM     34  N   UNL A   1      33.441  23.405  23.013  1.00  0.00    -0.282 N 
ATOM     35  H   UNL A   1      34.070  22.667  22.844  1.00  0.00     0.180 HD
BRANCH  34  36
ATOM     36  S   UNL A   1      33.205  24.565  21.775  1.00  0.00     0.229 S 
ATOM     37  C   UNL A   1      31.546  25.186  22.084  1.00  0.00     0.183 C 
ATOM     38  O   UNL A   1      34.125  25.646  22.088  1.00  0.00    -0.207 OA
ATOM     39  O   UNL A   1      33.245  23.955  20.472  1.00  0.00    -0.207 OA
ENDBRANCH  34  36
ENDBRANCH  12  34
ENDBRANCH   7   9
ENDBRANCH   6   7
ENDBRANCH   5   6
ENDBRANCH   4   5
ENDBRANCH   3   4
ENDBRANCH   2   3
ENDBRANCH   1   2
BRANCH   1  40
ATOM     40  O   UNL A   1      34.845  30.519  27.263  1.00  0.00    -0.377 OA
BRANCH  40  41
ATOM     41  C   UNL A   1      34.220  31.406  28.197  1.00  0.00     0.188 C 
BRANCH  41  42
ATOM     42  C   UNL A   1      34.100  32.881  27.821  1.00  0.00     0.188 C 
BRANCH  42  43
ATOM     43  O   UNL A   1      33.694  33.603  28.981  1.00  0.00    -0.376 OA
BRANCH  43  44
ATOM     44  C   UNL A   1      34.726  34.022  29.861  1.00  0.00     0.202 C 
BRANCH  44  45
ATOM     45  C   UNL A   1      34.750  33.264  31.191  1.00  0.00     0.261 C 
BRANCH  45  46
ATOM     46  O   UNL A   1      33.843  33.887  32.117  1.00  0.00    -0.460 OA
BRANCH  46  47
ATOM     47  C   UNL A   1      34.334  35.007  32.719  1.00  0.00     0.338 C 
ATOM     48  O   UNL A   1      33.861  36.124  32.581  1.00  0.00    -0.246 OA
BRANCH  47  49
ATOM     49  C   UNL A   1      35.653  34.709  33.350  1.00  0.00     0.060 A 
ATOM     50  C   UNL A   1      36.841  34.977  32.656  1.00  0.00     0.016 A 
ATOM     51  C   UNL A   1      35.696  33.899  34.476  1.00  0.00     0.016 A 
ATOM     52  C   UNL A   1      38.021  34.281  32.974  1.00  0.00     0.010 A 
ATOM     53  C   UNL A   1      36.842  33.166  34.725  1.00  0.00     0.010 A 
ATOM     54  C   UNL A   1      38.010  33.293  33.949  1.00  0.00    -0.014 A 
BRANCH  54  55
ATOM     55  C   UNL A   1      39.055  32.252  34.147  1.00  0.00     0.031 A 
ATOM     56  C   UNL A   1      39.003  30.991  33.289  1.00  0.00     0.074 A 
ATOM     57  C   UNL A   1      40.253  32.657  34.653  1.00  0.00     0.049 A 
ATOM     58  N   UNL A   1      39.946  30.114  33.134  1.00  0.00    -0.248 NA
ATOM     59  C   UNL A   1      37.806  30.621  32.522  1.00  0.00     0.031 C 
ATOM     60  C   UNL A   1      41.518  32.330  34.018  1.00  0.00     0.029 A 
ATOM     61  N   UNL A   1      40.671  33.510  35.686  1.00  0.00    -0.354 N 
ATOM     62  C   UNL A   1      39.612  29.280  32.065  1.00  0.00     0.074 A 
ATOM     63  C   UNL A   1      38.232  29.581  31.797  1.00  0.00     0.031 C 
ATOM     64  C   UNL A   1      42.550  32.850  34.678  1.00  0.00     0.029 A 
ATOM     65  C   UNL A   1      42.028  33.229  35.951  1.00  0.00     0.049 A 
ATOM     66  H   UNL A   1      40.118  34.184  36.143  1.00  0.00     0.167 HD
ATOM     67  C   UNL A   1      40.566  28.535  31.420  1.00  0.00     0.034 A 
ATOM     68  C   UNL A   1      42.619  32.805  37.106  1.00  0.00     0.034 A 
ATOM     69  C   UNL A   1      41.880  28.600  32.102  1.00  0.00     0.049 A 
ATOM     70  C   UNL A   1      43.318  31.444  36.970  1.00  0.00     0.074 A 
ATOM     71  C   UNL A   1      43.178  28.767  31.654  1.00  0.00     0.029 A 
ATOM     72  N   UNL A   1      41.986  28.534  33.492  1.00  0.00    -0.354 N 
ATOM     73  N   UNL A   1      43.226  30.681  35.904  1.00  0.00    -0.248 NA
ATOM     74  C   UNL A   1      44.174  30.823  37.984  1.00  0.00     0.031 C 
ATOM     75  C   UNL A   1      44.034  28.969  32.764  1.00  0.00     0.029 A 
ATOM     76  C   UNL A   1      43.290  28.730  33.903  1.00  0.00     0.049 A 
ATOM     77  H   UNL A   1      41.230  28.369  34.099  1.00  0.00     0.167 HD
ATOM     78  C   UNL A   1      43.832  29.470  36.120  1.00  0.00     0.074 A 
ATOM     79  C   UNL A   1      44.474  29.641  37.410  1.00  0.00     0.031 C 
ATOM     80  C   UNL A   1      43.705  28.412  35.255  1.00  0.00     0.034 A 
BRANCH  67  81
ATOM     81  C   UNL A   1      40.452  27.865  30.011  1.00  0.00     0.023 A 
ATOM     82  C   UNL A   1      39.499  26.819  29.875  1.00  0.00     0.012 A 
ATOM     83  C   UNL A   1      41.252  28.076  28.855  1.00  0.00     0.148 A 
ATOM     84  C   UNL A   1      39.412  25.977  28.755  1.00  0.00     0.002 A 
ATOM     85  C   UNL A   1      41.091  27.300  27.685  1.00  0.00     0.091 A 
ATOM     86  F   UNL A   1      42.229  28.985  28.874  1.00  0.00    -0.205 F 
ATOM     87  C   UNL A   1      40.206  26.221  27.651  1.00  0.00     0.022 A 
BRANCH  85  88
ATOM     88  S   UNL A   1      41.955  27.636  26.132  1.00  0.00     0.127 S 
ATOM     89  O   UNL A   1      41.350  26.672  25.214  1.00  0.00    -0.237 OA
ATOM     90  O   UNL A   1      41.594  29.029  25.867  1.00  0.00    -0.237 OA
ATOM     91  O   UNL A   1      43.373  27.420  26.399  1.00  0.00    -0.744 OA
ENDBRANCH  85  88
ENDBRANCH  67  81
BRANCH  68  92
ATOM     92  C   UNL A   1      42.115  33.531  38.304  1.00  0.00     0.023 A 
ATOM     93  C   UNL A   1      41.228  32.732  39.073  1.00  0.00     0.012 A 
ATOM     94  C   UNL A   1      43.021  34.368  38.972  1.00  0.00     0.148 A 
ATOM     95  C   UNL A   1      41.485  32.506  40.427  1.00  0.00     0.002 A 
ATOM     96  C   UNL A   1      43.283  34.126  40.321  1.00  0.00     0.091 A 
ATOM     97  F   UNL A   1      43.761  35.216  38.245  1.00  0.00    -0.205 F 
ATOM     98  C   UNL A   1      42.557  33.154  41.033  1.00  0.00     0.022 A 
BRANCH  96  99
ATOM     99  S   UNL A   1      44.797  34.769  41.053  1.00  0.00     0.127 S 
ATOM    100  O   UNL A   1      44.892  34.001  42.286  1.00  0.00    -0.237 OA
ATOM    101  O   UNL A   1      45.805  34.452  40.041  1.00  0.00    -0.237 OA
ATOM    102  O   UNL A   1      44.531  36.197  41.179  1.00  0.00    -0.744 OA
ENDBRANCH  96  99
ENDBRANCH  68  92
BRANCH  80 103
ATOM    103  C   UNL A   1      43.967  26.932  35.554  1.00  0.00     0.023 A 
ATOM    104  C   UNL A   1      42.953  25.965  35.458  1.00  0.00     0.012 A 
ATOM    105  C   UNL A   1      45.294  26.430  35.751  1.00  0.00     0.148 A 
ATOM    106  C   UNL A   1      43.219  24.594  35.576  1.00  0.00     0.002 A 
ATOM    107  C   UNL A   1      45.566  25.065  35.768  1.00  0.00     0.091 A 
ATOM    108  F   UNL A   1      46.318  27.269  35.944  1.00  0.00    -0.205 F 
ATOM    109  C   UNL A   1      44.525  24.142  35.704  1.00  0.00     0.022 A 
BRANCH 107 110
ATOM    110  S   UNL A   1      47.250  24.419  35.730  1.00  0.00     0.127 S 
ATOM    111  O   UNL A   1      47.015  22.986  35.562  1.00  0.00    -0.237 OA
ATOM    112  O   UNL A   1      47.803  25.087  34.550  1.00  0.00    -0.237 OA
ATOM    113  O   UNL A   1      47.865  24.818  36.988  1.00  0.00    -0.744 OA
ENDBRANCH 107 110
ENDBRANCH  80 103
ENDBRANCH  54  55
ENDBRANCH  47  49
ENDBRANCH  46  47
ENDBRANCH  45  46
ENDBRANCH  44  45
ENDBRANCH  43  44
ENDBRANCH  42  43
ENDBRANCH  41  42
ENDBRANCH  40  41
ENDBRANCH   1  40
TORSDOF 29
ENDMDL
MODEL 3
REMARK VINA RESULT:      -7.7      5.917     10.504
REMARK SMILES Cc1ccc(NC(=O)C[NH+]2CCN(c3ccc(C(=O)OCCOCCOCCOCCOC(=O)c4ccc(-c5c6nc(c(-c7cccc(S(=O)(=O)[O-])c7F)c7ccc([nH]7)c(-c7cccc(S(=O)(=O)[O-])c7F)c7nc(c(-c8cccc(S(=O)(=O)[O-])c8F)c8ccc5[nH]8)C=C7)C=C6)cc4)cc3NS(C)(=O)=O)CC2)cc1
REMARK SMILES IDX 25 1 24 2 23 3 22 4 21 5 20 6 18 7 19 8 17 9 14 10 15 11
REMARK SMILES IDX 99 12 16 13 98 14 13 15 10 16 11 17 106 18 12 20 105 21 9 22
REMARK SMILES IDX 7 23 6 24 8 26 5 27 1 28 2 29 3 30 108 31 4 32 107 33 100 34
REMARK SMILES IDX 101 36 102 37 103 38 104 39 26 40 27 41 28 42 29 43 30 44
REMARK SMILES IDX 31 45 32 46 33 47 34 48 35 49 36 50 97 51 37 52 96 53 38 54
REMARK SMILES IDX 39 55 40 56 90 57 41 58 95 59 89 60 91 61 42 62 94 63 88 64
REMARK SMILES IDX 87 65 43 67 75 68 55 69 74 70 56 71 59 72 73 73 92 74 57 75
REMARK SMILES IDX 58 76 72 78 93 79 60 80 44 81 45 82 53 83 46 84 48 85 54 86
REMARK SMILES IDX 47 87 49 88 50 89 51 90 52 91 76 92 77 93 85 94 78 95 80 96
REMARK SMILES IDX 86 97 79 98 81 99 82 100 83 101 84 102 61 103 62 104 70 105
REMARK SMILES IDX 63 106 65 107 71 108 64 109 66 110 67 111 68 112 69 113
REMARK H PARENT 10 19 6 25 100 35 91 66 59 77
REMARK Flexibility Score: inf
ROOT
ATOM      1  C   UNL A   1      37.853  32.851  40.765  1.00  0.00     0.188 C 
ENDROOT
BRANCH   1   2
ATOM      2  C   UNL A   1      36.544  32.541  40.032  1.00  0.00     0.188 C 
BRANCH   2   3
ATOM      3  O   UNL A   1      36.548  32.167  38.667  1.00  0.00    -0.376 OA
BRANCH   3   4
ATOM      4  C   UNL A   1      37.061  33.137  37.754  1.00  0.00     0.202 C 
BRANCH   4   5
ATOM      5  C   UNL A   1      37.835  32.631  36.536  1.00  0.00     0.261 C 
BRANCH   5   6
ATOM      6  O   UNL A   1      38.356  33.736  35.799  1.00  0.00    -0.460 OA
BRANCH   6   7
ATOM      7  C   UNL A   1      37.862  33.856  34.565  1.00  0.00     0.338 C 
ATOM      8  O   UNL A   1      37.244  34.776  34.064  1.00  0.00    -0.246 OA
BRANCH   7   9
ATOM      9  C   UNL A   1      38.710  33.016  33.746  1.00  0.00     0.062 A 
ATOM     10  C   UNL A   1      39.908  31.410  31.857  1.00  0.00     0.062 A 
ATOM     11  C   UNL A   1      40.576  31.750  33.067  1.00  0.00     0.029 A 
ATOM     12  C   UNL A   1      38.614  31.942  31.604  1.00  0.00     0.073 A 
ATOM     13  C   UNL A   1      39.955  32.507  34.047  1.00  0.00     0.018 A 
ATOM     14  C   UNL A   1      38.138  32.861  32.493  1.00  0.00     0.044 A 
BRANCH  10  15
ATOM     15  N   UNL A   1      40.590  30.555  30.963  1.00  0.00    -0.359 N 
ATOM     16  N   UNL A   1      42.142  28.884  29.305  1.00  0.00    -0.324 N 
ATOM     17  C   UNL A   1      42.328  30.337  29.121  1.00  0.00     0.284 C 
ATOM     18  C   UNL A   1      42.228  28.646  30.766  1.00  0.00     0.284 C 
ATOM     19  H   UNL A   1      42.852  28.370  28.783  1.00  0.00     0.348 HD
ATOM     20  C   UNL A   1      41.461  31.273  30.001  1.00  0.00     0.178 C 
ATOM     21  C   UNL A   1      41.168  29.368  31.633  1.00  0.00     0.178 C 
BRANCH  16  22
ATOM     22  C   UNL A   1      40.829  28.407  28.788  1.00  0.00     0.364 C 
BRANCH  22  23
ATOM     23  C   UNL A   1      40.849  28.116  27.279  1.00  0.00     0.279 C 
ATOM     24  N   UNL A   1      41.411  27.001  26.714  1.00  0.00    -0.321 N 
ATOM     25  H   UNL A   1      41.333  26.977  25.732  1.00  0.00     0.170 HD
ATOM     26  O   UNL A   1      40.277  28.889  26.495  1.00  0.00    -0.268 OA
BRANCH  24  27
ATOM     27  C   UNL A   1      42.072  25.888  27.250  1.00  0.00     0.041 A 
ATOM     28  C   UNL A   1      43.625  23.055  30.040  1.00  0.00     0.044 C 
ATOM     29  C   UNL A   1      43.108  23.859  28.890  1.00  0.00    -0.051 A 
ATOM     30  C   UNL A   1      43.925  24.829  28.325  1.00  0.00     0.005 A 
ATOM     31  C   UNL A   1      41.788  23.797  28.474  1.00  0.00     0.005 A 
ATOM     32  C   UNL A   1      43.430  25.828  27.487  1.00  0.00     0.026 A 
ATOM     33  C   UNL A   1      41.278  24.798  27.637  1.00  0.00     0.026 A 
ENDBRANCH  24  27
ENDBRANCH  22  23
ENDBRANCH  16  22
ENDBRANCH  10  15
BRANCH  12  34
ATOM     34  N   UNL A   1      37.785  31.591  30.475  1.00  0.00    -0.282 N 
ATOM     35  H   UNL A   1      38.071  31.885  29.580  1.00  0.00     0.180 HD
BRANCH  34  36
ATOM     36  S   UNL A   1      36.331  30.694  30.602  1.00  0.00     0.229 S 
ATOM     37  C   UNL A   1      35.046  31.948  30.500  1.00  0.00     0.183 C 
ATOM     38  O   UNL A   1      36.258  29.915  29.377  1.00  0.00    -0.207 OA
ATOM     39  O   UNL A   1      36.238  30.027  31.874  1.00  0.00    -0.207 OA
ENDBRANCH  34  36
ENDBRANCH  12  34
ENDBRANCH   7   9
ENDBRANCH   6   7
ENDBRANCH   5   6
ENDBRANCH   4   5
ENDBRANCH   3   4
ENDBRANCH   2   3
ENDBRANCH   1   2
BRANCH   1  40
ATOM     40  O   UNL A   1      38.797  31.805  40.924  1.00  0.00    -0.377 OA
BRANCH  40  41
ATOM     41  C   UNL A   1      38.928  31.176  42.203  1.00  0.00     0.188 C 
BRANCH  41  42
ATOM     42  C   UNL A   1      40.335  30.887  42.725  1.00  0.00     0.188 C 
BRANCH  42  43
ATOM     43  O   UNL A   1      41.255  31.689  41.989  1.00  0.00    -0.376 OA
BRANCH  43  44
ATOM     44  C   UNL A   1      41.587  32.950  42.551  1.00  0.00     0.202 C 
BRANCH  44  45
ATOM     45  C   UNL A   1      42.053  33.982  41.522  1.00  0.00     0.261 C 
BRANCH  45  46
ATOM     46  O   UNL A   1      41.419  33.720  40.257  1.00  0.00    -0.460 OA
BRANCH  46  47
ATOM     47  C   UNL A   1      42.137  34.126  39.173  1.00  0.00     0.338 C 
ATOM     48  O   UNL A   1      42.157  35.272  38.753  1.00  0.00    -0.246 OA
BRANCH  47  49
ATOM     49  C   UNL A   1      42.676  32.939  38.446  1.00  0.00     0.060 A 
ATOM     50  C   UNL A   1      44.059  32.710  38.403  1.00  0.00     0.016 A 
ATOM     51  C   UNL A   1      41.849  32.249  37.572  1.00  0.00     0.016 A 
ATOM     52  C   UNL A   1      44.619  31.946  37.363  1.00  0.00     0.010 A 
ATOM     53  C   UNL A   1      42.421  31.567  36.512  1.00  0.00     0.010 A 
ATOM     54  C   UNL A   1      43.814  31.448  36.347  1.00  0.00    -0.014 A 
BRANCH  54  55
ATOM     55  C   UNL A   1      44.286  30.942  35.030  1.00  0.00     0.031 A 
ATOM     56  C   UNL A   1      44.306  31.901  33.843  1.00  0.00     0.074 A 
ATOM     57  C   UNL A   1      45.142  29.882  35.038  1.00  0.00     0.049 A 
ATOM     58  N   UNL A   1      44.913  31.726  32.709  1.00  0.00    -0.248 NA
ATOM     59  C   UNL A   1      43.588  33.182  33.866  1.00  0.00     0.031 C 
ATOM     60  C   UNL A   1      46.404  29.895  34.318  1.00  0.00     0.029 A 
ATOM     61  N   UNL A   1      45.223  28.661  35.723  1.00  0.00    -0.354 N 
ATOM     62  C   UNL A   1      44.923  32.937  32.015  1.00  0.00     0.074 A 
ATOM     63  C   UNL A   1      44.000  33.770  32.737  1.00  0.00     0.031 C 
ATOM     64  C   UNL A   1      47.080  28.762  34.489  1.00  0.00     0.029 A 
ATOM     65  C   UNL A   1      46.135  27.839  35.027  1.00  0.00     0.049 A 
ATOM     66  H   UNL A   1      44.734  28.420  36.543  1.00  0.00     0.167 HD
ATOM     67  C   UNL A   1      45.815  33.165  30.998  1.00  0.00     0.034 A 
ATOM     68  C   UNL A   1      45.939  26.618  34.448  1.00  0.00     0.034 A 
ATOM     69  C   UNL A   1      46.586  31.947  30.648  1.00  0.00     0.049 A 
ATOM     70  C   UNL A   1      46.198  26.611  32.935  1.00  0.00     0.074 A 
ATOM     71  C   UNL A   1      47.923  31.709  30.389  1.00  0.00     0.029 A 
ATOM     72  N   UNL A   1      45.975  30.696  30.566  1.00  0.00    -0.354 N 
ATOM     73  N   UNL A   1      46.427  27.697  32.230  1.00  0.00    -0.248 NA
ATOM     74  C   UNL A   1      46.233  25.420  32.084  1.00  0.00     0.031 C 
ATOM     75  C   UNL A   1      48.144  30.312  30.318  1.00  0.00     0.029 A 
ATOM     76  C   UNL A   1      46.906  29.701  30.340  1.00  0.00     0.049 A 
ATOM     77  H   UNL A   1      45.007  30.542  30.656  1.00  0.00     0.167 HD
ATOM     78  C   UNL A   1      46.480  27.405  30.891  1.00  0.00     0.074 A 
ATOM     79  C   UNL A   1      46.428  25.955  30.862  1.00  0.00     0.031 C 
ATOM     80  C   UNL A   1      46.499  28.374  29.920  1.00  0.00     0.034 A 
BRANCH  67  81
ATOM     81  C   UNL A   1      46.220  34.546  30.385  1.00  0.00     0.023 A 
ATOM     82  C   UNL A   1      47.257  35.260  31.045  1.00  0.00     0.012 A 
ATOM     83  C   UNL A   1      45.619  35.255  29.310  1.00  0.00     0.148 A 
ATOM     84  C   UNL A   1      47.597  36.591  30.759  1.00  0.00     0.002 A 
ATOM     85  C   UNL A   1      46.037  36.556  28.949  1.00  0.00     0.091 A 
ATOM     86  F   UNL A   1      44.590  34.723  28.647  1.00  0.00    -0.205 F 
ATOM     87  C   UNL A   1      46.992  37.242  29.703  1.00  0.00     0.022 A 
BRANCH  85  88
ATOM     88  S   UNL A   1      45.432  37.435  27.488  1.00  0.00     0.127 S 
ATOM     89  O   UNL A   1      45.674  36.471  26.413  1.00  0.00    -0.237 OA
ATOM     90  O   UNL A   1      44.019  37.640  27.807  1.00  0.00    -0.237 OA
ATOM     91  O   UNL A   1      46.215  38.662  27.396  1.00  0.00    -0.744 OA
ENDBRANCH  85  88
ENDBRANCH  67  81
BRANCH  68  92
ATOM     92  C   UNL A   1      45.142  25.700  35.309  1.00  0.00     0.023 A 
ATOM     93  C   UNL A   1      45.709  25.563  36.603  1.00  0.00     0.012 A 
ATOM     94  C   UNL A   1      43.747  25.759  35.185  1.00  0.00     0.148 A 
ATOM     95  C   UNL A   1      44.942  25.843  37.736  1.00  0.00     0.002 A 
ATOM     96  C   UNL A   1      42.989  26.054  36.319  1.00  0.00     0.091 A 
ATOM     97  F   UNL A   1      43.214  25.754  33.956  1.00  0.00    -0.205 F 
ATOM     98  C   UNL A   1      43.594  26.155  37.584  1.00  0.00     0.022 A 
BRANCH  96  99
ATOM     99  S   UNL A   1      41.315  26.685  36.119  1.00  0.00     0.127 S 
ATOM    100  O   UNL A   1      40.642  25.570  35.467  1.00  0.00    -0.237 OA
ATOM    101  O   UNL A   1      40.900  26.943  37.499  1.00  0.00    -0.237 OA
ATOM    102  O   UNL A   1      41.503  27.898  35.334  1.00  0.00    -0.744 OA
ENDBRANCH  96  99
ENDBRANCH  68  92
BRANCH  80 103
ATOM    103  C   UNL A   1      46.150  28.209  28.437  1.00  0.00     0.023 A 
ATOM    104  C   UNL A   1      45.189  29.017  27.806  1.00  0.00     0.012 A 
ATOM    105  C   UNL A   1      46.922  27.365  27.574  1.00  0.00     0.148 A 
ATOM    106  C   UNL A   1      44.979  28.978  26.421  1.00  0.00     0.002 A 
ATOM    107  C   UNL A   1      46.778  27.404  26.190  1.00  0.00     0.091 A 
ATOM    108  F   UNL A   1      47.800  26.493  28.082  1.00  0.00    -0.205 F 
ATOM    109  C   UNL A   1      45.789  28.194  25.611  1.00  0.00     0.022 A 
BRANCH 107 110
ATOM    110  S   UNL A   1      47.926  26.566  25.080  1.00  0.00     0.127 S 
ATOM    111  O   UNL A   1      47.358  26.881  23.771  1.00  0.00    -0.237 OA
ATOM    112  O   UNL A   1      49.186  27.250  25.376  1.00  0.00    -0.237 OA
ATOM    113  O   UNL A   1      47.904  25.161  25.460  1.00  0.00    -0.744 OA
ENDBRANCH 107 110
ENDBRANCH  80 103
ENDBRANCH  54  55
ENDBRANCH  47  49
ENDBRANCH  46  47
ENDBRANCH  45  46
ENDBRANCH  44  45
ENDBRANCH  43  44
ENDBRANCH  42  43
ENDBRANCH  41  42
ENDBRANCH  40  41
ENDBRANCH   1  40
TORSDOF 29
ENDMDL
