MODEL 1
REMARK VINA RESULT:      -9.7      0.000      0.000
REMARK SMILES C[C@@H]1CCCN(C(=O)CSc2nnc3c4ccccc4n(CC(=O)OCCOCCOCCOCCOC(=O)c4ccc(-c5c6nc(c(-c7cccc(S(=O)(=O)[O-])c7F)c7ccc([nH]7)c(-c7cccc(S(=O)(=O)[O-])c7F)c7nc(c(-c8cccc(S(=O)(=O)[O-])c8F)c8ccc5[nH]8)C=C7)C=C6)cc4)c3n2)C1
REMARK SMILES IDX 30 1 29 2 28 3 27 4 26 5 25 6 23 7 24 8 22 9 21 10 11 11
REMARK SMILES IDX 12 12 104 13 13 14 103 15 14 16 15 17 20 18 16 19 19 20
REMARK SMILES IDX 17 21 18 22 10 23 9 24 7 25 8 26 6 27 1 28 2 29 3 30 105 31
REMARK SMILES IDX 4 32 5 33 31 34 32 35 33 36 34 37 35 38 36 39 37 40 38 41
REMARK SMILES IDX 39 42 40 43 41 44 102 45 42 46 101 47 43 48 44 49 45 50
REMARK SMILES IDX 95 51 46 52 100 53 94 54 96 55 47 56 99 57 93 58 92 59 48 61
REMARK SMILES IDX 80 62 60 63 79 64 61 65 64 66 78 67 97 68 62 69 63 70 77 72
REMARK SMILES IDX 98 73 65 74 49 75 50 76 58 77 51 78 53 79 59 80 52 81 54 82
REMARK SMILES IDX 55 83 56 84 57 85 81 86 82 87 90 88 83 89 85 90 91 91 84 92
REMARK SMILES IDX 86 93 87 94 88 95 89 96 66 97 67 98 75 99 68 100 70 101
REMARK SMILES IDX 76 102 69 103 71 104 72 105 73 106 74 107
REMARK H PARENT 96 60 64 71
REMARK Flexibility Score: inf
ROOT
ATOM      1  C   UNL A   1      40.213  21.345  27.024  1.00  0.00     0.188 C 
ENDROOT
BRANCH   1   2
ATOM      2  C   UNL A   1      39.309  21.875  25.912  1.00  0.00     0.188 C 
BRANCH   2   3
ATOM      3  O   UNL A   1      38.051  22.491  26.160  1.00  0.00    -0.376 OA
BRANCH   3   4
ATOM      4  C   UNL A   1      36.924  22.195  25.364  1.00  0.00     0.202 C 
BRANCH   4   5
ATOM      5  C   UNL A   1      36.574  23.296  24.342  1.00  0.00     0.261 C 
BRANCH   5   6
ATOM      6  O   UNL A   1      35.165  23.405  24.006  1.00  0.00    -0.462 OA
BRANCH   6   7
ATOM      7  C   UNL A   1      34.651  24.657  23.917  1.00  0.00     0.326 C 
ATOM      8  O   UNL A   1      34.104  25.088  22.901  1.00  0.00    -0.250 OA
BRANCH   7   9
ATOM      9  C   UNL A   1      34.703  25.524  25.166  1.00  0.00     0.246 C 
BRANCH   9  10
ATOM     10  N   UNL A   1      33.504  26.188  25.688  1.00  0.00    -0.313 N 
ATOM     11  C   UNL A   1      30.804  23.942  26.172  1.00  0.00     0.211 A 
ATOM     12  N   UNL A   1      29.861  24.818  26.612  1.00  0.00    -0.122 NA
ATOM     13  N   UNL A   1      32.066  24.231  25.778  1.00  0.00    -0.201 NA
ATOM     14  N   UNL A   1      30.141  26.112  26.711  1.00  0.00    -0.144 NA
ATOM     15  C   UNL A   1      32.315  25.542  25.927  1.00  0.00     0.165 A 
ATOM     16  C   UNL A   1      31.406  26.478  26.394  1.00  0.00     0.138 A 
ATOM     17  C   UNL A   1      32.072  27.717  26.516  1.00  0.00     0.030 A 
ATOM     18  C   UNL A   1      33.431  27.464  26.259  1.00  0.00     0.053 A 
ATOM     19  C   UNL A   1      31.661  29.013  26.889  1.00  0.00     0.013 A 
ATOM     20  C   UNL A   1      34.403  28.450  26.513  1.00  0.00     0.027 A 
ATOM     21  C   UNL A   1      32.611  30.027  27.019  1.00  0.00     0.001 A 
ATOM     22  C   UNL A   1      33.964  29.739  26.863  1.00  0.00     0.002 A 
BRANCH  11  23
ATOM     23  S   UNL A   1      30.342  22.237  26.099  1.00  0.00    -0.074 SA
BRANCH  23  24
ATOM     24  C   UNL A   1      31.939  21.518  25.634  1.00  0.00     0.178 C 
BRANCH  24  25
ATOM     25  C   UNL A   1      32.088  21.203  24.150  1.00  0.00     0.233 C 
ATOM     26  O   UNL A   1      31.860  22.094  23.324  1.00  0.00    -0.274 OA
BRANCH  25  27
ATOM     27  N   UNL A   1      32.581  19.962  23.760  1.00  0.00    -0.342 N 
ATOM     28  C   UNL A   1      33.918  16.924  25.665  1.00  0.00     0.009 C 
ATOM     29  C   UNL A   1      33.025  17.723  24.721  1.00  0.00     0.005 C 
ATOM     30  C   UNL A   1      33.075  17.140  23.303  1.00  0.00     0.007 C 
ATOM     31  C   UNL A   1      33.419  19.207  24.697  1.00  0.00     0.122 C 
ATOM     32  C   UNL A   1      32.189  17.950  22.364  1.00  0.00     0.022 C 
ATOM     33  C   UNL A   1      32.538  19.434  22.394  1.00  0.00     0.119 C 
ENDBRANCH  25  27
ENDBRANCH  24  25
ENDBRANCH  23  24
ENDBRANCH  11  23
ENDBRANCH   9  10
ENDBRANCH   7   9
ENDBRANCH   6   7
ENDBRANCH   5   6
ENDBRANCH   4   5
ENDBRANCH   3   4
ENDBRANCH   2   3
ENDBRANCH   1   2
BRANCH   1  34
ATOM     34  O   UNL A   1      40.844  22.112  28.004  1.00  0.00    -0.377 OA
BRANCH  34  35
ATOM     35  C   UNL A   1      40.927  23.484  27.814  1.00  0.00     0.188 C 
BRANCH  35  36
ATOM     36  C   UNL A   1      42.305  24.041  28.150  1.00  0.00     0.188 C 
BRANCH  36  37
ATOM     37  O   UNL A   1      43.476  23.383  27.680  1.00  0.00    -0.376 OA
BRANCH  37  38
ATOM     38  C   UNL A   1      43.552  22.838  26.370  1.00  0.00     0.202 C 
BRANCH  38  39
ATOM     39  C   UNL A   1      43.091  23.581  25.091  1.00  0.00     0.261 C 
BRANCH  39  40
ATOM     40  O   UNL A   1      43.333  24.988  25.056  1.00  0.00    -0.460 OA
BRANCH  40  41
ATOM     41  C   UNL A   1      44.604  25.447  25.175  1.00  0.00     0.338 C 
ATOM     42  O   UNL A   1      45.620  24.950  24.723  1.00  0.00    -0.246 OA
BRANCH  41  43
ATOM     43  C   UNL A   1      44.459  26.840  25.664  1.00  0.00     0.060 A 
ATOM     44  C   UNL A   1      45.242  27.308  26.728  1.00  0.00     0.016 A 
ATOM     45  C   UNL A   1      43.255  27.473  25.326  1.00  0.00     0.016 A 
ATOM     46  C   UNL A   1      44.711  28.291  27.563  1.00  0.00     0.010 A 
ATOM     47  C   UNL A   1      42.717  28.430  26.183  1.00  0.00     0.010 A 
ATOM     48  C   UNL A   1      43.411  28.790  27.338  1.00  0.00    -0.014 A 
BRANCH  48  49
ATOM     49  C   UNL A   1      42.941  29.898  28.182  1.00  0.00     0.031 A 
ATOM     50  C   UNL A   1      43.891  31.033  28.106  1.00  0.00     0.074 A 
ATOM     51  C   UNL A   1      41.765  30.024  28.836  1.00  0.00     0.049 A 
ATOM     52  N   UNL A   1      44.639  31.507  29.048  1.00  0.00    -0.248 NA
ATOM     53  C   UNL A   1      44.179  31.559  26.761  1.00  0.00     0.031 C 
ATOM     54  C   UNL A   1      40.615  29.123  28.784  1.00  0.00     0.029 A 
ATOM     55  N   UNL A   1      41.301  31.062  29.608  1.00  0.00    -0.354 N 
ATOM     56  C   UNL A   1      45.319  32.557  28.446  1.00  0.00     0.074 A 
ATOM     57  C   UNL A   1      45.173  32.404  27.021  1.00  0.00     0.031 C 
ATOM     58  C   UNL A   1      39.534  29.739  29.316  1.00  0.00     0.029 A 
ATOM     59  C   UNL A   1      39.916  31.050  29.805  1.00  0.00     0.049 A 
ATOM     60  H   UNL A   1      41.891  31.752  29.989  1.00  0.00     0.167 HD
ATOM     61  C   UNL A   1      45.690  33.663  29.139  1.00  0.00     0.034 A 
ATOM     62  C   UNL A   1      39.134  32.074  30.245  1.00  0.00     0.034 A 
ATOM     63  C   UNL A   1      45.716  33.460  30.557  1.00  0.00     0.049 A 
ATOM     64  C   UNL A   1      40.021  33.012  30.971  1.00  0.00     0.074 A 
ATOM     65  C   UNL A   1      46.377  32.599  31.408  1.00  0.00     0.029 A 
ATOM     66  N   UNL A   1      44.677  33.992  31.277  1.00  0.00    -0.354 N 
ATOM     67  N   UNL A   1      40.606  32.739  32.102  1.00  0.00    -0.248 NA
ATOM     68  C   UNL A   1      40.550  34.155  30.245  1.00  0.00     0.031 C 
ATOM     69  C   UNL A   1      45.455  32.331  32.460  1.00  0.00     0.029 A 
ATOM     70  C   UNL A   1      44.294  33.065  32.209  1.00  0.00     0.049 A 
ATOM     71  H   UNL A   1      44.278  34.882  31.147  1.00  0.00     0.167 HD
ATOM     72  C   UNL A   1      41.834  33.378  32.013  1.00  0.00     0.074 A 
ATOM     73  C   UNL A   1      41.695  34.322  30.908  1.00  0.00     0.031 C 
ATOM     74  C   UNL A   1      42.930  32.881  32.654  1.00  0.00     0.034 A 
BRANCH  61  75
ATOM     75  C   UNL A   1      45.638  35.018  28.503  1.00  0.00     0.023 A 
ATOM     76  C   UNL A   1      44.389  35.584  28.201  1.00  0.00     0.012 A 
ATOM     77  C   UNL A   1      46.792  35.669  28.005  1.00  0.00     0.148 A 
ATOM     78  C   UNL A   1      44.301  36.773  27.471  1.00  0.00     0.002 A 
ATOM     79  C   UNL A   1      46.706  36.898  27.376  1.00  0.00     0.091 A 
ATOM     80  F   UNL A   1      47.973  35.035  28.031  1.00  0.00    -0.205 F 
ATOM     81  C   UNL A   1      45.458  37.448  27.086  1.00  0.00     0.022 A 
BRANCH  79  82
ATOM     82  S   UNL A   1      48.184  37.827  26.955  1.00  0.00     0.127 S 
ATOM     83  O   UNL A   1      48.725  38.129  28.276  1.00  0.00    -0.237 OA
ATOM     84  O   UNL A   1      48.944  36.848  26.178  1.00  0.00    -0.237 OA
ATOM     85  O   UNL A   1      47.706  38.962  26.175  1.00  0.00    -0.744 OA
ENDBRANCH  79  82
ENDBRANCH  61  75
BRANCH  62  86
ATOM     86  C   UNL A   1      37.732  32.459  29.894  1.00  0.00     0.023 A 
ATOM     87  C   UNL A   1      37.141  31.944  28.715  1.00  0.00     0.012 A 
ATOM     88  C   UNL A   1      36.868  33.076  30.826  1.00  0.00     0.148 A 
ATOM     89  C   UNL A   1      35.753  31.982  28.509  1.00  0.00     0.002 A 
ATOM     90  C   UNL A   1      35.491  33.125  30.611  1.00  0.00     0.091 A 
ATOM     91  F   UNL A   1      37.371  33.535  31.978  1.00  0.00    -0.205 F 
ATOM     92  C   UNL A   1      34.925  32.561  29.463  1.00  0.00     0.022 A 
BRANCH  90  93
ATOM     93  S   UNL A   1      34.381  33.859  31.822  1.00  0.00     0.127 S 
ATOM     94  O   UNL A   1      35.285  34.700  32.607  1.00  0.00    -0.237 OA
ATOM     95  O   UNL A   1      33.446  34.590  30.974  1.00  0.00    -0.237 OA
ATOM     96  O   UNL A   1      33.825  32.734  32.566  1.00  0.00    -0.744 OA
ENDBRANCH  90  93
ENDBRANCH  62  86
BRANCH  74  97
ATOM     97  C   UNL A   1      42.717  31.850  33.733  1.00  0.00     0.023 A 
ATOM     98  C   UNL A   1      42.542  32.200  35.088  1.00  0.00     0.012 A 
ATOM     99  C   UNL A   1      42.501  30.519  33.336  1.00  0.00     0.148 A 
ATOM    100  C   UNL A   1      42.162  31.236  36.025  1.00  0.00     0.002 A 
ATOM    101  C   UNL A   1      42.085  29.574  34.265  1.00  0.00     0.091 A 
ATOM    102  F   UNL A   1      42.669  30.212  32.042  1.00  0.00    -0.205 F 
ATOM    103  C   UNL A   1      41.916  29.928  35.613  1.00  0.00     0.022 A 
BRANCH 101 104
ATOM    104  S   UNL A   1      41.656  27.898  33.792  1.00  0.00     0.127 S 
ATOM    105  O   UNL A   1      40.587  28.118  32.821  1.00  0.00    -0.237 OA
ATOM    106  O   UNL A   1      42.912  27.407  33.219  1.00  0.00    -0.237 OA
ATOM    107  O   UNL A   1      41.251  27.221  35.018  1.00  0.00    -0.744 OA
ENDBRANCH 101 104
ENDBRANCH  74  97
ENDBRANCH  48  49
ENDBRANCH  41  43
ENDBRANCH  40  41
ENDBRANCH  39  40
ENDBRANCH  38  39
ENDBRANCH  37  38
ENDBRANCH  36  37
ENDBRANCH  35  36
ENDBRANCH  34  35
ENDBRANCH   1  34
TORSDOF 28
ENDMDL
MODEL 2
REMARK VINA RESULT:      -9.3      2.024      2.351
REMARK SMILES C[C@@H]1CCCN(C(=O)CSc2nnc3c4ccccc4n(CC(=O)OCCOCCOCCOCCOC(=O)c4ccc(-c5c6nc(c(-c7cccc(S(=O)(=O)[O-])c7F)c7ccc([nH]7)c(-c7cccc(S(=O)(=O)[O-])c7F)c7nc(c(-c8cccc(S(=O)(=O)[O-])c8F)c8ccc5[nH]8)C=C7)C=C6)cc4)c3n2)C1
REMARK SMILES IDX 30 1 29 2 28 3 27 4 26 5 25 6 23 7 24 8 22 9 21 10 11 11
REMARK SMILES IDX 12 12 104 13 13 14 103 15 14 16 15 17 20 18 16 19 19 20
REMARK SMILES IDX 17 21 18 22 10 23 9 24 7 25 8 26 6 27 1 28 2 29 3 30 105 31
REMARK SMILES IDX 4 32 5 33 31 34 32 35 33 36 34 37 35 38 36 39 37 40 38 41
REMARK SMILES IDX 39 42 40 43 41 44 102 45 42 46 101 47 43 48 44 49 45 50
REMARK SMILES IDX 95 51 46 52 100 53 94 54 96 55 47 56 99 57 93 58 92 59 48 61
REMARK SMILES IDX 80 62 60 63 79 64 61 65 64 66 78 67 97 68 62 69 63 70 77 72
REMARK SMILES IDX 98 73 65 74 49 75 50 76 58 77 51 78 53 79 59 80 52 81 54 82
REMARK SMILES IDX 55 83 56 84 57 85 81 86 82 87 90 88 83 89 85 90 91 91 84 92
REMARK SMILES IDX 86 93 87 94 88 95 89 96 66 97 67 98 75 99 68 100 70 101
REMARK SMILES IDX 76 102 69 103 71 104 72 105 73 106 74 107
REMARK H PARENT 96 60 64 71
REMARK Flexibility Score: inf
ROOT
ATOM      1  C   UNL A   1      40.314  21.502  27.137  1.00  0.00     0.188 C 
ENDROOT
BRANCH   1   2
ATOM      2  C   UNL A   1      39.306  21.950  26.080  1.00  0.00     0.188 C 
BRANCH   2   3
ATOM      3  O   UNL A   1      38.167  22.749  26.383  1.00  0.00    -0.376 OA
BRANCH   3   4
ATOM      4  C   UNL A   1      36.945  22.564  25.702  1.00  0.00     0.202 C 
BRANCH   4   5
ATOM      5  C   UNL A   1      36.766  23.484  24.477  1.00  0.00     0.261 C 
BRANCH   5   6
ATOM      6  O   UNL A   1      35.442  23.468  23.878  1.00  0.00    -0.462 OA
BRANCH   6   7
ATOM      7  C   UNL A   1      34.783  24.652  23.819  1.00  0.00     0.326 C 
ATOM      8  O   UNL A   1      34.128  25.009  22.839  1.00  0.00    -0.250 OA
BRANCH   7   9
ATOM      9  C   UNL A   1      34.811  25.530  25.062  1.00  0.00     0.246 C 
BRANCH   9  10
ATOM     10  N   UNL A   1      33.586  26.124  25.608  1.00  0.00    -0.313 N 
ATOM     11  C   UNL A   1      31.003  23.740  26.068  1.00  0.00     0.211 A 
ATOM     12  N   UNL A   1      30.023  24.561  26.534  1.00  0.00    -0.122 NA
ATOM     13  N   UNL A   1      32.245  24.098  25.669  1.00  0.00    -0.201 NA
ATOM     14  N   UNL A   1      30.241  25.864  26.658  1.00  0.00    -0.144 NA
ATOM     15  C   UNL A   1      32.432  25.417  25.843  1.00  0.00     0.165 A 
ATOM     16  C   UNL A   1      31.484  26.297  26.338  1.00  0.00     0.138 A 
ATOM     17  C   UNL A   1      32.090  27.565  26.479  1.00  0.00     0.030 A 
ATOM     18  C   UNL A   1      33.457  27.383  26.206  1.00  0.00     0.053 A 
ATOM     19  C   UNL A   1      31.620  28.832  26.883  1.00  0.00     0.013 A 
ATOM     20  C   UNL A   1      34.383  28.410  26.472  1.00  0.00     0.027 A 
ATOM     21  C   UNL A   1      32.522  29.887  27.026  1.00  0.00     0.001 A 
ATOM     22  C   UNL A   1      33.886  29.668  26.853  1.00  0.00     0.002 A 
BRANCH  11  23
ATOM     23  S   UNL A   1      30.623  22.017  25.964  1.00  0.00    -0.074 SA
BRANCH  23  24
ATOM     24  C   UNL A   1      32.303  21.353  25.821  1.00  0.00     0.178 C 
BRANCH  24  25
ATOM     25  C   UNL A   1      32.493  20.336  24.701  1.00  0.00     0.233 C 
ATOM     26  O   UNL A   1      32.081  20.611  23.568  1.00  0.00    -0.274 OA
BRANCH  25  27
ATOM     27  N   UNL A   1      33.219  19.175  24.946  1.00  0.00    -0.342 N 
ATOM     28  C   UNL A   1      32.247  15.576  25.814  1.00  0.00     0.009 C 
ATOM     29  C   UNL A   1      32.881  16.723  25.032  1.00  0.00     0.005 C 
ATOM     30  C   UNL A   1      34.397  16.524  24.909  1.00  0.00     0.007 C 
ATOM     31  C   UNL A   1      32.576  18.081  25.681  1.00  0.00     0.122 C 
ATOM     32  C   UNL A   1      35.024  17.679  24.137  1.00  0.00     0.022 C 
ATOM     33  C   UNL A   1      34.663  19.030  24.744  1.00  0.00     0.119 C 
ENDBRANCH  25  27
ENDBRANCH  24  25
ENDBRANCH  23  24
ENDBRANCH  11  23
ENDBRANCH   9  10
ENDBRANCH   7   9
ENDBRANCH   6   7
ENDBRANCH   5   6
ENDBRANCH   4   5
ENDBRANCH   3   4
ENDBRANCH   2   3
ENDBRANCH   1   2
BRANCH   1  34
ATOM     34  O   UNL A   1      41.392  22.249  27.612  1.00  0.00    -0.377 OA
BRANCH  34  35
ATOM     35  C   UNL A   1      41.707  23.435  26.964  1.00  0.00     0.188 C 
BRANCH  35  36
ATOM     36  C   UNL A   1      42.989  24.069  27.490  1.00  0.00     0.188 C 
BRANCH  36  37
ATOM     37  O   UNL A   1      44.214  23.343  27.450  1.00  0.00    -0.376 OA
BRANCH  37  38
ATOM     38  C   UNL A   1      44.573  22.546  26.330  1.00  0.00     0.202 C 
BRANCH  38  39
ATOM     39  C   UNL A   1      44.446  23.007  24.857  1.00  0.00     0.261 C 
BRANCH  39  40
ATOM     40  O   UNL A   1      44.771  24.372  24.593  1.00  0.00    -0.460 OA
BRANCH  40  41
ATOM     41  C   UNL A   1      46.032  24.813  24.825  1.00  0.00     0.338 C 
ATOM     42  O   UNL A   1      47.070  24.383  24.354  1.00  0.00    -0.246 OA
BRANCH  41  43
ATOM     43  C   UNL A   1      45.857  26.126  25.492  1.00  0.00     0.060 A 
ATOM     44  C   UNL A   1      46.503  26.402  26.705  1.00  0.00     0.016 A 
ATOM     45  C   UNL A   1      44.725  26.853  25.100  1.00  0.00     0.016 A 
ATOM     46  C   UNL A   1      45.889  27.278  27.601  1.00  0.00     0.010 A 
ATOM     47  C   UNL A   1      44.100  27.700  26.013  1.00  0.00     0.010 A 
ATOM     48  C   UNL A   1      44.643  27.861  27.288  1.00  0.00    -0.014 A 
BRANCH  48  49
ATOM     49  C   UNL A   1      44.092  28.855  28.219  1.00  0.00     0.031 A 
ATOM     50  C   UNL A   1      44.927  30.080  28.207  1.00  0.00     0.074 A 
ATOM     51  C   UNL A   1      42.927  28.820  28.903  1.00  0.00     0.049 A 
ATOM     52  N   UNL A   1      45.651  30.557  29.166  1.00  0.00    -0.248 NA
ATOM     53  C   UNL A   1      45.128  30.725  26.898  1.00  0.00     0.031 C 
ATOM     54  C   UNL A   1      41.868  27.817  28.809  1.00  0.00     0.029 A 
ATOM     55  N   UNL A   1      42.387  29.751  29.758  1.00  0.00    -0.354 N 
ATOM     56  C   UNL A   1      46.211  31.708  28.628  1.00  0.00     0.074 A 
ATOM     57  C   UNL A   1      46.043  31.642  27.199  1.00  0.00     0.031 C 
ATOM     58  C   UNL A   1      40.747  28.286  29.405  1.00  0.00     0.029 A 
ATOM     59  C   UNL A   1      41.015  29.590  29.980  1.00  0.00     0.049 A 
ATOM     60  H   UNL A   1      42.918  30.467  30.175  1.00  0.00     0.167 HD
ATOM     61  C   UNL A   1      46.493  32.792  29.393  1.00  0.00     0.034 A 
ATOM     62  C   UNL A   1      40.150  30.500  30.509  1.00  0.00     0.034 A 
ATOM     63  C   UNL A   1      46.576  32.494  30.791  1.00  0.00     0.049 A 
ATOM     64  C   UNL A   1      40.962  31.467  31.283  1.00  0.00     0.074 A 
ATOM     65  C   UNL A   1      47.339  31.644  31.564  1.00  0.00     0.029 A 
ATOM     66  N   UNL A   1      45.511  32.871  31.568  1.00  0.00    -0.354 N 
ATOM     67  N   UNL A   1      41.601  31.174  32.379  1.00  0.00    -0.248 NA
ATOM     68  C   UNL A   1      41.361  32.704  30.632  1.00  0.00     0.031 C 
ATOM     69  C   UNL A   1      46.474  31.214  32.612  1.00  0.00     0.029 A 
ATOM     70  C   UNL A   1      45.243  31.847  32.438  1.00  0.00     0.049 A 
ATOM     71  H   UNL A   1      45.025  33.725  31.511  1.00  0.00     0.167 HD
ATOM     72  C   UNL A   1      42.760  31.934  32.313  1.00  0.00     0.074 A 
ATOM     73  C   UNL A   1      42.502  32.934  31.283  1.00  0.00     0.031 C 
ATOM     74  C   UNL A   1      43.915  31.501  32.895  1.00  0.00     0.034 A 
BRANCH  61  75
ATOM     75  C   UNL A   1      46.295  34.178  28.858  1.00  0.00     0.023 A 
ATOM     76  C   UNL A   1      47.346  35.103  28.949  1.00  0.00     0.012 A 
ATOM     77  C   UNL A   1      45.028  34.661  28.449  1.00  0.00     0.148 A 
ATOM     78  C   UNL A   1      47.151  36.444  28.604  1.00  0.00     0.002 A 
ATOM     79  C   UNL A   1      44.866  35.962  28.007  1.00  0.00     0.091 A 
ATOM     80  F   UNL A   1      43.943  33.888  28.604  1.00  0.00    -0.205 F 
ATOM     81  C   UNL A   1      45.922  36.868  28.102  1.00  0.00     0.022 A 
BRANCH  79  82
ATOM     82  S   UNL A   1      43.320  36.503  27.272  1.00  0.00     0.127 S 
ATOM     83  O   UNL A   1      42.419  36.457  28.419  1.00  0.00    -0.237 OA
ATOM     84  O   UNL A   1      43.663  37.845  26.802  1.00  0.00    -0.237 OA
ATOM     85  O   UNL A   1      43.058  35.548  26.202  1.00  0.00    -0.744 OA
ENDBRANCH  79  82
ENDBRANCH  61  75
BRANCH  62  86
ATOM     86  C   UNL A   1      38.709  30.771  30.214  1.00  0.00     0.023 A 
ATOM     87  C   UNL A   1      38.011  29.931  29.313  1.00  0.00     0.012 A 
ATOM     88  C   UNL A   1      37.933  31.643  31.008  1.00  0.00     0.148 A 
ATOM     89  C   UNL A   1      36.608  29.914  29.257  1.00  0.00     0.002 A 
ATOM     90  C   UNL A   1      36.539  31.633  30.940  1.00  0.00     0.091 A 
ATOM     91  F   UNL A   1      38.541  32.422  31.911  1.00  0.00    -0.205 F 
ATOM     92  C   UNL A   1      35.871  30.756  30.080  1.00  0.00     0.022 A 
BRANCH  90  93
ATOM     93  S   UNL A   1      35.544  32.702  31.991  1.00  0.00     0.127 S 
ATOM     94  O   UNL A   1      36.020  34.035  31.623  1.00  0.00    -0.237 OA
ATOM     95  O   UNL A   1      34.190  32.390  31.547  1.00  0.00    -0.237 OA
ATOM     96  O   UNL A   1      35.874  32.312  33.358  1.00  0.00    -0.744 OA
ENDBRANCH  90  93
ENDBRANCH  62  86
BRANCH  74  97
ATOM     97  C   UNL A   1      43.829  30.381  33.900  1.00  0.00     0.023 A 
ATOM     98  C   UNL A   1      43.630  29.039  33.521  1.00  0.00     0.012 A 
ATOM     99  C   UNL A   1      44.147  30.675  35.238  1.00  0.00     0.148 A 
ATOM    100  C   UNL A   1      43.744  28.012  34.462  1.00  0.00     0.002 A 
ATOM    101  C   UNL A   1      44.299  29.647  36.160  1.00  0.00     0.091 A 
ATOM    102  F   UNL A   1      44.337  31.960  35.574  1.00  0.00    -0.205 F 
ATOM    103  C   UNL A   1      44.095  28.313  35.776  1.00  0.00     0.022 A 
BRANCH 101 104
ATOM    104  S   UNL A   1      44.843  29.948  37.842  1.00  0.00     0.127 S 
ATOM    105  O   UNL A   1      44.751  28.617  38.437  1.00  0.00    -0.237 OA
ATOM    106  O   UNL A   1      46.210  30.436  37.643  1.00  0.00    -0.237 OA
ATOM    107  O   UNL A   1      43.927  30.939  38.394  1.00  0.00    -0.744 OA
ENDBRANCH 101 104
ENDBRANCH  74  97
ENDBRANCH  48  49
ENDBRANCH  41  43
ENDBRANCH  40  41
ENDBRANCH  39  40
ENDBRANCH  38  39
ENDBRANCH  37  38
ENDBRANCH  36  37
ENDBRANCH  35  36
ENDBRANCH  34  35
ENDBRANCH   1  34
TORSDOF 28
ENDMDL
MODEL 3
REMARK VINA RESULT:      -8.7      6.664     16.178
REMARK SMILES C[C@@H]1CCCN(C(=O)CSc2nnc3c4ccccc4n(CC(=O)OCCOCCOCCOCCOC(=O)c4ccc(-c5c6nc(c(-c7cccc(S(=O)(=O)[O-])c7F)c7ccc([nH]7)c(-c7cccc(S(=O)(=O)[O-])c7F)c7nc(c(-c8cccc(S(=O)(=O)[O-])c8F)c8ccc5[nH]8)C=C7)C=C6)cc4)c3n2)C1
REMARK SMILES IDX 30 1 29 2 28 3 27 4 26 5 25 6 23 7 24 8 22 9 21 10 11 11
REMARK SMILES IDX 12 12 104 13 13 14 103 15 14 16 15 17 20 18 16 19 19 20
REMARK SMILES IDX 17 21 18 22 10 23 9 24 7 25 8 26 6 27 1 28 2 29 3 30 105 31
REMARK SMILES IDX 4 32 5 33 31 34 32 35 33 36 34 37 35 38 36 39 37 40 38 41
REMARK SMILES IDX 39 42 40 43 41 44 102 45 42 46 101 47 43 48 44 49 45 50
REMARK SMILES IDX 95 51 46 52 100 53 94 54 96 55 47 56 99 57 93 58 92 59 48 61
REMARK SMILES IDX 80 62 60 63 79 64 61 65 64 66 78 67 97 68 62 69 63 70 77 72
REMARK SMILES IDX 98 73 65 74 49 75 50 76 58 77 51 78 53 79 59 80 52 81 54 82
REMARK SMILES IDX 55 83 56 84 57 85 81 86 82 87 90 88 83 89 85 90 91 91 84 92
REMARK SMILES IDX 86 93 87 94 88 95 89 96 66 97 67 98 75 99 68 100 70 101
REMARK SMILES IDX 76 102 69 103 71 104 72 105 73 106 74 107
REMARK H PARENT 96 60 64 71
REMARK Flexibility Score: inf
ROOT
ATOM      1  C   UNL A   1      42.996  36.850  29.200  1.00  0.00     0.188 C 
ENDROOT
BRANCH   1   2
ATOM      2  C   UNL A   1      43.785  37.035  27.905  1.00  0.00     0.188 C 
BRANCH   2   3
ATOM      3  O   UNL A   1      43.841  38.270  27.199  1.00  0.00    -0.376 OA
BRANCH   3   4
ATOM      4  C   UNL A   1      44.928  39.154  27.361  1.00  0.00     0.202 C 
BRANCH   4   5
ATOM      5  C   UNL A   1      44.703  40.546  26.736  1.00  0.00     0.261 C 
BRANCH   5   6
ATOM      6  O   UNL A   1      44.073  40.543  25.427  1.00  0.00    -0.462 OA
BRANCH   6   7
ATOM      7  C   UNL A   1      42.872  41.166  25.323  1.00  0.00     0.326 C 
ATOM      8  O   UNL A   1      41.876  40.816  25.956  1.00  0.00    -0.250 OA
BRANCH   7   9
ATOM      9  C   UNL A   1      42.799  42.396  24.429  1.00  0.00     0.246 C 
BRANCH   9  10
ATOM     10  N   UNL A   1      43.997  42.949  23.791  1.00  0.00    -0.313 N 
ATOM     11  C   UNL A   1      43.606  43.375  20.293  1.00  0.00     0.211 A 
ATOM     12  N   UNL A   1      44.842  43.853  19.987  1.00  0.00    -0.122 NA
ATOM     13  N   UNL A   1      43.162  42.981  21.509  1.00  0.00    -0.201 NA
ATOM     14  N   UNL A   1      45.761  43.996  20.934  1.00  0.00    -0.144 NA
ATOM     15  C   UNL A   1      44.110  43.175  22.440  1.00  0.00     0.165 A 
ATOM     16  C   UNL A   1      45.376  43.682  22.195  1.00  0.00     0.138 A 
ATOM     17  C   UNL A   1      46.034  43.842  23.434  1.00  0.00     0.030 A 
ATOM     18  C   UNL A   1      45.080  43.565  24.429  1.00  0.00     0.053 A 
ATOM     19  C   UNL A   1      47.328  44.264  23.804  1.00  0.00     0.013 A 
ATOM     20  C   UNL A   1      45.354  43.847  25.781  1.00  0.00     0.027 A 
ATOM     21  C   UNL A   1      47.641  44.422  25.155  1.00  0.00     0.001 A 
ATOM     22  C   UNL A   1      46.658  44.246  26.124  1.00  0.00     0.002 A 
BRANCH  11  23
ATOM     23  S   UNL A   1      42.445  43.246  18.966  1.00  0.00    -0.074 SA
BRANCH  23  24
ATOM     24  C   UNL A   1      43.326  44.212  17.710  1.00  0.00     0.178 C 
BRANCH  24  25
ATOM     25  C   UNL A   1      42.827  45.643  17.543  1.00  0.00     0.233 C 
ATOM     26  O   UNL A   1      41.616  45.840  17.389  1.00  0.00    -0.274 OA
BRANCH  25  27
ATOM     27  N   UNL A   1      43.722  46.700  17.675  1.00  0.00    -0.342 N 
ATOM     28  C   UNL A   1      46.409  47.588  20.252  1.00  0.00     0.009 C 
ATOM     29  C   UNL A   1      45.806  47.264  18.888  1.00  0.00     0.005 C 
ATOM     30  C   UNL A   1      46.056  48.408  17.898  1.00  0.00     0.007 C 
ATOM     31  C   UNL A   1      44.302  46.974  18.994  1.00  0.00     0.122 C 
ATOM     32  C   UNL A   1      45.441  48.081  16.541  1.00  0.00     0.022 C 
ATOM     33  C   UNL A   1      43.963  47.727  16.659  1.00  0.00     0.119 C 
ENDBRANCH  25  27
ENDBRANCH  24  25
ENDBRANCH  23  24
ENDBRANCH  11  23
ENDBRANCH   9  10
ENDBRANCH   7   9
ENDBRANCH   6   7
ENDBRANCH   5   6
ENDBRANCH   4   5
ENDBRANCH   3   4
ENDBRANCH   2   3
ENDBRANCH   1   2
BRANCH   1  34
ATOM     34  O   UNL A   1      42.673  35.632  29.798  1.00  0.00    -0.377 OA
BRANCH  34  35
ATOM     35  C   UNL A   1      41.991  34.688  29.042  1.00  0.00     0.188 C 
BRANCH  35  36
ATOM     36  C   UNL A   1      41.547  33.486  29.866  1.00  0.00     0.188 C 
BRANCH  36  37
ATOM     37  O   UNL A   1      40.520  33.629  30.842  1.00  0.00    -0.376 OA
BRANCH  37  38
ATOM     38  C   UNL A   1      39.316  34.331  30.563  1.00  0.00     0.202 C 
BRANCH  38  39
ATOM     39  C   UNL A   1      37.915  33.671  30.519  1.00  0.00     0.261 C 
BRANCH  39  40
ATOM     40  O   UNL A   1      37.475  33.044  31.724  1.00  0.00    -0.460 OA
BRANCH  40  41
ATOM     41  C   UNL A   1      36.830  31.852  31.658  1.00  0.00     0.338 C 
ATOM     42  O   UNL A   1      35.717  31.631  31.214  1.00  0.00    -0.246 OA
BRANCH  41  43
ATOM     43  C   UNL A   1      37.881  30.838  31.916  1.00  0.00     0.060 A 
ATOM     44  C   UNL A   1      39.044  31.178  32.619  1.00  0.00     0.016 A 
ATOM     45  C   UNL A   1      37.853  29.717  31.075  1.00  0.00     0.016 A 
ATOM     46  C   UNL A   1      40.225  30.498  32.322  1.00  0.00     0.010 A 
ATOM     47  C   UNL A   1      39.042  29.064  30.758  1.00  0.00     0.010 A 
ATOM     48  C   UNL A   1      40.240  29.497  31.327  1.00  0.00    -0.014 A 
BRANCH  48  49
ATOM     49  C   UNL A   1      41.483  28.740  31.128  1.00  0.00     0.031 A 
ATOM     50  C   UNL A   1      42.180  28.555  32.423  1.00  0.00     0.074 A 
ATOM     51  C   UNL A   1      41.930  28.127  30.009  1.00  0.00     0.049 A 
ATOM     52  N   UNL A   1      43.317  29.047  32.790  1.00  0.00    -0.248 NA
ATOM     53  C   UNL A   1      41.406  27.910  33.498  1.00  0.00     0.031 C 
ATOM     54  C   UNL A   1      41.232  27.979  28.734  1.00  0.00     0.029 A 
ATOM     55  N   UNL A   1      43.078  27.396  29.813  1.00  0.00    -0.354 N 
ATOM     56  C   UNL A   1      43.497  28.561  34.078  1.00  0.00     0.074 A 
ATOM     57  C   UNL A   1      42.224  28.068  34.535  1.00  0.00     0.031 C 
ATOM     58  C   UNL A   1      41.863  27.051  27.977  1.00  0.00     0.029 A 
ATOM     59  C   UNL A   1      43.044  26.581  28.676  1.00  0.00     0.049 A 
ATOM     60  H   UNL A   1      43.852  27.441  30.418  1.00  0.00     0.167 HD
ATOM     61  C   UNL A   1      44.731  28.294  34.577  1.00  0.00     0.034 A 
ATOM     62  C   UNL A   1      43.868  25.536  28.382  1.00  0.00     0.034 A 
ATOM     63  C   UNL A   1      45.785  28.948  33.863  1.00  0.00     0.049 A 
ATOM     64  C   UNL A   1      45.104  25.727  29.175  1.00  0.00     0.074 A 
ATOM     65  C   UNL A   1      46.095  30.258  33.563  1.00  0.00     0.029 A 
ATOM     66  N   UNL A   1      46.530  28.171  33.013  1.00  0.00    -0.354 N 
ATOM     67  N   UNL A   1      45.960  26.687  28.976  1.00  0.00    -0.248 NA
ATOM     68  C   UNL A   1      45.215  25.037  30.450  1.00  0.00     0.031 C 
ATOM     69  C   UNL A   1      46.686  30.216  32.267  1.00  0.00     0.029 A 
ATOM     70  C   UNL A   1      46.729  28.882  31.859  1.00  0.00     0.049 A 
ATOM     71  H   UNL A   1      46.863  27.263  33.199  1.00  0.00     0.167 HD
ATOM     72  C   UNL A   1      46.409  27.014  30.247  1.00  0.00     0.074 A 
ATOM     73  C   UNL A   1      46.006  25.895  31.094  1.00  0.00     0.031 C 
ATOM     74  C   UNL A   1      46.807  28.284  30.544  1.00  0.00     0.034 A 
BRANCH  61  75
ATOM     75  C   UNL A   1      44.953  27.116  35.476  1.00  0.00     0.023 A 
ATOM     76  C   UNL A   1      45.462  27.328  36.767  1.00  0.00     0.012 A 
ATOM     77  C   UNL A   1      44.869  25.781  35.014  1.00  0.00     0.148 A 
ATOM     78  C   UNL A   1      45.827  26.249  37.578  1.00  0.00     0.002 A 
ATOM     79  C   UNL A   1      45.131  24.714  35.856  1.00  0.00     0.091 A 
ATOM     80  F   UNL A   1      44.651  25.542  33.713  1.00  0.00    -0.205 F 
ATOM     81  C   UNL A   1      45.632  24.942  37.137  1.00  0.00     0.022 A 
BRANCH  79  82
ATOM     82  S   UNL A   1      44.798  23.027  35.341  1.00  0.00     0.127 S 
ATOM     83  O   UNL A   1      45.452  22.985  34.037  1.00  0.00    -0.237 OA
ATOM     84  O   UNL A   1      45.457  22.254  36.394  1.00  0.00    -0.237 OA
ATOM     85  O   UNL A   1      43.345  22.912  35.342  1.00  0.00    -0.744 OA
ENDBRANCH  79  82
ENDBRANCH  61  75
BRANCH  62  86
ATOM     86  C   UNL A   1      43.603  24.248  27.670  1.00  0.00     0.023 A 
ATOM     87  C   UNL A   1      42.317  23.660  27.746  1.00  0.00     0.012 A 
ATOM     88  C   UNL A   1      44.483  23.739  26.690  1.00  0.00     0.148 A 
ATOM     89  C   UNL A   1      41.908  22.663  26.846  1.00  0.00     0.002 A 
ATOM     90  C   UNL A   1      44.078  22.738  25.806  1.00  0.00     0.091 A 
ATOM     91  F   UNL A   1      45.692  24.294  26.545  1.00  0.00    -0.205 F 
ATOM     92  C   UNL A   1      42.785  22.211  25.867  1.00  0.00     0.022 A 
BRANCH  90  93
ATOM     93  S   UNL A   1      45.176  22.126  24.519  1.00  0.00     0.127 S 
ATOM     94  O   UNL A   1      46.294  21.584  25.292  1.00  0.00    -0.237 OA
ATOM     95  O   UNL A   1      44.345  21.125  23.860  1.00  0.00    -0.237 OA
ATOM     96  O   UNL A   1      45.523  23.297  23.721  1.00  0.00    -0.744 OA
ENDBRANCH  90  93
ENDBRANCH  62  86
BRANCH  74  97
ATOM     97  C   UNL A   1      47.093  29.226  29.403  1.00  0.00     0.023 A 
ATOM     98  C   UNL A   1      48.365  29.324  28.805  1.00  0.00     0.012 A 
ATOM     99  C   UNL A   1      46.002  29.882  28.805  1.00  0.00     0.148 A 
ATOM    100  C   UNL A   1      48.543  30.067  27.633  1.00  0.00     0.002 A 
ATOM    101  C   UNL A   1      46.177  30.585  27.620  1.00  0.00     0.091 A 
ATOM    102  F   UNL A   1      44.801  29.770  29.391  1.00  0.00    -0.205 F 
ATOM    103  C   UNL A   1      47.447  30.682  27.031  1.00  0.00     0.022 A 
BRANCH 101 104
ATOM    104  S   UNL A   1      44.800  31.321  26.737  1.00  0.00     0.127 S 
ATOM    105  O   UNL A   1      44.033  30.145  26.330  1.00  0.00    -0.237 OA
ATOM    106  O   UNL A   1      44.165  32.135  27.776  1.00  0.00    -0.237 OA
ATOM    107  O   UNL A   1      45.382  32.090  25.645  1.00  0.00    -0.744 OA
ENDBRANCH 101 104
ENDBRANCH  74  97
ENDBRANCH  48  49
ENDBRANCH  41  43
ENDBRANCH  40  41
ENDBRANCH  39  40
ENDBRANCH  38  39
ENDBRANCH  37  38
ENDBRANCH  36  37
ENDBRANCH  35  36
ENDBRANCH  34  35
ENDBRANCH   1  34
TORSDOF 28
ENDMDL
