MODEL 1
REMARK VINA RESULT:     -10.4      0.000      0.000
REMARK SMILES O=C(OCCOCCOCCOCCOC(=O)[C@H]1C[C@H](O)CN1C(=O)c1ccccc1O)c1ccc(-c2c3nc(c(-c4cccc(S(=O)(=O)[O-])c4F)c4ccc([nH]4)c(-c4cccc(S(=O)(=O)[O-])c4F)c4nc(c(-c5cccc(S(=O)(=O)[O-])c5F)c5ccc2[nH]5)C=C4)C=C3)cc1
REMARK SMILES IDX 9 1 8 2 7 3 6 4 5 5 4 6 3 7 2 8 1 9 33 10 34 11 95 12 35 13
REMARK SMILES IDX 94 14 36 15 37 16 38 17 88 18 39 19 93 20 87 21 89 22 40 23
REMARK SMILES IDX 92 24 86 25 85 26 41 28 73 29 53 30 72 31 54 32 57 33 71 34
REMARK SMILES IDX 90 35 55 36 56 37 70 39 91 40 58 41 42 42 43 43 51 44 44 45
REMARK SMILES IDX 46 46 52 47 45 48 47 49 48 50 49 51 50 52 74 53 75 54 83 55
REMARK SMILES IDX 76 56 78 57 84 58 77 59 79 60 80 61 81 62 82 63 59 64 60 65
REMARK SMILES IDX 68 66 61 67 63 68 69 69 62 70 64 71 65 72 66 73 67 74 10 75
REMARK SMILES IDX 11 76 12 77 13 78 14 79 15 80 16 81 17 82 18 83 19 84 23 85
REMARK SMILES IDX 20 86 22 87 24 88 25 89 26 90 27 91 31 92 28 93 30 94 29 95
REMARK SMILES IDX 32 96 21 98
REMARK H PARENT 89 27 57 38 32 97 21 99
REMARK Flexibility Score: inf
ROOT
ATOM      1  O   UNL A   1      32.596  20.971  24.333  1.00  0.00    -0.377 OA
ENDROOT
BRANCH   1   2
ATOM      2  C   UNL A   1      33.451  19.869  24.573  1.00  0.00     0.188 C 
BRANCH   2   3
ATOM      3  C   UNL A   1      34.891  20.235  24.887  1.00  0.00     0.188 C 
BRANCH   3   4
ATOM      4  O   UNL A   1      35.118  21.574  24.477  1.00  0.00    -0.376 OA
BRANCH   4   5
ATOM      5  C   UNL A   1      36.435  22.035  24.203  1.00  0.00     0.202 C 
BRANCH   5   6
ATOM      6  C   UNL A   1      37.554  21.071  24.581  1.00  0.00     0.261 C 
BRANCH   6   7
ATOM      7  O   UNL A   1      38.058  21.298  25.904  1.00  0.00    -0.460 OA
BRANCH   7   8
ATOM      8  C   UNL A   1      39.365  21.428  26.261  1.00  0.00     0.338 C 
ATOM      9  O   UNL A   1      40.081  20.431  26.211  1.00  0.00    -0.246 OA
BRANCH   8  10
ATOM     10  C   UNL A   1      39.965  22.714  26.740  1.00  0.00     0.060 A 
ATOM     11  C   UNL A   1      39.579  23.979  26.304  1.00  0.00     0.016 A 
ATOM     12  C   UNL A   1      40.927  22.654  27.755  1.00  0.00     0.016 A 
ATOM     13  C   UNL A   1      40.119  25.142  26.785  1.00  0.00     0.010 A 
ATOM     14  C   UNL A   1      41.486  23.830  28.271  1.00  0.00     0.010 A 
ATOM     15  C   UNL A   1      41.079  25.071  27.769  1.00  0.00    -0.014 A 
BRANCH  15  16
ATOM     16  C   UNL A   1      41.726  26.341  28.082  1.00  0.00     0.031 A 
ATOM     17  C   UNL A   1      40.939  27.322  28.880  1.00  0.00     0.074 A 
ATOM     18  C   UNL A   1      43.038  26.489  27.829  1.00  0.00     0.049 A 
ATOM     19  N   UNL A   1      41.243  28.542  29.204  1.00  0.00    -0.248 NA
ATOM     20  C   UNL A   1      39.638  26.859  29.407  1.00  0.00     0.031 C 
ATOM     21  C   UNL A   1      43.913  25.461  27.250  1.00  0.00     0.029 A 
ATOM     22  N   UNL A   1      43.868  27.553  28.036  1.00  0.00    -0.354 N 
ATOM     23  C   UNL A   1      40.135  29.027  29.880  1.00  0.00     0.074 A 
ATOM     24  C   UNL A   1      39.177  27.953  29.991  1.00  0.00     0.031 C 
ATOM     25  C   UNL A   1      45.147  25.966  27.105  1.00  0.00     0.029 A 
ATOM     26  C   UNL A   1      45.118  27.367  27.494  1.00  0.00     0.049 A 
ATOM     27  H   UNL A   1      43.599  28.366  28.521  1.00  0.00     0.167 HD
ATOM     28  C   UNL A   1      39.939  30.285  30.321  1.00  0.00     0.034 A 
ATOM     29  C   UNL A   1      46.084  28.272  27.261  1.00  0.00     0.034 A 
ATOM     30  C   UNL A   1      40.934  31.307  30.188  1.00  0.00     0.049 A 
ATOM     31  C   UNL A   1      45.799  29.690  27.679  1.00  0.00     0.074 A 
ATOM     32  C   UNL A   1      40.864  32.633  30.561  1.00  0.00     0.029 A 
ATOM     33  N   UNL A   1      42.181  31.109  29.609  1.00  0.00    -0.354 N 
ATOM     34  N   UNL A   1      44.754  30.165  28.320  1.00  0.00    -0.248 NA
ATOM     35  C   UNL A   1      46.810  30.697  27.345  1.00  0.00     0.031 C 
ATOM     36  C   UNL A   1      42.053  33.248  30.161  1.00  0.00     0.029 A 
ATOM     37  C   UNL A   1      42.881  32.295  29.581  1.00  0.00     0.049 A 
ATOM     38  H   UNL A   1      42.515  30.248  29.269  1.00  0.00     0.167 HD
ATOM     39  C   UNL A   1      44.989  31.522  28.479  1.00  0.00     0.074 A 
ATOM     40  C   UNL A   1      46.292  31.785  27.899  1.00  0.00     0.031 C 
ATOM     41  C   UNL A   1      44.199  32.478  29.029  1.00  0.00     0.034 A 
BRANCH  28  42
ATOM     42  C   UNL A   1      38.588  30.626  30.868  1.00  0.00     0.023 A 
ATOM     43  C   UNL A   1      38.262  30.368  32.212  1.00  0.00     0.012 A 
ATOM     44  C   UNL A   1      37.632  31.221  30.021  1.00  0.00     0.148 A 
ATOM     45  C   UNL A   1      36.995  30.685  32.703  1.00  0.00     0.002 A 
ATOM     46  C   UNL A   1      36.391  31.575  30.526  1.00  0.00     0.091 A 
ATOM     47  F   UNL A   1      37.956  31.414  28.735  1.00  0.00    -0.205 F 
ATOM     48  C   UNL A   1      36.065  31.298  31.864  1.00  0.00     0.022 A 
BRANCH  46  49
ATOM     49  S   UNL A   1      35.150  32.422  29.545  1.00  0.00     0.127 S 
ATOM     50  O   UNL A   1      34.726  31.370  28.627  1.00  0.00    -0.237 OA
ATOM     51  O   UNL A   1      34.165  32.789  30.557  1.00  0.00    -0.237 OA
ATOM     52  O   UNL A   1      35.834  33.550  28.914  1.00  0.00    -0.744 OA
ENDBRANCH  46  49
ENDBRANCH  28  42
BRANCH  29  53
ATOM     53  C   UNL A   1      47.329  27.900  26.531  1.00  0.00     0.023 A 
ATOM     54  C   UNL A   1      48.481  27.528  27.250  1.00  0.00     0.012 A 
ATOM     55  C   UNL A   1      47.390  27.942  25.121  1.00  0.00     0.148 A 
ATOM     56  C   UNL A   1      49.677  27.253  26.585  1.00  0.00     0.002 A 
ATOM     57  C   UNL A   1      48.567  27.609  24.462  1.00  0.00     0.091 A 
ATOM     58  F   UNL A   1      46.295  28.321  24.445  1.00  0.00    -0.205 F 
ATOM     59  C   UNL A   1      49.719  27.286  25.193  1.00  0.00     0.022 A 
BRANCH  57  60
ATOM     60  S   UNL A   1      48.673  27.514  22.672  1.00  0.00     0.127 S 
ATOM     61  O   UNL A   1      48.524  26.083  22.436  1.00  0.00    -0.237 OA
ATOM     62  O   UNL A   1      47.534  28.332  22.254  1.00  0.00    -0.237 OA
ATOM     63  O   UNL A   1      49.973  28.084  22.328  1.00  0.00    -0.744 OA
ENDBRANCH  57  60
ENDBRANCH  29  53
BRANCH  41  64
ATOM     64  C   UNL A   1      44.740  33.877  29.047  1.00  0.00     0.023 A 
ATOM     65  C   UNL A   1      44.437  34.757  27.991  1.00  0.00     0.012 A 
ATOM     66  C   UNL A   1      45.448  34.344  30.170  1.00  0.00     0.148 A 
ATOM     67  C   UNL A   1      44.855  36.083  28.043  1.00  0.00     0.002 A 
ATOM     68  C   UNL A   1      45.806  35.680  30.243  1.00  0.00     0.091 A 
ATOM     69  F   UNL A   1      45.730  33.475  31.154  1.00  0.00    -0.205 F 
ATOM     70  C   UNL A   1      45.524  36.547  29.174  1.00  0.00     0.022 A 
BRANCH  68  71
ATOM     71  S   UNL A   1      46.561  36.392  31.705  1.00  0.00     0.127 S 
ATOM     72  O   UNL A   1      47.351  35.269  32.209  1.00  0.00    -0.237 OA
ATOM     73  O   UNL A   1      47.346  37.490  31.143  1.00  0.00    -0.237 OA
ATOM     74  O   UNL A   1      45.461  36.813  32.565  1.00  0.00    -0.744 OA
ENDBRANCH  68  71
ENDBRANCH  41  64
ENDBRANCH  15  16
ENDBRANCH   8  10
ENDBRANCH   7   8
ENDBRANCH   6   7
ENDBRANCH   5   6
ENDBRANCH   4   5
ENDBRANCH   3   4
ENDBRANCH   2   3
ENDBRANCH   1   2
BRANCH   1  75
ATOM     75  C   UNL A   1      31.796  21.442  25.402  1.00  0.00     0.188 C 
BRANCH  75  76
ATOM     76  C   UNL A   1      32.330  22.346  26.513  1.00  0.00     0.188 C 
BRANCH  76  77
ATOM     77  O   UNL A   1      31.440  22.972  27.403  1.00  0.00    -0.376 OA
BRANCH  77  78
ATOM     78  C   UNL A   1      30.237  23.538  26.897  1.00  0.00     0.202 C 
BRANCH  78  79
ATOM     79  C   UNL A   1      30.265  24.718  25.901  1.00  0.00     0.261 C 
BRANCH  79  80
ATOM     80  O   UNL A   1      31.584  25.270  25.653  1.00  0.00    -0.462 OA
BRANCH  80  81
ATOM     81  C   UNL A   1      31.820  26.548  26.031  1.00  0.00     0.329 C 
ATOM     82  O   UNL A   1      31.566  26.971  27.160  1.00  0.00    -0.250 OA
BRANCH  81  83
ATOM     83  C   UNL A   1      32.536  27.475  24.979  1.00  0.00     0.198 C 
ATOM     84  C   UNL A   1      33.302  26.510  24.019  1.00  0.00     0.071 C 
ATOM     85  N   UNL A   1      31.956  28.486  24.041  1.00  0.00    -0.322 N 
ATOM     86  C   UNL A   1      32.856  26.866  22.602  1.00  0.00     0.136 C 
ATOM     87  C   UNL A   1      32.536  28.343  22.714  1.00  0.00     0.152 C 
BRANCH  85  88
ATOM     88  C   UNL A   1      31.236  29.586  24.494  1.00  0.00     0.258 C 
ATOM     89  O   UNL A   1      31.714  30.330  25.352  1.00  0.00    -0.269 OA
BRANCH  88  90
ATOM     90  C   UNL A   1      29.909  29.978  23.890  1.00  0.00     0.081 A 
ATOM     91  C   UNL A   1      29.206  28.960  23.226  1.00  0.00     0.018 A 
ATOM     92  C   UNL A   1      29.356  31.264  23.833  1.00  0.00     0.128 A 
ATOM     93  C   UNL A   1      27.988  29.211  22.576  1.00  0.00     0.001 A 
ATOM     94  C   UNL A   1      28.136  31.523  23.184  1.00  0.00     0.047 A 
ATOM     95  C   UNL A   1      27.450  30.494  22.558  1.00  0.00     0.004 A 
BRANCH  92  96
ATOM     96  O   UNL A   1      29.976  32.336  24.390  1.00  0.00    -0.507 OA
ATOM     97  H   UNL A   1      29.637  32.719  25.174  1.00  0.00     0.293 HD
ENDBRANCH  92  96
ENDBRANCH  88  90
ENDBRANCH  85  88
BRANCH  86  98
ATOM     98  O   UNL A   1      33.847  26.582  21.630  1.00  0.00    -0.391 OA
ATOM     99  H   UNL A   1      34.283  25.743  21.848  1.00  0.00     0.211 HD
ENDBRANCH  86  98
ENDBRANCH  81  83
ENDBRANCH  80  81
ENDBRANCH  79  80
ENDBRANCH  78  79
ENDBRANCH  77  78
ENDBRANCH  76  77
ENDBRANCH  75  76
ENDBRANCH   1  75
TORSDOF 27
ENDMDL
MODEL 2
REMARK VINA RESULT:     -10.3      1.784      7.602
REMARK SMILES O=C(OCCOCCOCCOCCOC(=O)[C@H]1C[C@H](O)CN1C(=O)c1ccccc1O)c1ccc(-c2c3nc(c(-c4cccc(S(=O)(=O)[O-])c4F)c4ccc([nH]4)c(-c4cccc(S(=O)(=O)[O-])c4F)c4nc(c(-c5cccc(S(=O)(=O)[O-])c5F)c5ccc2[nH]5)C=C4)C=C3)cc1
REMARK SMILES IDX 9 1 8 2 7 3 6 4 5 5 4 6 3 7 2 8 1 9 33 10 34 11 95 12 35 13
REMARK SMILES IDX 94 14 36 15 37 16 38 17 88 18 39 19 93 20 87 21 89 22 40 23
REMARK SMILES IDX 92 24 86 25 85 26 41 28 73 29 53 30 72 31 54 32 57 33 71 34
REMARK SMILES IDX 90 35 55 36 56 37 70 39 91 40 58 41 42 42 43 43 51 44 44 45
REMARK SMILES IDX 46 46 52 47 45 48 47 49 48 50 49 51 50 52 74 53 75 54 83 55
REMARK SMILES IDX 76 56 78 57 84 58 77 59 79 60 80 61 81 62 82 63 59 64 60 65
REMARK SMILES IDX 68 66 61 67 63 68 69 69 62 70 64 71 65 72 66 73 67 74 10 75
REMARK SMILES IDX 11 76 12 77 13 78 14 79 15 80 16 81 17 82 18 83 19 84 23 85
REMARK SMILES IDX 20 86 22 87 24 88 25 89 26 90 27 91 31 92 28 93 30 94 29 95
REMARK SMILES IDX 32 96 21 98
REMARK H PARENT 89 27 57 38 32 97 21 99
REMARK Flexibility Score: inf
ROOT
ATOM      1  O   UNL A   1      32.182  21.730  24.659  1.00  0.00    -0.377 OA
ENDROOT
BRANCH   1   2
ATOM      2  C   UNL A   1      33.130  20.688  24.786  1.00  0.00     0.188 C 
BRANCH   2   3
ATOM      3  C   UNL A   1      34.566  21.093  24.500  1.00  0.00     0.188 C 
BRANCH   3   4
ATOM      4  O   UNL A   1      34.987  22.005  25.503  1.00  0.00    -0.376 OA
BRANCH   4   5
ATOM      5  C   UNL A   1      36.369  22.269  25.708  1.00  0.00     0.202 C 
BRANCH   5   6
ATOM      6  C   UNL A   1      37.326  21.311  25.008  1.00  0.00     0.261 C 
BRANCH   6   7
ATOM      7  O   UNL A   1      38.192  20.624  25.922  1.00  0.00    -0.460 OA
BRANCH   7   8
ATOM      8  C   UNL A   1      39.500  20.909  26.165  1.00  0.00     0.338 C 
ATOM      9  O   UNL A   1      40.321  20.000  26.061  1.00  0.00    -0.246 OA
BRANCH   8  10
ATOM     10  C   UNL A   1      39.985  22.263  26.585  1.00  0.00     0.060 A 
ATOM     11  C   UNL A   1      39.514  23.468  26.069  1.00  0.00     0.016 A 
ATOM     12  C   UNL A   1      40.921  22.335  27.624  1.00  0.00     0.016 A 
ATOM     13  C   UNL A   1      39.949  24.694  26.496  1.00  0.00     0.010 A 
ATOM     14  C   UNL A   1      41.372  23.577  28.085  1.00  0.00     0.010 A 
ATOM     15  C   UNL A   1      40.884  24.753  27.504  1.00  0.00    -0.014 A 
BRANCH  15  16
ATOM     16  C   UNL A   1      41.421  26.086  27.759  1.00  0.00     0.031 A 
ATOM     17  C   UNL A   1      42.772  26.387  27.207  1.00  0.00     0.074 A 
ATOM     18  C   UNL A   1      40.618  27.028  28.283  1.00  0.00     0.049 A 
ATOM     19  N   UNL A   1      43.503  27.447  27.373  1.00  0.00    -0.248 NA
ATOM     20  C   UNL A   1      43.373  25.365  26.327  1.00  0.00     0.031 C 
ATOM     21  C   UNL A   1      39.203  26.840  28.632  1.00  0.00     0.029 A 
ATOM     22  N   UNL A   1      40.867  28.332  28.600  1.00  0.00    -0.354 N 
ATOM     23  C   UNL A   1      44.689  27.179  26.708  1.00  0.00     0.074 A 
ATOM     24  C   UNL A   1      44.560  25.892  26.071  1.00  0.00     0.031 C 
ATOM     25  C   UNL A   1      38.727  27.977  29.161  1.00  0.00     0.029 A 
ATOM     26  C   UNL A   1      39.823  28.928  29.267  1.00  0.00     0.049 A 
ATOM     27  H   UNL A   1      41.706  28.795  28.376  1.00  0.00     0.167 HD
ATOM     28  C   UNL A   1      45.798  27.944  26.687  1.00  0.00     0.034 A 
ATOM     29  C   UNL A   1      39.807  30.078  29.963  1.00  0.00     0.034 A 
ATOM     30  C   UNL A   1      45.863  29.220  27.336  1.00  0.00     0.049 A 
ATOM     31  C   UNL A   1      41.090  30.864  30.001  1.00  0.00     0.074 A 
ATOM     32  C   UNL A   1      46.928  30.091  27.423  1.00  0.00     0.029 A 
ATOM     33  N   UNL A   1      44.806  29.792  28.033  1.00  0.00    -0.354 N 
ATOM     34  N   UNL A   1      42.222  30.624  29.376  1.00  0.00    -0.248 NA
ATOM     35  C   UNL A   1      41.105  32.071  30.833  1.00  0.00     0.031 C 
ATOM     36  C   UNL A   1      46.529  31.169  28.217  1.00  0.00     0.029 A 
ATOM     37  C   UNL A   1      45.201  30.992  28.584  1.00  0.00     0.049 A 
ATOM     38  H   UNL A   1      43.907  29.400  28.118  1.00  0.00     0.167 HD
ATOM     39  C   UNL A   1      43.078  31.656  29.728  1.00  0.00     0.074 A 
ATOM     40  C   UNL A   1      42.321  32.543  30.591  1.00  0.00     0.031 C 
ATOM     41  C   UNL A   1      44.379  31.851  29.397  1.00  0.00     0.034 A 
BRANCH  28  42
ATOM     42  C   UNL A   1      47.025  27.369  26.050  1.00  0.00     0.023 A 
ATOM     43  C   UNL A   1      47.260  27.510  24.670  1.00  0.00     0.012 A 
ATOM     44  C   UNL A   1      47.960  26.683  26.850  1.00  0.00     0.148 A 
ATOM     45  C   UNL A   1      48.405  26.961  24.091  1.00  0.00     0.002 A 
ATOM     46  C   UNL A   1      49.117  26.179  26.276  1.00  0.00     0.091 A 
ATOM     47  F   UNL A   1      47.688  26.526  28.152  1.00  0.00    -0.205 F 
ATOM     48  C   UNL A   1      49.337  26.307  24.895  1.00  0.00     0.022 A 
BRANCH  46  49
ATOM     49  S   UNL A   1      50.404  25.377  27.234  1.00  0.00     0.127 S 
ATOM     50  O   UNL A   1      50.790  26.435  28.163  1.00  0.00    -0.237 OA
ATOM     51  O   UNL A   1      49.681  24.262  27.837  1.00  0.00    -0.237 OA
ATOM     52  O   UNL A   1      51.441  24.992  26.276  1.00  0.00    -0.744 OA
ENDBRANCH  46  49
ENDBRANCH  28  42
BRANCH  29  53
ATOM     53  C   UNL A   1      38.605  30.492  30.740  1.00  0.00     0.023 A 
ATOM     54  C   UNL A   1      38.468  30.097  32.084  1.00  0.00     0.012 A 
ATOM     55  C   UNL A   1      37.575  31.253  30.146  1.00  0.00     0.148 A 
ATOM     56  C   UNL A   1      37.313  30.409  32.803  1.00  0.00     0.002 A 
ATOM     57  C   UNL A   1      36.455  31.613  30.885  1.00  0.00     0.091 A 
ATOM     58  F   UNL A   1      37.704  31.605  28.858  1.00  0.00    -0.205 F 
ATOM     59  C   UNL A   1      36.311  31.172  32.208  1.00  0.00     0.022 A 
BRANCH  57  60
ATOM     60  S   UNL A   1      35.175  32.689  30.230  1.00  0.00     0.127 S 
ATOM     61  O   UNL A   1      34.291  32.840  31.380  1.00  0.00    -0.237 OA
ATOM     62  O   UNL A   1      35.936  33.886  29.873  1.00  0.00    -0.237 OA
ATOM     63  O   UNL A   1      34.616  31.976  29.085  1.00  0.00    -0.744 OA
ENDBRANCH  57  60
ENDBRANCH  29  53
BRANCH  41  64
ATOM     64  C   UNL A   1      45.043  33.079  29.949  1.00  0.00     0.023 A 
ATOM     65  C   UNL A   1      45.840  32.981  31.105  1.00  0.00     0.012 A 
ATOM     66  C   UNL A   1      44.963  34.297  29.249  1.00  0.00     0.148 A 
ATOM     67  C   UNL A   1      46.534  34.093  31.571  1.00  0.00     0.002 A 
ATOM     68  C   UNL A   1      45.706  35.382  29.684  1.00  0.00     0.091 A 
ATOM     69  F   UNL A   1      44.184  34.358  28.158  1.00  0.00    -0.205 F 
ATOM     70  C   UNL A   1      46.481  35.287  30.853  1.00  0.00     0.022 A 
BRANCH  68  71
ATOM     71  S   UNL A   1      45.793  36.917  28.761  1.00  0.00     0.127 S 
ATOM     72  O   UNL A   1      44.426  37.418  28.888  1.00  0.00    -0.237 OA
ATOM     73  O   UNL A   1      46.796  37.671  29.512  1.00  0.00    -0.237 OA
ATOM     74  O   UNL A   1      46.198  36.553  27.407  1.00  0.00    -0.744 OA
ENDBRANCH  68  71
ENDBRANCH  41  64
ENDBRANCH  15  16
ENDBRANCH   8  10
ENDBRANCH   7   8
ENDBRANCH   6   7
ENDBRANCH   5   6
ENDBRANCH   4   5
ENDBRANCH   3   4
ENDBRANCH   2   3
ENDBRANCH   1   2
BRANCH   1  75
ATOM     75  C   UNL A   1      31.339  22.006  25.763  1.00  0.00     0.188 C 
BRANCH  75  76
ATOM     76  C   UNL A   1      31.840  22.644  27.059  1.00  0.00     0.188 C 
BRANCH  76  77
ATOM     77  O   UNL A   1      31.688  24.026  27.270  1.00  0.00    -0.376 OA
BRANCH  77  78
ATOM     78  C   UNL A   1      31.487  24.881  26.150  1.00  0.00     0.202 C 
BRANCH  78  79
ATOM     79  C   UNL A   1      31.505  26.418  26.304  1.00  0.00     0.261 C 
BRANCH  79  80
ATOM     80  O   UNL A   1      32.701  27.063  25.799  1.00  0.00    -0.462 OA
BRANCH  80  81
ATOM     81  C   UNL A   1      32.554  28.193  25.068  1.00  0.00     0.329 C 
ATOM     82  O   UNL A   1      32.850  29.310  25.495  1.00  0.00    -0.250 OA
BRANCH  81  83
ATOM     83  C   UNL A   1      32.068  28.015  23.581  1.00  0.00     0.198 C 
ATOM     84  C   UNL A   1      33.268  27.364  22.820  1.00  0.00     0.071 C 
ATOM     85  N   UNL A   1      30.888  27.270  23.042  1.00  0.00    -0.322 N 
ATOM     86  C   UNL A   1      32.719  26.111  22.141  1.00  0.00     0.136 C 
ATOM     87  C   UNL A   1      31.271  26.478  21.882  1.00  0.00     0.152 C 
BRANCH  85  88
ATOM     88  C   UNL A   1      29.586  27.583  23.412  1.00  0.00     0.258 C 
ATOM     89  O   UNL A   1      28.857  26.721  23.907  1.00  0.00    -0.269 OA
BRANCH  88  90
ATOM     90  C   UNL A   1      29.045  28.991  23.331  1.00  0.00     0.081 A 
ATOM     91  C   UNL A   1      29.865  30.000  23.860  1.00  0.00     0.018 A 
ATOM     92  C   UNL A   1      27.779  29.383  22.880  1.00  0.00     0.128 A 
ATOM     93  C   UNL A   1      29.452  31.341  23.895  1.00  0.00     0.001 A 
ATOM     94  C   UNL A   1      27.357  30.724  22.911  1.00  0.00     0.047 A 
ATOM     95  C   UNL A   1      28.198  31.704  23.416  1.00  0.00     0.004 A 
BRANCH  92  96
ATOM     96  O   UNL A   1      26.879  28.485  22.401  1.00  0.00    -0.507 OA
ATOM     97  H   UNL A   1      27.173  27.744  21.909  1.00  0.00     0.293 HD
ENDBRANCH  92  96
ENDBRANCH  88  90
ENDBRANCH  85  88
BRANCH  86  98
ATOM     98  O   UNL A   1      33.428  25.774  20.961  1.00  0.00    -0.391 OA
ATOM     99  H   UNL A   1      33.307  24.831  20.770  1.00  0.00     0.211 HD
ENDBRANCH  86  98
ENDBRANCH  81  83
ENDBRANCH  80  81
ENDBRANCH  79  80
ENDBRANCH  78  79
ENDBRANCH  77  78
ENDBRANCH  76  77
ENDBRANCH  75  76
ENDBRANCH   1  75
TORSDOF 27
ENDMDL
MODEL 3
REMARK VINA RESULT:      -9.8      2.357      7.768
REMARK SMILES O=C(OCCOCCOCCOCCOC(=O)[C@H]1C[C@H](O)CN1C(=O)c1ccccc1O)c1ccc(-c2c3nc(c(-c4cccc(S(=O)(=O)[O-])c4F)c4ccc([nH]4)c(-c4cccc(S(=O)(=O)[O-])c4F)c4nc(c(-c5cccc(S(=O)(=O)[O-])c5F)c5ccc2[nH]5)C=C4)C=C3)cc1
REMARK SMILES IDX 9 1 8 2 7 3 6 4 5 5 4 6 3 7 2 8 1 9 33 10 34 11 95 12 35 13
REMARK SMILES IDX 94 14 36 15 37 16 38 17 88 18 39 19 93 20 87 21 89 22 40 23
REMARK SMILES IDX 92 24 86 25 85 26 41 28 73 29 53 30 72 31 54 32 57 33 71 34
REMARK SMILES IDX 90 35 55 36 56 37 70 39 91 40 58 41 42 42 43 43 51 44 44 45
REMARK SMILES IDX 46 46 52 47 45 48 47 49 48 50 49 51 50 52 74 53 75 54 83 55
REMARK SMILES IDX 76 56 78 57 84 58 77 59 79 60 80 61 81 62 82 63 59 64 60 65
REMARK SMILES IDX 68 66 61 67 63 68 69 69 62 70 64 71 65 72 66 73 67 74 10 75
REMARK SMILES IDX 11 76 12 77 13 78 14 79 15 80 16 81 17 82 18 83 19 84 23 85
REMARK SMILES IDX 20 86 22 87 24 88 25 89 26 90 27 91 31 92 28 93 30 94 29 95
REMARK SMILES IDX 32 96 21 98
REMARK H PARENT 89 27 57 38 32 97 21 99
REMARK Flexibility Score: inf
ROOT
ATOM      1  O   UNL A   1      34.308  20.595  24.896  1.00  0.00    -0.377 OA
ENDROOT
BRANCH   1   2
ATOM      2  C   UNL A   1      35.497  19.844  25.059  1.00  0.00     0.188 C 
BRANCH   2   3
ATOM      3  C   UNL A   1      36.768  20.566  24.647  1.00  0.00     0.188 C 
BRANCH   3   4
ATOM      4  O   UNL A   1      36.988  21.643  25.544  1.00  0.00    -0.376 OA
BRANCH   4   5
ATOM      5  C   UNL A   1      38.304  21.974  25.971  1.00  0.00     0.202 C 
BRANCH   5   6
ATOM      6  C   UNL A   1      39.344  20.875  25.785  1.00  0.00     0.261 C 
BRANCH   6   7
ATOM      7  O   UNL A   1      39.975  20.494  27.016  1.00  0.00    -0.460 OA
BRANCH   7   8
ATOM      8  C   UNL A   1      41.193  20.906  27.462  1.00  0.00     0.338 C 
ATOM      9  O   UNL A   1      42.017  20.049  27.772  1.00  0.00    -0.246 OA
BRANCH   8  10
ATOM     10  C   UNL A   1      41.567  22.347  27.624  1.00  0.00     0.060 A 
ATOM     11  C   UNL A   1      41.156  23.373  26.776  1.00  0.00     0.016 A 
ATOM     12  C   UNL A   1      42.318  22.711  28.749  1.00  0.00     0.016 A 
ATOM     13  C   UNL A   1      41.483  24.689  26.967  1.00  0.00     0.010 A 
ATOM     14  C   UNL A   1      42.655  24.051  28.972  1.00  0.00     0.010 A 
ATOM     15  C   UNL A   1      42.238  25.032  28.065  1.00  0.00    -0.014 A 
BRANCH  15  16
ATOM     16  C   UNL A   1      42.692  26.419  28.083  1.00  0.00     0.031 A 
ATOM     17  C   UNL A   1      43.977  26.719  27.391  1.00  0.00     0.074 A 
ATOM     18  C   UNL A   1      41.858  27.377  28.524  1.00  0.00     0.049 A 
ATOM     19  N   UNL A   1      44.638  27.836  27.345  1.00  0.00    -0.248 NA
ATOM     20  C   UNL A   1      44.593  25.616  26.624  1.00  0.00     0.031 C 
ATOM     21  C   UNL A   1      40.487  27.154  29.004  1.00  0.00     0.029 A 
ATOM     22  N   UNL A   1      42.031  28.727  28.629  1.00  0.00    -0.354 N 
ATOM     23  C   UNL A   1      45.793  27.547  26.638  1.00  0.00     0.074 A 
ATOM     24  C   UNL A   1      45.717  26.173  26.205  1.00  0.00     0.031 C 
ATOM     25  C   UNL A   1      39.965  28.325  29.397  1.00  0.00     0.029 A 
ATOM     26  C   UNL A   1      40.992  29.349  29.280  1.00  0.00     0.049 A 
ATOM     27  H   UNL A   1      42.817  29.203  28.277  1.00  0.00     0.167 HD
ATOM     28  C   UNL A   1      46.840  28.368  26.421  1.00  0.00     0.034 A 
ATOM     29  C   UNL A   1      40.938  30.587  29.801  1.00  0.00     0.034 A 
ATOM     30  C   UNL A   1      46.853  29.728  26.871  1.00  0.00     0.049 A 
ATOM     31  C   UNL A   1      42.160  31.449  29.627  1.00  0.00     0.074 A 
ATOM     32  C   UNL A   1      47.854  30.667  26.749  1.00  0.00     0.029 A 
ATOM     33  N   UNL A   1      45.805  30.331  27.556  1.00  0.00    -0.354 N 
ATOM     34  N   UNL A   1      43.262  31.190  28.959  1.00  0.00    -0.248 NA
ATOM     35  C   UNL A   1      42.141  32.766  30.271  1.00  0.00     0.031 C 
ATOM     36  C   UNL A   1      47.431  31.826  27.407  1.00  0.00     0.029 A 
ATOM     37  C   UNL A   1      46.147  31.622  27.896  1.00  0.00     0.049 A 
ATOM     38  H   UNL A   1      44.946  29.899  27.766  1.00  0.00     0.167 HD
ATOM     39  C   UNL A   1      44.061  32.315  29.091  1.00  0.00     0.074 A 
ATOM     40  C   UNL A   1      43.300  33.271  29.872  1.00  0.00     0.031 C 
ATOM     41  C   UNL A   1      45.319  32.540  28.636  1.00  0.00     0.034 A 
BRANCH  28  42
ATOM     42  C   UNL A   1      48.061  27.783  25.781  1.00  0.00     0.023 A 
ATOM     43  C   UNL A   1      49.062  27.169  26.555  1.00  0.00     0.012 A 
ATOM     44  C   UNL A   1      48.201  27.845  24.381  1.00  0.00     0.148 A 
ATOM     45  C   UNL A   1      50.198  26.636  25.943  1.00  0.00     0.002 A 
ATOM     46  C   UNL A   1      49.309  27.274  23.775  1.00  0.00     0.091 A 
ATOM     47  F   UNL A   1      47.253  28.474  23.674  1.00  0.00    -0.205 F 
ATOM     48  C   UNL A   1      50.315  26.679  24.555  1.00  0.00     0.022 A 
BRANCH  46  49
ATOM     49  S   UNL A   1      49.523  27.222  21.995  1.00  0.00     0.127 S 
ATOM     50  O   UNL A   1      48.735  26.048  21.633  1.00  0.00    -0.237 OA
ATOM     51  O   UNL A   1      48.948  28.499  21.585  1.00  0.00    -0.237 OA
ATOM     52  O   UNL A   1      50.961  27.091  21.764  1.00  0.00    -0.744 OA
ENDBRANCH  46  49
ENDBRANCH  28  42
BRANCH  29  53
ATOM     53  C   UNL A   1      39.763  31.036  30.600  1.00  0.00     0.023 A 
ATOM     54  C   UNL A   1      38.642  31.587  29.951  1.00  0.00     0.012 A 
ATOM     55  C   UNL A   1      39.760  30.949  32.009  1.00  0.00     0.148 A 
ATOM     56  C   UNL A   1      37.566  32.084  30.689  1.00  0.00     0.002 A 
ATOM     57  C   UNL A   1      38.660  31.391  32.735  1.00  0.00     0.091 A 
ATOM     58  F   UNL A   1      40.842  30.445  32.620  1.00  0.00    -0.205 F 
ATOM     59  C   UNL A   1      37.571  31.981  32.078  1.00  0.00     0.022 A 
BRANCH  57  60
ATOM     60  S   UNL A   1      38.538  31.188  34.515  1.00  0.00     0.127 S 
ATOM     61  O   UNL A   1      37.278  31.859  34.809  1.00  0.00    -0.237 OA
ATOM     62  O   UNL A   1      38.513  29.732  34.656  1.00  0.00    -0.237 OA
ATOM     63  O   UNL A   1      39.738  31.817  35.062  1.00  0.00    -0.744 OA
ENDBRANCH  57  60
ENDBRANCH  29  53
BRANCH  41  64
ATOM     64  C   UNL A   1      45.926  33.875  28.952  1.00  0.00     0.023 A 
ATOM     65  C   UNL A   1      46.791  34.006  30.054  1.00  0.00     0.012 A 
ATOM     66  C   UNL A   1      45.724  34.964  28.083  1.00  0.00     0.148 A 
ATOM     67  C   UNL A   1      47.431  35.217  30.301  1.00  0.00     0.002 A 
ATOM     68  C   UNL A   1      46.413  36.146  28.300  1.00  0.00     0.091 A 
ATOM     69  F   UNL A   1      44.883  34.808  27.049  1.00  0.00    -0.205 F 
ATOM     70  C   UNL A   1      47.256  36.279  29.416  1.00  0.00     0.022 A 
BRANCH  68  71
ATOM     71  S   UNL A   1      46.342  37.521  27.151  1.00  0.00     0.127 S 
ATOM     72  O   UNL A   1      47.006  36.962  25.976  1.00  0.00    -0.237 OA
ATOM     73  O   UNL A   1      44.901  37.723  27.003  1.00  0.00    -0.237 OA
ATOM     74  O   UNL A   1      47.044  38.624  27.796  1.00  0.00    -0.744 OA
ENDBRANCH  68  71
ENDBRANCH  41  64
ENDBRANCH  15  16
ENDBRANCH   8  10
ENDBRANCH   7   8
ENDBRANCH   6   7
ENDBRANCH   5   6
ENDBRANCH   4   5
ENDBRANCH   3   4
ENDBRANCH   2   3
ENDBRANCH   1   2
BRANCH   1  75
ATOM     75  C   UNL A   1      33.415  20.680  25.991  1.00  0.00     0.188 C 
BRANCH  75  76
ATOM     76  C   UNL A   1      33.699  21.517  27.239  1.00  0.00     0.188 C 
BRANCH  76  77
ATOM     77  O   UNL A   1      32.767  22.477  27.673  1.00  0.00    -0.376 OA
BRANCH  77  78
ATOM     78  C   UNL A   1      31.612  22.729  26.881  1.00  0.00     0.202 C 
BRANCH  78  79
ATOM     79  C   UNL A   1      31.572  23.903  25.878  1.00  0.00     0.261 C 
BRANCH  79  80
ATOM     80  O   UNL A   1      32.524  23.802  24.788  1.00  0.00    -0.462 OA
BRANCH  80  81
ATOM     81  C   UNL A   1      33.424  24.801  24.634  1.00  0.00     0.329 C 
ATOM     82  O   UNL A   1      34.535  24.789  25.165  1.00  0.00    -0.250 OA
BRANCH  81  83
ATOM     83  C   UNL A   1      33.027  25.965  23.651  1.00  0.00     0.198 C 
ATOM     84  C   UNL A   1      33.683  25.602  22.280  1.00  0.00     0.071 C 
ATOM     85  N   UNL A   1      31.673  26.461  23.251  1.00  0.00    -0.322 N 
ATOM     86  C   UNL A   1      32.561  25.632  21.244  1.00  0.00     0.136 C 
ATOM     87  C   UNL A   1      31.609  26.665  21.812  1.00  0.00     0.152 C 
BRANCH  85  88
ATOM     88  C   UNL A   1      30.765  26.958  24.179  1.00  0.00     0.258 C 
ATOM     89  O   UNL A   1      29.624  26.498  24.237  1.00  0.00    -0.269 OA
BRANCH  88  90
ATOM     90  C   UNL A   1      31.158  27.986  25.213  1.00  0.00     0.081 A 
ATOM     91  C   UNL A   1      31.478  29.263  24.726  1.00  0.00     0.018 A 
ATOM     92  C   UNL A   1      31.334  27.776  26.586  1.00  0.00     0.128 A 
ATOM     93  C   UNL A   1      31.911  30.289  25.580  1.00  0.00     0.001 A 
ATOM     94  C   UNL A   1      31.768  28.798  27.449  1.00  0.00     0.047 A 
ATOM     95  C   UNL A   1      32.052  30.057  26.944  1.00  0.00     0.004 A 
BRANCH  92  96
ATOM     96  O   UNL A   1      31.111  26.565  27.160  1.00  0.00    -0.507 OA
ATOM     97  H   UNL A   1      31.637  26.284  27.882  1.00  0.00     0.293 HD
ENDBRANCH  92  96
ENDBRANCH  88  90
ENDBRANCH  85  88
BRANCH  86  98
ATOM     98  O   UNL A   1      33.026  25.956  19.945  1.00  0.00    -0.391 OA
ATOM     99  H   UNL A   1      33.699  26.653  20.007  1.00  0.00     0.211 HD
ENDBRANCH  86  98
ENDBRANCH  81  83
ENDBRANCH  80  81
ENDBRANCH  79  80
ENDBRANCH  78  79
ENDBRANCH  77  78
ENDBRANCH  76  77
ENDBRANCH  75  76
ENDBRANCH   1  75
TORSDOF 27
ENDMDL
