MODEL 1
REMARK VINA RESULT:      -8.0      0.000      0.000
REMARK SMILES CC[C@H]1CCCCN1S(=O)(=O)c1ccc2oc(C(=O)OCCOCCOCCOCCOC(=O)c3ccc(-c4c5nc(c(-c6cccc(S(=O)(=O)[O-])c6F)c6ccc([nH]6)c(-c6cccc(S(=O)(=O)[O-])c6F)c6nc(c(-c7cccc(S(=O)(=O)[O-])c7F)c7ccc4[nH]7)C=C6)C=C5)cc3)c(C)c2c1
REMARK SMILES IDX 26 1 25 2 24 3 23 4 22 5 21 6 20 7 18 8 19 9 17 10 12 11
REMARK SMILES IDX 13 12 101 13 14 14 100 15 15 16 98 17 16 18 99 19 9 20 10 21
REMARK SMILES IDX 11 22 8 23 3 24 4 25 5 26 7 27 6 28 2 29 1 30 27 31 28 32
REMARK SMILES IDX 29 33 30 34 31 35 32 36 33 37 34 38 35 39 36 40 97 41 37 42
REMARK SMILES IDX 96 43 38 44 39 45 40 46 90 47 41 48 95 49 89 50 91 51 42 52
REMARK SMILES IDX 94 53 88 54 87 55 43 57 75 58 55 59 74 60 56 61 59 62 73 63
REMARK SMILES IDX 92 64 57 65 58 66 72 68 93 69 60 70 44 71 45 72 53 73 46 74
REMARK SMILES IDX 48 75 54 76 47 77 49 78 50 79 51 80 52 81 76 82 77 83 85 84
REMARK SMILES IDX 78 85 80 86 86 87 79 88 81 89 82 90 83 91 84 92 61 93 62 94
REMARK SMILES IDX 70 95 63 96 65 97 71 98 64 99 66 100 67 101 68 102 69 103
REMARK H PARENT 91 56 59 67
REMARK Flexibility Score: inf
ROOT
ATOM      1  O   UNL A   1      47.733  38.338  29.496  1.00  0.00    -0.377 OA
ENDROOT
BRANCH   1   2
ATOM      2  C   UNL A   1      47.382  37.807  28.227  1.00  0.00     0.188 C 
BRANCH   2   3
ATOM      3  C   UNL A   1      47.196  38.911  27.173  1.00  0.00     0.188 C 
BRANCH   3   4
ATOM      4  O   UNL A   1      45.868  38.979  26.651  1.00  0.00    -0.376 OA
BRANCH   4   5
ATOM      5  C   UNL A   1      45.430  40.244  26.162  1.00  0.00     0.202 C 
BRANCH   5   6
ATOM      6  C   UNL A   1      43.935  40.570  26.295  1.00  0.00     0.261 C 
BRANCH   6   7
ATOM      7  O   UNL A   1      43.548  41.860  25.806  1.00  0.00    -0.457 OA
BRANCH   7   8
ATOM      8  C   UNL A   1      42.717  41.933  24.741  1.00  0.00     0.374 C 
ATOM      9  O   UNL A   1      41.595  41.441  24.700  1.00  0.00    -0.242 OA
BRANCH   8  10
ATOM     10  C   UNL A   1      43.311  42.795  23.741  1.00  0.00     0.215 A 
ATOM     11  C   UNL A   1      45.226  45.668  20.759  1.00  0.00     0.083 A 
ATOM     12  C   UNL A   1      46.198  45.698  21.765  1.00  0.00     0.025 A 
ATOM     13  C   UNL A   1      44.178  44.738  20.791  1.00  0.00     0.034 A 
ATOM     14  C   UNL A   1      46.077  44.872  22.892  1.00  0.00     0.049 A 
ATOM     15  C   UNL A   1      43.970  44.013  21.970  1.00  0.00     0.025 A 
ATOM     16  C   UNL A   1      44.917  44.101  22.976  1.00  0.00     0.135 A 
ATOM     17  C   UNL A   1      42.932  43.165  22.452  1.00  0.00     0.010 A 
ATOM     18  O   UNL A   1      44.534  43.348  24.038  1.00  0.00    -0.449 OA
ATOM     19  C   UNL A   1      41.686  42.834  21.702  1.00  0.00     0.049 C 
BRANCH  11  20
ATOM     20  S   UNL A   1      45.315  46.759  19.353  1.00  0.00     0.243 S 
ATOM     21  O   UNL A   1      46.639  46.576  18.805  1.00  0.00    -0.207 OA
ATOM     22  O   UNL A   1      44.877  48.068  19.800  1.00  0.00    -0.207 OA
BRANCH  20  23
ATOM     23  N   UNL A   1      44.142  46.184  18.243  1.00  0.00    -0.195 NA
ATOM     24  C   UNL A   1      43.105  47.172  17.788  1.00  0.00     0.073 C 
ATOM     25  C   UNL A   1      41.833  46.361  17.449  1.00  0.00     0.020 C 
ATOM     26  C   UNL A   1      42.090  45.290  16.385  1.00  0.00     0.003 C 
ATOM     27  C   UNL A   1      44.508  45.221  17.176  1.00  0.00     0.103 C 
ATOM     28  C   UNL A   1      43.274  44.413  16.769  1.00  0.00     0.017 C 
BRANCH  24  29
ATOM     29  C   UNL A   1      43.488  48.050  16.573  1.00  0.00     0.017 C 
ATOM     30  C   UNL A   1      44.708  48.938  16.708  1.00  0.00     0.005 C 
ENDBRANCH  24  29
ENDBRANCH  20  23
ENDBRANCH  11  20
ENDBRANCH   8  10
ENDBRANCH   7   8
ENDBRANCH   6   7
ENDBRANCH   5   6
ENDBRANCH   4   5
ENDBRANCH   3   4
ENDBRANCH   2   3
ENDBRANCH   1   2
BRANCH   1  31
ATOM     31  C   UNL A   1      47.646  39.756  29.636  1.00  0.00     0.188 C 
BRANCH  31  32
ATOM     32  C   UNL A   1      46.488  40.362  30.455  1.00  0.00     0.188 C 
BRANCH  32  33
ATOM     33  O   UNL A   1      45.475  40.964  29.646  1.00  0.00    -0.376 OA
BRANCH  33  34
ATOM     34  C   UNL A   1      44.127  40.711  30.034  1.00  0.00     0.202 C 
BRANCH  34  35
ATOM     35  C   UNL A   1      43.824  39.229  30.290  1.00  0.00     0.261 C 
BRANCH  35  36
ATOM     36  O   UNL A   1      43.955  38.379  29.140  1.00  0.00    -0.460 OA
BRANCH  36  37
ATOM     37  C   UNL A   1      42.830  37.800  28.667  1.00  0.00     0.338 C 
ATOM     38  O   UNL A   1      41.943  38.327  28.022  1.00  0.00    -0.246 OA
BRANCH  37  39
ATOM     39  C   UNL A   1      42.940  36.349  28.905  1.00  0.00     0.060 A 
ATOM     40  C   UNL A   1      41.769  35.581  28.975  1.00  0.00     0.016 A 
ATOM     41  C   UNL A   1      44.193  35.757  29.076  1.00  0.00     0.016 A 
ATOM     42  C   UNL A   1      41.849  34.220  29.266  1.00  0.00     0.010 A 
ATOM     43  C   UNL A   1      44.270  34.401  29.382  1.00  0.00     0.010 A 
ATOM     44  C   UNL A   1      43.098  33.637  29.518  1.00  0.00    -0.014 A 
BRANCH  44  45
ATOM     45  C   UNL A   1      43.196  32.292  30.129  1.00  0.00     0.031 A 
ATOM     46  C   UNL A   1      43.053  32.189  31.622  1.00  0.00     0.074 A 
ATOM     47  C   UNL A   1      43.489  31.209  29.390  1.00  0.00     0.049 A 
ATOM     48  N   UNL A   1      43.233  31.157  32.401  1.00  0.00    -0.248 NA
ATOM     49  C   UNL A   1      42.666  33.421  32.333  1.00  0.00     0.031 C 
ATOM     50  C   UNL A   1      43.655  31.195  27.938  1.00  0.00     0.029 A 
ATOM     51  N   UNL A   1      43.744  29.917  29.772  1.00  0.00    -0.354 N 
ATOM     52  C   UNL A   1      43.020  31.621  33.693  1.00  0.00     0.074 A 
ATOM     53  C   UNL A   1      42.694  33.025  33.597  1.00  0.00     0.031 C 
ATOM     54  C   UNL A   1      44.032  29.962  27.556  1.00  0.00     0.029 A 
ATOM     55  C   UNL A   1      44.159  29.111  28.739  1.00  0.00     0.049 A 
ATOM     56  H   UNL A   1      43.640  29.597  30.698  1.00  0.00     0.167 HD
ATOM     57  C   UNL A   1      43.084  30.934  34.856  1.00  0.00     0.034 A 
ATOM     58  C   UNL A   1      44.617  27.842  28.754  1.00  0.00     0.034 A 
ATOM     59  C   UNL A   1      43.390  29.536  34.947  1.00  0.00     0.049 A 
ATOM     60  C   UNL A   1      44.684  27.101  30.067  1.00  0.00     0.074 A 
ATOM     61  C   UNL A   1      43.432  28.737  36.075  1.00  0.00     0.029 A 
ATOM     62  N   UNL A   1      43.715  28.730  33.868  1.00  0.00    -0.354 N 
ATOM     63  N   UNL A   1      44.352  27.516  31.266  1.00  0.00    -0.248 NA
ATOM     64  C   UNL A   1      45.157  25.709  30.028  1.00  0.00     0.031 C 
ATOM     65  C   UNL A   1      43.799  27.448  35.679  1.00  0.00     0.029 A 
ATOM     66  C   UNL A   1      43.966  27.442  34.303  1.00  0.00     0.049 A 
ATOM     67  H   UNL A   1      43.761  29.030  32.931  1.00  0.00     0.167 HD
ATOM     68  C   UNL A   1      44.532  26.426  32.113  1.00  0.00     0.074 A 
ATOM     69  C   UNL A   1      44.996  25.329  31.289  1.00  0.00     0.031 C 
ATOM     70  C   UNL A   1      44.345  26.343  33.454  1.00  0.00     0.034 A 
BRANCH  57  71
ATOM     71  C   UNL A   1      42.787  31.681  36.126  1.00  0.00     0.023 A 
ATOM     72  C   UNL A   1      43.850  32.198  36.892  1.00  0.00     0.012 A 
ATOM     73  C   UNL A   1      41.459  31.927  36.526  1.00  0.00     0.148 A 
ATOM     74  C   UNL A   1      43.597  32.931  38.050  1.00  0.00     0.002 A 
ATOM     75  C   UNL A   1      41.214  32.690  37.661  1.00  0.00     0.091 A 
ATOM     76  F   UNL A   1      40.464  31.400  35.798  1.00  0.00    -0.205 F 
ATOM     77  C   UNL A   1      42.282  33.188  38.428  1.00  0.00     0.022 A 
BRANCH  75  78
ATOM     78  S   UNL A   1      39.555  33.132  38.188  1.00  0.00     0.127 S 
ATOM     79  O   UNL A   1      39.783  33.528  39.577  1.00  0.00    -0.237 OA
ATOM     80  O   UNL A   1      39.229  34.238  37.285  1.00  0.00    -0.237 OA
ATOM     81  O   UNL A   1      38.743  31.938  38.002  1.00  0.00    -0.744 OA
ENDBRANCH  75  78
ENDBRANCH  57  71
BRANCH  58  82
ATOM     82  C   UNL A   1      45.021  27.177  27.483  1.00  0.00     0.023 A 
ATOM     83  C   UNL A   1      44.148  26.249  26.881  1.00  0.00     0.012 A 
ATOM     84  C   UNL A   1      46.252  27.463  26.861  1.00  0.00     0.148 A 
ATOM     85  C   UNL A   1      44.507  25.595  25.701  1.00  0.00     0.002 A 
ATOM     86  C   UNL A   1      46.580  26.849  25.657  1.00  0.00     0.091 A 
ATOM     87  F   UNL A   1      47.081  28.331  27.458  1.00  0.00    -0.205 F 
ATOM     88  C   UNL A   1      45.717  25.902  25.084  1.00  0.00     0.022 A 
BRANCH  86  89
ATOM     89  S   UNL A   1      48.057  27.288  24.733  1.00  0.00     0.127 S 
ATOM     90  O   UNL A   1      48.621  28.354  25.555  1.00  0.00    -0.237 OA
ATOM     91  O   UNL A   1      48.813  26.034  24.746  1.00  0.00    -0.237 OA
ATOM     92  O   UNL A   1      47.585  27.682  23.411  1.00  0.00    -0.744 OA
ENDBRANCH  86  89
ENDBRANCH  58  82
BRANCH  70  93
ATOM     93  C   UNL A   1      44.577  25.016  34.124  1.00  0.00     0.023 A 
ATOM     94  C   UNL A   1      43.524  24.089  34.224  1.00  0.00     0.012 A 
ATOM     95  C   UNL A   1      45.873  24.644  34.535  1.00  0.00     0.148 A 
ATOM     96  C   UNL A   1      43.754  22.812  34.737  1.00  0.00     0.002 A 
ATOM     97  C   UNL A   1      46.104  23.356  35.003  1.00  0.00     0.091 A 
ATOM     98  F   UNL A   1      46.857  25.550  34.444  1.00  0.00    -0.205 F 
ATOM     99  C   UNL A   1      45.043  22.442  35.112  1.00  0.00     0.022 A 
BRANCH  97 100
ATOM    100  S   UNL A   1      47.748  22.761  35.413  1.00  0.00     0.127 S 
ATOM    101  O   UNL A   1      48.489  23.070  34.191  1.00  0.00    -0.237 OA
ATOM    102  O   UNL A   1      48.101  23.588  36.566  1.00  0.00    -0.237 OA
ATOM    103  O   UNL A   1      47.600  21.343  35.710  1.00  0.00    -0.744 OA
ENDBRANCH  97 100
ENDBRANCH  70  93
ENDBRANCH  44  45
ENDBRANCH  37  39
ENDBRANCH  36  37
ENDBRANCH  35  36
ENDBRANCH  34  35
ENDBRANCH  33  34
ENDBRANCH  32  33
ENDBRANCH  31  32
ENDBRANCH   1  31
TORSDOF 26
ENDMDL
MODEL 2
REMARK VINA RESULT:      -8.0      6.074     13.876
REMARK SMILES CC[C@H]1CCCCN1S(=O)(=O)c1ccc2oc(C(=O)OCCOCCOCCOCCOC(=O)c3ccc(-c4c5nc(c(-c6cccc(S(=O)(=O)[O-])c6F)c6ccc([nH]6)c(-c6cccc(S(=O)(=O)[O-])c6F)c6nc(c(-c7cccc(S(=O)(=O)[O-])c7F)c7ccc4[nH]7)C=C6)C=C5)cc3)c(C)c2c1
REMARK SMILES IDX 26 1 25 2 24 3 23 4 22 5 21 6 20 7 18 8 19 9 17 10 12 11
REMARK SMILES IDX 13 12 101 13 14 14 100 15 15 16 98 17 16 18 99 19 9 20 10 21
REMARK SMILES IDX 11 22 8 23 3 24 4 25 5 26 7 27 6 28 2 29 1 30 27 31 28 32
REMARK SMILES IDX 29 33 30 34 31 35 32 36 33 37 34 38 35 39 36 40 97 41 37 42
REMARK SMILES IDX 96 43 38 44 39 45 40 46 90 47 41 48 95 49 89 50 91 51 42 52
REMARK SMILES IDX 94 53 88 54 87 55 43 57 75 58 55 59 74 60 56 61 59 62 73 63
REMARK SMILES IDX 92 64 57 65 58 66 72 68 93 69 60 70 44 71 45 72 53 73 46 74
REMARK SMILES IDX 48 75 54 76 47 77 49 78 50 79 51 80 52 81 76 82 77 83 85 84
REMARK SMILES IDX 78 85 80 86 86 87 79 88 81 89 82 90 83 91 84 92 61 93 62 94
REMARK SMILES IDX 70 95 63 96 65 97 71 98 64 99 66 100 67 101 68 102 69 103
REMARK H PARENT 91 56 59 67
REMARK Flexibility Score: inf
ROOT
ATOM      1  O   UNL A   1      36.749  32.331  28.391  1.00  0.00    -0.377 OA
ENDROOT
BRANCH   1   2
ATOM      2  C   UNL A   1      35.341  32.369  28.565  1.00  0.00     0.188 C 
BRANCH   2   3
ATOM      3  C   UNL A   1      34.889  33.628  29.324  1.00  0.00     0.188 C 
BRANCH   3   4
ATOM      4  O   UNL A   1      34.364  33.351  30.623  1.00  0.00    -0.376 OA
BRANCH   4   5
ATOM      5  C   UNL A   1      34.886  32.211  31.300  1.00  0.00     0.202 C 
BRANCH   5   6
ATOM      6  C   UNL A   1      35.402  32.420  32.732  1.00  0.00     0.261 C 
BRANCH   6   7
ATOM      7  O   UNL A   1      34.864  33.561  33.413  1.00  0.00    -0.457 OA
BRANCH   7   8
ATOM      8  C   UNL A   1      35.678  34.609  33.672  1.00  0.00     0.374 C 
ATOM      9  O   UNL A   1      35.444  35.768  33.346  1.00  0.00    -0.242 OA
BRANCH   8  10
ATOM     10  C   UNL A   1      36.771  34.160  34.508  1.00  0.00     0.215 A 
ATOM     11  C   UNL A   1      40.120  32.861  37.322  1.00  0.00     0.083 A 
ATOM     12  C   UNL A   1      39.014  32.575  38.131  1.00  0.00     0.025 A 
ATOM     13  C   UNL A   1      39.960  33.203  35.971  1.00  0.00     0.034 A 
ATOM     14  C   UNL A   1      37.712  32.740  37.636  1.00  0.00     0.049 A 
ATOM     15  C   UNL A   1      38.674  33.507  35.511  1.00  0.00     0.025 A 
ATOM     16  C   UNL A   1      37.598  33.268  36.350  1.00  0.00     0.135 A 
ATOM     17  C   UNL A   1      38.149  34.076  34.315  1.00  0.00     0.010 A 
ATOM     18  O   UNL A   1      36.445  33.640  35.738  1.00  0.00    -0.449 OA
ATOM     19  C   UNL A   1      38.970  34.529  33.157  1.00  0.00     0.049 C 
BRANCH  11  20
ATOM     20  S   UNL A   1      41.782  32.731  37.946  1.00  0.00     0.243 S 
ATOM     21  O   UNL A   1      41.680  31.958  39.162  1.00  0.00    -0.207 OA
ATOM     22  O   UNL A   1      42.335  34.072  37.971  1.00  0.00    -0.207 OA
BRANCH  20  23
ATOM     23  N   UNL A   1      42.656  31.846  36.767  1.00  0.00    -0.195 NA
ATOM     24  C   UNL A   1      43.977  32.420  36.335  1.00  0.00     0.073 C 
ATOM     25  C   UNL A   1      44.212  31.955  34.879  1.00  0.00     0.020 C 
ATOM     26  C   UNL A   1      44.193  30.431  34.742  1.00  0.00     0.003 C 
ATOM     27  C   UNL A   1      42.663  30.363  36.775  1.00  0.00     0.103 C 
ATOM     28  C   UNL A   1      42.932  29.843  35.362  1.00  0.00     0.017 C 
BRANCH  24  29
ATOM     29  C   UNL A   1      45.201  32.033  37.197  1.00  0.00     0.017 C 
ATOM     30  C   UNL A   1      46.165  33.137  37.579  1.00  0.00     0.005 C 
ENDBRANCH  24  29
ENDBRANCH  20  23
ENDBRANCH  11  20
ENDBRANCH   8  10
ENDBRANCH   7   8
ENDBRANCH   6   7
ENDBRANCH   5   6
ENDBRANCH   4   5
ENDBRANCH   3   4
ENDBRANCH   2   3
ENDBRANCH   1   2
BRANCH   1  31
ATOM     31  C   UNL A   1      37.310  31.070  28.030  1.00  0.00     0.188 C 
BRANCH  31  32
ATOM     32  C   UNL A   1      37.966  30.197  29.120  1.00  0.00     0.188 C 
BRANCH  32  33
ATOM     33  O   UNL A   1      37.093  29.193  29.645  1.00  0.00    -0.376 OA
BRANCH  33  34
ATOM     34  C   UNL A   1      36.726  29.334  31.015  1.00  0.00     0.202 C 
BRANCH  34  35
ATOM     35  C   UNL A   1      37.724  28.700  31.992  1.00  0.00     0.261 C 
BRANCH  35  36
ATOM     36  O   UNL A   1      38.440  29.634  32.814  1.00  0.00    -0.460 OA
BRANCH  36  37
ATOM     37  C   UNL A   1      39.693  29.294  33.189  1.00  0.00     0.338 C 
ATOM     38  O   UNL A   1      40.021  28.386  33.929  1.00  0.00    -0.246 OA
BRANCH  37  39
ATOM     39  C   UNL A   1      40.634  30.104  32.392  1.00  0.00     0.060 A 
ATOM     40  C   UNL A   1      41.082  29.608  31.160  1.00  0.00     0.016 A 
ATOM     41  C   UNL A   1      41.081  31.337  32.872  1.00  0.00     0.016 A 
ATOM     42  C   UNL A   1      42.024  30.328  30.425  1.00  0.00     0.010 A 
ATOM     43  C   UNL A   1      42.032  32.047  32.144  1.00  0.00     0.010 A 
ATOM     44  C   UNL A   1      42.536  31.527  30.939  1.00  0.00    -0.014 A 
BRANCH  44  45
ATOM     45  C   UNL A   1      43.744  32.147  30.351  1.00  0.00     0.031 A 
ATOM     46  C   UNL A   1      43.631  33.556  29.839  1.00  0.00     0.074 A 
ATOM     47  C   UNL A   1      44.884  31.450  30.201  1.00  0.00     0.049 A 
ATOM     48  N   UNL A   1      44.497  34.263  29.166  1.00  0.00    -0.248 NA
ATOM     49  C   UNL A   1      42.363  34.255  30.112  1.00  0.00     0.031 C 
ATOM     50  C   UNL A   1      45.103  30.078  30.655  1.00  0.00     0.029 A 
ATOM     51  N   UNL A   1      46.057  31.793  29.578  1.00  0.00    -0.354 N 
ATOM     52  C   UNL A   1      43.868  35.473  28.902  1.00  0.00     0.074 A 
ATOM     53  C   UNL A   1      42.549  35.409  29.489  1.00  0.00     0.031 C 
ATOM     54  C   UNL A   1      46.323  29.678  30.253  1.00  0.00     0.029 A 
ATOM     55  C   UNL A   1      46.955  30.755  29.492  1.00  0.00     0.049 A 
ATOM     56  H   UNL A   1      46.239  32.695  29.227  1.00  0.00     0.167 HD
ATOM     57  C   UNL A   1      44.350  36.547  28.235  1.00  0.00     0.034 A 
ATOM     58  C   UNL A   1      48.137  30.678  28.846  1.00  0.00     0.034 A 
ATOM     59  C   UNL A   1      45.667  36.615  27.670  1.00  0.00     0.049 A 
ATOM     60  C   UNL A   1      48.648  31.889  28.105  1.00  0.00     0.074 A 
ATOM     61  C   UNL A   1      46.268  37.675  27.016  1.00  0.00     0.029 A 
ATOM     62  N   UNL A   1      46.583  35.576  27.682  1.00  0.00    -0.354 N 
ATOM     63  N   UNL A   1      48.097  33.072  27.976  1.00  0.00    -0.248 NA
ATOM     64  C   UNL A   1      49.958  31.767  27.446  1.00  0.00     0.031 C 
ATOM     65  C   UNL A   1      47.545  37.271  26.619  1.00  0.00     0.029 A 
ATOM     66  C   UNL A   1      47.745  35.966  27.042  1.00  0.00     0.049 A 
ATOM     67  H   UNL A   1      46.429  34.691  28.086  1.00  0.00     0.167 HD
ATOM     68  C   UNL A   1      49.010  33.845  27.264  1.00  0.00     0.074 A 
ATOM     69  C   UNL A   1      50.154  33.000  26.994  1.00  0.00     0.031 C 
ATOM     70  C   UNL A   1      48.905  35.135  26.858  1.00  0.00     0.034 A 
BRANCH  57  71
ATOM     71  C   UNL A   1      43.458  37.750  28.108  1.00  0.00     0.023 A 
ATOM     72  C   UNL A   1      42.583  37.850  27.008  1.00  0.00     0.012 A 
ATOM     73  C   UNL A   1      43.440  38.744  29.104  1.00  0.00     0.148 A 
ATOM     74  C   UNL A   1      41.716  38.936  26.892  1.00  0.00     0.002 A 
ATOM     75  C   UNL A   1      42.546  39.803  29.000  1.00  0.00     0.091 A 
ATOM     76  F   UNL A   1      44.302  38.642  30.126  1.00  0.00    -0.205 F 
ATOM     77  C   UNL A   1      41.688  39.904  27.892  1.00  0.00     0.022 A 
BRANCH  75  78
ATOM     78  S   UNL A   1      42.388  41.062  30.271  1.00  0.00     0.127 S 
ATOM     79  O   UNL A   1      41.048  41.581  30.007  1.00  0.00    -0.237 OA
ATOM     80  O   UNL A   1      42.505  40.275  31.500  1.00  0.00    -0.237 OA
ATOM     81  O   UNL A   1      43.479  42.000  30.046  1.00  0.00    -0.744 OA
ENDBRANCH  75  78
ENDBRANCH  57  71
BRANCH  58  82
ATOM     82  C   UNL A   1      48.935  29.420  28.895  1.00  0.00     0.023 A 
ATOM     83  C   UNL A   1      49.885  29.244  29.919  1.00  0.00     0.012 A 
ATOM     84  C   UNL A   1      48.754  28.396  27.944  1.00  0.00     0.148 A 
ATOM     85  C   UNL A   1      50.662  28.086  29.979  1.00  0.00     0.002 A 
ATOM     86  C   UNL A   1      49.493  27.221  28.041  1.00  0.00     0.091 A 
ATOM     87  F   UNL A   1      47.863  28.589  26.962  1.00  0.00    -0.205 F 
ATOM     88  C   UNL A   1      50.459  27.071  29.047  1.00  0.00     0.022 A 
BRANCH  86  89
ATOM     89  S   UNL A   1      49.198  25.817  26.961  1.00  0.00     0.127 S 
ATOM     90  O   UNL A   1      49.523  26.371  25.650  1.00  0.00    -0.237 OA
ATOM     91  O   UNL A   1      50.155  24.832  27.468  1.00  0.00    -0.237 OA
ATOM     92  O   UNL A   1      47.803  25.451  27.172  1.00  0.00    -0.744 OA
ENDBRANCH  86  89
ENDBRANCH  58  82
BRANCH  70  93
ATOM     93  C   UNL A   1      50.070  35.748  26.129  1.00  0.00     0.023 A 
ATOM     94  C   UNL A   1      50.200  35.568  24.740  1.00  0.00     0.012 A 
ATOM     95  C   UNL A   1      50.958  36.610  26.805  1.00  0.00     0.148 A 
ATOM     96  C   UNL A   1      51.208  36.226  24.034  1.00  0.00     0.002 A 
ATOM     97  C   UNL A   1      51.930  37.297  26.089  1.00  0.00     0.091 A 
ATOM     98  F   UNL A   1      50.823  36.753  28.131  1.00  0.00    -0.205 F 
ATOM     99  C   UNL A   1      52.062  37.100  24.704  1.00  0.00     0.022 A 
BRANCH  97 100
ATOM    100  S   UNL A   1      53.006  38.516  26.852  1.00  0.00     0.127 S 
ATOM    101  O   UNL A   1      52.039  39.411  27.486  1.00  0.00    -0.237 OA
ATOM    102  O   UNL A   1      53.787  37.703  27.784  1.00  0.00    -0.237 OA
ATOM    103  O   UNL A   1      53.781  39.103  25.768  1.00  0.00    -0.744 OA
ENDBRANCH  97 100
ENDBRANCH  70  93
ENDBRANCH  44  45
ENDBRANCH  37  39
ENDBRANCH  36  37
ENDBRANCH  35  36
ENDBRANCH  34  35
ENDBRANCH  33  34
ENDBRANCH  32  33
ENDBRANCH  31  32
ENDBRANCH   1  31
TORSDOF 26
ENDMDL
MODEL 3
REMARK VINA RESULT:      -7.5      5.816     14.916
REMARK SMILES CC[C@H]1CCCCN1S(=O)(=O)c1ccc2oc(C(=O)OCCOCCOCCOCCOC(=O)c3ccc(-c4c5nc(c(-c6cccc(S(=O)(=O)[O-])c6F)c6ccc([nH]6)c(-c6cccc(S(=O)(=O)[O-])c6F)c6nc(c(-c7cccc(S(=O)(=O)[O-])c7F)c7ccc4[nH]7)C=C6)C=C5)cc3)c(C)c2c1
REMARK SMILES IDX 26 1 25 2 24 3 23 4 22 5 21 6 20 7 18 8 19 9 17 10 12 11
REMARK SMILES IDX 13 12 101 13 14 14 100 15 15 16 98 17 16 18 99 19 9 20 10 21
REMARK SMILES IDX 11 22 8 23 3 24 4 25 5 26 7 27 6 28 2 29 1 30 27 31 28 32
REMARK SMILES IDX 29 33 30 34 31 35 32 36 33 37 34 38 35 39 36 40 97 41 37 42
REMARK SMILES IDX 96 43 38 44 39 45 40 46 90 47 41 48 95 49 89 50 91 51 42 52
REMARK SMILES IDX 94 53 88 54 87 55 43 57 75 58 55 59 74 60 56 61 59 62 73 63
REMARK SMILES IDX 92 64 57 65 58 66 72 68 93 69 60 70 44 71 45 72 53 73 46 74
REMARK SMILES IDX 48 75 54 76 47 77 49 78 50 79 51 80 52 81 76 82 77 83 85 84
REMARK SMILES IDX 78 85 80 86 86 87 79 88 81 89 82 90 83 91 84 92 61 93 62 94
REMARK SMILES IDX 70 95 63 96 65 97 71 98 64 99 66 100 67 101 68 102 69 103
REMARK H PARENT 91 56 59 67
REMARK Flexibility Score: inf
ROOT
ATOM      1  O   UNL A   1      50.391  19.983  39.256  1.00  0.00    -0.377 OA
ENDROOT
BRANCH   1   2
ATOM      2  C   UNL A   1      49.713  21.142  39.718  1.00  0.00     0.188 C 
BRANCH   2   3
ATOM      3  C   UNL A   1      48.200  21.066  39.453  1.00  0.00     0.188 C 
BRANCH   3   4
ATOM      4  O   UNL A   1      47.456  22.086  40.121  1.00  0.00    -0.376 OA
BRANCH   4   5
ATOM      5  C   UNL A   1      46.303  22.587  39.452  1.00  0.00     0.202 C 
BRANCH   5   6
ATOM      6  C   UNL A   1      46.004  22.028  38.052  1.00  0.00     0.261 C 
BRANCH   6   7
ATOM      7  O   UNL A   1      45.411  22.959  37.138  1.00  0.00    -0.457 OA
BRANCH   7   8
ATOM      8  C   UNL A   1      45.166  22.563  35.869  1.00  0.00     0.374 C 
ATOM      9  O   UNL A   1      45.205  21.399  35.483  1.00  0.00    -0.242 OA
BRANCH   8  10
ATOM     10  C   UNL A   1      44.719  23.705  35.099  1.00  0.00     0.215 A 
ATOM     11  C   UNL A   1      43.535  27.372  32.656  1.00  0.00     0.083 A 
ATOM     12  C   UNL A   1      44.597  26.906  31.873  1.00  0.00     0.025 A 
ATOM     13  C   UNL A   1      43.017  26.602  33.707  1.00  0.00     0.034 A 
ATOM     14  C   UNL A   1      45.245  25.705  32.199  1.00  0.00     0.049 A 
ATOM     15  C   UNL A   1      43.740  25.480  34.126  1.00  0.00     0.025 A 
ATOM     16  C   UNL A   1      44.822  25.068  33.366  1.00  0.00     0.135 A 
ATOM     17  C   UNL A   1      43.661  24.600  35.244  1.00  0.00     0.010 A 
ATOM     18  O   UNL A   1      45.402  23.983  33.938  1.00  0.00    -0.449 OA
ATOM     19  C   UNL A   1      42.662  24.711  36.345  1.00  0.00     0.049 C 
BRANCH  11  20
ATOM     20  S   UNL A   1      42.744  28.930  32.310  1.00  0.00     0.243 S 
ATOM     21  O   UNL A   1      43.519  29.531  31.251  1.00  0.00    -0.207 OA
ATOM     22  O   UNL A   1      42.574  29.614  33.578  1.00  0.00    -0.207 OA
BRANCH  20  23
ATOM     23  N   UNL A   1      41.178  28.539  31.733  1.00  0.00    -0.195 NA
ATOM     24  C   UNL A   1      40.037  28.743  32.690  1.00  0.00     0.073 C 
ATOM     25  C   UNL A   1      38.943  27.719  32.307  1.00  0.00     0.020 C 
ATOM     26  C   UNL A   1      38.487  27.868  30.853  1.00  0.00     0.003 C 
ATOM     27  C   UNL A   1      40.791  28.816  30.329  1.00  0.00     0.103 C 
ATOM     28  C   UNL A   1      39.678  27.855  29.904  1.00  0.00     0.017 C 
BRANCH  24  29
ATOM     29  C   UNL A   1      39.419  30.160  32.720  1.00  0.00     0.017 C 
ATOM     30  C   UNL A   1      38.155  30.356  33.534  1.00  0.00     0.005 C 
ENDBRANCH  24  29
ENDBRANCH  20  23
ENDBRANCH  11  20
ENDBRANCH   8  10
ENDBRANCH   7   8
ENDBRANCH   6   7
ENDBRANCH   5   6
ENDBRANCH   4   5
ENDBRANCH   3   4
ENDBRANCH   2   3
ENDBRANCH   1   2
BRANCH   1  31
ATOM     31  C   UNL A   1      50.557  19.866  37.844  1.00  0.00     0.188 C 
BRANCH  31  32
ATOM     32  C   UNL A   1      50.850  21.131  37.012  1.00  0.00     0.188 C 
BRANCH  32  33
ATOM     33  O   UNL A   1      50.082  21.210  35.808  1.00  0.00    -0.376 OA
BRANCH  33  34
ATOM     34  C   UNL A   1      49.335  22.409  35.616  1.00  0.00     0.202 C 
BRANCH  34  35
ATOM     35  C   UNL A   1      49.397  23.374  36.806  1.00  0.00     0.261 C 
BRANCH  35  36
ATOM     36  O   UNL A   1      48.293  24.287  36.901  1.00  0.00    -0.460 OA
BRANCH  36  37
ATOM     37  C   UNL A   1      48.445  25.361  37.706  1.00  0.00     0.338 C 
ATOM     38  O   UNL A   1      49.053  25.413  38.760  1.00  0.00    -0.246 OA
BRANCH  37  39
ATOM     39  C   UNL A   1      47.901  26.534  36.997  1.00  0.00     0.060 A 
ATOM     40  C   UNL A   1      46.622  26.452  36.430  1.00  0.00     0.016 A 
ATOM     41  C   UNL A   1      48.661  27.700  36.879  1.00  0.00     0.016 A 
ATOM     42  C   UNL A   1      46.119  27.526  35.697  1.00  0.00     0.010 A 
ATOM     43  C   UNL A   1      48.163  28.765  36.135  1.00  0.00     0.010 A 
ATOM     44  C   UNL A   1      46.908  28.668  35.508  1.00  0.00    -0.014 A 
BRANCH  44  45
ATOM     45  C   UNL A   1      46.544  29.681  34.493  1.00  0.00     0.031 A 
ATOM     46  C   UNL A   1      45.647  30.810  34.920  1.00  0.00     0.074 A 
ATOM     47  C   UNL A   1      46.929  29.555  33.211  1.00  0.00     0.049 A 
ATOM     48  N   UNL A   1      45.082  31.736  34.194  1.00  0.00    -0.248 NA
ATOM     49  C   UNL A   1      45.337  30.897  36.358  1.00  0.00     0.031 C 
ATOM     50  C   UNL A   1      47.791  28.498  32.687  1.00  0.00     0.029 A 
ATOM     51  N   UNL A   1      46.600  30.302  32.109  1.00  0.00    -0.354 N 
ATOM     52  C   UNL A   1      44.320  32.491  35.077  1.00  0.00     0.074 A 
ATOM     53  C   UNL A   1      44.497  31.920  36.393  1.00  0.00     0.031 C 
ATOM     54  C   UNL A   1      47.886  28.637  31.353  1.00  0.00     0.029 A 
ATOM     55  C   UNL A   1      47.069  29.775  30.930  1.00  0.00     0.049 A 
ATOM     56  H   UNL A   1      46.077  31.136  32.158  1.00  0.00     0.167 HD
ATOM     57  C   UNL A   1      43.548  33.570  34.816  1.00  0.00     0.034 A 
ATOM     58  C   UNL A   1      46.839  30.152  29.655  1.00  0.00     0.034 A 
ATOM     59  C   UNL A   1      43.389  34.146  33.512  1.00  0.00     0.049 A 
ATOM     60  C   UNL A   1      45.968  31.355  29.392  1.00  0.00     0.074 A 
ATOM     61  C   UNL A   1      42.666  35.268  33.150  1.00  0.00     0.029 A 
ATOM     62  N   UNL A   1      43.955  33.638  32.353  1.00  0.00    -0.354 N 
ATOM     63  N   UNL A   1      45.361  32.139  30.250  1.00  0.00    -0.248 NA
ATOM     64  C   UNL A   1      45.775  31.748  27.987  1.00  0.00     0.031 C 
ATOM     65  C   UNL A   1      42.783  35.430  31.767  1.00  0.00     0.029 A 
ATOM     66  C   UNL A   1      43.594  34.420  31.272  1.00  0.00     0.049 A 
ATOM     67  H   UNL A   1      44.528  32.839  32.307  1.00  0.00     0.167 HD
ATOM     68  C   UNL A   1      44.754  33.139  29.495  1.00  0.00     0.074 A 
ATOM     69  C   UNL A   1      45.073  32.867  28.109  1.00  0.00     0.031 C 
ATOM     70  C   UNL A   1      43.991  34.180  29.910  1.00  0.00     0.034 A 
BRANCH  57  71
ATOM     71  C   UNL A   1      42.838  34.218  35.971  1.00  0.00     0.023 A 
ATOM     72  C   UNL A   1      43.435  35.312  36.626  1.00  0.00     0.012 A 
ATOM     73  C   UNL A   1      41.556  33.788  36.365  1.00  0.00     0.148 A 
ATOM     74  C   UNL A   1      42.776  35.957  37.672  1.00  0.00     0.002 A 
ATOM     75  C   UNL A   1      40.890  34.459  37.382  1.00  0.00     0.091 A 
ATOM     76  F   UNL A   1      41.021  32.726  35.746  1.00  0.00    -0.205 F 
ATOM     77  C   UNL A   1      41.500  35.539  38.041  1.00  0.00     0.022 A 
BRANCH  75  78
ATOM     78  S   UNL A   1      39.216  34.039  37.882  1.00  0.00     0.127 S 
ATOM     79  O   UNL A   1      39.396  32.687  38.408  1.00  0.00    -0.237 OA
ATOM     80  O   UNL A   1      38.933  35.055  38.896  1.00  0.00    -0.237 OA
ATOM     81  O   UNL A   1      38.401  34.139  36.679  1.00  0.00    -0.744 OA
ENDBRANCH  75  78
ENDBRANCH  57  71
BRANCH  58  82
ATOM     82  C   UNL A   1      47.465  29.402  28.529  1.00  0.00     0.023 A 
ATOM     83  C   UNL A   1      48.756  29.760  28.094  1.00  0.00     0.012 A 
ATOM     84  C   UNL A   1      46.800  28.335  27.894  1.00  0.00     0.148 A 
ATOM     85  C   UNL A   1      49.360  29.091  27.029  1.00  0.00     0.002 A 
ATOM     86  C   UNL A   1      47.429  27.636  26.870  1.00  0.00     0.091 A 
ATOM     87  F   UNL A   1      45.562  28.022  28.304  1.00  0.00    -0.205 F 
ATOM     88  C   UNL A   1      48.702  28.023  26.424  1.00  0.00     0.022 A 
BRANCH  86  89
ATOM     89  S   UNL A   1      46.704  26.169  26.129  1.00  0.00     0.127 S 
ATOM     90  O   UNL A   1      45.656  26.742  25.289  1.00  0.00    -0.237 OA
ATOM     91  O   UNL A   1      47.837  25.600  25.398  1.00  0.00    -0.237 OA
ATOM     92  O   UNL A   1      46.250  25.353  27.248  1.00  0.00    -0.744 OA
ENDBRANCH  86  89
ENDBRANCH  58  82
BRANCH  70  93
ATOM     93  C   UNL A   1      43.487  35.150  28.875  1.00  0.00     0.023 A 
ATOM     94  C   UNL A   1      42.173  35.031  28.386  1.00  0.00     0.012 A 
ATOM     95  C   UNL A   1      44.275  36.253  28.491  1.00  0.00     0.148 A 
ATOM     96  C   UNL A   1      41.654  35.990  27.517  1.00  0.00     0.002 A 
ATOM     97  C   UNL A   1      43.737  37.228  27.660  1.00  0.00     0.091 A 
ATOM     98  F   UNL A   1      45.529  36.335  28.958  1.00  0.00    -0.205 F 
ATOM     99  C   UNL A   1      42.429  37.093  27.165  1.00  0.00     0.022 A 
BRANCH  97 100
ATOM    100  S   UNL A   1      44.626  38.731  27.238  1.00  0.00     0.127 S 
ATOM    101  O   UNL A   1      45.766  38.202  26.492  1.00  0.00    -0.237 OA
ATOM    102  O   UNL A   1      43.647  39.454  26.426  1.00  0.00    -0.237 OA
ATOM    103  O   UNL A   1      44.952  39.374  28.503  1.00  0.00    -0.744 OA
ENDBRANCH  97 100
ENDBRANCH  70  93
ENDBRANCH  44  45
ENDBRANCH  37  39
ENDBRANCH  36  37
ENDBRANCH  35  36
ENDBRANCH  34  35
ENDBRANCH  33  34
ENDBRANCH  32  33
ENDBRANCH  31  32
ENDBRANCH   1  31
TORSDOF 26
ENDMDL
