MODEL 1
REMARK VINA RESULT:      -8.9      0.000      0.000
REMARK SMILES Cc1nsc(N[C@@H](C)C2CCCC2)c1C(=O)OCCOCCOCCOCCOC(=O)c1ccc(-c2c3nc(c(-c4cccc(S(=O)(=O)[O-])c4F)c4ccc([nH]4)c(-c4cccc(S(=O)(=O)[O-])c4F)c4nc(c(-c5cccc(S(=O)(=O)[O-])c5F)c5ccc2[nH]5)C=C4)C=C3)cc1
REMARK SMILES IDX 23 1 22 2 21 3 20 4 19 5 18 6 17 7 15 8 16 9 14 10 1 11 2 12
REMARK SMILES IDX 3 13 4 14 5 15 6 16 7 18 8 19 9 20 10 21 13 22 11 23 12 24
REMARK SMILES IDX 24 25 25 26 26 27 27 28 28 29 29 30 30 31 31 32 32 33 33 34
REMARK SMILES IDX 94 35 34 36 93 37 35 38 36 39 37 40 87 41 38 42 92 43 86 44
REMARK SMILES IDX 88 45 39 46 91 47 85 48 84 49 40 51 72 52 52 53 71 54 53 55
REMARK SMILES IDX 56 56 70 57 89 58 54 59 55 60 69 62 90 63 57 64 41 65 42 66
REMARK SMILES IDX 50 67 43 68 45 69 51 70 44 71 46 72 47 73 48 74 49 75 73 76
REMARK SMILES IDX 74 77 82 78 75 79 77 80 83 81 76 82 78 83 79 84 80 85 81 86
REMARK SMILES IDX 58 87 59 88 67 89 60 90 62 91 68 92 61 93 63 94 64 95 65 96
REMARK SMILES IDX 66 97
REMARK H PARENT 6 17 88 50 56 61
REMARK Flexibility Score: inf
ROOT
ATOM      1  O   UNL A   1      46.596  25.245  24.737  1.00  0.00    -0.377 OA
ENDROOT
BRANCH   1   2
ATOM      2  C   UNL A   1      47.846  25.699  24.248  1.00  0.00     0.188 C 
BRANCH   2   3
ATOM      3  C   UNL A   1      48.029  27.212  24.014  1.00  0.00     0.188 C 
BRANCH   3   4
ATOM      4  O   UNL A   1      49.126  27.525  23.180  1.00  0.00    -0.376 OA
BRANCH   4   5
ATOM      5  C   UNL A   1      49.190  27.052  21.859  1.00  0.00     0.202 C 
BRANCH   5   6
ATOM      6  C   UNL A   1      49.606  27.969  20.701  1.00  0.00     0.261 C 
BRANCH   6   7
ATOM      7  O   UNL A   1      50.073  29.279  21.034  1.00  0.00    -0.460 OA
BRANCH   7   8
ATOM      8  C   UNL A   1      51.323  29.412  21.542  1.00  0.00     0.343 C 
ATOM      9  O   UNL A   1      51.581  30.061  22.558  1.00  0.00    -0.246 OA
BRANCH   8  10
ATOM     10  C   UNL A   1      52.287  28.560  20.855  1.00  0.00     0.117 A 
ATOM     11  C   UNL A   1      52.984  27.001  22.862  1.00  0.00     0.069 C 
ATOM     12  C   UNL A   1      53.009  27.444  21.434  1.00  0.00     0.068 A 
ATOM     13  N   UNL A   1      53.787  26.763  20.595  1.00  0.00    -0.195 NA
ATOM     14  S   UNL A   1      53.811  27.525  19.138  1.00  0.00    -0.018 S 
ATOM     15  C   UNL A   1      52.770  28.826  19.568  1.00  0.00     0.124 A 
BRANCH  15  16
ATOM     16  N   UNL A   1      52.525  29.937  18.809  1.00  0.00    -0.372 N 
ATOM     17  H   UNL A   1      51.612  30.305  18.840  1.00  0.00     0.161 HD
BRANCH  16  18
ATOM     18  C   UNL A   1      53.488  30.633  17.959  1.00  0.00     0.080 C 
ATOM     19  C   UNL A   1      52.711  31.089  16.717  1.00  0.00     0.031 C 
BRANCH  18  20
ATOM     20  C   UNL A   1      54.156  31.859  18.631  1.00  0.00     0.011 C 
ATOM     21  C   UNL A   1      54.682  32.966  17.719  1.00  0.00     0.006 C 
ATOM     22  C   UNL A   1      53.251  32.646  19.581  1.00  0.00     0.006 C 
ATOM     23  C   UNL A   1      54.996  34.109  18.681  1.00  0.00     0.000 C 
ATOM     24  C   UNL A   1      53.992  33.964  19.826  1.00  0.00     0.000 C 
ENDBRANCH  18  20
ENDBRANCH  16  18
ENDBRANCH  15  16
ENDBRANCH   8  10
ENDBRANCH   7   8
ENDBRANCH   6   7
ENDBRANCH   5   6
ENDBRANCH   4   5
ENDBRANCH   3   4
ENDBRANCH   2   3
ENDBRANCH   1   2
BRANCH   1  25
ATOM     25  C   UNL A   1      46.493  23.978  25.381  1.00  0.00     0.188 C 
BRANCH  25  26
ATOM     26  C   UNL A   1      46.274  22.636  24.624  1.00  0.00     0.188 C 
BRANCH  26  27
ATOM     27  O   UNL A   1      46.160  21.465  25.407  1.00  0.00    -0.376 OA
BRANCH  27  28
ATOM     28  C   UNL A   1      46.177  20.154  24.887  1.00  0.00     0.202 C 
BRANCH  28  29
ATOM     29  C   UNL A   1      44.952  19.259  24.977  1.00  0.00     0.261 C 
BRANCH  29  30
ATOM     30  O   UNL A   1      43.739  19.915  24.694  1.00  0.00    -0.460 OA
BRANCH  30  31
ATOM     31  C   UNL A   1      42.754  19.618  25.551  1.00  0.00     0.338 C 
ATOM     32  O   UNL A   1      42.317  18.498  25.821  1.00  0.00    -0.246 OA
BRANCH  31  33
ATOM     33  C   UNL A   1      42.170  20.865  26.017  1.00  0.00     0.060 A 
ATOM     34  C   UNL A   1      42.750  22.035  25.536  1.00  0.00     0.016 A 
ATOM     35  C   UNL A   1      41.350  20.831  27.159  1.00  0.00     0.016 A 
ATOM     36  C   UNL A   1      42.717  23.133  26.354  1.00  0.00     0.010 A 
ATOM     37  C   UNL A   1      41.330  21.924  27.980  1.00  0.00     0.010 A 
ATOM     38  C   UNL A   1      42.096  23.020  27.608  1.00  0.00    -0.014 A 
BRANCH  38  39
ATOM     39  C   UNL A   1      42.203  24.146  28.498  1.00  0.00     0.031 A 
ATOM     40  C   UNL A   1      41.139  25.133  28.259  1.00  0.00     0.074 A 
ATOM     41  C   UNL A   1      43.161  24.249  29.434  1.00  0.00     0.049 A 
ATOM     42  N   UNL A   1      41.263  26.253  27.631  1.00  0.00    -0.248 NA
ATOM     43  C   UNL A   1      39.753  24.733  28.531  1.00  0.00     0.031 C 
ATOM     44  C   UNL A   1      44.087  23.218  29.911  1.00  0.00     0.029 A 
ATOM     45  N   UNL A   1      43.421  25.302  30.251  1.00  0.00    -0.354 N 
ATOM     46  C   UNL A   1      40.000  26.823  27.669  1.00  0.00     0.074 A 
ATOM     47  C   UNL A   1      39.085  25.766  28.014  1.00  0.00     0.031 C 
ATOM     48  C   UNL A   1      44.620  23.620  31.089  1.00  0.00     0.029 A 
ATOM     49  C   UNL A   1      44.184  24.980  31.363  1.00  0.00     0.049 A 
ATOM     50  H   UNL A   1      43.096  26.212  30.069  1.00  0.00     0.167 HD
ATOM     51  C   UNL A   1      39.856  28.173  27.704  1.00  0.00     0.034 A 
ATOM     52  C   UNL A   1      44.358  25.762  32.457  1.00  0.00     0.034 A 
ATOM     53  C   UNL A   1      41.077  28.842  27.330  1.00  0.00     0.049 A 
ATOM     54  C   UNL A   1      44.058  27.156  32.049  1.00  0.00     0.074 A 
ATOM     55  C   UNL A   1      41.877  28.864  26.204  1.00  0.00     0.029 A 
ATOM     56  N   UNL A   1      41.846  29.328  28.360  1.00  0.00    -0.354 N 
ATOM     57  N   UNL A   1      44.795  27.832  31.213  1.00  0.00    -0.248 NA
ATOM     58  C   UNL A   1      42.703  27.652  32.230  1.00  0.00     0.031 C 
ATOM     59  C   UNL A   1      43.212  28.953  26.700  1.00  0.00     0.029 A 
ATOM     60  C   UNL A   1      43.156  29.038  28.093  1.00  0.00     0.049 A 
ATOM     61  H   UNL A   1      41.511  29.804  29.154  1.00  0.00     0.167 HD
ATOM     62  C   UNL A   1      43.879  28.517  30.425  1.00  0.00     0.074 A 
ATOM     63  C   UNL A   1      42.625  28.468  31.174  1.00  0.00     0.031 C 
ATOM     64  C   UNL A   1      44.151  28.795  29.116  1.00  0.00     0.034 A 
BRANCH  51  65
ATOM     65  C   UNL A   1      38.771  28.885  28.470  1.00  0.00     0.023 A 
ATOM     66  C   UNL A   1      37.975  29.800  27.748  1.00  0.00     0.012 A 
ATOM     67  C   UNL A   1      38.678  28.922  29.881  1.00  0.00     0.148 A 
ATOM     68  C   UNL A   1      37.169  30.736  28.399  1.00  0.00     0.002 A 
ATOM     69  C   UNL A   1      37.812  29.797  30.521  1.00  0.00     0.091 A 
ATOM     70  F   UNL A   1      39.524  28.212  30.631  1.00  0.00    -0.205 F 
ATOM     71  C   UNL A   1      37.079  30.729  29.786  1.00  0.00     0.022 A 
BRANCH  69  72
ATOM     72  S   UNL A   1      37.624  29.798  32.308  1.00  0.00     0.127 S 
ATOM     73  O   UNL A   1      37.261  28.407  32.564  1.00  0.00    -0.237 OA
ATOM     74  O   UNL A   1      38.968  30.180  32.745  1.00  0.00    -0.237 OA
ATOM     75  O   UNL A   1      36.598  30.791  32.596  1.00  0.00    -0.744 OA
ENDBRANCH  69  72
ENDBRANCH  51  65
BRANCH  52  76
ATOM     76  C   UNL A   1      44.476  25.380  33.882  1.00  0.00     0.023 A 
ATOM     77  C   UNL A   1      43.390  24.751  34.523  1.00  0.00     0.012 A 
ATOM     78  C   UNL A   1      45.735  25.350  34.520  1.00  0.00     0.148 A 
ATOM     79  C   UNL A   1      43.560  24.078  35.739  1.00  0.00     0.002 A 
ATOM     80  C   UNL A   1      45.899  24.682  35.731  1.00  0.00     0.091 A 
ATOM     81  F   UNL A   1      46.790  25.890  33.896  1.00  0.00    -0.205 F 
ATOM     82  C   UNL A   1      44.816  24.034  36.336  1.00  0.00     0.022 A 
BRANCH  80  83
ATOM     83  S   UNL A   1      47.497  24.551  36.545  1.00  0.00     0.127 S 
ATOM     84  O   UNL A   1      47.788  25.949  36.864  1.00  0.00    -0.237 OA
ATOM     85  O   UNL A   1      47.179  23.713  37.699  1.00  0.00    -0.237 OA
ATOM     86  O   UNL A   1      48.398  23.960  35.565  1.00  0.00    -0.744 OA
ENDBRANCH  80  83
ENDBRANCH  52  76
BRANCH  64  87
ATOM     87  C   UNL A   1      45.571  28.610  28.639  1.00  0.00     0.023 A 
ATOM     88  C   UNL A   1      46.052  27.383  28.133  1.00  0.00     0.012 A 
ATOM     89  C   UNL A   1      46.394  29.745  28.558  1.00  0.00     0.148 A 
ATOM     90  C   UNL A   1      47.334  27.288  27.585  1.00  0.00     0.002 A 
ATOM     91  C   UNL A   1      47.648  29.658  27.968  1.00  0.00     0.091 A 
ATOM     92  F   UNL A   1      45.921  30.904  29.040  1.00  0.00    -0.205 F 
ATOM     93  C   UNL A   1      48.128  28.430  27.490  1.00  0.00     0.022 A 
BRANCH  91  94
ATOM     94  S   UNL A   1      48.661  31.116  27.707  1.00  0.00     0.127 S 
ATOM     95  O   UNL A   1      48.074  31.683  26.494  1.00  0.00    -0.237 OA
ATOM     96  O   UNL A   1      48.417  31.891  28.925  1.00  0.00    -0.237 OA
ATOM     97  O   UNL A   1      50.031  30.633  27.576  1.00  0.00    -0.744 OA
ENDBRANCH  91  94
ENDBRANCH  64  87
ENDBRANCH  38  39
ENDBRANCH  31  33
ENDBRANCH  30  31
ENDBRANCH  29  30
ENDBRANCH  28  29
ENDBRANCH  27  28
ENDBRANCH  26  27
ENDBRANCH  25  26
ENDBRANCH   1  25
TORSDOF 26
ENDMDL
MODEL 2
REMARK VINA RESULT:      -8.1      9.246     13.387
REMARK SMILES Cc1nsc(N[C@@H](C)C2CCCC2)c1C(=O)OCCOCCOCCOCCOC(=O)c1ccc(-c2c3nc(c(-c4cccc(S(=O)(=O)[O-])c4F)c4ccc([nH]4)c(-c4cccc(S(=O)(=O)[O-])c4F)c4nc(c(-c5cccc(S(=O)(=O)[O-])c5F)c5ccc2[nH]5)C=C4)C=C3)cc1
REMARK SMILES IDX 23 1 22 2 21 3 20 4 19 5 18 6 17 7 15 8 16 9 14 10 1 11 2 12
REMARK SMILES IDX 3 13 4 14 5 15 6 16 7 18 8 19 9 20 10 21 13 22 11 23 12 24
REMARK SMILES IDX 24 25 25 26 26 27 27 28 28 29 29 30 30 31 31 32 32 33 33 34
REMARK SMILES IDX 94 35 34 36 93 37 35 38 36 39 37 40 87 41 38 42 92 43 86 44
REMARK SMILES IDX 88 45 39 46 91 47 85 48 84 49 40 51 72 52 52 53 71 54 53 55
REMARK SMILES IDX 56 56 70 57 89 58 54 59 55 60 69 62 90 63 57 64 41 65 42 66
REMARK SMILES IDX 50 67 43 68 45 69 51 70 44 71 46 72 47 73 48 74 49 75 73 76
REMARK SMILES IDX 74 77 82 78 75 79 77 80 83 81 76 82 78 83 79 84 80 85 81 86
REMARK SMILES IDX 58 87 59 88 67 89 60 90 62 91 68 92 61 93 63 94 64 95 65 96
REMARK SMILES IDX 66 97
REMARK H PARENT 6 17 88 50 56 61
REMARK Flexibility Score: inf
ROOT
ATOM      1  O   UNL A   1      45.126  42.867  25.281  1.00  0.00    -0.377 OA
ENDROOT
BRANCH   1   2
ATOM      2  C   UNL A   1      44.966  44.274  25.255  1.00  0.00     0.188 C 
BRANCH   2   3
ATOM      3  C   UNL A   1      44.226  44.902  24.057  1.00  0.00     0.188 C 
BRANCH   3   4
ATOM      4  O   UNL A   1      45.008  45.832  23.336  1.00  0.00    -0.376 OA
BRANCH   4   5
ATOM      5  C   UNL A   1      46.130  45.418  22.598  1.00  0.00     0.202 C 
BRANCH   5   6
ATOM      6  C   UNL A   1      46.005  44.978  21.133  1.00  0.00     0.261 C 
BRANCH   6   7
ATOM      7  O   UNL A   1      44.903  44.133  20.791  1.00  0.00    -0.460 OA
BRANCH   7   8
ATOM      8  C   UNL A   1      44.541  44.035  19.488  1.00  0.00     0.343 C 
ATOM      9  O   UNL A   1      45.319  43.717  18.586  1.00  0.00    -0.246 OA
BRANCH   8  10
ATOM     10  C   UNL A   1      43.101  44.174  19.309  1.00  0.00     0.117 A 
ATOM     11  C   UNL A   1      42.281  42.353  21.029  1.00  0.00     0.069 C 
ATOM     12  C   UNL A   1      42.075  43.447  20.031  1.00  0.00     0.068 A 
ATOM     13  N   UNL A   1      40.819  43.790  19.751  1.00  0.00    -0.195 NA
ATOM     14  S   UNL A   1      40.816  44.866  18.506  1.00  0.00    -0.018 S 
ATOM     15  C   UNL A   1      42.521  44.920  18.276  1.00  0.00     0.124 A 
BRANCH  15  16
ATOM     16  N   UNL A   1      43.167  45.527  17.235  1.00  0.00    -0.372 N 
ATOM     17  H   UNL A   1      43.624  44.939  16.591  1.00  0.00     0.161 HD
BRANCH  16  18
ATOM     18  C   UNL A   1      43.243  46.964  16.984  1.00  0.00     0.080 C 
ATOM     19  C   UNL A   1      41.893  47.363  16.372  1.00  0.00     0.031 C 
BRANCH  18  20
ATOM     20  C   UNL A   1      43.507  47.815  18.252  1.00  0.00     0.011 C 
ATOM     21  C   UNL A   1      44.891  47.721  18.892  1.00  0.00     0.006 C 
ATOM     22  C   UNL A   1      43.361  49.326  18.055  1.00  0.00     0.006 C 
ATOM     23  C   UNL A   1      44.901  48.865  19.902  1.00  0.00     0.000 C 
ATOM     24  C   UNL A   1      44.002  49.946  19.301  1.00  0.00     0.000 C 
ENDBRANCH  18  20
ENDBRANCH  16  18
ENDBRANCH  15  16
ENDBRANCH   8  10
ENDBRANCH   7   8
ENDBRANCH   6   7
ENDBRANCH   5   6
ENDBRANCH   4   5
ENDBRANCH   3   4
ENDBRANCH   2   3
ENDBRANCH   1   2
BRANCH   1  25
ATOM     25  C   UNL A   1      44.026  42.024  25.612  1.00  0.00     0.188 C 
BRANCH  25  26
ATOM     26  C   UNL A   1      42.744  41.889  24.740  1.00  0.00     0.188 C 
BRANCH  26  27
ATOM     27  O   UNL A   1      41.832  40.867  25.088  1.00  0.00    -0.376 OA
BRANCH  27  28
ATOM     28  C   UNL A   1      41.129  40.806  26.309  1.00  0.00     0.202 C 
BRANCH  28  29
ATOM     29  C   UNL A   1      41.530  39.824  27.397  1.00  0.00     0.261 C 
BRANCH  29  30
ATOM     30  O   UNL A   1      42.031  38.601  26.911  1.00  0.00    -0.460 OA
BRANCH  30  31
ATOM     31  C   UNL A   1      43.271  38.322  27.333  1.00  0.00     0.338 C 
ATOM     32  O   UNL A   1      44.220  39.103  27.417  1.00  0.00    -0.246 OA
BRANCH  31  33
ATOM     33  C   UNL A   1      43.362  36.887  27.546  1.00  0.00     0.060 A 
ATOM     34  C   UNL A   1      42.304  36.123  27.062  1.00  0.00     0.016 A 
ATOM     35  C   UNL A   1      44.271  36.413  28.509  1.00  0.00     0.016 A 
ATOM     36  C   UNL A   1      42.002  34.971  27.739  1.00  0.00     0.010 A 
ATOM     37  C   UNL A   1      43.959  35.270  29.191  1.00  0.00     0.010 A 
ATOM     38  C   UNL A   1      42.776  34.624  28.857  1.00  0.00    -0.014 A 
BRANCH  38  39
ATOM     39  C   UNL A   1      42.345  33.488  29.627  1.00  0.00     0.031 A 
ATOM     40  C   UNL A   1      43.214  32.320  29.409  1.00  0.00     0.074 A 
ATOM     41  C   UNL A   1      41.284  33.522  30.449  1.00  0.00     0.049 A 
ATOM     42  N   UNL A   1      42.945  31.295  28.675  1.00  0.00    -0.248 NA
ATOM     43  C   UNL A   1      44.611  32.407  29.854  1.00  0.00     0.031 C 
ATOM     44  C   UNL A   1      40.531  34.687  30.922  1.00  0.00     0.029 A 
ATOM     45  N   UNL A   1      40.728  32.493  31.139  1.00  0.00    -0.354 N 
ATOM     46  C   UNL A   1      44.058  30.476  28.788  1.00  0.00     0.074 A 
ATOM     47  C   UNL A   1      45.117  31.295  29.317  1.00  0.00     0.031 C 
ATOM     48  C   UNL A   1      39.795  34.325  31.999  1.00  0.00     0.029 A 
ATOM     49  C   UNL A   1      39.918  32.890  32.193  1.00  0.00     0.049 A 
ATOM     50  H   UNL A   1      40.885  31.549  30.910  1.00  0.00     0.167 HD
ATOM     51  C   UNL A   1      43.926  29.126  28.716  1.00  0.00     0.034 A 
ATOM     52  C   UNL A   1      39.468  32.088  33.189  1.00  0.00     0.034 A 
ATOM     53  C   UNL A   1      42.649  28.750  28.163  1.00  0.00     0.049 A 
ATOM     54  C   UNL A   1      39.532  30.693  32.691  1.00  0.00     0.074 A 
ATOM     55  C   UNL A   1      41.998  28.969  26.965  1.00  0.00     0.029 A 
ATOM     56  N   UNL A   1      41.685  28.365  29.062  1.00  0.00    -0.354 N 
ATOM     57  N   UNL A   1      38.778  30.242  31.728  1.00  0.00    -0.248 NA
ATOM     58  C   UNL A   1      40.731  29.917  32.962  1.00  0.00     0.031 C 
ATOM     59  C   UNL A   1      40.623  29.124  27.314  1.00  0.00     0.029 A 
ATOM     60  C   UNL A   1      40.498  28.936  28.692  1.00  0.00     0.049 A 
ATOM     61  H   UNL A   1      41.824  27.778  29.841  1.00  0.00     0.167 HD
ATOM     62  C   UNL A   1      39.627  29.437  30.977  1.00  0.00     0.074 A 
ATOM     63  C   UNL A   1      40.769  29.176  31.850  1.00  0.00     0.031 C 
ATOM     64  C   UNL A   1      39.459  29.309  29.628  1.00  0.00     0.034 A 
BRANCH  51  65
ATOM     65  C   UNL A   1      44.753  28.155  29.520  1.00  0.00     0.023 A 
ATOM     66  C   UNL A   1      44.444  28.037  30.892  1.00  0.00     0.012 A 
ATOM     67  C   UNL A   1      45.969  27.583  29.080  1.00  0.00     0.148 A 
ATOM     68  C   UNL A   1      45.326  27.427  31.787  1.00  0.00     0.002 A 
ATOM     69  C   UNL A   1      46.802  26.904  29.958  1.00  0.00     0.091 A 
ATOM     70  F   UNL A   1      46.409  27.806  27.840  1.00  0.00    -0.205 F 
ATOM     71  C   UNL A   1      46.501  26.851  31.320  1.00  0.00     0.022 A 
BRANCH  69  72
ATOM     72  S   UNL A   1      48.310  26.103  29.398  1.00  0.00     0.127 S 
ATOM     73  O   UNL A   1      49.071  27.241  28.889  1.00  0.00    -0.237 OA
ATOM     74  O   UNL A   1      48.816  25.523  30.642  1.00  0.00    -0.237 OA
ATOM     75  O   UNL A   1      47.890  25.120  28.408  1.00  0.00    -0.744 OA
ENDBRANCH  69  72
ENDBRANCH  51  65
BRANCH  52  76
ATOM     76  C   UNL A   1      39.262  32.390  34.624  1.00  0.00     0.023 A 
ATOM     77  C   UNL A   1      37.968  32.288  35.175  1.00  0.00     0.012 A 
ATOM     78  C   UNL A   1      40.358  32.477  35.509  1.00  0.00     0.148 A 
ATOM     79  C   UNL A   1      37.776  32.231  36.560  1.00  0.00     0.002 A 
ATOM     80  C   UNL A   1      40.162  32.423  36.886  1.00  0.00     0.091 A 
ATOM     81  F   UNL A   1      41.598  32.514  35.002  1.00  0.00    -0.205 F 
ATOM     82  C   UNL A   1      38.873  32.287  37.415  1.00  0.00     0.022 A 
BRANCH  80  83
ATOM     83  S   UNL A   1      41.531  32.454  38.053  1.00  0.00     0.127 S 
ATOM     84  O   UNL A   1      42.225  31.206  37.735  1.00  0.00    -0.237 OA
ATOM     85  O   UNL A   1      42.239  33.667  37.654  1.00  0.00    -0.237 OA
ATOM     86  O   UNL A   1      40.926  32.483  39.377  1.00  0.00    -0.744 OA
ENDBRANCH  80  83
ENDBRANCH  52  76
BRANCH  64  87
ATOM     87  C   UNL A   1      38.169  29.815  29.029  1.00  0.00     0.023 A 
ATOM     88  C   UNL A   1      37.135  28.954  28.604  1.00  0.00     0.012 A 
ATOM     89  C   UNL A   1      37.936  31.200  29.039  1.00  0.00     0.148 A 
ATOM     90  C   UNL A   1      35.908  29.466  28.174  1.00  0.00     0.002 A 
ATOM     91  C   UNL A   1      36.699  31.703  28.658  1.00  0.00     0.091 A 
ATOM     92  F   UNL A   1      38.928  32.006  29.449  1.00  0.00    -0.205 F 
ATOM     93  C   UNL A   1      35.685  30.841  28.213  1.00  0.00     0.022 A 
BRANCH  91  94
ATOM     94  S   UNL A   1      36.314  33.449  28.804  1.00  0.00     0.127 S 
ATOM     95  O   UNL A   1      37.640  34.061  28.749  1.00  0.00    -0.237 OA
ATOM     96  O   UNL A   1      35.481  33.688  27.624  1.00  0.00    -0.237 OA
ATOM     97  O   UNL A   1      35.605  33.598  30.070  1.00  0.00    -0.744 OA
ENDBRANCH  91  94
ENDBRANCH  64  87
ENDBRANCH  38  39
ENDBRANCH  31  33
ENDBRANCH  30  31
ENDBRANCH  29  30
ENDBRANCH  28  29
ENDBRANCH  27  28
ENDBRANCH  26  27
ENDBRANCH  25  26
ENDBRANCH   1  25
TORSDOF 26
ENDMDL
MODEL 3
REMARK VINA RESULT:      -8.1      5.467     13.098
REMARK SMILES Cc1nsc(N[C@@H](C)C2CCCC2)c1C(=O)OCCOCCOCCOCCOC(=O)c1ccc(-c2c3nc(c(-c4cccc(S(=O)(=O)[O-])c4F)c4ccc([nH]4)c(-c4cccc(S(=O)(=O)[O-])c4F)c4nc(c(-c5cccc(S(=O)(=O)[O-])c5F)c5ccc2[nH]5)C=C4)C=C3)cc1
REMARK SMILES IDX 23 1 22 2 21 3 20 4 19 5 18 6 17 7 15 8 16 9 14 10 1 11 2 12
REMARK SMILES IDX 3 13 4 14 5 15 6 16 7 18 8 19 9 20 10 21 13 22 11 23 12 24
REMARK SMILES IDX 24 25 25 26 26 27 27 28 28 29 29 30 30 31 31 32 32 33 33 34
REMARK SMILES IDX 94 35 34 36 93 37 35 38 36 39 37 40 87 41 38 42 92 43 86 44
REMARK SMILES IDX 88 45 39 46 91 47 85 48 84 49 40 51 72 52 52 53 71 54 53 55
REMARK SMILES IDX 56 56 70 57 89 58 54 59 55 60 69 62 90 63 57 64 41 65 42 66
REMARK SMILES IDX 50 67 43 68 45 69 51 70 44 71 46 72 47 73 48 74 49 75 73 76
REMARK SMILES IDX 74 77 82 78 75 79 77 80 83 81 76 82 78 83 79 84 80 85 81 86
REMARK SMILES IDX 58 87 59 88 67 89 60 90 62 91 68 92 61 93 63 94 64 95 65 96
REMARK SMILES IDX 66 97
REMARK H PARENT 6 17 88 50 56 61
REMARK Flexibility Score: inf
ROOT
ATOM      1  O   UNL A   1      36.462  32.172  30.586  1.00  0.00    -0.377 OA
ENDROOT
BRANCH   1   2
ATOM      2  C   UNL A   1      36.847  30.971  29.941  1.00  0.00     0.188 C 
BRANCH   2   3
ATOM      3  C   UNL A   1      36.700  30.889  28.408  1.00  0.00     0.188 C 
BRANCH   3   4
ATOM      4  O   UNL A   1      35.393  30.561  27.984  1.00  0.00    -0.376 OA
BRANCH   4   5
ATOM      5  C   UNL A   1      35.142  29.391  27.249  1.00  0.00     0.202 C 
BRANCH   5   6
ATOM      6  C   UNL A   1      33.857  29.223  26.427  1.00  0.00     0.261 C 
BRANCH   6   7
ATOM      7  O   UNL A   1      33.916  28.370  25.280  1.00  0.00    -0.460 OA
BRANCH   7   8
ATOM      8  C   UNL A   1      33.142  27.257  25.259  1.00  0.00     0.343 C 
ATOM      9  O   UNL A   1      32.909  26.569  26.254  1.00  0.00    -0.246 OA
BRANCH   8  10
ATOM     10  C   UNL A   1      32.484  27.075  23.970  1.00  0.00     0.117 A 
ATOM     11  C   UNL A   1      30.674  28.983  24.144  1.00  0.00     0.069 C 
ATOM     12  C   UNL A   1      31.396  27.877  23.444  1.00  0.00     0.068 A 
ATOM     13  N   UNL A   1      30.998  27.570  22.211  1.00  0.00    -0.195 NA
ATOM     14  S   UNL A   1      31.789  26.219  21.706  1.00  0.00    -0.018 S 
ATOM     15  C   UNL A   1      32.712  25.973  23.137  1.00  0.00     0.124 A 
BRANCH  15  16
ATOM     16  N   UNL A   1      33.469  24.869  23.419  1.00  0.00    -0.372 N 
ATOM     17  H   UNL A   1      34.421  25.022  23.620  1.00  0.00     0.161 HD
BRANCH  16  18
ATOM     18  C   UNL A   1      33.000  23.486  23.454  1.00  0.00     0.080 C 
ATOM     19  C   UNL A   1      33.089  22.968  22.012  1.00  0.00     0.031 C 
BRANCH  18  20
ATOM     20  C   UNL A   1      33.821  22.562  24.388  1.00  0.00     0.011 C 
ATOM     21  C   UNL A   1      33.524  21.065  24.342  1.00  0.00     0.006 C 
ATOM     22  C   UNL A   1      35.333  22.584  24.149  1.00  0.00     0.006 C 
ATOM     23  C   UNL A   1      34.670  20.444  25.136  1.00  0.00     0.000 C 
ATOM     24  C   UNL A   1      35.867  21.369  24.914  1.00  0.00     0.000 C 
ENDBRANCH  18  20
ENDBRANCH  16  18
ENDBRANCH  15  16
ENDBRANCH   8  10
ENDBRANCH   7   8
ENDBRANCH   6   7
ENDBRANCH   5   6
ENDBRANCH   4   5
ENDBRANCH   3   4
ENDBRANCH   2   3
ENDBRANCH   1   2
BRANCH   1  25
ATOM     25  C   UNL A   1      35.088  32.437  30.854  1.00  0.00     0.188 C 
BRANCH  25  26
ATOM     26  C   UNL A   1      34.595  33.504  31.875  1.00  0.00     0.188 C 
BRANCH  26  27
ATOM     27  O   UNL A   1      34.603  33.142  33.241  1.00  0.00    -0.376 OA
BRANCH  27  28
ATOM     28  C   UNL A   1      35.433  33.733  34.217  1.00  0.00     0.202 C 
BRANCH  28  29
ATOM     29  C   UNL A   1      36.825  33.191  34.493  1.00  0.00     0.261 C 
BRANCH  29  30
ATOM     30  O   UNL A   1      37.020  31.862  34.071  1.00  0.00    -0.460 OA
BRANCH  30  31
ATOM     31  C   UNL A   1      38.111  31.286  34.592  1.00  0.00     0.338 C 
ATOM     32  O   UNL A   1      38.448  31.272  35.777  1.00  0.00    -0.246 OA
BRANCH  31  33
ATOM     33  C   UNL A   1      38.928  30.794  33.495  1.00  0.00     0.060 A 
ATOM     34  C   UNL A   1      38.523  29.596  32.914  1.00  0.00     0.016 A 
ATOM     35  C   UNL A   1      40.223  31.319  33.342  1.00  0.00     0.016 A 
ATOM     36  C   UNL A   1      39.500  28.792  32.389  1.00  0.00     0.010 A 
ATOM     37  C   UNL A   1      41.199  30.509  32.831  1.00  0.00     0.010 A 
ATOM     38  C   UNL A   1      40.834  29.223  32.455  1.00  0.00    -0.014 A 
BRANCH  38  39
ATOM     39  C   UNL A   1      41.846  28.295  32.025  1.00  0.00     0.031 A 
ATOM     40  C   UNL A   1      42.498  27.633  33.166  1.00  0.00     0.074 A 
ATOM     41  C   UNL A   1      42.130  28.069  30.732  1.00  0.00     0.049 A 
ATOM     42  N   UNL A   1      43.661  27.910  33.647  1.00  0.00    -0.248 NA
ATOM     43  C   UNL A   1      41.684  26.743  34.004  1.00  0.00     0.031 C 
ATOM     44  C   UNL A   1      41.373  28.477  29.545  1.00  0.00     0.029 A 
ATOM     45  N   UNL A   1      43.125  27.303  30.217  1.00  0.00    -0.354 N 
ATOM     46  C   UNL A   1      43.830  27.025  34.702  1.00  0.00     0.074 A 
ATOM     47  C   UNL A   1      42.523  26.511  35.016  1.00  0.00     0.031 C 
ATOM     48  C   UNL A   1      41.793  27.746  28.486  1.00  0.00     0.029 A 
ATOM     49  C   UNL A   1      42.931  26.938  28.893  1.00  0.00     0.049 A 
ATOM     50  H   UNL A   1      43.914  27.030  30.738  1.00  0.00     0.167 HD
ATOM     51  C   UNL A   1      45.068  26.572  35.026  1.00  0.00     0.034 A 
ATOM     52  C   UNL A   1      43.615  25.974  28.229  1.00  0.00     0.034 A 
ATOM     53  C   UNL A   1      46.099  27.380  34.425  1.00  0.00     0.049 A 
ATOM     54  C   UNL A   1      44.894  25.770  28.952  1.00  0.00     0.074 A 
ATOM     55  C   UNL A   1      46.468  28.709  34.494  1.00  0.00     0.029 A 
ATOM     56  N   UNL A   1      46.683  26.877  33.287  1.00  0.00    -0.354 N 
ATOM     57  N   UNL A   1      45.836  26.668  29.008  1.00  0.00    -0.248 NA
ATOM     58  C   UNL A   1      44.951  24.740  29.977  1.00  0.00     0.031 C 
ATOM     59  C   UNL A   1      46.893  29.046  33.175  1.00  0.00     0.029 A 
ATOM     60  C   UNL A   1      46.817  27.896  32.385  1.00  0.00     0.049 A 
ATOM     61  H   UNL A   1      46.958  25.942  33.146  1.00  0.00     0.167 HD
ATOM     62  C   UNL A   1      46.299  26.599  30.316  1.00  0.00     0.074 A 
ATOM     63  C   UNL A   1      45.810  25.318  30.822  1.00  0.00     0.031 C 
ATOM     64  C   UNL A   1      46.775  27.711  30.950  1.00  0.00     0.034 A 
BRANCH  51  65
ATOM     65  C   UNL A   1      45.351  25.178  35.524  1.00  0.00     0.023 A 
ATOM     66  C   UNL A   1      45.083  24.115  34.636  1.00  0.00     0.012 A 
ATOM     67  C   UNL A   1      45.584  24.843  36.879  1.00  0.00     0.148 A 
ATOM     68  C   UNL A   1      45.001  22.794  35.082  1.00  0.00     0.002 A 
ATOM     69  C   UNL A   1      45.585  23.522  37.302  1.00  0.00     0.091 A 
ATOM     70  F   UNL A   1      45.670  25.801  37.805  1.00  0.00    -0.205 F 
ATOM     71  C   UNL A   1      45.261  22.495  36.414  1.00  0.00     0.022 A 
BRANCH  69  72
ATOM     72  S   UNL A   1      45.959  23.077  39.002  1.00  0.00     0.127 S 
ATOM     73  O   UNL A   1      45.830  21.623  38.959  1.00  0.00    -0.237 OA
ATOM     74  O   UNL A   1      47.328  23.576  39.143  1.00  0.00    -0.237 OA
ATOM     75  O   UNL A   1      44.980  23.783  39.819  1.00  0.00    -0.744 OA
ENDBRANCH  69  72
ENDBRANCH  51  65
BRANCH  52  76
ATOM     76  C   UNL A   1      43.143  25.016  27.204  1.00  0.00     0.023 A 
ATOM     77  C   UNL A   1      43.998  24.662  26.140  1.00  0.00     0.012 A 
ATOM     78  C   UNL A   1      41.994  24.227  27.426  1.00  0.00     0.148 A 
ATOM     79  C   UNL A   1      43.741  23.535  25.352  1.00  0.00     0.002 A 
ATOM     80  C   UNL A   1      41.740  23.108  26.638  1.00  0.00     0.091 A 
ATOM     81  F   UNL A   1      41.204  24.514  28.469  1.00  0.00    -0.205 F 
ATOM     82  C   UNL A   1      42.619  22.752  25.607  1.00  0.00     0.022 A 
BRANCH  80  83
ATOM     83  S   UNL A   1      40.332  22.028  26.929  1.00  0.00     0.127 S 
ATOM     84  O   UNL A   1      40.724  21.349  28.164  1.00  0.00    -0.237 OA
ATOM     85  O   UNL A   1      39.242  22.988  27.077  1.00  0.00    -0.237 OA
ATOM     86  O   UNL A   1      40.251  21.156  25.765  1.00  0.00    -0.744 OA
ENDBRANCH  80  83
ENDBRANCH  52  76
BRANCH  64  87
ATOM     87  C   UNL A   1      47.062  28.931  30.109  1.00  0.00     0.023 A 
ATOM     88  C   UNL A   1      48.284  29.117  29.427  1.00  0.00     0.012 A 
ATOM     89  C   UNL A   1      46.013  29.836  29.879  1.00  0.00     0.148 A 
ATOM     90  C   UNL A   1      48.461  30.198  28.557  1.00  0.00     0.002 A 
ATOM     91  C   UNL A   1      46.176  30.880  28.978  1.00  0.00     0.091 A 
ATOM     92  F   UNL A   1      44.857  29.643  30.533  1.00  0.00    -0.205 F 
ATOM     93  C   UNL A   1      47.402  31.073  28.323  1.00  0.00     0.022 A 
BRANCH  91  94
ATOM     94  S   UNL A   1      44.812  31.961  28.544  1.00  0.00     0.127 S 
ATOM     95  O   UNL A   1      44.632  32.736  29.771  1.00  0.00    -0.237 OA
ATOM     96  O   UNL A   1      45.357  32.719  27.416  1.00  0.00    -0.237 OA
ATOM     97  O   UNL A   1      43.703  31.084  28.187  1.00  0.00    -0.744 OA
ENDBRANCH  91  94
ENDBRANCH  64  87
ENDBRANCH  38  39
ENDBRANCH  31  33
ENDBRANCH  30  31
ENDBRANCH  29  30
ENDBRANCH  28  29
ENDBRANCH  27  28
ENDBRANCH  26  27
ENDBRANCH  25  26
ENDBRANCH   1  25
TORSDOF 26
ENDMDL
