MODEL 1
REMARK VINA RESULT:      -9.6      0.000      0.000
REMARK SMILES Cc1nc(C[NH2+][C@@H](C(=O)OCCOCCOCCOCCOC(=O)c2ccc(-c3c4nc(c(-c5cccc(S(=O)(=O)[O-])c5F)c5ccc([nH]5)c(-c5cccc(S(=O)(=O)[O-])c5F)c5nc(c(-c6cccc(S(=O)(=O)[O-])c6F)c6ccc3[nH]6)C=C5)C=C4)cc2)c2ccccc2)sc1C
REMARK SMILES IDX 16 1 15 2 14 3 13 4 12 5 11 6 10 7 8 8 9 9 7 10 6 11 5 14
REMARK SMILES IDX 4 15 1 16 2 17 3 18 95 19 94 20 96 21 88 22 89 23 93 24
REMARK SMILES IDX 90 25 92 26 91 27 17 28 18 29 19 30 20 31 21 32 22 33 23 34
REMARK SMILES IDX 24 35 25 36 26 37 87 38 27 39 86 40 28 41 29 42 30 43 80 44
REMARK SMILES IDX 31 45 85 46 79 47 81 48 32 49 84 50 78 51 77 52 33 54 65 55
REMARK SMILES IDX 45 56 64 57 46 58 49 59 63 60 82 61 47 62 48 63 62 65 83 66
REMARK SMILES IDX 50 67 34 68 35 69 43 70 36 71 38 72 44 73 37 74 39 75 40 76
REMARK SMILES IDX 41 77 42 78 66 79 67 80 75 81 68 82 70 83 76 84 69 85 71 86
REMARK SMILES IDX 72 87 73 88 74 89 51 90 52 91 60 92 53 93 55 94 61 95 54 96
REMARK SMILES IDX 56 97 57 98 58 99 59 100
REMARK H PARENT 6 12 6 13 81 53 49 64
REMARK Flexibility Score: inf
ROOT
ATOM      1  O   UNL A   1      33.628  22.117  27.460  1.00  0.00    -0.377 OA
ENDROOT
BRANCH   1   2
ATOM      2  C   UNL A   1      32.843  23.159  26.928  1.00  0.00     0.188 C 
BRANCH   2   3
ATOM      3  C   UNL A   1      31.343  23.043  27.237  1.00  0.00     0.188 C 
BRANCH   3   4
ATOM      4  O   UNL A   1      30.510  24.159  26.978  1.00  0.00    -0.376 OA
BRANCH   4   5
ATOM      5  C   UNL A   1      30.921  25.156  26.051  1.00  0.00     0.202 C 
BRANCH   5   6
ATOM      6  C   UNL A   1      31.314  26.603  26.431  1.00  0.00     0.261 C 
BRANCH   6   7
ATOM      7  O   UNL A   1      31.562  27.528  25.359  1.00  0.00    -0.459 OA
BRANCH   7   8
ATOM      8  C   UNL A   1      32.844  27.714  24.968  1.00  0.00     0.369 C 
ATOM      9  O   UNL A   1      33.724  28.098  25.740  1.00  0.00    -0.245 OA
BRANCH   8  10
ATOM     10  C   UNL A   1      33.157  27.329  23.488  1.00  0.00     0.325 C 
BRANCH  10  11
ATOM     11  N   UNL A   1      32.313  27.820  22.380  1.00  0.00    -0.325 N 
ATOM     12  H   UNL A   1      32.821  27.633  21.516  1.00  0.00     0.347 HD
ATOM     13  H   UNL A   1      31.430  27.328  22.521  1.00  0.00     0.347 HD
BRANCH  11  14
ATOM     14  C   UNL A   1      31.910  29.228  22.338  1.00  0.00     0.330 C 
BRANCH  14  15
ATOM     15  C   UNL A   1      30.422  29.367  22.648  1.00  0.00     0.148 A 
ATOM     16  C   UNL A   1      27.591  31.479  23.358  1.00  0.00     0.068 C 
ATOM     17  C   UNL A   1      28.447  30.293  23.096  1.00  0.00     0.052 A 
ATOM     18  N   UNL A   1      29.779  30.513  22.773  1.00  0.00    -0.240 NA
ATOM     19  C   UNL A   1      28.071  28.962  23.147  1.00  0.00     0.025 A 
ATOM     20  S   UNL A   1      29.429  27.967  22.818  1.00  0.00    -0.118 S 
ATOM     21  C   UNL A   1      26.737  28.378  23.457  1.00  0.00     0.058 C 
ENDBRANCH  14  15
ENDBRANCH  11  14
ENDBRANCH  10  11
BRANCH  10  22
ATOM     22  C   UNL A   1      33.328  25.794  23.425  1.00  0.00     0.021 A 
ATOM     23  C   UNL A   1      34.455  25.117  23.932  1.00  0.00     0.010 A 
ATOM     24  C   UNL A   1      32.390  25.038  22.704  1.00  0.00     0.010 A 
ATOM     25  C   UNL A   1      34.664  23.758  23.679  1.00  0.00     0.001 A 
ATOM     26  C   UNL A   1      32.589  23.674  22.467  1.00  0.00     0.001 A 
ATOM     27  C   UNL A   1      33.733  23.038  22.940  1.00  0.00     0.000 A 
ENDBRANCH  10  22
ENDBRANCH   8  10
ENDBRANCH   7   8
ENDBRANCH   6   7
ENDBRANCH   5   6
ENDBRANCH   4   5
ENDBRANCH   3   4
ENDBRANCH   2   3
ENDBRANCH   1   2
BRANCH   1  28
ATOM     28  C   UNL A   1      34.370  21.328  26.548  1.00  0.00     0.188 C 
BRANCH  28  29
ATOM     29  C   UNL A   1      35.794  21.763  26.156  1.00  0.00     0.188 C 
BRANCH  29  30
ATOM     30  O   UNL A   1      36.509  20.832  25.347  1.00  0.00    -0.376 OA
BRANCH  30  31
ATOM     31  C   UNL A   1      37.883  21.083  25.084  1.00  0.00     0.202 C 
BRANCH  31  32
ATOM     32  C   UNL A   1      38.860  19.916  25.295  1.00  0.00     0.261 C 
BRANCH  32  33
ATOM     33  O   UNL A   1      39.661  19.965  26.481  1.00  0.00    -0.460 OA
BRANCH  33  34
ATOM     34  C   UNL A   1      41.005  19.927  26.347  1.00  0.00     0.338 C 
ATOM     35  O   UNL A   1      41.678  19.011  25.907  1.00  0.00    -0.246 OA
BRANCH  34  36
ATOM     36  C   UNL A   1      41.512  21.277  26.658  1.00  0.00     0.060 A 
ATOM     37  C   UNL A   1      41.404  21.769  27.966  1.00  0.00     0.016 A 
ATOM     38  C   UNL A   1      42.130  22.032  25.662  1.00  0.00     0.016 A 
ATOM     39  C   UNL A   1      41.900  23.037  28.275  1.00  0.00     0.010 A 
ATOM     40  C   UNL A   1      42.609  23.306  25.967  1.00  0.00     0.010 A 
ATOM     41  C   UNL A   1      42.470  23.826  27.267  1.00  0.00    -0.014 A 
BRANCH  41  42
ATOM     42  C   UNL A   1      42.731  25.266  27.495  1.00  0.00     0.031 A 
ATOM     43  C   UNL A   1      44.124  25.775  27.250  1.00  0.00     0.074 A 
ATOM     44  C   UNL A   1      41.775  26.093  27.954  1.00  0.00     0.049 A 
ATOM     45  N   UNL A   1      44.632  26.954  27.489  1.00  0.00    -0.248 NA
ATOM     46  C   UNL A   1      45.077  24.814  26.667  1.00  0.00     0.031 C 
ATOM     47  C   UNL A   1      40.387  25.721  28.218  1.00  0.00     0.029 A 
ATOM     48  N   UNL A   1      41.847  27.415  28.318  1.00  0.00    -0.354 N 
ATOM     49  C   UNL A   1      45.969  26.868  27.123  1.00  0.00     0.074 A 
ATOM     50  C   UNL A   1      46.198  25.520  26.652  1.00  0.00     0.031 C 
ATOM     51  C   UNL A   1      39.745  26.782  28.738  1.00  0.00     0.029 A 
ATOM     52  C   UNL A   1      40.684  27.894  28.875  1.00  0.00     0.049 A 
ATOM     53  H   UNL A   1      42.652  27.967  28.192  1.00  0.00     0.167 HD
ATOM     54  C   UNL A   1      46.924  27.826  27.169  1.00  0.00     0.034 A 
ATOM     55  C   UNL A   1      40.424  29.082  29.459  1.00  0.00     0.034 A 
ATOM     56  C   UNL A   1      46.692  29.167  27.631  1.00  0.00     0.049 A 
ATOM     57  C   UNL A   1      41.513  30.123  29.532  1.00  0.00     0.074 A 
ATOM     58  C   UNL A   1      47.582  30.225  27.678  1.00  0.00     0.029 A 
ATOM     59  N   UNL A   1      45.490  29.630  28.142  1.00  0.00    -0.354 N 
ATOM     60  N   UNL A   1      42.746  30.064  29.087  1.00  0.00    -0.248 NA
ATOM     61  C   UNL A   1      41.168  31.407  30.163  1.00  0.00     0.031 C 
ATOM     62  C   UNL A   1      46.926  31.319  28.252  1.00  0.00     0.029 A 
ATOM     63  C   UNL A   1      45.616  30.955  28.520  1.00  0.00     0.049 A 
ATOM     64  H   UNL A   1      44.667  29.095  28.223  1.00  0.00     0.167 HD
ATOM     65  C   UNL A   1      43.306  31.312  29.342  1.00  0.00     0.074 A 
ATOM     66  C   UNL A   1      42.275  32.111  29.970  1.00  0.00     0.031 C 
ATOM     67  C   UNL A   1      44.562  31.755  29.089  1.00  0.00     0.034 A 
BRANCH  54  68
ATOM     68  C   UNL A   1      48.306  27.458  26.702  1.00  0.00     0.023 A 
ATOM     69  C   UNL A   1      49.207  26.838  27.592  1.00  0.00     0.012 A 
ATOM     70  C   UNL A   1      48.698  27.687  25.369  1.00  0.00     0.148 A 
ATOM     71  C   UNL A   1      50.488  26.483  27.172  1.00  0.00     0.002 A 
ATOM     72  C   UNL A   1      49.958  27.286  24.944  1.00  0.00     0.091 A 
ATOM     73  F   UNL A   1      47.836  28.301  24.546  1.00  0.00    -0.205 F 
ATOM     74  C   UNL A   1      50.859  26.696  25.847  1.00  0.00     0.022 A 
BRANCH  72  75
ATOM     75  S   UNL A   1      50.501  27.444  23.240  1.00  0.00     0.127 S 
ATOM     76  O   UNL A   1      50.811  28.871  23.161  1.00  0.00    -0.237 OA
ATOM     77  O   UNL A   1      51.669  26.563  23.209  1.00  0.00    -0.237 OA
ATOM     78  O   UNL A   1      49.383  27.002  22.419  1.00  0.00    -0.744 OA
ENDBRANCH  72  75
ENDBRANCH  54  68
BRANCH  55  79
ATOM     79  C   UNL A   1      39.067  29.367  30.010  1.00  0.00     0.023 A 
ATOM     80  C   UNL A   1      38.695  28.823  31.255  1.00  0.00     0.012 A 
ATOM     81  C   UNL A   1      38.146  30.167  29.307  1.00  0.00     0.148 A 
ATOM     82  C   UNL A   1      37.418  29.042  31.775  1.00  0.00     0.002 A 
ATOM     83  C   UNL A   1      36.896  30.429  29.857  1.00  0.00     0.091 A 
ATOM     84  F   UNL A   1      38.513  30.661  28.117  1.00  0.00    -0.205 F 
ATOM     85  C   UNL A   1      36.522  29.851  31.081  1.00  0.00     0.022 A 
BRANCH  83  86
ATOM     86  S   UNL A   1      35.723  31.557  29.098  1.00  0.00     0.127 S 
ATOM     87  O   UNL A   1      35.123  30.715  28.066  1.00  0.00    -0.237 OA
ATOM     88  O   UNL A   1      34.844  31.875  30.224  1.00  0.00    -0.237 OA
ATOM     89  O   UNL A   1      36.514  32.681  28.614  1.00  0.00    -0.744 OA
ENDBRANCH  83  86
ENDBRANCH  55  79
BRANCH  67  90
ATOM     90  C   UNL A   1      44.889  33.189  29.424  1.00  0.00     0.023 A 
ATOM     91  C   UNL A   1      45.398  33.523  30.694  1.00  0.00     0.012 A 
ATOM     92  C   UNL A   1      44.769  34.193  28.441  1.00  0.00     0.148 A 
ATOM     93  C   UNL A   1      45.752  34.839  30.990  1.00  0.00     0.002 A 
ATOM     94  C   UNL A   1      45.175  35.491  28.726  1.00  0.00     0.091 A 
ATOM     95  F   UNL A   1      44.268  33.857  27.243  1.00  0.00    -0.205 F 
ATOM     96  C   UNL A   1      45.654  35.818  30.004  1.00  0.00     0.022 A 
BRANCH  94  97
ATOM     97  S   UNL A   1      45.181  36.793  27.488  1.00  0.00     0.127 S 
ATOM     98  O   UNL A   1      46.038  36.216  26.454  1.00  0.00    -0.237 OA
ATOM     99  O   UNL A   1      43.766  36.883  27.128  1.00  0.00    -0.237 OA
ATOM    100  O   UNL A   1      45.714  37.976  28.150  1.00  0.00    -0.744 OA
ENDBRANCH  94  97
ENDBRANCH  67  90
ENDBRANCH  41  42
ENDBRANCH  34  36
ENDBRANCH  33  34
ENDBRANCH  32  33
ENDBRANCH  31  32
ENDBRANCH  30  31
ENDBRANCH  29  30
ENDBRANCH  28  29
ENDBRANCH   1  28
TORSDOF 27
ENDMDL
MODEL 2
REMARK VINA RESULT:      -9.5      1.860      2.719
REMARK SMILES Cc1nc(C[NH2+][C@@H](C(=O)OCCOCCOCCOCCOC(=O)c2ccc(-c3c4nc(c(-c5cccc(S(=O)(=O)[O-])c5F)c5ccc([nH]5)c(-c5cccc(S(=O)(=O)[O-])c5F)c5nc(c(-c6cccc(S(=O)(=O)[O-])c6F)c6ccc3[nH]6)C=C5)C=C4)cc2)c2ccccc2)sc1C
REMARK SMILES IDX 16 1 15 2 14 3 13 4 12 5 11 6 10 7 8 8 9 9 7 10 6 11 5 14
REMARK SMILES IDX 4 15 1 16 2 17 3 18 95 19 94 20 96 21 88 22 89 23 93 24
REMARK SMILES IDX 90 25 92 26 91 27 17 28 18 29 19 30 20 31 21 32 22 33 23 34
REMARK SMILES IDX 24 35 25 36 26 37 87 38 27 39 86 40 28 41 29 42 30 43 80 44
REMARK SMILES IDX 31 45 85 46 79 47 81 48 32 49 84 50 78 51 77 52 33 54 65 55
REMARK SMILES IDX 45 56 64 57 46 58 49 59 63 60 82 61 47 62 48 63 62 65 83 66
REMARK SMILES IDX 50 67 34 68 35 69 43 70 36 71 38 72 44 73 37 74 39 75 40 76
REMARK SMILES IDX 41 77 42 78 66 79 67 80 75 81 68 82 70 83 76 84 69 85 71 86
REMARK SMILES IDX 72 87 73 88 74 89 51 90 52 91 60 92 53 93 55 94 61 95 54 96
REMARK SMILES IDX 56 97 57 98 58 99 59 100
REMARK H PARENT 6 12 6 13 81 53 49 64
REMARK Flexibility Score: inf
ROOT
ATOM      1  O   UNL A   1      34.306  21.055  26.083  1.00  0.00    -0.377 OA
ENDROOT
BRANCH   1   2
ATOM      2  C   UNL A   1      33.449  22.130  25.773  1.00  0.00     0.188 C 
BRANCH   2   3
ATOM      3  C   UNL A   1      32.121  21.715  25.122  1.00  0.00     0.188 C 
BRANCH   3   4
ATOM      4  O   UNL A   1      30.915  21.977  25.817  1.00  0.00    -0.376 OA
BRANCH   4   5
ATOM      5  C   UNL A   1      30.484  23.318  26.018  1.00  0.00     0.202 C 
BRANCH   5   6
ATOM      6  C   UNL A   1      31.043  24.545  25.260  1.00  0.00     0.261 C 
BRANCH   6   7
ATOM      7  O   UNL A   1      30.364  25.800  25.435  1.00  0.00    -0.459 OA
BRANCH   7   8
ATOM      8  C   UNL A   1      31.013  26.783  26.101  1.00  0.00     0.369 C 
ATOM      9  O   UNL A   1      31.151  26.776  27.325  1.00  0.00    -0.245 OA
BRANCH   8  10
ATOM     10  C   UNL A   1      31.654  27.891  25.207  1.00  0.00     0.325 C 
BRANCH  10  11
ATOM     11  N   UNL A   1      32.312  27.551  23.930  1.00  0.00    -0.325 N 
ATOM     12  H   UNL A   1      32.909  28.340  23.685  1.00  0.00     0.347 HD
ATOM     13  H   UNL A   1      32.772  26.662  24.132  1.00  0.00     0.347 HD
BRANCH  11  14
ATOM     14  C   UNL A   1      31.501  27.249  22.748  1.00  0.00     0.330 C 
BRANCH  14  15
ATOM     15  C   UNL A   1      30.260  28.137  22.711  1.00  0.00     0.148 A 
ATOM     16  C   UNL A   1      26.744  28.575  23.364  1.00  0.00     0.068 C 
ATOM     17  C   UNL A   1      28.155  28.817  22.963  1.00  0.00     0.052 A 
ATOM     18  N   UNL A   1      29.077  27.804  23.191  1.00  0.00    -0.240 NA
ATOM     19  C   UNL A   1      28.671  29.953  22.364  1.00  0.00     0.025 A 
ATOM     20  S   UNL A   1      30.342  29.728  22.048  1.00  0.00    -0.118 S 
ATOM     21  C   UNL A   1      27.971  31.211  21.984  1.00  0.00     0.058 C 
ENDBRANCH  14  15
ENDBRANCH  11  14
ENDBRANCH  10  11
BRANCH  10  22
ATOM     22  C   UNL A   1      32.578  28.747  26.105  1.00  0.00     0.021 A 
ATOM     23  C   UNL A   1      32.228  30.023  26.587  1.00  0.00     0.010 A 
ATOM     24  C   UNL A   1      33.890  28.304  26.341  1.00  0.00     0.010 A 
ATOM     25  C   UNL A   1      33.163  30.844  27.224  1.00  0.00     0.001 A 
ATOM     26  C   UNL A   1      34.820  29.117  26.996  1.00  0.00     0.001 A 
ATOM     27  C   UNL A   1      34.462  30.392  27.423  1.00  0.00     0.000 A 
ENDBRANCH  10  22
ENDBRANCH   8  10
ENDBRANCH   7   8
ENDBRANCH   6   7
ENDBRANCH   5   6
ENDBRANCH   4   5
ENDBRANCH   3   4
ENDBRANCH   2   3
ENDBRANCH   1   2
BRANCH   1  28
ATOM     28  C   UNL A   1      35.266  20.686  25.111  1.00  0.00     0.188 C 
BRANCH  28  29
ATOM     29  C   UNL A   1      36.559  21.512  24.974  1.00  0.00     0.188 C 
BRANCH  29  30
ATOM     30  O   UNL A   1      37.729  20.757  24.670  1.00  0.00    -0.376 OA
BRANCH  30  31
ATOM     31  C   UNL A   1      38.798  20.763  25.606  1.00  0.00     0.202 C 
BRANCH  31  32
ATOM     32  C   UNL A   1      39.631  19.477  25.725  1.00  0.00     0.261 C 
BRANCH  32  33
ATOM     33  O   UNL A   1      40.720  19.510  26.656  1.00  0.00    -0.460 OA
BRANCH  33  34
ATOM     34  C   UNL A   1      41.979  19.503  26.167  1.00  0.00     0.338 C 
ATOM     35  O   UNL A   1      42.522  18.611  25.537  1.00  0.00    -0.246 OA
BRANCH  34  36
ATOM     36  C   UNL A   1      42.533  20.855  26.370  1.00  0.00     0.060 A 
ATOM     37  C   UNL A   1      42.910  21.259  27.657  1.00  0.00     0.016 A 
ATOM     38  C   UNL A   1      42.713  21.702  25.276  1.00  0.00     0.016 A 
ATOM     39  C   UNL A   1      43.455  22.530  27.856  1.00  0.00     0.010 A 
ATOM     40  C   UNL A   1      43.240  22.977  25.479  1.00  0.00     0.010 A 
ATOM     41  C   UNL A   1      43.585  23.408  26.772  1.00  0.00    -0.014 A 
BRANCH  41  42
ATOM     42  C   UNL A   1      43.878  24.843  26.997  1.00  0.00     0.031 A 
ATOM     43  C   UNL A   1      45.295  25.309  26.809  1.00  0.00     0.074 A 
ATOM     44  C   UNL A   1      42.926  25.701  27.405  1.00  0.00     0.049 A 
ATOM     45  N   UNL A   1      45.825  26.476  27.059  1.00  0.00    -0.248 NA
ATOM     46  C   UNL A   1      46.244  24.315  26.279  1.00  0.00     0.031 C 
ATOM     47  C   UNL A   1      41.518  25.371  27.610  1.00  0.00     0.029 A 
ATOM     48  N   UNL A   1      43.020  27.025  27.758  1.00  0.00    -0.354 N 
ATOM     49  C   UNL A   1      47.174  26.348  26.754  1.00  0.00     0.074 A 
ATOM     50  C   UNL A   1      47.384  24.988  26.307  1.00  0.00     0.031 C 
ATOM     51  C   UNL A   1      40.884  26.457  28.090  1.00  0.00     0.029 A 
ATOM     52  C   UNL A   1      41.848  27.543  28.257  1.00  0.00     0.049 A 
ATOM     53  H   UNL A   1      43.846  27.553  27.662  1.00  0.00     0.167 HD
ATOM     54  C   UNL A   1      48.153  27.279  26.832  1.00  0.00     0.034 A 
ATOM     55  C   UNL A   1      41.596  28.745  28.816  1.00  0.00     0.034 A 
ATOM     56  C   UNL A   1      47.939  28.631  27.269  1.00  0.00     0.049 A 
ATOM     57  C   UNL A   1      42.711  29.756  28.927  1.00  0.00     0.074 A 
ATOM     58  C   UNL A   1      48.856  29.664  27.345  1.00  0.00     0.029 A 
ATOM     59  N   UNL A   1      46.729  29.134  27.721  1.00  0.00    -0.354 N 
ATOM     60  N   UNL A   1      43.960  29.657  28.538  1.00  0.00    -0.248 NA
ATOM     61  C   UNL A   1      42.375  31.055  29.528  1.00  0.00     0.031 C 
ATOM     62  C   UNL A   1      48.207  30.783  27.878  1.00  0.00     0.029 A 
ATOM     63  C   UNL A   1      46.877  30.459  28.091  1.00  0.00     0.049 A 
ATOM     64  H   UNL A   1      45.889  28.623  27.771  1.00  0.00     0.167 HD
ATOM     65  C   UNL A   1      44.544  30.891  28.805  1.00  0.00     0.074 A 
ATOM     66  C   UNL A   1      43.509  31.726  29.377  1.00  0.00     0.031 C 
ATOM     67  C   UNL A   1      45.822  31.296  28.604  1.00  0.00     0.034 A 
BRANCH  54  68
ATOM     68  C   UNL A   1      49.543  26.866  26.431  1.00  0.00     0.023 A 
ATOM     69  C   UNL A   1      50.322  26.081  27.304  1.00  0.00     0.012 A 
ATOM     70  C   UNL A   1      50.061  27.221  25.171  1.00  0.00     0.148 A 
ATOM     71  C   UNL A   1      51.609  25.683  26.944  1.00  0.00     0.002 A 
ATOM     72  C   UNL A   1      51.325  26.780  24.798  1.00  0.00     0.091 A 
ATOM     73  F   UNL A   1      49.314  27.989  24.365  1.00  0.00    -0.205 F 
ATOM     74  C   UNL A   1      52.105  26.023  25.688  1.00  0.00     0.022 A 
BRANCH  72  75
ATOM     75  S   UNL A   1      52.020  27.096  23.174  1.00  0.00     0.127 S 
ATOM     76  O   UNL A   1      50.895  26.763  22.301  1.00  0.00    -0.237 OA
ATOM     77  O   UNL A   1      52.332  28.524  23.247  1.00  0.00    -0.237 OA
ATOM     78  O   UNL A   1      53.181  26.225  23.056  1.00  0.00    -0.744 OA
ENDBRANCH  72  75
ENDBRANCH  54  68
BRANCH  55  79
ATOM     79  C   UNL A   1      40.225  29.074  29.303  1.00  0.00     0.023 A 
ATOM     80  C   UNL A   1      39.272  29.586  28.401  1.00  0.00     0.012 A 
ATOM     81  C   UNL A   1      39.863  28.886  30.651  1.00  0.00     0.148 A 
ATOM     82  C   UNL A   1      37.994  29.939  28.839  1.00  0.00     0.002 A 
ATOM     83  C   UNL A   1      38.571  29.185  31.069  1.00  0.00     0.091 A 
ATOM     84  F   UNL A   1      40.789  28.413  31.497  1.00  0.00    -0.205 F 
ATOM     85  C   UNL A   1      37.641  29.729  30.170  1.00  0.00     0.022 A 
BRANCH  83  86
ATOM     86  S   UNL A   1      37.988  28.834  32.731  1.00  0.00     0.127 S 
ATOM     87  O   UNL A   1      38.907  29.627  33.544  1.00  0.00    -0.237 OA
ATOM     88  O   UNL A   1      36.616  29.341  32.678  1.00  0.00    -0.237 OA
ATOM     89  O   UNL A   1      38.091  27.390  32.889  1.00  0.00    -0.744 OA
ENDBRANCH  83  86
ENDBRANCH  55  79
BRANCH  67  90
ATOM     90  C   UNL A   1      46.174  32.723  28.938  1.00  0.00     0.023 A 
ATOM     91  C   UNL A   1      46.794  33.033  30.164  1.00  0.00     0.012 A 
ATOM     92  C   UNL A   1      45.966  33.746  27.990  1.00  0.00     0.148 A 
ATOM     93  C   UNL A   1      47.171  34.344  30.454  1.00  0.00     0.002 A 
ATOM     94  C   UNL A   1      46.393  35.040  28.264  1.00  0.00     0.091 A 
ATOM     95  F   UNL A   1      45.360  33.434  26.835  1.00  0.00    -0.205 F 
ATOM     96  C   UNL A   1      46.983  35.343  29.501  1.00  0.00     0.022 A 
BRANCH  94  97
ATOM     97  S   UNL A   1      46.286  36.367  27.059  1.00  0.00     0.127 S 
ATOM     98  O   UNL A   1      45.123  35.960  26.271  1.00  0.00    -0.237 OA
ATOM     99  O   UNL A   1      46.068  37.538  27.907  1.00  0.00    -0.237 OA
ATOM    100  O   UNL A   1      47.554  36.365  26.343  1.00  0.00    -0.744 OA
ENDBRANCH  94  97
ENDBRANCH  67  90
ENDBRANCH  41  42
ENDBRANCH  34  36
ENDBRANCH  33  34
ENDBRANCH  32  33
ENDBRANCH  31  32
ENDBRANCH  30  31
ENDBRANCH  29  30
ENDBRANCH  28  29
ENDBRANCH   1  28
TORSDOF 27
ENDMDL
MODEL 3
REMARK VINA RESULT:      -9.2      1.273      3.020
REMARK SMILES Cc1nc(C[NH2+][C@@H](C(=O)OCCOCCOCCOCCOC(=O)c2ccc(-c3c4nc(c(-c5cccc(S(=O)(=O)[O-])c5F)c5ccc([nH]5)c(-c5cccc(S(=O)(=O)[O-])c5F)c5nc(c(-c6cccc(S(=O)(=O)[O-])c6F)c6ccc3[nH]6)C=C5)C=C4)cc2)c2ccccc2)sc1C
REMARK SMILES IDX 16 1 15 2 14 3 13 4 12 5 11 6 10 7 8 8 9 9 7 10 6 11 5 14
REMARK SMILES IDX 4 15 1 16 2 17 3 18 95 19 94 20 96 21 88 22 89 23 93 24
REMARK SMILES IDX 90 25 92 26 91 27 17 28 18 29 19 30 20 31 21 32 22 33 23 34
REMARK SMILES IDX 24 35 25 36 26 37 87 38 27 39 86 40 28 41 29 42 30 43 80 44
REMARK SMILES IDX 31 45 85 46 79 47 81 48 32 49 84 50 78 51 77 52 33 54 65 55
REMARK SMILES IDX 45 56 64 57 46 58 49 59 63 60 82 61 47 62 48 63 62 65 83 66
REMARK SMILES IDX 50 67 34 68 35 69 43 70 36 71 38 72 44 73 37 74 39 75 40 76
REMARK SMILES IDX 41 77 42 78 66 79 67 80 75 81 68 82 70 83 76 84 69 85 71 86
REMARK SMILES IDX 72 87 73 88 74 89 51 90 52 91 60 92 53 93 55 94 61 95 54 96
REMARK SMILES IDX 56 97 57 98 58 99 59 100
REMARK H PARENT 6 12 6 13 81 53 49 64
REMARK Flexibility Score: inf
ROOT
ATOM      1  O   UNL A   1      33.555  22.235  27.398  1.00  0.00    -0.377 OA
ENDROOT
BRANCH   1   2
ATOM      2  C   UNL A   1      33.056  23.358  26.709  1.00  0.00     0.188 C 
BRANCH   2   3
ATOM      3  C   UNL A   1      31.538  23.559  26.840  1.00  0.00     0.188 C 
BRANCH   3   4
ATOM      4  O   UNL A   1      31.011  24.863  26.674  1.00  0.00    -0.376 OA
BRANCH   4   5
ATOM      5  C   UNL A   1      30.726  25.357  25.371  1.00  0.00     0.202 C 
BRANCH   5   6
ATOM      6  C   UNL A   1      29.424  26.092  24.973  1.00  0.00     0.261 C 
BRANCH   6   7
ATOM      7  O   UNL A   1      29.267  26.465  23.593  1.00  0.00    -0.459 OA
BRANCH   7   8
ATOM      8  C   UNL A   1      29.256  27.785  23.293  1.00  0.00     0.369 C 
ATOM      9  O   UNL A   1      28.223  28.455  23.287  1.00  0.00    -0.245 OA
BRANCH   8  10
ATOM     10  C   UNL A   1      30.656  28.427  23.034  1.00  0.00     0.325 C 
BRANCH  10  11
ATOM     11  N   UNL A   1      31.762  27.633  22.463  1.00  0.00    -0.325 N 
ATOM     12  H   UNL A   1      32.316  28.268  21.890  1.00  0.00     0.347 HD
ATOM     13  H   UNL A   1      32.213  27.232  23.287  1.00  0.00     0.347 HD
BRANCH  11  14
ATOM     14  C   UNL A   1      31.468  26.460  21.636  1.00  0.00     0.330 C 
BRANCH  14  15
ATOM     15  C   UNL A   1      32.267  25.253  22.118  1.00  0.00     0.148 A 
ATOM     16  C   UNL A   1      32.329  21.843  23.282  1.00  0.00     0.068 C 
ATOM     17  C   UNL A   1      32.743  23.202  22.845  1.00  0.00     0.052 A 
ATOM     18  N   UNL A   1      31.755  24.067  22.392  1.00  0.00    -0.240 NA
ATOM     19  C   UNL A   1      34.023  23.726  22.844  1.00  0.00     0.025 A 
ATOM     20  S   UNL A   1      33.980  25.352  22.299  1.00  0.00    -0.118 S 
ATOM     21  C   UNL A   1      35.299  23.080  23.259  1.00  0.00     0.058 C 
ENDBRANCH  14  15
ENDBRANCH  11  14
ENDBRANCH  10  11
BRANCH  10  22
ATOM     22  C   UNL A   1      31.092  29.147  24.332  1.00  0.00     0.021 A 
ATOM     23  C   UNL A   1      30.564  30.385  24.747  1.00  0.00     0.010 A 
ATOM     24  C   UNL A   1      32.168  28.623  25.066  1.00  0.00     0.010 A 
ATOM     25  C   UNL A   1      31.124  31.095  25.814  1.00  0.00     0.001 A 
ATOM     26  C   UNL A   1      32.716  29.325  26.144  1.00  0.00     0.001 A 
ATOM     27  C   UNL A   1      32.206  30.567  26.508  1.00  0.00     0.000 A 
ENDBRANCH  10  22
ENDBRANCH   8  10
ENDBRANCH   7   8
ENDBRANCH   6   7
ENDBRANCH   5   6
ENDBRANCH   4   5
ENDBRANCH   3   4
ENDBRANCH   2   3
ENDBRANCH   1   2
BRANCH   1  28
ATOM     28  C   UNL A   1      34.302  21.292  26.653  1.00  0.00     0.188 C 
BRANCH  28  29
ATOM     29  C   UNL A   1      35.638  21.718  26.017  1.00  0.00     0.188 C 
BRANCH  29  30
ATOM     30  O   UNL A   1      36.371  20.669  25.390  1.00  0.00    -0.376 OA
BRANCH  30  31
ATOM     31  C   UNL A   1      37.739  20.896  25.076  1.00  0.00     0.202 C 
BRANCH  31  32
ATOM     32  C   UNL A   1      38.724  19.758  25.380  1.00  0.00     0.261 C 
BRANCH  32  33
ATOM     33  O   UNL A   1      39.564  19.935  26.527  1.00  0.00    -0.460 OA
BRANCH  33  34
ATOM     34  C   UNL A   1      40.902  19.872  26.356  1.00  0.00     0.338 C 
ATOM     35  O   UNL A   1      41.549  18.930  25.930  1.00  0.00    -0.246 OA
BRANCH  34  36
ATOM     36  C   UNL A   1      41.438  21.225  26.601  1.00  0.00     0.060 A 
ATOM     37  C   UNL A   1      41.609  21.669  27.919  1.00  0.00     0.016 A 
ATOM     38  C   UNL A   1      41.808  22.030  25.525  1.00  0.00     0.016 A 
ATOM     39  C   UNL A   1      42.134  22.940  28.162  1.00  0.00     0.010 A 
ATOM     40  C   UNL A   1      42.315  23.306  25.768  1.00  0.00     0.010 A 
ATOM     41  C   UNL A   1      42.453  23.778  27.086  1.00  0.00    -0.014 A 
BRANCH  41  42
ATOM     42  C   UNL A   1      42.728  25.216  27.307  1.00  0.00     0.031 A 
ATOM     43  C   UNL A   1      44.074  25.746  26.896  1.00  0.00     0.074 A 
ATOM     44  C   UNL A   1      41.832  26.023  27.903  1.00  0.00     0.049 A 
ATOM     45  N   UNL A   1      44.598  26.926  27.093  1.00  0.00    -0.248 NA
ATOM     46  C   UNL A   1      44.953  24.808  26.177  1.00  0.00     0.031 C 
ATOM     47  C   UNL A   1      40.493  25.630  28.335  1.00  0.00     0.029 A 
ATOM     48  N   UNL A   1      41.938  27.339  28.281  1.00  0.00    -0.354 N 
ATOM     49  C   UNL A   1      45.878  26.863  26.557  1.00  0.00     0.074 A 
ATOM     50  C   UNL A   1      46.056  25.526  26.032  1.00  0.00     0.031 C 
ATOM     51  C   UNL A   1      39.913  26.674  28.954  1.00  0.00     0.029 A 
ATOM     52  C   UNL A   1      40.852  27.794  28.992  1.00  0.00     0.049 A 
ATOM     53  H   UNL A   1      42.715  27.903  28.064  1.00  0.00     0.167 HD
ATOM     54  C   UNL A   1      46.821  27.830  26.499  1.00  0.00     0.034 A 
ATOM     55  C   UNL A   1      40.658  28.967  29.628  1.00  0.00     0.034 A 
ATOM     56  C   UNL A   1      46.639  29.159  27.014  1.00  0.00     0.049 A 
ATOM     57  C   UNL A   1      41.738  30.020  29.582  1.00  0.00     0.074 A 
ATOM     58  C   UNL A   1      47.517  30.227  26.968  1.00  0.00     0.029 A 
ATOM     59  N   UNL A   1      45.508  29.599  27.684  1.00  0.00    -0.354 N 
ATOM     60  N   UNL A   1      42.905  29.983  28.982  1.00  0.00    -0.248 NA
ATOM     61  C   UNL A   1      41.465  31.286  30.278  1.00  0.00     0.031 C 
ATOM     62  C   UNL A   1      46.931  31.302  27.643  1.00  0.00     0.029 A 
ATOM     63  C   UNL A   1      45.670  30.917  28.070  1.00  0.00     0.049 A 
ATOM     64  H   UNL A   1      44.707  29.053  27.860  1.00  0.00     0.167 HD
ATOM     65  C   UNL A   1      43.481  31.232  29.189  1.00  0.00     0.074 A 
ATOM     66  C   UNL A   1      42.532  32.008  29.959  1.00  0.00     0.031 C 
ATOM     67  C   UNL A   1      44.691  31.695  28.785  1.00  0.00     0.034 A 
BRANCH  54  68
ATOM     68  C   UNL A   1      48.136  27.487  25.851  1.00  0.00     0.023 A 
ATOM     69  C   UNL A   1      49.199  26.996  26.636  1.00  0.00     0.012 A 
ATOM     70  C   UNL A   1      48.303  27.611  24.458  1.00  0.00     0.148 A 
ATOM     71  C   UNL A   1      50.419  26.665  26.050  1.00  0.00     0.002 A 
ATOM     72  C   UNL A   1      49.505  27.233  23.874  1.00  0.00     0.091 A 
ATOM     73  F   UNL A   1      47.288  28.104  23.734  1.00  0.00    -0.205 F 
ATOM     74  C   UNL A   1      50.569  26.773  24.669  1.00  0.00     0.022 A 
BRANCH  72  75
ATOM     75  S   UNL A   1      49.769  27.259  22.099  1.00  0.00     0.127 S 
ATOM     76  O   UNL A   1      51.157  26.812  22.001  1.00  0.00    -0.237 OA
ATOM     77  O   UNL A   1      48.781  26.287  21.629  1.00  0.00    -0.237 OA
ATOM     78  O   UNL A   1      49.523  28.630  21.675  1.00  0.00    -0.744 OA
ENDBRANCH  72  75
ENDBRANCH  54  68
BRANCH  55  79
ATOM     79  C   UNL A   1      39.381  29.225  30.354  1.00  0.00     0.023 A 
ATOM     80  C   UNL A   1      39.129  28.566  31.573  1.00  0.00     0.012 A 
ATOM     81  C   UNL A   1      38.416  30.115  29.843  1.00  0.00     0.148 A 
ATOM     82  C   UNL A   1      37.925  28.760  32.253  1.00  0.00     0.002 A 
ATOM     83  C   UNL A   1      37.244  30.349  30.554  1.00  0.00     0.091 A 
ATOM     84  F   UNL A   1      38.667  30.720  28.674  1.00  0.00    -0.205 F 
ATOM     85  C   UNL A   1      36.988  29.658  31.748  1.00  0.00     0.022 A 
BRANCH  83  86
ATOM     86  S   UNL A   1      36.035  31.576  30.048  1.00  0.00     0.127 S 
ATOM     87  O   UNL A   1      35.165  31.640  31.220  1.00  0.00    -0.237 OA
ATOM     88  O   UNL A   1      36.876  32.754  29.838  1.00  0.00    -0.237 OA
ATOM     89  O   UNL A   1      35.422  31.049  28.836  1.00  0.00    -0.744 OA
ENDBRANCH  83  86
ENDBRANCH  55  79
BRANCH  67  90
ATOM     90  C   UNL A   1      45.044  33.126  29.105  1.00  0.00     0.023 A 
ATOM     91  C   UNL A   1      45.755  33.435  30.280  1.00  0.00     0.012 A 
ATOM     92  C   UNL A   1      44.742  34.153  28.188  1.00  0.00     0.148 A 
ATOM     93  C   UNL A   1      46.132  34.751  30.553  1.00  0.00     0.002 A 
ATOM     94  C   UNL A   1      45.168  35.451  28.440  1.00  0.00     0.091 A 
ATOM     95  F   UNL A   1      44.051  33.840  27.081  1.00  0.00    -0.205 F 
ATOM     96  C   UNL A   1      45.851  35.754  29.628  1.00  0.00     0.022 A 
BRANCH  94  97
ATOM     97  S   UNL A   1      44.942  36.787  27.260  1.00  0.00     0.127 S 
ATOM     98  O   UNL A   1      45.227  37.962  28.083  1.00  0.00    -0.237 OA
ATOM     99  O   UNL A   1      45.959  36.486  26.253  1.00  0.00    -0.237 OA
ATOM    100  O   UNL A   1      43.569  36.678  26.786  1.00  0.00    -0.744 OA
ENDBRANCH  94  97
ENDBRANCH  67  90
ENDBRANCH  41  42
ENDBRANCH  34  36
ENDBRANCH  33  34
ENDBRANCH  32  33
ENDBRANCH  31  32
ENDBRANCH  30  31
ENDBRANCH  29  30
ENDBRANCH  28  29
ENDBRANCH   1  28
TORSDOF 27
ENDMDL
