MODEL 1
REMARK VINA RESULT:      -8.8      0.000      0.000
REMARK SMILES O=C(OCCOCCOCCOCCOC(=O)[C@@H]1CCCC[C@H]1C(=O)Nc1ccc(NC(=O)c2ccco2)cc1)c1ccc(-c2c3nc(c(-c4cccc(S(=O)(=O)[O-])c4F)c4ccc([nH]4)c(-c4cccc(S(=O)(=O)[O-])c4F)c4nc(c(-c5cccc(S(=O)(=O)[O-])c5F)c5ccc2[nH]5)C=C4)C=C3)cc1
REMARK SMILES IDX 10 1 9 2 8 3 7 4 6 5 5 6 4 7 3 8 2 9 1 10 41 11 42 12 103 13
REMARK SMILES IDX 43 14 102 15 44 16 45 17 46 18 96 19 47 20 101 21 95 22
REMARK SMILES IDX 97 23 48 24 100 25 94 26 93 27 49 29 81 30 61 31 80 32 62 33
REMARK SMILES IDX 65 34 79 35 98 36 63 37 64 38 78 40 99 41 66 42 50 43 51 44
REMARK SMILES IDX 59 45 52 46 54 47 60 48 53 49 55 50 56 51 57 52 58 53 82 54
REMARK SMILES IDX 83 55 91 56 84 57 86 58 92 59 85 60 87 61 88 62 89 63 90 64
REMARK SMILES IDX 67 65 68 66 76 67 69 68 71 69 77 70 70 71 72 72 73 73 74 74
REMARK SMILES IDX 75 75 11 76 12 77 13 78 14 79 15 80 16 81 17 82 18 83 19 84
REMARK SMILES IDX 23 85 20 86 22 87 21 88 24 89 25 90 26 91 27 93 28 94 40 95
REMARK SMILES IDX 29 96 39 97 30 98 31 99 32 100 33 102 34 103 35 104 38 105
REMARK SMILES IDX 36 106 37 107
REMARK H PARENT 97 28 65 39 26 92 31 101
REMARK Flexibility Score: inf
ROOT
ATOM      1  C   UNL A   1      32.031  28.803  26.063  1.00  0.00     0.188 C 
ENDROOT
BRANCH   1   2
ATOM      2  O   UNL A   1      31.675  29.768  27.050  1.00  0.00    -0.377 OA
BRANCH   2   3
ATOM      3  C   UNL A   1      32.431  30.984  27.040  1.00  0.00     0.188 C 
BRANCH   3   4
ATOM      4  C   UNL A   1      33.814  30.879  27.685  1.00  0.00     0.188 C 
BRANCH   4   5
ATOM      5  O   UNL A   1      34.163  32.101  28.328  1.00  0.00    -0.376 OA
BRANCH   5   6
ATOM      6  C   UNL A   1      33.700  33.308  27.721  1.00  0.00     0.202 C 
BRANCH   6   7
ATOM      7  C   UNL A   1      33.687  34.511  28.656  1.00  0.00     0.261 C 
BRANCH   7   8
ATOM      8  O   UNL A   1      33.057  34.229  29.913  1.00  0.00    -0.460 OA
BRANCH   8   9
ATOM      9  C   UNL A   1      33.356  34.753  31.131  1.00  0.00     0.338 C 
ATOM     10  O   UNL A   1      32.589  35.594  31.600  1.00  0.00    -0.246 OA
BRANCH   9  11
ATOM     11  C   UNL A   1      34.549  34.362  31.946  1.00  0.00     0.060 A 
ATOM     12  C   UNL A   1      35.565  35.225  32.347  1.00  0.00     0.016 A 
ATOM     13  C   UNL A   1      34.614  33.035  32.401  1.00  0.00     0.016 A 
ATOM     14  C   UNL A   1      36.637  34.808  33.103  1.00  0.00     0.010 A 
ATOM     15  C   UNL A   1      35.687  32.596  33.187  1.00  0.00     0.010 A 
ATOM     16  C   UNL A   1      36.716  33.486  33.509  1.00  0.00    -0.014 A 
BRANCH  16  17
ATOM     17  C   UNL A   1      38.014  33.075  34.057  1.00  0.00     0.031 A 
ATOM     18  C   UNL A   1      38.189  33.178  35.539  1.00  0.00     0.074 A 
ATOM     19  C   UNL A   1      38.883  32.413  33.273  1.00  0.00     0.049 A 
ATOM     20  N   UNL A   1      39.226  32.882  36.269  1.00  0.00    -0.248 NA
ATOM     21  C   UNL A   1      37.025  33.656  36.312  1.00  0.00     0.031 C 
ATOM     22  C   UNL A   1      38.681  32.118  31.848  1.00  0.00     0.029 A 
ATOM     23  N   UNL A   1      40.088  31.838  33.564  1.00  0.00    -0.354 N 
ATOM     24  C   UNL A   1      38.860  33.190  37.573  1.00  0.00     0.074 A 
ATOM     25  C   UNL A   1      37.504  33.680  37.544  1.00  0.00     0.031 C 
ATOM     26  C   UNL A   1      39.738  31.427  31.391  1.00  0.00     0.029 A 
ATOM     27  C   UNL A   1      40.713  31.300  32.464  1.00  0.00     0.049 A 
ATOM     28  H   UNL A   1      40.470  31.813  34.471  1.00  0.00     0.167 HD
ATOM     29  C   UNL A   1      39.604  33.068  38.692  1.00  0.00     0.034 A 
ATOM     30  C   UNL A   1      41.962  30.817  32.344  1.00  0.00     0.034 A 
ATOM     31  C   UNL A   1      40.949  32.571  38.674  1.00  0.00     0.049 A 
ATOM     32  C   UNL A   1      42.811  30.795  33.587  1.00  0.00     0.074 A 
ATOM     33  C   UNL A   1      41.855  32.482  39.709  1.00  0.00     0.029 A 
ATOM     34  N   UNL A   1      41.578  32.078  37.537  1.00  0.00    -0.354 N 
ATOM     35  N   UNL A   1      42.482  31.132  34.814  1.00  0.00    -0.248 NA
ATOM     36  C   UNL A   1      44.189  30.317  33.442  1.00  0.00     0.031 C 
ATOM     37  C   UNL A   1      43.045  31.959  39.190  1.00  0.00     0.029 A 
ATOM     38  C   UNL A   1      42.863  31.682  37.842  1.00  0.00     0.049 A 
ATOM     39  H   UNL A   1      41.167  32.020  36.644  1.00  0.00     0.167 HD
ATOM     40  C   UNL A   1      43.603  30.884  35.593  1.00  0.00     0.074 A 
ATOM     41  C   UNL A   1      44.608  30.336  34.698  1.00  0.00     0.031 C 
ATOM     42  C   UNL A   1      43.802  31.099  36.916  1.00  0.00     0.034 A 
BRANCH  29  43
ATOM     43  C   UNL A   1      38.986  33.535  39.981  1.00  0.00     0.023 A 
ATOM     44  C   UNL A   1      39.303  34.806  40.502  1.00  0.00     0.012 A 
ATOM     45  C   UNL A   1      38.120  32.688  40.698  1.00  0.00     0.148 A 
ATOM     46  C   UNL A   1      38.794  35.212  41.737  1.00  0.00     0.002 A 
ATOM     47  C   UNL A   1      37.582  33.117  41.905  1.00  0.00     0.091 A 
ATOM     48  F   UNL A   1      37.862  31.470  40.201  1.00  0.00    -0.205 F 
ATOM     49  C   UNL A   1      37.929  34.371  42.433  1.00  0.00     0.022 A 
BRANCH  47  50
ATOM     50  S   UNL A   1      36.419  32.132  42.853  1.00  0.00     0.127 S 
ATOM     51  O   UNL A   1      37.225  30.955  43.179  1.00  0.00    -0.237 OA
ATOM     52  O   UNL A   1      36.136  33.010  43.988  1.00  0.00    -0.237 OA
ATOM     53  O   UNL A   1      35.287  31.882  41.972  1.00  0.00    -0.744 OA
ENDBRANCH  47  50
ENDBRANCH  29  43
BRANCH  30  54
ATOM     54  C   UNL A   1      42.492  30.384  31.019  1.00  0.00     0.023 A 
ATOM     55  C   UNL A   1      42.363  29.045  30.604  1.00  0.00     0.012 A 
ATOM     56  C   UNL A   1      43.143  31.300  30.165  1.00  0.00     0.148 A 
ATOM     57  C   UNL A   1      42.907  28.619  29.390  1.00  0.00     0.002 A 
ATOM     58  C   UNL A   1      43.631  30.883  28.933  1.00  0.00     0.091 A 
ATOM     59  F   UNL A   1      43.279  32.569  30.579  1.00  0.00    -0.205 F 
ATOM     60  C   UNL A   1      43.533  29.538  28.552  1.00  0.00     0.022 A 
BRANCH  58  61
ATOM     61  S   UNL A   1      44.338  32.031  27.745  1.00  0.00     0.127 S 
ATOM     62  O   UNL A   1      45.765  31.924  28.041  1.00  0.00    -0.237 OA
ATOM     63  O   UNL A   1      43.928  31.440  26.470  1.00  0.00    -0.237 OA
ATOM     64  O   UNL A   1      43.723  33.319  28.032  1.00  0.00    -0.744 OA
ENDBRANCH  58  61
ENDBRANCH  30  54
BRANCH  42  65
ATOM     65  C   UNL A   1      45.136  30.695  37.475  1.00  0.00     0.023 A 
ATOM     66  C   UNL A   1      45.318  29.400  37.997  1.00  0.00     0.012 A 
ATOM     67  C   UNL A   1      46.225  31.582  37.406  1.00  0.00     0.148 A 
ATOM     68  C   UNL A   1      46.565  29.007  38.479  1.00  0.00     0.002 A 
ATOM     69  C   UNL A   1      47.477  31.162  37.831  1.00  0.00     0.091 A 
ATOM     70  F   UNL A   1      46.018  32.816  36.922  1.00  0.00    -0.205 F 
ATOM     71  C   UNL A   1      47.645  29.882  38.383  1.00  0.00     0.022 A 
BRANCH  69  72
ATOM     72  S   UNL A   1      48.941  32.180  37.636  1.00  0.00     0.127 S 
ATOM     73  O   UNL A   1      48.482  33.465  38.159  1.00  0.00    -0.237 OA
ATOM     74  O   UNL A   1      49.913  31.487  38.482  1.00  0.00    -0.237 OA
ATOM     75  O   UNL A   1      49.257  32.160  36.214  1.00  0.00    -0.744 OA
ENDBRANCH  69  72
ENDBRANCH  42  65
ENDBRANCH  16  17
ENDBRANCH   9  11
ENDBRANCH   8   9
ENDBRANCH   7   8
ENDBRANCH   6   7
ENDBRANCH   5   6
ENDBRANCH   4   5
ENDBRANCH   3   4
ENDBRANCH   2   3
ENDBRANCH   1   2
BRANCH   1  76
ATOM     76  C   UNL A   1      31.551  28.995  24.618  1.00  0.00     0.188 C 
BRANCH  76  77
ATOM     77  O   UNL A   1      32.411  28.392  23.672  1.00  0.00    -0.376 OA
BRANCH  77  78
ATOM     78  C   UNL A   1      31.870  27.309  22.922  1.00  0.00     0.202 C 
BRANCH  78  79
ATOM     79  C   UNL A   1      32.798  26.166  22.452  1.00  0.00     0.261 C 
BRANCH  79  80
ATOM     80  O   UNL A   1      32.850  25.008  23.296  1.00  0.00    -0.463 OA
BRANCH  80  81
ATOM     81  C   UNL A   1      33.480  25.039  24.500  1.00  0.00     0.309 C 
ATOM     82  O   UNL A   1      34.254  25.905  24.888  1.00  0.00    -0.252 OA
BRANCH  81  83
ATOM     83  C   UNL A   1      32.953  23.882  25.344  1.00  0.00     0.111 C 
ATOM     84  C   UNL A   1      32.000  24.370  26.443  1.00  0.00     0.016 C 
ATOM     85  C   UNL A   1      34.008  22.878  25.789  1.00  0.00     0.093 C 
ATOM     86  C   UNL A   1      31.449  23.204  27.255  1.00  0.00     0.001 C 
ATOM     87  C   UNL A   1      33.556  21.883  26.876  1.00  0.00     0.014 C 
ATOM     88  C   UNL A   1      32.601  22.468  27.915  1.00  0.00     0.001 C 
BRANCH  85  89
ATOM     89  C   UNL A   1      34.627  22.180  24.564  1.00  0.00     0.228 C 
ATOM     90  O   UNL A   1      33.855  21.738  23.700  1.00  0.00    -0.274 OA
ATOM     91  N   UNL A   1      35.960  22.046  24.289  1.00  0.00    -0.326 N 
ATOM     92  H   UNL A   1      36.117  21.647  23.402  1.00  0.00     0.169 HD
BRANCH  91  93
ATOM     93  C   UNL A   1      37.161  22.336  24.958  1.00  0.00     0.041 A 
ATOM     94  C   UNL A   1      37.389  23.655  25.333  1.00  0.00     0.028 A 
ATOM     95  C   UNL A   1      38.169  21.427  25.238  1.00  0.00     0.028 A 
ATOM     96  C   UNL A   1      38.482  23.983  26.149  1.00  0.00     0.028 A 
ATOM     97  C   UNL A   1      39.255  21.738  26.059  1.00  0.00     0.028 A 
ATOM     98  C   UNL A   1      39.350  22.998  26.622  1.00  0.00     0.041 A 
BRANCH  98  99
ATOM     99  N   UNL A   1      40.296  23.161  27.647  1.00  0.00    -0.319 N 
ATOM    100  C   UNL A   1      41.185  24.187  27.910  1.00  0.00     0.291 C 
ATOM    101  H   UNL A   1      40.334  22.415  28.289  1.00  0.00     0.170 HD
ATOM    102  O   UNL A   1      41.927  24.069  28.887  1.00  0.00    -0.265 OA
BRANCH 100 103
ATOM    103  C   UNL A   1      41.162  25.365  27.080  1.00  0.00     0.191 A 
ATOM    104  C   UNL A   1      41.766  25.666  25.871  1.00  0.00     0.056 A 
ATOM    105  O   UNL A   1      40.523  26.475  27.561  1.00  0.00    -0.459 OA
ATOM    106  C   UNL A   1      41.558  27.051  25.653  1.00  0.00     0.043 A 
ATOM    107  C   UNL A   1      40.788  27.492  26.703  1.00  0.00     0.196 A 
ENDBRANCH 100 103
ENDBRANCH  98  99
ENDBRANCH  91  93
ENDBRANCH  85  89
ENDBRANCH  81  83
ENDBRANCH  80  81
ENDBRANCH  79  80
ENDBRANCH  78  79
ENDBRANCH  77  78
ENDBRANCH  76  77
ENDBRANCH   1  76
TORSDOF 27
ENDMDL
MODEL 2
REMARK VINA RESULT:      -8.7      2.470      8.321
REMARK SMILES O=C(OCCOCCOCCOCCOC(=O)[C@@H]1CCCC[C@H]1C(=O)Nc1ccc(NC(=O)c2ccco2)cc1)c1ccc(-c2c3nc(c(-c4cccc(S(=O)(=O)[O-])c4F)c4ccc([nH]4)c(-c4cccc(S(=O)(=O)[O-])c4F)c4nc(c(-c5cccc(S(=O)(=O)[O-])c5F)c5ccc2[nH]5)C=C4)C=C3)cc1
REMARK SMILES IDX 10 1 9 2 8 3 7 4 6 5 5 6 4 7 3 8 2 9 1 10 41 11 42 12 103 13
REMARK SMILES IDX 43 14 102 15 44 16 45 17 46 18 96 19 47 20 101 21 95 22
REMARK SMILES IDX 97 23 48 24 100 25 94 26 93 27 49 29 81 30 61 31 80 32 62 33
REMARK SMILES IDX 65 34 79 35 98 36 63 37 64 38 78 40 99 41 66 42 50 43 51 44
REMARK SMILES IDX 59 45 52 46 54 47 60 48 53 49 55 50 56 51 57 52 58 53 82 54
REMARK SMILES IDX 83 55 91 56 84 57 86 58 92 59 85 60 87 61 88 62 89 63 90 64
REMARK SMILES IDX 67 65 68 66 76 67 69 68 71 69 77 70 70 71 72 72 73 73 74 74
REMARK SMILES IDX 75 75 11 76 12 77 13 78 14 79 15 80 16 81 17 82 18 83 19 84
REMARK SMILES IDX 23 85 20 86 22 87 21 88 24 89 25 90 26 91 27 93 28 94 40 95
REMARK SMILES IDX 29 96 39 97 30 98 31 99 32 100 33 102 34 103 35 104 38 105
REMARK SMILES IDX 36 106 37 107
REMARK H PARENT 97 28 65 39 26 92 31 101
REMARK Flexibility Score: inf
ROOT
ATOM      1  C   UNL A   1      32.733  27.463  26.634  1.00  0.00     0.188 C 
ENDROOT
BRANCH   1   2
ATOM      2  O   UNL A   1      31.534  28.177  26.343  1.00  0.00    -0.377 OA
BRANCH   2   3
ATOM      3  C   UNL A   1      31.701  29.460  25.730  1.00  0.00     0.188 C 
BRANCH   3   4
ATOM      4  C   UNL A   1      32.976  30.199  26.138  1.00  0.00     0.188 C 
BRANCH   4   5
ATOM      5  O   UNL A   1      32.725  31.063  27.242  1.00  0.00    -0.376 OA
BRANCH   5   6
ATOM      6  C   UNL A   1      31.643  31.987  27.110  1.00  0.00     0.202 C 
BRANCH   6   7
ATOM      7  C   UNL A   1      32.080  33.438  26.951  1.00  0.00     0.261 C 
BRANCH   7   8
ATOM      8  O   UNL A   1      33.279  33.740  27.676  1.00  0.00    -0.460 OA
BRANCH   8   9
ATOM      9  C   UNL A   1      33.389  34.201  28.949  1.00  0.00     0.338 C 
ATOM     10  O   UNL A   1      32.561  35.026  29.337  1.00  0.00    -0.246 OA
BRANCH   9  11
ATOM     11  C   UNL A   1      34.443  33.760  29.917  1.00  0.00     0.060 A 
ATOM     12  C   UNL A   1      35.266  34.611  30.651  1.00  0.00     0.016 A 
ATOM     13  C   UNL A   1      34.566  32.382  30.154  1.00  0.00     0.016 A 
ATOM     14  C   UNL A   1      36.216  34.146  31.532  1.00  0.00     0.010 A 
ATOM     15  C   UNL A   1      35.514  31.891  31.061  1.00  0.00     0.010 A 
ATOM     16  C   UNL A   1      36.361  32.783  31.725  1.00  0.00    -0.014 A 
BRANCH  16  17
ATOM     17  C   UNL A   1      37.569  32.377  32.453  1.00  0.00     0.031 A 
ATOM     18  C   UNL A   1      38.680  31.782  31.648  1.00  0.00     0.074 A 
ATOM     19  C   UNL A   1      37.731  32.763  33.731  1.00  0.00     0.049 A 
ATOM     20  N   UNL A   1      39.842  31.346  32.042  1.00  0.00    -0.248 NA
ATOM     21  C   UNL A   1      38.465  31.689  30.190  1.00  0.00     0.031 C 
ATOM     22  C   UNL A   1      36.746  33.514  34.519  1.00  0.00     0.029 A 
ATOM     23  N   UNL A   1      38.791  32.612  34.580  1.00  0.00    -0.354 N 
ATOM     24  C   UNL A   1      40.470  30.878  30.895  1.00  0.00     0.074 A 
ATOM     25  C   UNL A   1      39.574  31.094  29.786  1.00  0.00     0.031 C 
ATOM     26  C   UNL A   1      37.249  33.746  35.743  1.00  0.00     0.029 A 
ATOM     27  C   UNL A   1      38.548  33.097  35.844  1.00  0.00     0.049 A 
ATOM     28  H   UNL A   1      39.643  32.197  34.315  1.00  0.00     0.167 HD
ATOM     29  C   UNL A   1      41.693  30.316  30.792  1.00  0.00     0.034 A 
ATOM     30  C   UNL A   1      39.282  32.966  36.964  1.00  0.00     0.034 A 
ATOM     31  C   UNL A   1      42.552  30.125  31.924  1.00  0.00     0.049 A 
ATOM     32  C   UNL A   1      40.593  32.238  36.843  1.00  0.00     0.074 A 
ATOM     33  C   UNL A   1      43.773  29.487  31.988  1.00  0.00     0.029 A 
ATOM     34  N   UNL A   1      42.262  30.581  33.204  1.00  0.00    -0.354 N 
ATOM     35  N   UNL A   1      41.167  31.750  35.766  1.00  0.00    -0.248 NA
ATOM     36  C   UNL A   1      41.366  32.052  38.074  1.00  0.00     0.031 C 
ATOM     37  C   UNL A   1      44.208  29.533  33.317  1.00  0.00     0.029 A 
ATOM     38  C   UNL A   1      43.279  30.239  34.070  1.00  0.00     0.049 A 
ATOM     39  H   UNL A   1      41.448  31.076  33.456  1.00  0.00     0.167 HD
ATOM     40  C   UNL A   1      42.380  31.222  36.184  1.00  0.00     0.074 A 
ATOM     41  C   UNL A   1      42.467  31.481  37.611  1.00  0.00     0.031 C 
ATOM     42  C   UNL A   1      43.330  30.567  35.473  1.00  0.00     0.034 A 
BRANCH  29  43
ATOM     43  C   UNL A   1      42.113  29.834  29.431  1.00  0.00     0.023 A 
ATOM     44  C   UNL A   1      42.955  30.627  28.624  1.00  0.00     0.012 A 
ATOM     45  C   UNL A   1      41.632  28.608  28.935  1.00  0.00     0.148 A 
ATOM     46  C   UNL A   1      43.283  30.220  27.330  1.00  0.00     0.002 A 
ATOM     47  C   UNL A   1      41.998  28.189  27.663  1.00  0.00     0.091 A 
ATOM     48  F   UNL A   1      40.804  27.889  29.706  1.00  0.00    -0.205 F 
ATOM     49  C   UNL A   1      42.810  29.000  26.853  1.00  0.00     0.022 A 
BRANCH  47  50
ATOM     50  S   UNL A   1      41.487  26.611  26.976  1.00  0.00     0.127 S 
ATOM     51  O   UNL A   1      40.033  26.769  26.922  1.00  0.00    -0.237 OA
ATOM     52  O   UNL A   1      42.150  26.621  25.672  1.00  0.00    -0.237 OA
ATOM     53  O   UNL A   1      41.965  25.593  27.900  1.00  0.00    -0.744 OA
ENDBRANCH  47  50
ENDBRANCH  29  43
BRANCH  30  54
ATOM     54  C   UNL A   1      38.777  33.471  38.273  1.00  0.00     0.023 A 
ATOM     55  C   UNL A   1      39.302  34.653  38.829  1.00  0.00     0.012 A 
ATOM     56  C   UNL A   1      37.779  32.770  38.983  1.00  0.00     0.148 A 
ATOM     57  C   UNL A   1      38.876  35.101  40.082  1.00  0.00     0.002 A 
ATOM     58  C   UNL A   1      37.318  33.253  40.201  1.00  0.00     0.091 A 
ATOM     59  F   UNL A   1      37.301  31.634  38.454  1.00  0.00    -0.205 F 
ATOM     60  C   UNL A   1      37.879  34.407  40.764  1.00  0.00     0.022 A 
BRANCH  58  61
ATOM     61  S   UNL A   1      35.952  32.484  41.080  1.00  0.00     0.127 S 
ATOM     62  O   UNL A   1      36.637  31.446  41.847  1.00  0.00    -0.237 OA
ATOM     63  O   UNL A   1      35.436  33.599  41.877  1.00  0.00    -0.237 OA
ATOM     64  O   UNL A   1      35.038  32.015  40.049  1.00  0.00    -0.744 OA
ENDBRANCH  58  61
ENDBRANCH  30  54
BRANCH  42  65
ATOM     65  C   UNL A   1      44.559  30.136  36.220  1.00  0.00     0.023 A 
ATOM     66  C   UNL A   1      45.683  30.983  36.278  1.00  0.00     0.012 A 
ATOM     67  C   UNL A   1      44.561  28.921  36.929  1.00  0.00     0.148 A 
ATOM     68  C   UNL A   1      46.809  30.605  37.004  1.00  0.00     0.002 A 
ATOM     69  C   UNL A   1      45.663  28.581  37.700  1.00  0.00     0.091 A 
ATOM     70  F   UNL A   1      43.485  28.126  36.841  1.00  0.00    -0.205 F 
ATOM     71  C   UNL A   1      46.793  29.413  37.725  1.00  0.00     0.022 A 
BRANCH  69  72
ATOM     72  S   UNL A   1      45.680  27.126  38.748  1.00  0.00     0.127 S 
ATOM     73  O   UNL A   1      46.264  27.654  39.979  1.00  0.00    -0.237 OA
ATOM     74  O   UNL A   1      44.259  26.793  38.838  1.00  0.00    -0.237 OA
ATOM     75  O   UNL A   1      46.488  26.136  38.048  1.00  0.00    -0.744 OA
ENDBRANCH  69  72
ENDBRANCH  42  65
ENDBRANCH  16  17
ENDBRANCH   9  11
ENDBRANCH   8   9
ENDBRANCH   7   8
ENDBRANCH   6   7
ENDBRANCH   5   6
ENDBRANCH   4   5
ENDBRANCH   3   4
ENDBRANCH   2   3
ENDBRANCH   1   2
BRANCH   1  76
ATOM     76  C   UNL A   1      33.721  27.161  25.498  1.00  0.00     0.188 C 
BRANCH  76  77
ATOM     77  O   UNL A   1      34.358  25.908  25.648  1.00  0.00    -0.376 OA
BRANCH  77  78
ATOM     78  C   UNL A   1      33.836  24.834  24.873  1.00  0.00     0.202 C 
BRANCH  78  79
ATOM     79  C   UNL A   1      34.564  24.400  23.581  1.00  0.00     0.261 C 
BRANCH  79  80
ATOM     80  O   UNL A   1      35.078  23.060  23.567  1.00  0.00    -0.463 OA
BRANCH  80  81
ATOM     81  C   UNL A   1      36.407  22.816  23.426  1.00  0.00     0.309 C 
ATOM     82  O   UNL A   1      37.029  22.787  22.372  1.00  0.00    -0.252 OA
BRANCH  81  83
ATOM     83  C   UNL A   1      37.025  22.721  24.818  1.00  0.00     0.111 C 
ATOM     84  C   UNL A   1      37.506  24.089  25.319  1.00  0.00     0.016 C 
ATOM     85  C   UNL A   1      38.003  21.571  25.011  1.00  0.00     0.093 C 
ATOM     86  C   UNL A   1      38.085  23.991  26.725  1.00  0.00     0.001 C 
ATOM     87  C   UNL A   1      38.852  21.634  26.295  1.00  0.00     0.014 C 
ATOM     88  C   UNL A   1      39.271  23.043  26.711  1.00  0.00     0.001 C 
BRANCH  85  89
ATOM     89  C   UNL A   1      37.276  20.222  24.844  1.00  0.00     0.228 C 
ATOM     90  O   UNL A   1      37.943  19.252  24.454  1.00  0.00    -0.274 OA
ATOM     91  N   UNL A   1      35.969  19.957  25.143  1.00  0.00    -0.326 N 
ATOM     92  H   UNL A   1      35.753  19.002  25.045  1.00  0.00     0.169 HD
BRANCH  91  93
ATOM     93  C   UNL A   1      34.858  20.711  25.557  1.00  0.00     0.041 A 
ATOM     94  C   UNL A   1      33.685  20.594  24.820  1.00  0.00     0.028 A 
ATOM     95  C   UNL A   1      34.839  21.607  26.616  1.00  0.00     0.028 A 
ATOM     96  C   UNL A   1      32.497  21.185  25.276  1.00  0.00     0.028 A 
ATOM     97  C   UNL A   1      33.662  22.192  27.085  1.00  0.00     0.028 A 
ATOM     98  C   UNL A   1      32.455  21.881  26.483  1.00  0.00     0.041 A 
BRANCH  98  99
ATOM     99  N   UNL A   1      31.291  22.271  27.166  1.00  0.00    -0.319 N 
ATOM    100  C   UNL A   1      30.300  23.175  26.831  1.00  0.00     0.291 C 
ATOM    101  H   UNL A   1      31.158  21.825  28.034  1.00  0.00     0.170 HD
ATOM    102  O   UNL A   1      29.377  23.341  27.632  1.00  0.00    -0.265 OA
BRANCH 100 103
ATOM    103  C   UNL A   1      30.351  23.829  25.548  1.00  0.00     0.191 A 
ATOM    104  C   UNL A   1      30.695  23.378  24.285  1.00  0.00     0.056 A 
ATOM    105  O   UNL A   1      30.129  25.178  25.508  1.00  0.00    -0.459 OA
ATOM    106  C   UNL A   1      30.771  24.526  23.457  1.00  0.00     0.043 A 
ATOM    107  C   UNL A   1      30.407  25.591  24.246  1.00  0.00     0.196 A 
ENDBRANCH 100 103
ENDBRANCH  98  99
ENDBRANCH  91  93
ENDBRANCH  85  89
ENDBRANCH  81  83
ENDBRANCH  80  81
ENDBRANCH  79  80
ENDBRANCH  78  79
ENDBRANCH  77  78
ENDBRANCH  76  77
ENDBRANCH   1  76
TORSDOF 27
ENDMDL
MODEL 3
REMARK VINA RESULT:      -8.7      3.055      5.293
REMARK SMILES O=C(OCCOCCOCCOCCOC(=O)[C@@H]1CCCC[C@H]1C(=O)Nc1ccc(NC(=O)c2ccco2)cc1)c1ccc(-c2c3nc(c(-c4cccc(S(=O)(=O)[O-])c4F)c4ccc([nH]4)c(-c4cccc(S(=O)(=O)[O-])c4F)c4nc(c(-c5cccc(S(=O)(=O)[O-])c5F)c5ccc2[nH]5)C=C4)C=C3)cc1
REMARK SMILES IDX 10 1 9 2 8 3 7 4 6 5 5 6 4 7 3 8 2 9 1 10 41 11 42 12 103 13
REMARK SMILES IDX 43 14 102 15 44 16 45 17 46 18 96 19 47 20 101 21 95 22
REMARK SMILES IDX 97 23 48 24 100 25 94 26 93 27 49 29 81 30 61 31 80 32 62 33
REMARK SMILES IDX 65 34 79 35 98 36 63 37 64 38 78 40 99 41 66 42 50 43 51 44
REMARK SMILES IDX 59 45 52 46 54 47 60 48 53 49 55 50 56 51 57 52 58 53 82 54
REMARK SMILES IDX 83 55 91 56 84 57 86 58 92 59 85 60 87 61 88 62 89 63 90 64
REMARK SMILES IDX 67 65 68 66 76 67 69 68 71 69 77 70 70 71 72 72 73 73 74 74
REMARK SMILES IDX 75 75 11 76 12 77 13 78 14 79 15 80 16 81 17 82 18 83 19 84
REMARK SMILES IDX 23 85 20 86 22 87 21 88 24 89 25 90 26 91 27 93 28 94 40 95
REMARK SMILES IDX 29 96 39 97 30 98 31 99 32 100 33 102 34 103 35 104 38 105
REMARK SMILES IDX 36 106 37 107
REMARK H PARENT 97 28 65 39 26 92 31 101
REMARK Flexibility Score: inf
ROOT
ATOM      1  C   UNL A   1      32.912  27.621  26.602  1.00  0.00     0.188 C 
ENDROOT
BRANCH   1   2
ATOM      2  O   UNL A   1      31.677  28.332  26.627  1.00  0.00    -0.377 OA
BRANCH   2   3
ATOM      3  C   UNL A   1      31.426  29.192  25.510  1.00  0.00     0.188 C 
BRANCH   3   4
ATOM      4  C   UNL A   1      32.605  30.083  25.114  1.00  0.00     0.188 C 
BRANCH   4   5
ATOM      5  O   UNL A   1      33.130  30.756  26.255  1.00  0.00    -0.376 OA
BRANCH   5   6
ATOM      6  C   UNL A   1      32.189  31.373  27.134  1.00  0.00     0.202 C 
BRANCH   6   7
ATOM      7  C   UNL A   1      32.235  32.896  27.126  1.00  0.00     0.261 C 
BRANCH   7   8
ATOM      8  O   UNL A   1      33.543  33.414  27.405  1.00  0.00    -0.460 OA
BRANCH   8   9
ATOM      9  C   UNL A   1      34.110  33.635  28.619  1.00  0.00     0.338 C 
ATOM     10  O   UNL A   1      33.596  34.483  29.349  1.00  0.00    -0.246 OA
BRANCH   9  11
ATOM     11  C   UNL A   1      35.310  32.904  29.134  1.00  0.00     0.060 A 
ATOM     12  C   UNL A   1      35.283  31.676  29.792  1.00  0.00     0.016 A 
ATOM     13  C   UNL A   1      36.570  33.466  28.873  1.00  0.00     0.016 A 
ATOM     14  C   UNL A   1      36.423  31.049  30.239  1.00  0.00     0.010 A 
ATOM     15  C   UNL A   1      37.743  32.833  29.303  1.00  0.00     0.010 A 
ATOM     16  C   UNL A   1      37.658  31.634  30.017  1.00  0.00    -0.014 A 
BRANCH  16  17
ATOM     17  C   UNL A   1      38.775  31.045  30.766  1.00  0.00     0.031 A 
ATOM     18  C   UNL A   1      38.923  31.453  32.197  1.00  0.00     0.074 A 
ATOM     19  C   UNL A   1      39.455  30.013  30.236  1.00  0.00     0.049 A 
ATOM     20  N   UNL A   1      39.814  31.084  33.072  1.00  0.00    -0.248 NA
ATOM     21  C   UNL A   1      37.909  32.386  32.728  1.00  0.00     0.031 C 
ATOM     22  C   UNL A   1      39.228  29.447  28.900  1.00  0.00     0.029 A 
ATOM     23  N   UNL A   1      40.446  29.234  30.763  1.00  0.00    -0.354 N 
ATOM     24  C   UNL A   1      39.503  31.779  34.233  1.00  0.00     0.074 A 
ATOM     25  C   UNL A   1      38.335  32.581  33.964  1.00  0.00     0.031 C 
ATOM     26  C   UNL A   1      40.069  28.417  28.712  1.00  0.00     0.029 A 
ATOM     27  C   UNL A   1      40.936  28.304  29.876  1.00  0.00     0.049 A 
ATOM     28  H   UNL A   1      40.777  29.329  31.685  1.00  0.00     0.167 HD
ATOM     29  C   UNL A   1      40.149  31.742  35.418  1.00  0.00     0.034 A 
ATOM     30  C   UNL A   1      42.009  27.501  29.988  1.00  0.00     0.034 A 
ATOM     31  C   UNL A   1      41.307  30.926  35.640  1.00  0.00     0.049 A 
ATOM     32  C   UNL A   1      42.778  27.561  31.280  1.00  0.00     0.074 A 
ATOM     33  C   UNL A   1      42.118  30.857  36.752  1.00  0.00     0.029 A 
ATOM     34  N   UNL A   1      41.814  30.029  34.708  1.00  0.00    -0.354 N 
ATOM     35  N   UNL A   1      42.514  28.256  32.364  1.00  0.00    -0.248 NA
ATOM     36  C   UNL A   1      43.976  26.723  31.379  1.00  0.00     0.031 C 
ATOM     37  C   UNL A   1      43.136  29.936  36.480  1.00  0.00     0.029 A 
ATOM     38  C   UNL A   1      42.930  29.400  35.216  1.00  0.00     0.049 A 
ATOM     39  H   UNL A   1      41.431  29.866  33.815  1.00  0.00     0.167 HD
ATOM     40  C   UNL A   1      43.497  27.921  33.283  1.00  0.00     0.074 A 
ATOM     41  C   UNL A   1      44.343  26.935  32.634  1.00  0.00     0.031 C 
ATOM     42  C   UNL A   1      43.704  28.389  34.539  1.00  0.00     0.034 A 
BRANCH  29  43
ATOM     43  C   UNL A   1      39.640  32.649  36.504  1.00  0.00     0.023 A 
ATOM     44  C   UNL A   1      38.555  32.250  37.312  1.00  0.00     0.012 A 
ATOM     45  C   UNL A   1      40.214  33.920  36.693  1.00  0.00     0.148 A 
ATOM     46  C   UNL A   1      38.027  33.120  38.268  1.00  0.00     0.002 A 
ATOM     47  C   UNL A   1      39.713  34.762  37.677  1.00  0.00     0.091 A 
ATOM     48  F   UNL A   1      41.221  34.290  35.889  1.00  0.00    -0.205 F 
ATOM     49  C   UNL A   1      38.611  34.371  38.454  1.00  0.00     0.022 A 
BRANCH  47  50
ATOM     50  S   UNL A   1      40.425  36.371  38.032  1.00  0.00     0.127 S 
ATOM     51  O   UNL A   1      40.426  36.993  36.708  1.00  0.00    -0.237 OA
ATOM     52  O   UNL A   1      39.451  36.932  38.969  1.00  0.00    -0.237 OA
ATOM     53  O   UNL A   1      41.743  36.115  38.596  1.00  0.00    -0.744 OA
ENDBRANCH  47  50
ENDBRANCH  29  43
BRANCH  30  54
ATOM     54  C   UNL A   1      42.444  26.641  28.850  1.00  0.00     0.023 A 
ATOM     55  C   UNL A   1      41.924  25.341  28.702  1.00  0.00     0.012 A 
ATOM     56  C   UNL A   1      43.390  27.106  27.911  1.00  0.00     0.148 A 
ATOM     57  C   UNL A   1      42.369  24.508  27.673  1.00  0.00     0.002 A 
ATOM     58  C   UNL A   1      43.785  26.294  26.856  1.00  0.00     0.091 A 
ATOM     59  F   UNL A   1      43.894  28.338  28.073  1.00  0.00    -0.205 F 
ATOM     60  C   UNL A   1      43.292  24.987  26.745  1.00  0.00     0.022 A 
BRANCH  58  61
ATOM     61  S   UNL A   1      44.874  26.880  25.552  1.00  0.00     0.127 S 
ATOM     62  O   UNL A   1      44.073  27.943  24.949  1.00  0.00    -0.237 OA
ATOM     63  O   UNL A   1      46.037  27.342  26.312  1.00  0.00    -0.237 OA
ATOM     64  O   UNL A   1      45.133  25.722  24.709  1.00  0.00    -0.744 OA
ENDBRANCH  58  61
ENDBRANCH  30  54
BRANCH  42  65
ATOM     65  C   UNL A   1      44.857  27.801  35.299  1.00  0.00     0.023 A 
ATOM     66  C   UNL A   1      44.705  26.574  35.973  1.00  0.00     0.012 A 
ATOM     67  C   UNL A   1      46.112  28.435  35.275  1.00  0.00     0.148 A 
ATOM     68  C   UNL A   1      45.783  26.004  36.646  1.00  0.00     0.002 A 
ATOM     69  C   UNL A   1      47.196  27.831  35.896  1.00  0.00     0.091 A 
ATOM     70  F   UNL A   1      46.224  29.613  34.643  1.00  0.00    -0.205 F 
ATOM     71  C   UNL A   1      47.029  26.625  36.595  1.00  0.00     0.022 A 
BRANCH  69  72
ATOM     72  S   UNL A   1      48.855  28.501  35.781  1.00  0.00     0.127 S 
ATOM     73  O   UNL A   1      48.807  29.585  36.760  1.00  0.00    -0.237 OA
ATOM     74  O   UNL A   1      49.678  27.357  36.176  1.00  0.00    -0.237 OA
ATOM     75  O   UNL A   1      49.026  28.917  34.395  1.00  0.00    -0.744 OA
ENDBRANCH  69  72
ENDBRANCH  42  65
ENDBRANCH  16  17
ENDBRANCH   9  11
ENDBRANCH   8   9
ENDBRANCH   7   8
ENDBRANCH   6   7
ENDBRANCH   5   6
ENDBRANCH   4   5
ENDBRANCH   3   4
ENDBRANCH   2   3
ENDBRANCH   1   2
BRANCH   1  76
ATOM     76  C   UNL A   1      33.412  27.031  25.276  1.00  0.00     0.188 C 
BRANCH  76  77
ATOM     77  O   UNL A   1      33.994  25.752  25.434  1.00  0.00    -0.376 OA
BRANCH  77  78
ATOM     78  C   UNL A   1      33.647  24.773  24.460  1.00  0.00     0.202 C 
BRANCH  78  79
ATOM     79  C   UNL A   1      34.657  24.409  23.349  1.00  0.00     0.261 C 
BRANCH  79  80
ATOM     80  O   UNL A   1      35.141  23.059  23.352  1.00  0.00    -0.463 OA
BRANCH  80  81
ATOM     81  C   UNL A   1      36.470  22.785  23.296  1.00  0.00     0.309 C 
ATOM     82  O   UNL A   1      37.145  22.682  22.280  1.00  0.00    -0.252 OA
BRANCH  81  83
ATOM     83  C   UNL A   1      37.013  22.761  24.722  1.00  0.00     0.111 C 
ATOM     84  C   UNL A   1      37.471  24.153  25.177  1.00  0.00     0.016 C 
ATOM     85  C   UNL A   1      37.975  21.622  25.026  1.00  0.00     0.093 C 
ATOM     86  C   UNL A   1      37.974  24.127  26.615  1.00  0.00     0.001 C 
ATOM     87  C   UNL A   1      38.756  21.751  26.348  1.00  0.00     0.014 C 
ATOM     88  C   UNL A   1      39.157  23.179  26.713  1.00  0.00     0.001 C 
BRANCH  85  89
ATOM     89  C   UNL A   1      37.255  20.267  24.891  1.00  0.00     0.228 C 
ATOM     90  O   UNL A   1      37.927  19.290  24.527  1.00  0.00    -0.274 OA
ATOM     91  N   UNL A   1      35.948  20.004  25.193  1.00  0.00    -0.326 N 
ATOM     92  H   UNL A   1      35.735  19.046  25.117  1.00  0.00     0.169 HD
BRANCH  91  93
ATOM     93  C   UNL A   1      34.832  20.764  25.585  1.00  0.00     0.041 A 
ATOM     94  C   UNL A   1      33.653  20.600  24.867  1.00  0.00     0.028 A 
ATOM     95  C   UNL A   1      34.815  21.707  26.601  1.00  0.00     0.028 A 
ATOM     96  C   UNL A   1      32.463  21.198  25.309  1.00  0.00     0.028 A 
ATOM     97  C   UNL A   1      33.636  22.299  27.058  1.00  0.00     0.028 A 
ATOM     98  C   UNL A   1      32.426  21.948  26.484  1.00  0.00     0.041 A 
BRANCH  98  99
ATOM     99  N   UNL A   1      31.265  22.356  27.162  1.00  0.00    -0.319 N 
ATOM    100  C   UNL A   1      30.308  23.300  26.839  1.00  0.00     0.291 C 
ATOM    101  H   UNL A   1      31.106  21.890  28.014  1.00  0.00     0.170 HD
ATOM    102  O   UNL A   1      29.380  23.473  27.632  1.00  0.00    -0.265 OA
BRANCH 100 103
ATOM    103  C   UNL A   1      30.399  23.988  25.576  1.00  0.00     0.191 A 
ATOM    104  C   UNL A   1      30.198  25.310  25.217  1.00  0.00     0.056 A 
ATOM    105  O   UNL A   1      30.625  23.238  24.454  1.00  0.00    -0.459 OA
ATOM    106  C   UNL A   1      30.214  25.348  23.801  1.00  0.00     0.043 A 
ATOM    107  C   UNL A   1      30.488  24.065  23.387  1.00  0.00     0.196 A 
ENDBRANCH 100 103
ENDBRANCH  98  99
ENDBRANCH  91  93
ENDBRANCH  85  89
ENDBRANCH  81  83
ENDBRANCH  80  81
ENDBRANCH  79  80
ENDBRANCH  78  79
ENDBRANCH  77  78
ENDBRANCH  76  77
ENDBRANCH   1  76
TORSDOF 27
ENDMDL
