MODEL 1
REMARK VINA RESULT:      -9.8      0.000      0.000
REMARK SMILES C[C@@H](NC(=O)/C(=C/c1ccc(Cl)cc1)NC(=O)c1ccc(C(C)(C)C)cc1)C(=O)OCCOCCOCCOCCOC(=O)c1ccc(-c2c3nc(c(-c4cccc(S(=O)(=O)[O-])c4F)c4ccc([nH]4)c(-c4cccc(S(=O)(=O)[O-])c4F)c4nc(c(-c5cccc(S(=O)(=O)[O-])c5F)c5ccc2[nH]5)C=C4)C=C3)cc1
REMARK SMILES IDX 35 1 34 2 33 3 32 4 31 5 30 6 28 7 29 8 2 9 1 10 3 11 4 12
REMARK SMILES IDX 5 14 6 15 7 16 15 17 16 18 17 20 18 21 19 22 27 23 20 24
REMARK SMILES IDX 26 25 21 26 22 27 23 28 24 29 25 30 8 31 9 32 14 33 10 34
REMARK SMILES IDX 13 35 11 36 12 37 36 38 37 39 38 40 39 41 40 42 41 43 42 44
REMARK SMILES IDX 43 45 44 46 45 47 46 48 107 49 47 50 106 51 48 52 49 53
REMARK SMILES IDX 50 54 100 55 51 56 105 57 99 58 101 59 52 60 104 61 98 62
REMARK SMILES IDX 97 63 53 65 85 66 65 67 84 68 66 69 69 70 83 71 102 72 67 73
REMARK SMILES IDX 68 74 82 76 103 77 70 78 54 79 55 80 63 81 56 82 58 83 64 84
REMARK SMILES IDX 57 85 59 86 60 87 61 88 62 89 86 90 87 91 95 92 88 93 90 94
REMARK SMILES IDX 96 95 89 96 91 97 92 98 93 99 94 100 71 101 72 102 80 103
REMARK SMILES IDX 73 104 75 105 81 106 74 107 76 108 77 109 78 110 79 111
REMARK H PARENT 3 13 15 19 101 64 69 75
REMARK Flexibility Score: inf
ROOT
ATOM      1  C   UNL A   1      32.998  24.821  23.943  1.00  0.00     0.188 C 
ENDROOT
BRANCH   1   2
ATOM      2  C   UNL A   1      33.217  26.302  24.300  1.00  0.00     0.188 C 
BRANCH   2   3
ATOM      3  O   UNL A   1      32.365  27.355  23.866  1.00  0.00    -0.376 OA
BRANCH   3   4
ATOM      4  C   UNL A   1      31.716  28.266  24.722  1.00  0.00     0.202 C 
BRANCH   4   5
ATOM      5  C   UNL A   1      32.316  29.632  25.075  1.00  0.00     0.261 C 
BRANCH   5   6
ATOM      6  O   UNL A   1      33.031  29.832  26.288  1.00  0.00    -0.462 OA
BRANCH   6   7
ATOM      7  C   UNL A   1      32.802  30.960  26.991  1.00  0.00     0.328 C 
ATOM      8  O   UNL A   1      31.959  31.815  26.761  1.00  0.00    -0.250 OA
BRANCH   7   9
ATOM      9  C   UNL A   1      33.885  31.198  28.008  1.00  0.00     0.189 C 
ATOM     10  C   UNL A   1      35.269  30.938  27.408  1.00  0.00     0.043 C 
BRANCH   9  11
ATOM     11  N   UNL A   1      33.699  32.556  28.548  1.00  0.00    -0.338 N 
ATOM     12  C   UNL A   1      34.677  33.534  28.454  1.00  0.00     0.268 C 
ATOM     13  H   UNL A   1      32.849  32.776  28.993  1.00  0.00     0.164 HD
ATOM     14  O   UNL A   1      34.725  34.288  27.486  1.00  0.00    -0.268 OA
BRANCH  12  15
ATOM     15  C   UNL A   1      35.618  33.698  29.641  1.00  0.00     0.107 C 
ATOM     16  C   UNL A   1      36.922  33.911  29.348  1.00  0.00     0.040 C 
BRANCH  15  17
ATOM     17  N   UNL A   1      35.179  33.713  30.945  1.00  0.00    -0.317 N 
ATOM     18  C   UNL A   1      35.345  32.914  32.042  1.00  0.00     0.255 C 
ATOM     19  H   UNL A   1      34.606  34.490  31.135  1.00  0.00     0.170 HD
ATOM     20  O   UNL A   1      34.715  33.164  33.067  1.00  0.00    -0.269 OA
BRANCH  18  21
ATOM     21  C   UNL A   1      36.175  31.720  31.985  1.00  0.00     0.040 A 
ATOM     22  C   UNL A   1      35.941  30.821  30.952  1.00  0.00     0.014 A 
ATOM     23  C   UNL A   1      37.164  31.493  32.936  1.00  0.00     0.014 A 
ATOM     24  C   UNL A   1      36.774  29.718  30.817  1.00  0.00     0.005 A 
ATOM     25  C   UNL A   1      38.009  30.391  32.780  1.00  0.00     0.005 A 
ATOM     26  C   UNL A   1      37.855  29.504  31.696  1.00  0.00    -0.043 A 
BRANCH  26  27
ATOM     27  C   UNL A   1      38.792  28.308  31.471  1.00  0.00    -0.013 C 
ATOM     28  C   UNL A   1      38.658  27.862  30.004  1.00  0.00     0.016 C 
ATOM     29  C   UNL A   1      40.260  28.704  31.759  1.00  0.00     0.016 C 
ATOM     30  C   UNL A   1      38.477  27.101  32.382  1.00  0.00     0.016 C 
ENDBRANCH  26  27
ENDBRANCH  18  21
ENDBRANCH  15  17
BRANCH  16  31
ATOM     31  C   UNL A   1      38.175  33.871  30.169  1.00  0.00    -0.023 A 
ATOM     32  C   UNL A   1      38.440  34.652  31.311  1.00  0.00     0.010 A 
ATOM     33  C   UNL A   1      39.065  32.806  29.915  1.00  0.00     0.010 A 
ATOM     34  C   UNL A   1      39.534  34.387  32.152  1.00  0.00     0.021 A 
ATOM     35  C   UNL A   1      40.141  32.518  30.771  1.00  0.00     0.021 A 
ATOM     36  C   UNL A   1      40.368  33.309  31.890  1.00  0.00     0.041 A 
ATOM     37  Cl  UNL A   1      41.621  32.905  32.996  1.00  0.00    -0.084 Cl
ENDBRANCH  16  31
ENDBRANCH  12  15
ENDBRANCH   9  11
ENDBRANCH   7   9
ENDBRANCH   6   7
ENDBRANCH   5   6
ENDBRANCH   4   5
ENDBRANCH   3   4
ENDBRANCH   2   3
ENDBRANCH   1   2
BRANCH   1  38
ATOM     38  O   UNL A   1      33.725  23.872  24.694  1.00  0.00    -0.377 OA
BRANCH  38  39
ATOM     39  C   UNL A   1      33.330  22.512  24.705  1.00  0.00     0.188 C 
BRANCH  39  40
ATOM     40  C   UNL A   1      34.406  21.414  24.783  1.00  0.00     0.188 C 
BRANCH  40  41
ATOM     41  O   UNL A   1      35.691  21.865  24.386  1.00  0.00    -0.376 OA
BRANCH  41  42
ATOM     42  C   UNL A   1      36.712  21.934  25.367  1.00  0.00     0.202 C 
BRANCH  42  43
ATOM     43  C   UNL A   1      37.996  21.135  25.109  1.00  0.00     0.261 C 
BRANCH  43  44
ATOM     44  O   UNL A   1      39.175  21.476  25.864  1.00  0.00    -0.460 OA
BRANCH  44  45
ATOM     45  C   UNL A   1      40.198  20.593  25.999  1.00  0.00     0.338 C 
ATOM     46  O   UNL A   1      40.185  19.420  25.736  1.00  0.00    -0.246 OA
BRANCH  45  47
ATOM     47  C   UNL A   1      41.425  21.395  26.287  1.00  0.00     0.060 A 
ATOM     48  C   UNL A   1      42.684  20.777  26.200  1.00  0.00     0.016 A 
ATOM     49  C   UNL A   1      41.336  22.754  26.594  1.00  0.00     0.016 A 
ATOM     50  C   UNL A   1      43.851  21.504  26.470  1.00  0.00     0.010 A 
ATOM     51  C   UNL A   1      42.496  23.472  26.890  1.00  0.00     0.010 A 
ATOM     52  C   UNL A   1      43.754  22.840  26.875  1.00  0.00    -0.014 A 
BRANCH  52  53
ATOM     53  C   UNL A   1      44.882  23.507  27.572  1.00  0.00     0.031 A 
ATOM     54  C   UNL A   1      44.733  23.731  29.053  1.00  0.00     0.074 A 
ATOM     55  C   UNL A   1      45.959  23.987  26.925  1.00  0.00     0.049 A 
ATOM     56  N   UNL A   1      45.453  24.458  29.864  1.00  0.00    -0.248 NA
ATOM     57  C   UNL A   1      43.594  23.056  29.697  1.00  0.00     0.031 C 
ATOM     58  C   UNL A   1      46.233  23.827  25.501  1.00  0.00     0.029 A 
ATOM     59  N   UNL A   1      46.996  24.762  27.389  1.00  0.00    -0.354 N 
ATOM     60  C   UNL A   1      44.820  24.378  31.099  1.00  0.00     0.074 A 
ATOM     61  C   UNL A   1      43.664  23.527  30.931  1.00  0.00     0.031 C 
ATOM     62  C   UNL A   1      47.334  24.536  25.192  1.00  0.00     0.029 A 
ATOM     63  C   UNL A   1      47.812  25.232  26.387  1.00  0.00     0.049 A 
ATOM     64  H   UNL A   1      47.140  24.961  28.342  1.00  0.00     0.167 HD
ATOM     65  C   UNL A   1      45.163  24.963  32.269  1.00  0.00     0.034 A 
ATOM     66  C   UNL A   1      48.794  26.159  26.420  1.00  0.00     0.034 A 
ATOM     67  C   UNL A   1      46.318  25.799  32.437  1.00  0.00     0.049 A 
ATOM     68  C   UNL A   1      49.159  26.815  27.729  1.00  0.00     0.074 A 
ATOM     69  C   UNL A   1      46.791  26.385  33.597  1.00  0.00     0.029 A 
ATOM     70  N   UNL A   1      47.166  26.189  31.414  1.00  0.00    -0.354 N 
ATOM     71  N   UNL A   1      48.624  26.647  28.914  1.00  0.00    -0.248 NA
ATOM     72  C   UNL A   1      50.277  27.771  27.711  1.00  0.00     0.031 C 
ATOM     73  C   UNL A   1      47.903  27.166  33.266  1.00  0.00     0.029 A 
ATOM     74  C   UNL A   1      48.150  27.025  31.909  1.00  0.00     0.049 A 
ATOM     75  H   UNL A   1      47.082  25.911  30.473  1.00  0.00     0.167 HD
ATOM     76  C   UNL A   1      49.361  27.443  29.788  1.00  0.00     0.074 A 
ATOM     77  C   UNL A   1      50.385  28.091  28.995  1.00  0.00     0.031 C 
ATOM     78  C   UNL A   1      49.199  27.623  31.122  1.00  0.00     0.034 A 
BRANCH  65  79
ATOM     79  C   UNL A   1      44.263  24.724  33.450  1.00  0.00     0.023 A 
ATOM     80  C   UNL A   1      44.180  23.442  34.031  1.00  0.00     0.012 A 
ATOM     81  C   UNL A   1      43.500  25.778  33.990  1.00  0.00     0.148 A 
ATOM     82  C   UNL A   1      43.315  23.202  35.097  1.00  0.00     0.002 A 
ATOM     83  C   UNL A   1      42.681  25.543  35.086  1.00  0.00     0.091 A 
ATOM     84  F   UNL A   1      43.568  26.983  33.405  1.00  0.00    -0.205 F 
ATOM     85  C   UNL A   1      42.574  24.253  35.631  1.00  0.00     0.022 A 
BRANCH  83  86
ATOM     86  S   UNL A   1      41.754  26.853  35.891  1.00  0.00     0.127 S 
ATOM     87  O   UNL A   1      42.825  27.748  36.325  1.00  0.00    -0.237 OA
ATOM     88  O   UNL A   1      40.934  27.369  34.795  1.00  0.00    -0.237 OA
ATOM     89  O   UNL A   1      41.000  26.210  36.959  1.00  0.00    -0.744 OA
ENDBRANCH  83  86
ENDBRANCH  65  79
BRANCH  66  90
ATOM     90  C   UNL A   1      49.495  26.527  25.158  1.00  0.00     0.023 A 
ATOM     91  C   UNL A   1      50.860  26.224  24.997  1.00  0.00     0.012 A 
ATOM     92  C   UNL A   1      48.796  27.135  24.095  1.00  0.00     0.148 A 
ATOM     93  C   UNL A   1      51.521  26.532  23.806  1.00  0.00     0.002 A 
ATOM     94  C   UNL A   1      49.444  27.385  22.891  1.00  0.00     0.091 A 
ATOM     95  F   UNL A   1      47.502  27.429  24.276  1.00  0.00    -0.205 F 
ATOM     96  C   UNL A   1      50.812  27.099  22.750  1.00  0.00     0.022 A 
BRANCH  94  97
ATOM     97  S   UNL A   1      48.582  27.990  21.437  1.00  0.00     0.127 S 
ATOM     98  O   UNL A   1      49.650  28.679  20.718  1.00  0.00    -0.237 OA
ATOM     99  O   UNL A   1      48.125  26.745  20.821  1.00  0.00    -0.237 OA
ATOM    100  O   UNL A   1      47.511  28.844  21.934  1.00  0.00    -0.744 OA
ENDBRANCH  94  97
ENDBRANCH  66  90
BRANCH  78 101
ATOM    101  C   UNL A   1      50.178  28.509  31.851  1.00  0.00     0.023 A 
ATOM    102  C   UNL A   1      49.880  29.868  32.066  1.00  0.00     0.012 A 
ATOM    103  C   UNL A   1      51.337  27.954  32.432  1.00  0.00     0.148 A 
ATOM    104  C   UNL A   1      50.729  30.665  32.834  1.00  0.00     0.002 A 
ATOM    105  C   UNL A   1      52.151  28.741  33.236  1.00  0.00     0.091 A 
ATOM    106  F   UNL A   1      51.609  26.661  32.201  1.00  0.00    -0.205 F 
ATOM    107  C   UNL A   1      51.855  30.099  33.431  1.00  0.00     0.022 A 
BRANCH 105 108
ATOM    108  S   UNL A   1      53.561  28.074  34.130  1.00  0.00     0.127 S 
ATOM    109  O   UNL A   1      54.486  27.767  33.040  1.00  0.00    -0.237 OA
ATOM    110  O   UNL A   1      53.958  29.206  34.967  1.00  0.00    -0.237 OA
ATOM    111  O   UNL A   1      53.063  26.920  34.866  1.00  0.00    -0.744 OA
ENDBRANCH 105 108
ENDBRANCH  78 101
ENDBRANCH  52  53
ENDBRANCH  45  47
ENDBRANCH  44  45
ENDBRANCH  43  44
ENDBRANCH  42  43
ENDBRANCH  41  42
ENDBRANCH  40  41
ENDBRANCH  39  40
ENDBRANCH  38  39
ENDBRANCH   1  38
TORSDOF 29
ENDMDL
MODEL 2
REMARK VINA RESULT:      -9.3      2.067      2.677
REMARK SMILES C[C@@H](NC(=O)/C(=C/c1ccc(Cl)cc1)NC(=O)c1ccc(C(C)(C)C)cc1)C(=O)OCCOCCOCCOCCOC(=O)c1ccc(-c2c3nc(c(-c4cccc(S(=O)(=O)[O-])c4F)c4ccc([nH]4)c(-c4cccc(S(=O)(=O)[O-])c4F)c4nc(c(-c5cccc(S(=O)(=O)[O-])c5F)c5ccc2[nH]5)C=C4)C=C3)cc1
REMARK SMILES IDX 35 1 34 2 33 3 32 4 31 5 30 6 28 7 29 8 2 9 1 10 3 11 4 12
REMARK SMILES IDX 5 14 6 15 7 16 15 17 16 18 17 20 18 21 19 22 27 23 20 24
REMARK SMILES IDX 26 25 21 26 22 27 23 28 24 29 25 30 8 31 9 32 14 33 10 34
REMARK SMILES IDX 13 35 11 36 12 37 36 38 37 39 38 40 39 41 40 42 41 43 42 44
REMARK SMILES IDX 43 45 44 46 45 47 46 48 107 49 47 50 106 51 48 52 49 53
REMARK SMILES IDX 50 54 100 55 51 56 105 57 99 58 101 59 52 60 104 61 98 62
REMARK SMILES IDX 97 63 53 65 85 66 65 67 84 68 66 69 69 70 83 71 102 72 67 73
REMARK SMILES IDX 68 74 82 76 103 77 70 78 54 79 55 80 63 81 56 82 58 83 64 84
REMARK SMILES IDX 57 85 59 86 60 87 61 88 62 89 86 90 87 91 95 92 88 93 90 94
REMARK SMILES IDX 96 95 89 96 91 97 92 98 93 99 94 100 71 101 72 102 80 103
REMARK SMILES IDX 73 104 75 105 81 106 74 107 76 108 77 109 78 110 79 111
REMARK H PARENT 3 13 15 19 101 64 69 75
REMARK Flexibility Score: inf
ROOT
ATOM      1  C   UNL A   1      32.800  24.497  24.077  1.00  0.00     0.188 C 
ENDROOT
BRANCH   1   2
ATOM      2  C   UNL A   1      33.186  25.972  24.285  1.00  0.00     0.188 C 
BRANCH   2   3
ATOM      3  O   UNL A   1      32.290  27.060  24.093  1.00  0.00    -0.376 OA
BRANCH   3   4
ATOM      4  C   UNL A   1      32.128  28.133  24.990  1.00  0.00     0.202 C 
BRANCH   4   5
ATOM      5  C   UNL A   1      33.315  28.934  25.536  1.00  0.00     0.261 C 
BRANCH   5   6
ATOM      6  O   UNL A   1      33.570  29.011  26.934  1.00  0.00    -0.462 OA
BRANCH   6   7
ATOM      7  C   UNL A   1      33.880  30.213  27.465  1.00  0.00     0.328 C 
ATOM      8  O   UNL A   1      33.376  31.292  27.192  1.00  0.00    -0.250 OA
BRANCH   7   9
ATOM      9  C   UNL A   1      35.125  30.132  28.305  1.00  0.00     0.189 C 
ATOM     10  C   UNL A   1      36.371  29.984  27.429  1.00  0.00     0.043 C 
BRANCH   9  11
ATOM     11  N   UNL A   1      35.140  31.307  29.193  1.00  0.00    -0.338 N 
ATOM     12  C   UNL A   1      36.246  32.133  29.316  1.00  0.00     0.268 C 
ATOM     13  H   UNL A   1      34.334  31.512  29.720  1.00  0.00     0.164 HD
ATOM     14  O   UNL A   1      36.393  33.105  28.581  1.00  0.00    -0.268 OA
BRANCH  12  15
ATOM     15  C   UNL A   1      37.212  31.843  30.459  1.00  0.00     0.107 C 
ATOM     16  C   UNL A   1      38.256  32.694  30.593  1.00  0.00     0.040 C 
BRANCH  15  17
ATOM     17  N   UNL A   1      37.013  30.827  31.365  1.00  0.00    -0.317 N 
ATOM     18  C   UNL A   1      37.647  29.657  31.678  1.00  0.00     0.255 C 
ATOM     19  H   UNL A   1      36.220  30.981  31.926  1.00  0.00     0.170 HD
ATOM     20  O   UNL A   1      37.138  28.901  32.502  1.00  0.00    -0.269 OA
BRANCH  18  21
ATOM     21  C   UNL A   1      38.856  29.247  30.980  1.00  0.00     0.040 A 
ATOM     22  C   UNL A   1      39.914  28.771  31.746  1.00  0.00     0.014 A 
ATOM     23  C   UNL A   1      38.945  29.334  29.595  1.00  0.00     0.014 A 
ATOM     24  C   UNL A   1      41.047  28.289  31.105  1.00  0.00     0.005 A 
ATOM     25  C   UNL A   1      40.082  28.828  28.959  1.00  0.00     0.005 A 
ATOM     26  C   UNL A   1      41.137  28.260  29.699  1.00  0.00    -0.043 A 
BRANCH  26  27
ATOM     27  C   UNL A   1      42.381  27.657  29.029  1.00  0.00    -0.013 C 
ATOM     28  C   UNL A   1      42.123  26.157  28.800  1.00  0.00     0.016 C 
ATOM     29  C   UNL A   1      42.658  28.347  27.672  1.00  0.00     0.016 C 
ATOM     30  C   UNL A   1      43.667  27.812  29.870  1.00  0.00     0.016 C 
ENDBRANCH  26  27
ENDBRANCH  18  21
ENDBRANCH  15  17
BRANCH  16  31
ATOM     31  C   UNL A   1      39.528  32.637  31.383  1.00  0.00    -0.023 A 
ATOM     32  C   UNL A   1      40.791  32.259  30.888  1.00  0.00     0.010 A 
ATOM     33  C   UNL A   1      39.505  33.227  32.665  1.00  0.00     0.010 A 
ATOM     34  C   UNL A   1      41.967  32.457  31.631  1.00  0.00     0.021 A 
ATOM     35  C   UNL A   1      40.681  33.455  33.398  1.00  0.00     0.021 A 
ATOM     36  C   UNL A   1      41.910  33.073  32.875  1.00  0.00     0.041 A 
ATOM     37  Cl  UNL A   1      43.362  33.437  33.719  1.00  0.00    -0.084 Cl
ENDBRANCH  16  31
ENDBRANCH  12  15
ENDBRANCH   9  11
ENDBRANCH   7   9
ENDBRANCH   6   7
ENDBRANCH   5   6
ENDBRANCH   4   5
ENDBRANCH   3   4
ENDBRANCH   2   3
ENDBRANCH   1   2
BRANCH   1  38
ATOM     38  O   UNL A   1      33.633  23.531  24.681  1.00  0.00    -0.377 OA
BRANCH  38  39
ATOM     39  C   UNL A   1      33.202  22.187  24.804  1.00  0.00     0.188 C 
BRANCH  39  40
ATOM     40  C   UNL A   1      34.249  21.061  24.860  1.00  0.00     0.188 C 
BRANCH  40  41
ATOM     41  O   UNL A   1      35.523  21.459  24.381  1.00  0.00    -0.376 OA
BRANCH  41  42
ATOM     42  C   UNL A   1      36.573  21.624  25.318  1.00  0.00     0.202 C 
BRANCH  42  43
ATOM     43  C   UNL A   1      37.845  20.792  25.108  1.00  0.00     0.261 C 
BRANCH  43  44
ATOM     44  O   UNL A   1      39.042  21.187  25.808  1.00  0.00    -0.460 OA
BRANCH  44  45
ATOM     45  C   UNL A   1      40.090  20.335  25.936  1.00  0.00     0.338 C 
ATOM     46  O   UNL A   1      40.098  19.153  25.712  1.00  0.00    -0.246 OA
BRANCH  45  47
ATOM     47  C   UNL A   1      41.307  21.175  26.151  1.00  0.00     0.060 A 
ATOM     48  C   UNL A   1      42.575  20.574  26.094  1.00  0.00     0.016 A 
ATOM     49  C   UNL A   1      41.197  22.551  26.362  1.00  0.00     0.016 A 
ATOM     50  C   UNL A   1      43.731  21.337  26.299  1.00  0.00     0.010 A 
ATOM     51  C   UNL A   1      42.347  23.307  26.592  1.00  0.00     0.010 A 
ATOM     52  C   UNL A   1      43.616  22.697  26.608  1.00  0.00    -0.014 A 
BRANCH  52  53
ATOM     53  C   UNL A   1      44.740  23.430  27.243  1.00  0.00     0.031 A 
ATOM     54  C   UNL A   1      44.664  23.639  28.732  1.00  0.00     0.074 A 
ATOM     55  C   UNL A   1      45.744  23.979  26.538  1.00  0.00     0.049 A 
ATOM     56  N   UNL A   1      45.384  24.407  29.504  1.00  0.00    -0.248 NA
ATOM     57  C   UNL A   1      43.609  22.891  29.437  1.00  0.00     0.031 C 
ATOM     58  C   UNL A   1      45.944  23.842  25.099  1.00  0.00     0.029 A 
ATOM     59  N   UNL A   1      46.756  24.816  26.946  1.00  0.00    -0.354 N 
ATOM     60  C   UNL A   1      44.831  24.282  30.774  1.00  0.00     0.074 A 
ATOM     61  C   UNL A   1      43.722  23.361  30.668  1.00  0.00     0.031 C 
ATOM     62  C   UNL A   1      46.978  24.620  24.731  1.00  0.00     0.029 A 
ATOM     63  C   UNL A   1      47.482  25.340  25.901  1.00  0.00     0.049 A 
ATOM     64  H   UNL A   1      46.943  25.020  27.891  1.00  0.00     0.167 HD
ATOM     65  C   UNL A   1      45.205  24.883  31.926  1.00  0.00     0.034 A 
ATOM     66  C   UNL A   1      48.404  26.326  25.884  1.00  0.00     0.034 A 
ATOM     67  C   UNL A   1      46.314  25.789  32.033  1.00  0.00     0.049 A 
ATOM     68  C   UNL A   1      48.804  26.999  27.174  1.00  0.00     0.074 A 
ATOM     69  C   UNL A   1      46.816  26.399  33.168  1.00  0.00     0.029 A 
ATOM     70  N   UNL A   1      47.074  26.235  30.965  1.00  0.00    -0.354 N 
ATOM     71  N   UNL A   1      48.351  26.793  28.388  1.00  0.00    -0.248 NA
ATOM     72  C   UNL A   1      49.858  28.023  27.099  1.00  0.00     0.031 C 
ATOM     73  C   UNL A   1      47.856  27.249  32.778  1.00  0.00     0.029 A 
ATOM     74  C   UNL A   1      48.031  27.129  31.408  1.00  0.00     0.049 A 
ATOM     75  H   UNL A   1      46.952  25.956  30.028  1.00  0.00     0.167 HD
ATOM     76  C   UNL A   1      49.087  27.630  29.222  1.00  0.00     0.074 A 
ATOM     77  C   UNL A   1      50.021  28.344  28.376  1.00  0.00     0.031 C 
ATOM     78  C   UNL A   1      48.993  27.795  30.565  1.00  0.00     0.034 A 
BRANCH  65  79
ATOM     79  C   UNL A   1      44.392  24.584  33.156  1.00  0.00     0.023 A 
ATOM     80  C   UNL A   1      44.492  23.325  33.783  1.00  0.00     0.012 A 
ATOM     81  C   UNL A   1      43.530  25.559  33.695  1.00  0.00     0.148 A 
ATOM     82  C   UNL A   1      43.710  23.024  34.897  1.00  0.00     0.002 A 
ATOM     83  C   UNL A   1      42.793  25.269  34.836  1.00  0.00     0.091 A 
ATOM     84  F   UNL A   1      43.425  26.739  33.068  1.00  0.00    -0.205 F 
ATOM     85  C   UNL A   1      42.869  23.998  35.429  1.00  0.00     0.022 A 
BRANCH  83  86
ATOM     86  S   UNL A   1      41.748  26.488  35.640  1.00  0.00     0.127 S 
ATOM     87  O   UNL A   1      41.124  27.144  34.492  1.00  0.00    -0.237 OA
ATOM     88  O   UNL A   1      40.846  25.649  36.428  1.00  0.00    -0.237 OA
ATOM     89  O   UNL A   1      42.643  27.322  36.430  1.00  0.00    -0.744 OA
ENDBRANCH  83  86
ENDBRANCH  65  79
BRANCH  66  90
ATOM     90  C   UNL A   1      49.006  26.742  24.586  1.00  0.00     0.023 A 
ATOM     91  C   UNL A   1      48.202  27.346  23.601  1.00  0.00     0.012 A 
ATOM     92  C   UNL A   1      50.386  26.586  24.346  1.00  0.00     0.148 A 
ATOM     93  C   UNL A   1      48.759  27.773  22.393  1.00  0.00     0.002 A 
ATOM     94  C   UNL A   1      50.945  27.065  23.168  1.00  0.00     0.091 A 
ATOM     95  F   UNL A   1      51.129  25.994  25.292  1.00  0.00    -0.205 F 
ATOM     96  C   UNL A   1      50.130  27.645  22.183  1.00  0.00     0.022 A 
BRANCH  94  97
ATOM     97  S   UNL A   1      52.716  27.063  22.868  1.00  0.00     0.127 S 
ATOM     98  O   UNL A   1      52.804  27.751  21.582  1.00  0.00    -0.237 OA
ATOM     99  O   UNL A   1      53.213  27.826  24.012  1.00  0.00    -0.237 OA
ATOM    100  O   UNL A   1      53.117  25.663  22.856  1.00  0.00    -0.744 OA
ENDBRANCH  94  97
ENDBRANCH  66  90
BRANCH  78 101
ATOM    101  C   UNL A   1      49.956  28.738  31.242  1.00  0.00     0.023 A 
ATOM    102  C   UNL A   1      51.190  28.264  31.726  1.00  0.00     0.012 A 
ATOM    103  C   UNL A   1      49.682  30.120  31.282  1.00  0.00     0.148 A 
ATOM    104  C   UNL A   1      52.131  29.150  32.253  1.00  0.00     0.002 A 
ATOM    105  C   UNL A   1      50.642  31.002  31.762  1.00  0.00     0.091 A 
ATOM    106  F   UNL A   1      48.494  30.548  30.830  1.00  0.00    -0.205 F 
ATOM    107  C   UNL A   1      51.863  30.518  32.258  1.00  0.00     0.022 A 
BRANCH 105 108
ATOM    108  S   UNL A   1      50.429  32.785  31.710  1.00  0.00     0.127 S 
ATOM    109  O   UNL A   1      50.199  33.015  30.284  1.00  0.00    -0.237 OA
ATOM    110  O   UNL A   1      49.252  32.980  32.557  1.00  0.00    -0.237 OA
ATOM    111  O   UNL A   1      51.660  33.354  32.241  1.00  0.00    -0.744 OA
ENDBRANCH 105 108
ENDBRANCH  78 101
ENDBRANCH  52  53
ENDBRANCH  45  47
ENDBRANCH  44  45
ENDBRANCH  43  44
ENDBRANCH  42  43
ENDBRANCH  41  42
ENDBRANCH  40  41
ENDBRANCH  39  40
ENDBRANCH  38  39
ENDBRANCH   1  38
TORSDOF 29
ENDMDL
MODEL 3
REMARK VINA RESULT:      -8.7      6.614     11.552
REMARK SMILES C[C@@H](NC(=O)/C(=C/c1ccc(Cl)cc1)NC(=O)c1ccc(C(C)(C)C)cc1)C(=O)OCCOCCOCCOCCOC(=O)c1ccc(-c2c3nc(c(-c4cccc(S(=O)(=O)[O-])c4F)c4ccc([nH]4)c(-c4cccc(S(=O)(=O)[O-])c4F)c4nc(c(-c5cccc(S(=O)(=O)[O-])c5F)c5ccc2[nH]5)C=C4)C=C3)cc1
REMARK SMILES IDX 35 1 34 2 33 3 32 4 31 5 30 6 28 7 29 8 2 9 1 10 3 11 4 12
REMARK SMILES IDX 5 14 6 15 7 16 15 17 16 18 17 20 18 21 19 22 27 23 20 24
REMARK SMILES IDX 26 25 21 26 22 27 23 28 24 29 25 30 8 31 9 32 14 33 10 34
REMARK SMILES IDX 13 35 11 36 12 37 36 38 37 39 38 40 39 41 40 42 41 43 42 44
REMARK SMILES IDX 43 45 44 46 45 47 46 48 107 49 47 50 106 51 48 52 49 53
REMARK SMILES IDX 50 54 100 55 51 56 105 57 99 58 101 59 52 60 104 61 98 62
REMARK SMILES IDX 97 63 53 65 85 66 65 67 84 68 66 69 69 70 83 71 102 72 67 73
REMARK SMILES IDX 68 74 82 76 103 77 70 78 54 79 55 80 63 81 56 82 58 83 64 84
REMARK SMILES IDX 57 85 59 86 60 87 61 88 62 89 86 90 87 91 95 92 88 93 90 94
REMARK SMILES IDX 96 95 89 96 91 97 92 98 93 99 94 100 71 101 72 102 80 103
REMARK SMILES IDX 73 104 75 105 81 106 74 107 76 108 77 109 78 110 79 111
REMARK H PARENT 3 13 15 19 101 64 69 75
REMARK Flexibility Score: inf
ROOT
ATOM      1  C   UNL A   1      33.614  24.522  24.886  1.00  0.00     0.188 C 
ENDROOT
BRANCH   1   2
ATOM      2  C   UNL A   1      34.205  23.236  25.488  1.00  0.00     0.188 C 
BRANCH   2   3
ATOM      3  O   UNL A   1      35.135  22.399  24.811  1.00  0.00    -0.376 OA
BRANCH   3   4
ATOM      4  C   UNL A   1      36.439  22.782  24.443  1.00  0.00     0.202 C 
BRANCH   4   5
ATOM      5  C   UNL A   1      37.635  21.829  24.547  1.00  0.00     0.261 C 
BRANCH   5   6
ATOM      6  O   UNL A   1      38.225  21.521  25.805  1.00  0.00    -0.462 OA
BRANCH   6   7
ATOM      7  C   UNL A   1      39.310  20.720  25.827  1.00  0.00     0.328 C 
ATOM      8  O   UNL A   1      39.376  19.555  25.461  1.00  0.00    -0.250 OA
BRANCH   7   9
ATOM      9  C   UNL A   1      40.439  21.354  26.593  1.00  0.00     0.189 C 
ATOM     10  C   UNL A   1      41.048  20.366  27.591  1.00  0.00     0.043 C 
BRANCH   9  11
ATOM     11  N   UNL A   1      41.394  21.897  25.613  1.00  0.00    -0.338 N 
ATOM     12  C   UNL A   1      42.747  21.598  25.647  1.00  0.00     0.268 C 
ATOM     13  H   UNL A   1      41.059  22.495  24.907  1.00  0.00     0.164 HD
ATOM     14  O   UNL A   1      43.195  20.626  25.044  1.00  0.00    -0.268 OA
BRANCH  12  15
ATOM     15  C   UNL A   1      43.662  22.575  26.376  1.00  0.00     0.107 C 
ATOM     16  C   UNL A   1      44.157  23.596  25.639  1.00  0.00     0.040 C 
BRANCH  15  17
ATOM     17  N   UNL A   1      43.920  22.491  27.725  1.00  0.00    -0.317 N 
ATOM     18  C   UNL A   1      43.591  23.222  28.831  1.00  0.00     0.255 C 
ATOM     19  H   UNL A   1      44.479  21.713  27.947  1.00  0.00     0.170 HD
ATOM     20  O   UNL A   1      44.082  22.922  29.917  1.00  0.00    -0.269 OA
BRANCH  18  21
ATOM     21  C   UNL A   1      42.750  24.406  28.728  1.00  0.00     0.040 A 
ATOM     22  C   UNL A   1      43.327  25.635  29.025  1.00  0.00     0.014 A 
ATOM     23  C   UNL A   1      41.417  24.302  28.347  1.00  0.00     0.014 A 
ATOM     24  C   UNL A   1      42.577  26.791  28.850  1.00  0.00     0.005 A 
ATOM     25  C   UNL A   1      40.677  25.472  28.155  1.00  0.00     0.005 A 
ATOM     26  C   UNL A   1      41.255  26.740  28.364  1.00  0.00    -0.043 A 
BRANCH  26  27
ATOM     27  C   UNL A   1      40.484  28.046  28.122  1.00  0.00    -0.013 C 
ATOM     28  C   UNL A   1      41.042  29.117  29.076  1.00  0.00     0.016 C 
ATOM     29  C   UNL A   1      40.658  28.518  26.658  1.00  0.00     0.016 C 
ATOM     30  C   UNL A   1      38.964  27.917  28.363  1.00  0.00     0.016 C 
ENDBRANCH  26  27
ENDBRANCH  18  21
ENDBRANCH  15  17
BRANCH  16  31
ATOM     31  C   UNL A   1      45.250  24.594  25.877  1.00  0.00    -0.023 A 
ATOM     32  C   UNL A   1      45.071  25.960  26.171  1.00  0.00     0.010 A 
ATOM     33  C   UNL A   1      46.552  24.078  26.048  1.00  0.00     0.010 A 
ATOM     34  C   UNL A   1      46.134  26.768  26.608  1.00  0.00     0.021 A 
ATOM     35  C   UNL A   1      47.610  24.875  26.515  1.00  0.00     0.021 A 
ATOM     36  C   UNL A   1      47.395  26.218  26.798  1.00  0.00     0.041 A 
ATOM     37  Cl  UNL A   1      48.658  27.176  27.465  1.00  0.00    -0.084 Cl
ENDBRANCH  16  31
ENDBRANCH  12  15
ENDBRANCH   9  11
ENDBRANCH   7   9
ENDBRANCH   6   7
ENDBRANCH   5   6
ENDBRANCH   4   5
ENDBRANCH   3   4
ENDBRANCH   2   3
ENDBRANCH   1   2
BRANCH   1  38
ATOM     38  O   UNL A   1      34.320  25.720  25.127  1.00  0.00    -0.377 OA
BRANCH  38  39
ATOM     39  C   UNL A   1      33.637  26.877  25.578  1.00  0.00     0.188 C 
BRANCH  39  40
ATOM     40  C   UNL A   1      34.335  27.828  26.566  1.00  0.00     0.188 C 
BRANCH  40  41
ATOM     41  O   UNL A   1      33.579  28.995  26.846  1.00  0.00    -0.376 OA
BRANCH  41  42
ATOM     42  C   UNL A   1      34.274  30.179  27.196  1.00  0.00     0.202 C 
BRANCH  42  43
ATOM     43  C   UNL A   1      35.581  30.026  27.983  1.00  0.00     0.261 C 
BRANCH  43  44
ATOM     44  O   UNL A   1      36.320  31.218  28.318  1.00  0.00    -0.460 OA
BRANCH  44  45
ATOM     45  C   UNL A   1      36.276  31.738  29.571  1.00  0.00     0.338 C 
ATOM     46  O   UNL A   1      35.454  31.519  30.422  1.00  0.00    -0.246 OA
BRANCH  45  47
ATOM     47  C   UNL A   1      37.581  32.431  29.798  1.00  0.00     0.060 A 
ATOM     48  C   UNL A   1      38.688  31.684  30.234  1.00  0.00     0.016 A 
ATOM     49  C   UNL A   1      37.719  33.795  29.537  1.00  0.00     0.016 A 
ATOM     50  C   UNL A   1      39.920  32.310  30.460  1.00  0.00     0.010 A 
ATOM     51  C   UNL A   1      38.940  34.424  29.787  1.00  0.00     0.010 A 
ATOM     52  C   UNL A   1      40.032  33.695  30.294  1.00  0.00    -0.014 A 
BRANCH  52  53
ATOM     53  C   UNL A   1      41.150  34.448  30.917  1.00  0.00     0.031 A 
ATOM     54  C   UNL A   1      41.128  34.586  32.416  1.00  0.00     0.074 A 
ATOM     55  C   UNL A   1      42.101  35.070  30.199  1.00  0.00     0.049 A 
ATOM     56  N   UNL A   1      41.847  35.349  33.194  1.00  0.00    -0.248 NA
ATOM     57  C   UNL A   1      40.135  33.762  33.126  1.00  0.00     0.031 C 
ATOM     58  C   UNL A   1      42.246  35.007  28.749  1.00  0.00     0.029 A 
ATOM     59  N   UNL A   1      43.093  35.931  30.605  1.00  0.00    -0.354 N 
ATOM     60  C   UNL A   1      41.352  35.144  34.477  1.00  0.00     0.074 A 
ATOM     61  C   UNL A   1      40.279  34.181  34.372  1.00  0.00     0.031 C 
ATOM     62  C   UNL A   1      43.231  35.844  28.377  1.00  0.00     0.029 A 
ATOM     63  C   UNL A   1      43.753  36.532  29.558  1.00  0.00     0.049 A 
ATOM     64  H   UNL A   1      43.311  36.100  31.550  1.00  0.00     0.167 HD
ATOM     65  C   UNL A   1      41.749  35.708  35.640  1.00  0.00     0.034 A 
ATOM     66  C   UNL A   1      44.632  37.557  29.550  1.00  0.00     0.034 A 
ATOM     67  C   UNL A   1      42.822  36.656  35.746  1.00  0.00     0.049 A 
ATOM     68  C   UNL A   1      45.056  38.189  30.853  1.00  0.00     0.074 A 
ATOM     69  C   UNL A   1      43.346  37.236  36.887  1.00  0.00     0.029 A 
ATOM     70  N   UNL A   1      43.518  37.181  34.670  1.00  0.00    -0.354 N 
ATOM     71  N   UNL A   1      44.663  37.909  32.073  1.00  0.00    -0.248 NA
ATOM     72  C   UNL A   1      46.062  39.260  30.784  1.00  0.00     0.031 C 
ATOM     73  C   UNL A   1      44.332  38.146  36.496  1.00  0.00     0.029 A 
ATOM     74  C   UNL A   1      44.456  38.096  35.116  1.00  0.00     0.049 A 
ATOM     75  H   UNL A   1      43.369  36.940  33.727  1.00  0.00     0.167 HD
ATOM     76  C   UNL A   1      45.398  38.740  32.916  1.00  0.00     0.074 A 
ATOM     77  C   UNL A   1      46.265  39.530  32.067  1.00  0.00     0.031 C 
ATOM     78  C   UNL A   1      45.353  38.840  34.267  1.00  0.00     0.034 A 
BRANCH  65  79
ATOM     79  C   UNL A   1      41.001  35.319  36.886  1.00  0.00     0.023 A 
ATOM     80  C   UNL A   1      39.762  35.920  37.186  1.00  0.00     0.012 A 
ATOM     81  C   UNL A   1      41.528  34.348  37.760  1.00  0.00     0.148 A 
ATOM     82  C   UNL A   1      39.083  35.599  38.360  1.00  0.00     0.002 A 
ATOM     83  C   UNL A   1      40.820  33.994  38.902  1.00  0.00     0.091 A 
ATOM     84  F   UNL A   1      42.722  33.809  37.475  1.00  0.00    -0.205 F 
ATOM     85  C   UNL A   1      39.607  34.629  39.212  1.00  0.00     0.022 A 
BRANCH  83  86
ATOM     86  S   UNL A   1      41.375  32.698  40.013  1.00  0.00     0.127 S 
ATOM     87  O   UNL A   1      42.207  33.450  40.951  1.00  0.00    -0.237 OA
ATOM     88  O   UNL A   1      40.115  32.210  40.572  1.00  0.00    -0.237 OA
ATOM     89  O   UNL A   1      42.081  31.733  39.180  1.00  0.00    -0.744 OA
ENDBRANCH  83  86
ENDBRANCH  65  79
BRANCH  66  90
ATOM     90  C   UNL A   1      45.161  38.057  28.250  1.00  0.00     0.023 A 
ATOM     91  C   UNL A   1      44.549  39.156  27.618  1.00  0.00     0.012 A 
ATOM     92  C   UNL A   1      46.303  37.474  27.663  1.00  0.00     0.148 A 
ATOM     93  C   UNL A   1      45.056  39.657  26.417  1.00  0.00     0.002 A 
ATOM     94  C   UNL A   1      46.837  38.014  26.499  1.00  0.00     0.091 A 
ATOM     95  F   UNL A   1      46.858  36.419  28.274  1.00  0.00    -0.205 F 
ATOM     96  C   UNL A   1      46.205  39.096  25.865  1.00  0.00     0.022 A 
BRANCH  94  97
ATOM     97  S   UNL A   1      48.384  37.442  25.791  1.00  0.00     0.127 S 
ATOM     98  O   UNL A   1      48.089  36.037  25.516  1.00  0.00    -0.237 OA
ATOM     99  O   UNL A   1      48.503  38.292  24.606  1.00  0.00    -0.237 OA
ATOM    100  O   UNL A   1      49.401  37.679  26.807  1.00  0.00    -0.744 OA
ENDBRANCH  94  97
ENDBRANCH  66  90
BRANCH  78 101
ATOM    101  C   UNL A   1      46.303  39.792  34.949  1.00  0.00     0.023 A 
ATOM    102  C   UNL A   1      47.634  39.408  35.198  1.00  0.00     0.012 A 
ATOM    103  C   UNL A   1      45.901  41.115  35.225  1.00  0.00     0.148 A 
ATOM    104  C   UNL A   1      48.547  40.321  35.727  1.00  0.00     0.002 A 
ATOM    105  C   UNL A   1      46.827  42.033  35.705  1.00  0.00     0.091 A 
ATOM    106  F   UNL A   1      44.625  41.455  34.994  1.00  0.00    -0.205 F 
ATOM    107  C   UNL A   1      48.148  41.635  35.966  1.00  0.00     0.022 A 
BRANCH 105 108
ATOM    108  S   UNL A   1      46.432  43.770  35.942  1.00  0.00     0.127 S 
ATOM    109  O   UNL A   1      45.917  43.773  37.311  1.00  0.00    -0.237 OA
ATOM    110  O   UNL A   1      47.739  44.408  35.780  1.00  0.00    -0.237 OA
ATOM    111  O   UNL A   1      45.460  44.107  34.912  1.00  0.00    -0.744 OA
ENDBRANCH 105 108
ENDBRANCH  78 101
ENDBRANCH  52  53
ENDBRANCH  45  47
ENDBRANCH  44  45
ENDBRANCH  43  44
ENDBRANCH  42  43
ENDBRANCH  41  42
ENDBRANCH  40  41
ENDBRANCH  39  40
ENDBRANCH  38  39
ENDBRANCH   1  38
TORSDOF 29
ENDMDL
