MODEL 1
REMARK VINA RESULT:      -9.5      0.000      0.000
REMARK SMILES Cc1ccc(S(=O)(=O)N[C@H]2C=C[C@@H](C(=O)OCCOCCOCCOCCOC(=O)c3ccc(-c4c5nc(c(-c6cccc(S(=O)(=O)[O-])c6F)c6ccc([nH]6)c(-c6cccc(S(=O)(=O)[O-])c6F)c6nc(c(-c7cccc(S(=O)(=O)[O-])c7F)c7ccc4[nH]7)C=C6)C=C5)cc3)C2)c(C)c1
REMARK SMILES IDX 22 1 21 2 20 3 19 4 18 5 17 6 16 7 14 8 15 9 13 10 10 11
REMARK SMILES IDX 11 12 94 13 12 14 9 15 6 17 7 18 8 19 5 20 1 21 2 22 3 23
REMARK SMILES IDX 97 24 4 25 95 26 96 27 23 28 24 29 25 30 26 31 27 32 28 33
REMARK SMILES IDX 29 34 30 35 31 36 32 37 93 38 33 39 92 40 34 41 35 42 36 43
REMARK SMILES IDX 86 44 37 45 91 46 85 47 87 48 38 49 90 50 84 51 83 52 39 54
REMARK SMILES IDX 71 55 51 56 70 57 52 58 55 59 69 60 88 61 53 62 54 63 68 65
REMARK SMILES IDX 89 66 56 67 40 68 41 69 49 70 42 71 44 72 50 73 43 74 45 75
REMARK SMILES IDX 46 76 47 77 48 78 72 79 73 80 81 81 74 82 76 83 82 84 75 85
REMARK SMILES IDX 77 86 78 87 79 88 80 89 57 90 58 91 66 92 59 93 61 94 67 95
REMARK SMILES IDX 60 96 62 97 63 98 64 99 65 100
REMARK H PARENT 9 16 87 53 55 64
REMARK Flexibility Score: inf
ROOT
ATOM      1  O   UNL A   1      33.925  32.495  27.959  1.00  0.00    -0.377 OA
ENDROOT
BRANCH   1   2
ATOM      2  C   UNL A   1      34.052  31.126  27.642  1.00  0.00     0.188 C 
BRANCH   2   3
ATOM      3  C   UNL A   1      32.745  30.436  27.216  1.00  0.00     0.188 C 
BRANCH   3   4
ATOM      4  O   UNL A   1      31.787  31.111  26.408  1.00  0.00    -0.376 OA
BRANCH   4   5
ATOM      5  C   UNL A   1      31.221  30.457  25.276  1.00  0.00     0.202 C 
BRANCH   5   6
ATOM      6  C   UNL A   1      31.437  28.950  25.069  1.00  0.00     0.261 C 
BRANCH   6   7
ATOM      7  O   UNL A   1      31.649  28.566  23.703  1.00  0.00    -0.463 OA
BRANCH   7   8
ATOM      8  C   UNL A   1      32.906  28.196  23.362  1.00  0.00     0.312 C 
ATOM      9  O   UNL A   1      33.865  28.960  23.298  1.00  0.00    -0.252 OA
BRANCH   8  10
ATOM     10  C   UNL A   1      33.059  26.688  23.163  1.00  0.00     0.123 C 
ATOM     11  C   UNL A   1      32.018  24.554  23.813  1.00  0.00     0.093 C 
ATOM     12  C   UNL A   1      31.463  25.076  22.540  1.00  0.00    -0.011 C 
ATOM     13  C   UNL A   1      32.804  25.753  24.350  1.00  0.00     0.043 C 
ATOM     14  C   UNL A   1      32.049  26.217  22.165  1.00  0.00    -0.015 C 
BRANCH  11  15
ATOM     15  N   UNL A   1      31.070  24.124  24.817  1.00  0.00    -0.204 NA
ATOM     16  H   UNL A   1      30.674  24.985  25.195  1.00  0.00     0.142 HD
BRANCH  15  17
ATOM     17  S   UNL A   1      31.403  23.178  26.147  1.00  0.00     0.241 S 
ATOM     18  O   UNL A   1      30.515  22.044  26.089  1.00  0.00    -0.207 OA
ATOM     19  O   UNL A   1      31.447  24.090  27.269  1.00  0.00    -0.207 OA
BRANCH  17  20
ATOM     20  C   UNL A   1      33.076  22.605  25.901  1.00  0.00     0.085 A 
ATOM     21  C   UNL A   1      37.185  21.686  25.003  1.00  0.00     0.044 C 
ATOM     22  C   UNL A   1      35.760  22.001  25.344  1.00  0.00    -0.051 A 
ATOM     23  C   UNL A   1      35.444  22.925  26.340  1.00  0.00     0.005 A 
ATOM     24  C   UNL A   1      34.721  21.333  24.679  1.00  0.00     0.008 A 
ATOM     25  C   UNL A   1      34.111  23.220  26.624  1.00  0.00     0.022 A 
ATOM     26  C   UNL A   1      33.370  21.605  24.959  1.00  0.00    -0.031 A 
ATOM     27  C   UNL A   1      32.333  20.799  24.225  1.00  0.00     0.046 C 
ENDBRANCH  17  20
ENDBRANCH  15  17
ENDBRANCH  11  15
ENDBRANCH   8  10
ENDBRANCH   7   8
ENDBRANCH   6   7
ENDBRANCH   5   6
ENDBRANCH   4   5
ENDBRANCH   3   4
ENDBRANCH   2   3
ENDBRANCH   1   2
BRANCH   1  28
ATOM     28  C   UNL A   1      35.138  33.198  28.207  1.00  0.00     0.188 C 
BRANCH  28  29
ATOM     29  C   UNL A   1      35.011  34.684  28.593  1.00  0.00     0.188 C 
BRANCH  29  30
ATOM     30  O   UNL A   1      33.747  35.255  28.252  1.00  0.00    -0.376 OA
BRANCH  30  31
ATOM     31  C   UNL A   1      33.409  36.495  28.867  1.00  0.00     0.202 C 
BRANCH  31  32
ATOM     32  C   UNL A   1      32.653  36.399  30.203  1.00  0.00     0.261 C 
BRANCH  32  33
ATOM     33  O   UNL A   1      33.468  36.323  31.385  1.00  0.00    -0.460 OA
BRANCH  33  34
ATOM     34  C   UNL A   1      33.250  35.308  32.247  1.00  0.00     0.338 C 
ATOM     35  O   UNL A   1      32.202  35.022  32.795  1.00  0.00    -0.246 OA
BRANCH  34  36
ATOM     36  C   UNL A   1      34.458  34.457  32.260  1.00  0.00     0.060 A 
ATOM     37  C   UNL A   1      34.322  33.108  32.612  1.00  0.00     0.016 A 
ATOM     38  C   UNL A   1      35.711  34.984  31.940  1.00  0.00     0.016 A 
ATOM     39  C   UNL A   1      35.450  32.291  32.688  1.00  0.00     0.010 A 
ATOM     40  C   UNL A   1      36.841  34.170  32.035  1.00  0.00     0.010 A 
ATOM     41  C   UNL A   1      36.719  32.831  32.447  1.00  0.00    -0.014 A 
BRANCH  41  42
ATOM     42  C   UNL A   1      37.931  32.061  32.819  1.00  0.00     0.031 A 
ATOM     43  C   UNL A   1      38.628  32.410  34.106  1.00  0.00     0.074 A 
ATOM     44  C   UNL A   1      38.412  31.085  32.030  1.00  0.00     0.049 A 
ATOM     45  N   UNL A   1      39.721  31.912  34.619  1.00  0.00    -0.248 NA
ATOM     46  C   UNL A   1      38.007  33.467  34.924  1.00  0.00     0.031 C 
ATOM     47  C   UNL A   1      37.828  30.657  30.761  1.00  0.00     0.029 A 
ATOM     48  N   UNL A   1      39.527  30.299  32.173  1.00  0.00    -0.354 N 
ATOM     49  C   UNL A   1      39.931  32.604  35.805  1.00  0.00     0.074 A 
ATOM     50  C   UNL A   1      38.861  33.569  35.930  1.00  0.00     0.031 C 
ATOM     51  C   UNL A   1      38.615  29.710  30.219  1.00  0.00     0.029 A 
ATOM     52  C   UNL A   1      39.765  29.481  31.093  1.00  0.00     0.049 A 
ATOM     53  H   UNL A   1      40.103  30.318  32.971  1.00  0.00     0.167 HD
ATOM     54  C   UNL A   1      40.916  32.442  36.719  1.00  0.00     0.034 A 
ATOM     55  C   UNL A   1      40.804  28.663  30.832  1.00  0.00     0.034 A 
ATOM     56  C   UNL A   1      41.976  31.479  36.599  1.00  0.00     0.049 A 
ATOM     57  C   UNL A   1      41.909  28.524  31.849  1.00  0.00     0.074 A 
ATOM     58  C   UNL A   1      43.002  31.215  37.488  1.00  0.00     0.029 A 
ATOM     59  N   UNL A   1      42.156  30.634  35.515  1.00  0.00    -0.354 N 
ATOM     60  N   UNL A   1      42.029  29.095  33.024  1.00  0.00    -0.248 NA
ATOM     61  C   UNL A   1      43.008  27.603  31.518  1.00  0.00     0.031 C 
ATOM     62  C   UNL A   1      43.817  30.223  36.932  1.00  0.00     0.029 A 
ATOM     63  C   UNL A   1      43.283  29.853  35.708  1.00  0.00     0.049 A 
ATOM     64  H   UNL A   1      41.570  30.594  34.725  1.00  0.00     0.167 HD
ATOM     65  C   UNL A   1      43.193  28.578  33.585  1.00  0.00     0.074 A 
ATOM     66  C   UNL A   1      43.731  27.632  32.629  1.00  0.00     0.031 C 
ATOM     67  C   UNL A   1      43.774  28.873  34.774  1.00  0.00     0.034 A 
BRANCH  54  68
ATOM     68  C   UNL A   1      40.871  33.307  37.949  1.00  0.00     0.023 A 
ATOM     69  C   UNL A   1      39.976  32.987  38.990  1.00  0.00     0.012 A 
ATOM     70  C   UNL A   1      41.739  34.406  38.095  1.00  0.00     0.148 A 
ATOM     71  C   UNL A   1      39.925  33.763  40.146  1.00  0.00     0.002 A 
ATOM     72  C   UNL A   1      41.711  35.152  39.268  1.00  0.00     0.091 A 
ATOM     73  F   UNL A   1      42.563  34.710  37.081  1.00  0.00    -0.205 F 
ATOM     74  C   UNL A   1      40.799  34.839  40.289  1.00  0.00     0.022 A 
BRANCH  72  75
ATOM     75  S   UNL A   1      42.843  36.510  39.578  1.00  0.00     0.127 S 
ATOM     76  O   UNL A   1      42.595  36.784  40.993  1.00  0.00    -0.237 OA
ATOM     77  O   UNL A   1      44.143  35.899  39.295  1.00  0.00    -0.237 OA
ATOM     78  O   UNL A   1      42.459  37.572  38.659  1.00  0.00    -0.744 OA
ENDBRANCH  72  75
ENDBRANCH  54  68
BRANCH  55  79
ATOM     79  C   UNL A   1      40.847  27.892  29.557  1.00  0.00     0.023 A 
ATOM     80  C   UNL A   1      39.995  26.783  29.384  1.00  0.00     0.012 A 
ATOM     81  C   UNL A   1      41.725  28.251  28.518  1.00  0.00     0.148 A 
ATOM     82  C   UNL A   1      40.040  26.029  28.210  1.00  0.00     0.002 A 
ATOM     83  C   UNL A   1      41.728  27.528  27.332  1.00  0.00     0.091 A 
ATOM     84  F   UNL A   1      42.543  29.296  28.711  1.00  0.00    -0.205 F 
ATOM     85  C   UNL A   1      40.897  26.407  27.182  1.00  0.00     0.022 A 
BRANCH  83  86
ATOM     86  S   UNL A   1      42.717  28.009  25.911  1.00  0.00     0.127 S 
ATOM     87  O   UNL A   1      42.081  27.251  24.837  1.00  0.00    -0.237 OA
ATOM     88  O   UNL A   1      42.489  29.454  25.864  1.00  0.00    -0.237 OA
ATOM     89  O   UNL A   1      44.081  27.621  26.238  1.00  0.00    -0.744 OA
ENDBRANCH  83  86
ENDBRANCH  55  79
BRANCH  67  90
ATOM     90  C   UNL A   1      45.042  28.143  35.139  1.00  0.00     0.023 A 
ATOM     91  C   UNL A   1      46.292  28.707  34.814  1.00  0.00     0.012 A 
ATOM     92  C   UNL A   1      44.995  26.945  35.879  1.00  0.00     0.148 A 
ATOM     93  C   UNL A   1      47.475  28.074  35.196  1.00  0.00     0.002 A 
ATOM     94  C   UNL A   1      46.178  26.346  36.298  1.00  0.00     0.091 A 
ATOM     95  F   UNL A   1      43.797  26.416  36.165  1.00  0.00    -0.205 F 
ATOM     96  C   UNL A   1      47.418  26.902  35.947  1.00  0.00     0.022 A 
BRANCH  94  97
ATOM     97  S   UNL A   1      46.200  24.889  37.349  1.00  0.00     0.127 S 
ATOM     98  O   UNL A   1      47.490  24.293  37.006  1.00  0.00    -0.237 OA
ATOM     99  O   UNL A   1      46.135  25.472  38.689  1.00  0.00    -0.237 OA
ATOM    100  O   UNL A   1      45.031  24.105  36.975  1.00  0.00    -0.744 OA
ENDBRANCH  94  97
ENDBRANCH  67  90
ENDBRANCH  41  42
ENDBRANCH  34  36
ENDBRANCH  33  34
ENDBRANCH  32  33
ENDBRANCH  31  32
ENDBRANCH  30  31
ENDBRANCH  29  30
ENDBRANCH  28  29
ENDBRANCH   1  28
TORSDOF 26
ENDMDL
MODEL 2
REMARK VINA RESULT:      -9.2      2.535      3.355
REMARK SMILES Cc1ccc(S(=O)(=O)N[C@H]2C=C[C@@H](C(=O)OCCOCCOCCOCCOC(=O)c3ccc(-c4c5nc(c(-c6cccc(S(=O)(=O)[O-])c6F)c6ccc([nH]6)c(-c6cccc(S(=O)(=O)[O-])c6F)c6nc(c(-c7cccc(S(=O)(=O)[O-])c7F)c7ccc4[nH]7)C=C6)C=C5)cc3)C2)c(C)c1
REMARK SMILES IDX 22 1 21 2 20 3 19 4 18 5 17 6 16 7 14 8 15 9 13 10 10 11
REMARK SMILES IDX 11 12 94 13 12 14 9 15 6 17 7 18 8 19 5 20 1 21 2 22 3 23
REMARK SMILES IDX 97 24 4 25 95 26 96 27 23 28 24 29 25 30 26 31 27 32 28 33
REMARK SMILES IDX 29 34 30 35 31 36 32 37 93 38 33 39 92 40 34 41 35 42 36 43
REMARK SMILES IDX 86 44 37 45 91 46 85 47 87 48 38 49 90 50 84 51 83 52 39 54
REMARK SMILES IDX 71 55 51 56 70 57 52 58 55 59 69 60 88 61 53 62 54 63 68 65
REMARK SMILES IDX 89 66 56 67 40 68 41 69 49 70 42 71 44 72 50 73 43 74 45 75
REMARK SMILES IDX 46 76 47 77 48 78 72 79 73 80 81 81 74 82 76 83 82 84 75 85
REMARK SMILES IDX 77 86 78 87 79 88 80 89 57 90 58 91 66 92 59 93 61 94 67 95
REMARK SMILES IDX 60 96 62 97 63 98 64 99 65 100
REMARK H PARENT 9 16 87 53 55 64
REMARK Flexibility Score: inf
ROOT
ATOM      1  O   UNL A   1      33.897  31.144  27.483  1.00  0.00    -0.377 OA
ENDROOT
BRANCH   1   2
ATOM      2  C   UNL A   1      33.519  29.809  27.226  1.00  0.00     0.188 C 
BRANCH   2   3
ATOM      3  C   UNL A   1      32.036  29.613  26.868  1.00  0.00     0.188 C 
BRANCH   3   4
ATOM      4  O   UNL A   1      31.394  30.451  25.914  1.00  0.00    -0.376 OA
BRANCH   4   5
ATOM      5  C   UNL A   1      31.107  29.957  24.608  1.00  0.00     0.202 C 
BRANCH   5   6
ATOM      6  C   UNL A   1      31.331  28.473  24.281  1.00  0.00     0.261 C 
BRANCH   6   7
ATOM      7  O   UNL A   1      31.817  28.228  22.952  1.00  0.00    -0.463 OA
BRANCH   7   8
ATOM      8  C   UNL A   1      33.113  27.855  22.837  1.00  0.00     0.312 C 
ATOM      9  O   UNL A   1      34.058  28.636  22.748  1.00  0.00    -0.252 OA
BRANCH   8  10
ATOM     10  C   UNL A   1      33.319  26.345  22.936  1.00  0.00     0.123 C 
ATOM     11  C   UNL A   1      32.376  24.350  24.029  1.00  0.00     0.093 C 
ATOM     12  C   UNL A   1      31.771  24.589  22.696  1.00  0.00    -0.011 C 
ATOM     13  C   UNL A   1      33.129  25.657  24.293  1.00  0.00     0.043 C 
ATOM     14  C   UNL A   1      32.304  25.651  22.084  1.00  0.00    -0.015 C 
BRANCH  11  15
ATOM     15  N   UNL A   1      31.469  24.099  25.128  1.00  0.00    -0.204 NA
ATOM     16  H   UNL A   1      31.457  24.965  25.666  1.00  0.00     0.142 HD
BRANCH  15  17
ATOM     17  S   UNL A   1      31.605  22.884  26.260  1.00  0.00     0.241 S 
ATOM     18  O   UNL A   1      30.597  21.902  25.945  1.00  0.00    -0.207 OA
ATOM     19  O   UNL A   1      31.682  23.556  27.539  1.00  0.00    -0.207 OA
BRANCH  17  20
ATOM     20  C   UNL A   1      33.213  22.162  25.976  1.00  0.00     0.085 A 
ATOM     21  C   UNL A   1      37.199  20.875  24.984  1.00  0.00     0.044 C 
ATOM     22  C   UNL A   1      35.817  21.318  25.356  1.00  0.00    -0.051 A 
ATOM     23  C   UNL A   1      35.609  22.264  26.361  1.00  0.00     0.005 A 
ATOM     24  C   UNL A   1      34.707  20.749  24.715  1.00  0.00     0.008 A 
ATOM     25  C   UNL A   1      34.315  22.679  26.675  1.00  0.00     0.022 A 
ATOM     26  C   UNL A   1      33.393  21.142  25.026  1.00  0.00    -0.031 A 
ATOM     27  C   UNL A   1      32.270  20.437  24.315  1.00  0.00     0.046 C 
ENDBRANCH  17  20
ENDBRANCH  15  17
ENDBRANCH  11  15
ENDBRANCH   8  10
ENDBRANCH   7   8
ENDBRANCH   6   7
ENDBRANCH   5   6
ENDBRANCH   4   5
ENDBRANCH   3   4
ENDBRANCH   2   3
ENDBRANCH   1   2
BRANCH   1  28
ATOM     28  C   UNL A   1      35.282  31.370  27.724  1.00  0.00     0.188 C 
BRANCH  28  29
ATOM     29  C   UNL A   1      35.730  32.837  27.864  1.00  0.00     0.188 C 
BRANCH  29  30
ATOM     30  O   UNL A   1      34.702  33.779  27.552  1.00  0.00    -0.376 OA
BRANCH  30  31
ATOM     31  C   UNL A   1      34.484  34.833  28.484  1.00  0.00     0.202 C 
BRANCH  31  32
ATOM     32  C   UNL A   1      34.009  34.404  29.884  1.00  0.00     0.261 C 
BRANCH  32  33
ATOM     33  O   UNL A   1      35.044  34.158  30.852  1.00  0.00    -0.460 OA
BRANCH  33  34
ATOM     34  C   UNL A   1      34.964  33.038  31.602  1.00  0.00     0.338 C 
ATOM     35  O   UNL A   1      33.985  32.615  32.188  1.00  0.00    -0.246 OA
BRANCH  34  36
ATOM     36  C   UNL A   1      36.221  32.284  31.423  1.00  0.00     0.060 A 
ATOM     37  C   UNL A   1      36.315  30.999  31.975  1.00  0.00     0.016 A 
ATOM     38  C   UNL A   1      37.299  32.838  30.729  1.00  0.00     0.016 A 
ATOM     39  C   UNL A   1      37.507  30.282  31.873  1.00  0.00     0.010 A 
ATOM     40  C   UNL A   1      38.498  32.126  30.644  1.00  0.00     0.010 A 
ATOM     41  C   UNL A   1      38.618  30.862  31.249  1.00  0.00    -0.014 A 
BRANCH  41  42
ATOM     42  C   UNL A   1      39.957  30.244  31.403  1.00  0.00     0.031 A 
ATOM     43  C   UNL A   1      40.850  30.745  32.506  1.00  0.00     0.074 A 
ATOM     44  C   UNL A   1      40.379  29.270  30.578  1.00  0.00     0.049 A 
ATOM     45  N   UNL A   1      42.070  30.393  32.810  1.00  0.00    -0.248 NA
ATOM     46  C   UNL A   1      40.288  31.787  33.383  1.00  0.00     0.031 C 
ATOM     47  C   UNL A   1      39.609  28.703  29.474  1.00  0.00     0.029 A 
ATOM     48  N   UNL A   1      41.581  28.610  30.528  1.00  0.00    -0.354 N 
ATOM     49  C   UNL A   1      42.431  31.181  33.896  1.00  0.00     0.074 A 
ATOM     50  C   UNL A   1      41.307  32.040  34.190  1.00  0.00     0.031 C 
ATOM     51  C   UNL A   1      40.374  27.805  28.828  1.00  0.00     0.029 A 
ATOM     52  C   UNL A   1      41.691  27.750  29.461  1.00  0.00     0.049 A 
ATOM     53  H   UNL A   1      42.296  28.740  31.192  1.00  0.00     0.167 HD
ATOM     54  C   UNL A   1      43.588  31.178  34.598  1.00  0.00     0.034 A 
ATOM     55  C   UNL A   1      42.743  27.024  29.032  1.00  0.00     0.034 A 
ATOM     56  C   UNL A   1      44.704  30.319  34.311  1.00  0.00     0.049 A 
ATOM     57  C   UNL A   1      44.035  27.063  29.811  1.00  0.00     0.074 A 
ATOM     58  C   UNL A   1      45.907  30.219  34.985  1.00  0.00     0.029 A 
ATOM     59  N   UNL A   1      44.761  29.426  33.252  1.00  0.00    -0.354 N 
ATOM     60  N   UNL A   1      44.318  27.720  30.910  1.00  0.00    -0.248 NA
ATOM     61  C   UNL A   1      45.142  26.237  29.307  1.00  0.00     0.031 C 
ATOM     62  C   UNL A   1      46.702  29.278  34.321  1.00  0.00     0.029 A 
ATOM     63  C   UNL A   1      45.982  28.776  33.248  1.00  0.00     0.049 A 
ATOM     64  H   UNL A   1      44.039  29.276  32.600  1.00  0.00     0.167 HD
ATOM     65  C   UNL A   1      45.620  27.360  31.247  1.00  0.00     0.074 A 
ATOM     66  C   UNL A   1      46.062  26.411  30.246  1.00  0.00     0.031 C 
ATOM     67  C   UNL A   1      46.387  27.790  32.279  1.00  0.00     0.034 A 
BRANCH  54  68
ATOM     68  C   UNL A   1      43.689  32.115  35.771  1.00  0.00     0.023 A 
ATOM     69  C   UNL A   1      44.415  33.317  35.638  1.00  0.00     0.012 A 
ATOM     70  C   UNL A   1      43.035  31.831  36.985  1.00  0.00     0.148 A 
ATOM     71  C   UNL A   1      44.512  34.208  36.704  1.00  0.00     0.002 A 
ATOM     72  C   UNL A   1      43.102  32.744  38.031  1.00  0.00     0.091 A 
ATOM     73  F   UNL A   1      42.373  30.670  37.099  1.00  0.00    -0.205 F 
ATOM     74  C   UNL A   1      43.847  33.927  37.896  1.00  0.00     0.022 A 
BRANCH  72  75
ATOM     75  S   UNL A   1      42.224  32.509  39.579  1.00  0.00     0.127 S 
ATOM     76  O   UNL A   1      42.989  31.421  40.189  1.00  0.00    -0.237 OA
ATOM     77  O   UNL A   1      42.392  33.809  40.230  1.00  0.00    -0.237 OA
ATOM     78  O   UNL A   1      40.852  32.183  39.218  1.00  0.00    -0.744 OA
ENDBRANCH  72  75
ENDBRANCH  54  68
BRANCH  55  79
ATOM     79  C   UNL A   1      42.620  26.178  27.812  1.00  0.00     0.023 A 
ATOM     80  C   UNL A   1      42.955  26.716  26.553  1.00  0.00     0.012 A 
ATOM     81  C   UNL A   1      42.172  24.846  27.892  1.00  0.00     0.148 A 
ATOM     82  C   UNL A   1      42.818  25.950  25.394  1.00  0.00     0.002 A 
ATOM     83  C   UNL A   1      42.087  24.074  26.740  1.00  0.00     0.091 A 
ATOM     84  F   UNL A   1      41.837  24.361  29.096  1.00  0.00    -0.205 F 
ATOM     85  C   UNL A   1      42.395  24.628  25.488  1.00  0.00     0.022 A 
BRANCH  83  86
ATOM     86  S   UNL A   1      41.661  22.328  26.779  1.00  0.00     0.127 S 
ATOM     87  O   UNL A   1      42.388  21.871  27.960  1.00  0.00    -0.237 OA
ATOM     88  O   UNL A   1      40.206  22.380  26.932  1.00  0.00    -0.237 OA
ATOM     89  O   UNL A   1      42.116  21.790  25.506  1.00  0.00    -0.744 OA
ENDBRANCH  83  86
ENDBRANCH  55  79
BRANCH  67  90
ATOM     90  C   UNL A   1      47.774  27.215  32.413  1.00  0.00     0.023 A 
ATOM     91  C   UNL A   1      48.861  27.859  31.789  1.00  0.00     0.012 A 
ATOM     92  C   UNL A   1      48.012  26.091  33.229  1.00  0.00     0.148 A 
ATOM     93  C   UNL A   1      50.159  27.375  31.950  1.00  0.00     0.002 A 
ATOM     94  C   UNL A   1      49.314  25.644  33.424  1.00  0.00     0.091 A 
ATOM     95  F   UNL A   1      46.964  25.484  33.802  1.00  0.00    -0.205 F 
ATOM     96  C   UNL A   1      50.387  26.277  32.776  1.00  0.00     0.022 A 
BRANCH  94  97
ATOM     97  S   UNL A   1      49.712  24.298  34.546  1.00  0.00     0.127 S 
ATOM     98  O   UNL A   1      49.496  23.128  33.696  1.00  0.00    -0.237 OA
ATOM     99  O   UNL A   1      51.113  24.566  34.869  1.00  0.00    -0.237 OA
ATOM    100  O   UNL A   1      48.797  24.430  35.672  1.00  0.00    -0.744 OA
ENDBRANCH  94  97
ENDBRANCH  67  90
ENDBRANCH  41  42
ENDBRANCH  34  36
ENDBRANCH  33  34
ENDBRANCH  32  33
ENDBRANCH  31  32
ENDBRANCH  30  31
ENDBRANCH  29  30
ENDBRANCH  28  29
ENDBRANCH   1  28
TORSDOF 26
ENDMDL
MODEL 3
REMARK VINA RESULT:      -9.1      4.641     11.250
REMARK SMILES Cc1ccc(S(=O)(=O)N[C@H]2C=C[C@@H](C(=O)OCCOCCOCCOCCOC(=O)c3ccc(-c4c5nc(c(-c6cccc(S(=O)(=O)[O-])c6F)c6ccc([nH]6)c(-c6cccc(S(=O)(=O)[O-])c6F)c6nc(c(-c7cccc(S(=O)(=O)[O-])c7F)c7ccc4[nH]7)C=C6)C=C5)cc3)C2)c(C)c1
REMARK SMILES IDX 22 1 21 2 20 3 19 4 18 5 17 6 16 7 14 8 15 9 13 10 10 11
REMARK SMILES IDX 11 12 94 13 12 14 9 15 6 17 7 18 8 19 5 20 1 21 2 22 3 23
REMARK SMILES IDX 97 24 4 25 95 26 96 27 23 28 24 29 25 30 26 31 27 32 28 33
REMARK SMILES IDX 29 34 30 35 31 36 32 37 93 38 33 39 92 40 34 41 35 42 36 43
REMARK SMILES IDX 86 44 37 45 91 46 85 47 87 48 38 49 90 50 84 51 83 52 39 54
REMARK SMILES IDX 71 55 51 56 70 57 52 58 55 59 69 60 88 61 53 62 54 63 68 65
REMARK SMILES IDX 89 66 56 67 40 68 41 69 49 70 42 71 44 72 50 73 43 74 45 75
REMARK SMILES IDX 46 76 47 77 48 78 72 79 73 80 81 81 74 82 76 83 82 84 75 85
REMARK SMILES IDX 77 86 78 87 79 88 80 89 57 90 58 91 66 92 59 93 61 94 67 95
REMARK SMILES IDX 60 96 62 97 63 98 64 99 65 100
REMARK H PARENT 9 16 87 53 55 64
REMARK Flexibility Score: inf
ROOT
ATOM      1  O   UNL A   1      34.125  33.571  30.939  1.00  0.00    -0.377 OA
ENDROOT
BRANCH   1   2
ATOM      2  C   UNL A   1      35.378  33.331  31.541  1.00  0.00     0.188 C 
BRANCH   2   3
ATOM      3  C   UNL A   1      35.512  31.965  32.235  1.00  0.00     0.188 C 
BRANCH   3   4
ATOM      4  O   UNL A   1      36.715  31.593  32.898  1.00  0.00    -0.376 OA
BRANCH   4   5
ATOM      5  C   UNL A   1      37.232  32.405  33.949  1.00  0.00     0.202 C 
BRANCH   5   6
ATOM      6  C   UNL A   1      37.837  31.753  35.201  1.00  0.00     0.261 C 
BRANCH   6   7
ATOM      7  O   UNL A   1      39.192  31.308  35.039  1.00  0.00    -0.463 OA
BRANCH   7   8
ATOM      8  C   UNL A   1      39.370  30.084  34.489  1.00  0.00     0.312 C 
ATOM      9  O   UNL A   1      38.467  29.385  34.035  1.00  0.00    -0.252 OA
BRANCH   8  10
ATOM     10  C   UNL A   1      40.839  29.679  34.379  1.00  0.00     0.123 C 
ATOM     11  C   UNL A   1      42.420  27.968  35.177  1.00  0.00     0.093 C 
ATOM     12  C   UNL A   1      41.797  27.587  33.886  1.00  0.00    -0.011 C 
ATOM     13  C   UNL A   1      41.560  29.153  35.626  1.00  0.00     0.043 C 
ATOM     14  C   UNL A   1      40.964  28.527  33.431  1.00  0.00    -0.015 C 
BRANCH  11  15
ATOM     15  N   UNL A   1      42.429  26.970  36.224  1.00  0.00    -0.204 NA
ATOM     16  H   UNL A   1      41.708  27.267  36.881  1.00  0.00     0.142 HD
BRANCH  15  17
ATOM     17  S   UNL A   1      43.732  26.546  37.171  1.00  0.00     0.241 S 
ATOM     18  O   UNL A   1      43.230  26.330  38.505  1.00  0.00    -0.207 OA
ATOM     19  O   UNL A   1      44.765  27.511  36.861  1.00  0.00    -0.207 OA
BRANCH  17  20
ATOM     20  C   UNL A   1      44.294  24.983  36.514  1.00  0.00     0.085 A 
ATOM     21  C   UNL A   1      45.175  21.002  35.135  1.00  0.00     0.044 C 
ATOM     22  C   UNL A   1      44.874  22.398  35.589  1.00  0.00    -0.051 A 
ATOM     23  C   UNL A   1      43.989  23.212  34.880  1.00  0.00     0.005 A 
ATOM     24  C   UNL A   1      45.517  22.914  36.723  1.00  0.00     0.008 A 
ATOM     25  C   UNL A   1      43.706  24.499  35.334  1.00  0.00     0.022 A 
ATOM     26  C   UNL A   1      45.256  24.215  37.191  1.00  0.00    -0.031 A 
ATOM     27  C   UNL A   1      46.033  24.691  38.388  1.00  0.00     0.046 C 
ENDBRANCH  17  20
ENDBRANCH  15  17
ENDBRANCH  11  15
ENDBRANCH   8  10
ENDBRANCH   7   8
ENDBRANCH   6   7
ENDBRANCH   5   6
ENDBRANCH   4   5
ENDBRANCH   3   4
ENDBRANCH   2   3
ENDBRANCH   1   2
BRANCH   1  28
ATOM     28  C   UNL A   1      33.998  34.792  30.216  1.00  0.00     0.188 C 
BRANCH  28  29
ATOM     29  C   UNL A   1      33.217  34.733  28.890  1.00  0.00     0.188 C 
BRANCH  29  30
ATOM     30  O   UNL A   1      34.010  34.314  27.779  1.00  0.00    -0.376 OA
BRANCH  30  31
ATOM     31  C   UNL A   1      34.903  33.225  27.993  1.00  0.00     0.202 C 
BRANCH  31  32
ATOM     32  C   UNL A   1      34.336  31.825  27.700  1.00  0.00     0.261 C 
BRANCH  32  33
ATOM     33  O   UNL A   1      34.706  30.788  28.625  1.00  0.00    -0.460 OA
BRANCH  33  34
ATOM     34  C   UNL A   1      35.261  29.660  28.133  1.00  0.00     0.338 C 
ATOM     35  O   UNL A   1      34.751  28.866  27.364  1.00  0.00    -0.246 OA
BRANCH  34  36
ATOM     36  C   UNL A   1      36.687  29.652  28.518  1.00  0.00     0.060 A 
ATOM     37  C   UNL A   1      37.641  30.019  27.559  1.00  0.00     0.016 A 
ATOM     38  C   UNL A   1      37.082  29.277  29.804  1.00  0.00     0.016 A 
ATOM     39  C   UNL A   1      38.999  29.968  27.874  1.00  0.00     0.010 A 
ATOM     40  C   UNL A   1      38.442  29.208  30.111  1.00  0.00     0.010 A 
ATOM     41  C   UNL A   1      39.407  29.516  29.135  1.00  0.00    -0.014 A 
BRANCH  41  42
ATOM     42  C   UNL A   1      40.829  29.171  29.370  1.00  0.00     0.031 A 
ATOM     43  C   UNL A   1      41.381  27.938  28.706  1.00  0.00     0.074 A 
ATOM     44  C   UNL A   1      41.612  29.922  30.164  1.00  0.00     0.049 A 
ATOM     45  N   UNL A   1      42.574  27.412  28.795  1.00  0.00    -0.248 NA
ATOM     46  C   UNL A   1      40.461  27.199  27.825  1.00  0.00     0.031 C 
ATOM     47  C   UNL A   1      41.193  31.135  30.862  1.00  0.00     0.029 A 
ATOM     48  N   UNL A   1      42.921  29.750  30.537  1.00  0.00    -0.354 N 
ATOM     49  C   UNL A   1      42.543  26.273  28.001  1.00  0.00     0.074 A 
ATOM     50  C   UNL A   1      41.210  26.174  27.449  1.00  0.00     0.031 C 
ATOM     51  C   UNL A   1      42.216  31.578  31.615  1.00  0.00     0.029 A 
ATOM     52  C   UNL A   1      43.353  30.669  31.465  1.00  0.00     0.049 A 
ATOM     53  H   UNL A   1      43.496  29.037  30.177  1.00  0.00     0.167 HD
ATOM     54  C   UNL A   1      43.539  25.395  27.738  1.00  0.00     0.034 A 
ATOM     55  C   UNL A   1      44.521  30.749  32.133  1.00  0.00     0.034 A 
ATOM     56  C   UNL A   1      44.866  25.496  28.280  1.00  0.00     0.049 A 
ATOM     57  C   UNL A   1      45.605  29.739  31.851  1.00  0.00     0.074 A 
ATOM     58  C   UNL A   1      45.954  24.675  28.048  1.00  0.00     0.029 A 
ATOM     59  N   UNL A   1      45.281  26.468  29.178  1.00  0.00    -0.354 N 
ATOM     60  N   UNL A   1      45.603  28.738  31.002  1.00  0.00    -0.248 NA
ATOM     61  C   UNL A   1      46.864  29.887  32.596  1.00  0.00     0.031 C 
ATOM     62  C   UNL A   1      47.024  25.138  28.822  1.00  0.00     0.029 A 
ATOM     63  C   UNL A   1      46.607  26.262  29.516  1.00  0.00     0.049 A 
ATOM     64  H   UNL A   1      44.716  27.197  29.522  1.00  0.00     0.167 HD
ATOM     65  C   UNL A   1      46.866  28.162  31.087  1.00  0.00     0.074 A 
ATOM     66  C   UNL A   1      47.615  28.938  32.054  1.00  0.00     0.031 C 
ATOM     67  C   UNL A   1      47.357  27.078  30.437  1.00  0.00     0.034 A 
BRANCH  54  68
ATOM     68  C   UNL A   1      43.236  24.264  26.793  1.00  0.00     0.023 A 
ATOM     69  C   UNL A   1      43.700  24.328  25.463  1.00  0.00     0.012 A 
ATOM     70  C   UNL A   1      42.535  23.123  27.228  1.00  0.00     0.148 A 
ATOM     71  C   UNL A   1      43.446  23.288  24.572  1.00  0.00     0.002 A 
ATOM     72  C   UNL A   1      42.321  22.071  26.345  1.00  0.00     0.091 A 
ATOM     73  F   UNL A   1      42.080  23.094  28.489  1.00  0.00    -0.205 F 
ATOM     74  C   UNL A   1      42.766  22.156  25.016  1.00  0.00     0.022 A 
BRANCH  72  75
ATOM     75  S   UNL A   1      41.519  20.542  26.838  1.00  0.00     0.127 S 
ATOM     76  O   UNL A   1      40.197  21.020  27.243  1.00  0.00    -0.237 OA
ATOM     77  O   UNL A   1      41.533  19.771  25.594  1.00  0.00    -0.237 OA
ATOM     78  O   UNL A   1      42.337  19.985  27.906  1.00  0.00    -0.744 OA
ENDBRANCH  72  75
ENDBRANCH  54  68
BRANCH  55  79
ATOM     79  C   UNL A   1      44.740  31.839  33.126  1.00  0.00     0.023 A 
ATOM     80  C   UNL A   1      45.045  33.139  32.678  1.00  0.00     0.012 A 
ATOM     81  C   UNL A   1      44.650  31.593  34.509  1.00  0.00     0.148 A 
ATOM     82  C   UNL A   1      45.284  34.168  33.592  1.00  0.00     0.002 A 
ATOM     83  C   UNL A   1      44.839  32.632  35.411  1.00  0.00     0.091 A 
ATOM     84  F   UNL A   1      44.382  30.343  34.914  1.00  0.00    -0.205 F 
ATOM     85  C   UNL A   1      45.171  33.917  34.956  1.00  0.00     0.022 A 
BRANCH  83  86
ATOM     86  S   UNL A   1      44.602  32.428  37.181  1.00  0.00     0.127 S 
ATOM     87  O   UNL A   1      45.183  33.662  37.702  1.00  0.00    -0.237 OA
ATOM     88  O   UNL A   1      43.144  32.343  37.278  1.00  0.00    -0.237 OA
ATOM     89  O   UNL A   1      45.304  31.201  37.527  1.00  0.00    -0.744 OA
ENDBRANCH  83  86
ENDBRANCH  55  79
BRANCH  67  90
ATOM     90  C   UNL A   1      48.784  26.677  30.713  1.00  0.00     0.023 A 
ATOM     91  C   UNL A   1      49.836  27.325  30.035  1.00  0.00     0.012 A 
ATOM     92  C   UNL A   1      49.085  25.723  31.704  1.00  0.00     0.148 A 
ATOM     93  C   UNL A   1      51.164  27.008  30.320  1.00  0.00     0.002 A 
ATOM     94  C   UNL A   1      50.412  25.448  32.017  1.00  0.00     0.091 A 
ATOM     95  F   UNL A   1      48.070  25.106  32.327  1.00  0.00    -0.205 F 
ATOM     96  C   UNL A   1      51.452  26.080  31.319  1.00  0.00     0.022 A 
BRANCH  94  97
ATOM     97  S   UNL A   1      50.876  24.339  33.353  1.00  0.00     0.127 S 
ATOM     98  O   UNL A   1      49.985  24.775  34.426  1.00  0.00    -0.237 OA
ATOM     99  O   UNL A   1      50.558  23.026  32.792  1.00  0.00    -0.237 OA
ATOM    100  O   UNL A   1      52.296  24.567  33.589  1.00  0.00    -0.744 OA
ENDBRANCH  94  97
ENDBRANCH  67  90
ENDBRANCH  41  42
ENDBRANCH  34  36
ENDBRANCH  33  34
ENDBRANCH  32  33
ENDBRANCH  31  32
ENDBRANCH  30  31
ENDBRANCH  29  30
ENDBRANCH  28  29
ENDBRANCH   1  28
TORSDOF 26
ENDMDL
