MODEL 1
REMARK VINA RESULT:      -9.7      0.000      0.000
REMARK SMILES O=C(OCCOCCOCCOCCOC(=O)c1nccnc1C(=O)N1CCC(Cc2ccccc2)CC1)c1ccc(-c2c3nc(c(-c4cccc(S(=O)(=O)[O-])c4F)c4ccc([nH]4)c(-c4cccc(S(=O)(=O)[O-])c4F)c4nc(c(-c5cccc(S(=O)(=O)[O-])c5F)c5ccc2[nH]5)C=C4)C=C3)cc1
REMARK SMILES IDX 9 1 8 2 7 3 6 4 5 5 4 6 3 7 2 8 1 9 39 10 40 11 101 12 41 13
REMARK SMILES IDX 100 14 42 15 43 16 44 17 94 18 45 19 99 20 93 21 95 22 46 23
REMARK SMILES IDX 98 24 92 25 91 26 47 28 79 29 59 30 78 31 60 32 63 33 77 34
REMARK SMILES IDX 96 35 61 36 62 37 76 39 97 40 64 41 48 42 49 43 57 44 50 45
REMARK SMILES IDX 52 46 58 47 51 48 53 49 54 50 55 51 56 52 80 53 81 54 89 55
REMARK SMILES IDX 82 56 84 57 90 58 83 59 85 60 86 61 87 62 88 63 65 64 66 65
REMARK SMILES IDX 74 66 67 67 69 68 75 69 68 70 70 71 71 72 72 73 73 74 10 75
REMARK SMILES IDX 11 76 12 77 13 78 14 79 15 80 16 81 17 82 18 83 19 84 23 85
REMARK SMILES IDX 20 86 22 87 21 88 24 89 25 90 26 91 27 92 38 93 28 94 37 95
REMARK SMILES IDX 29 96 30 97 31 98 32 99 36 100 33 101 35 102 34 103
REMARK H PARENT 95 27 63 38
REMARK Flexibility Score: inf
ROOT
ATOM      1  O   UNL A   1      34.595  22.313  27.059  1.00  0.00    -0.377 OA
ENDROOT
BRANCH   1   2
ATOM      2  C   UNL A   1      34.504  21.208  26.165  1.00  0.00     0.188 C 
BRANCH   2   3
ATOM      3  C   UNL A   1      35.813  20.833  25.466  1.00  0.00     0.188 C 
BRANCH   3   4
ATOM      4  O   UNL A   1      36.271  21.807  24.518  1.00  0.00    -0.376 OA
BRANCH   4   5
ATOM      5  C   UNL A   1      37.624  22.228  24.726  1.00  0.00     0.202 C 
BRANCH   5   6
ATOM      6  C   UNL A   1      38.510  21.110  25.278  1.00  0.00     0.261 C 
BRANCH   6   7
ATOM      7  O   UNL A   1      39.050  21.493  26.557  1.00  0.00    -0.460 OA
BRANCH   7   8
ATOM      8  C   UNL A   1      40.319  21.922  26.776  1.00  0.00     0.338 C 
ATOM      9  O   UNL A   1      41.277  21.223  26.462  1.00  0.00    -0.246 OA
BRANCH   8  10
ATOM     10  C   UNL A   1      40.561  23.296  27.269  1.00  0.00     0.060 A 
ATOM     11  C   UNL A   1      39.867  24.415  26.806  1.00  0.00     0.016 A 
ATOM     12  C   UNL A   1      41.478  23.441  28.310  1.00  0.00     0.016 A 
ATOM     13  C   UNL A   1      40.207  25.690  27.263  1.00  0.00     0.010 A 
ATOM     14  C   UNL A   1      41.758  24.712  28.823  1.00  0.00     0.010 A 
ATOM     15  C   UNL A   1      41.181  25.861  28.256  1.00  0.00    -0.014 A 
BRANCH  15  16
ATOM     16  C   UNL A   1      41.705  27.217  28.598  1.00  0.00     0.031 A 
ATOM     17  C   UNL A   1      40.774  28.214  29.245  1.00  0.00     0.074 A 
ATOM     18  C   UNL A   1      42.996  27.558  28.406  1.00  0.00     0.049 A 
ATOM     19  N   UNL A   1      40.940  29.492  29.466  1.00  0.00    -0.248 NA
ATOM     20  C   UNL A   1      39.457  27.708  29.675  1.00  0.00     0.031 C 
ATOM     21  C   UNL A   1      44.039  26.678  27.884  1.00  0.00     0.029 A 
ATOM     22  N   UNL A   1      43.663  28.728  28.683  1.00  0.00    -0.354 N 
ATOM     23  C   UNL A   1      39.721  29.958  29.939  1.00  0.00     0.074 A 
ATOM     24  C   UNL A   1      38.825  28.825  29.997  1.00  0.00     0.031 C 
ATOM     25  C   UNL A   1      45.228  27.292  27.998  1.00  0.00     0.029 A 
ATOM     26  C   UNL A   1      45.027  28.646  28.507  1.00  0.00     0.049 A 
ATOM     27  H   UNL A   1      43.208  29.548  28.982  1.00  0.00     0.167 HD
ATOM     28  C   UNL A   1      39.377  31.216  30.298  1.00  0.00     0.034 A 
ATOM     29  C   UNL A   1      45.997  29.554  28.751  1.00  0.00     0.034 A 
ATOM     30  C   UNL A   1      40.311  32.304  30.393  1.00  0.00     0.049 A 
ATOM     31  C   UNL A   1      45.607  30.932  29.227  1.00  0.00     0.074 A 
ATOM     32  C   UNL A   1      40.066  33.624  30.728  1.00  0.00     0.029 A 
ATOM     33  N   UNL A   1      41.678  32.185  30.199  1.00  0.00    -0.354 N 
ATOM     34  N   UNL A   1      44.431  31.385  29.590  1.00  0.00    -0.248 NA
ATOM     35  C   UNL A   1      46.686  31.928  29.324  1.00  0.00     0.031 C 
ATOM     36  C   UNL A   1      41.287  34.307  30.726  1.00  0.00     0.029 A 
ATOM     37  C   UNL A   1      42.293  33.406  30.416  1.00  0.00     0.049 A 
ATOM     38  H   UNL A   1      42.143  31.356  29.945  1.00  0.00     0.167 HD
ATOM     39  C   UNL A   1      44.626  32.713  29.953  1.00  0.00     0.074 A 
ATOM     40  C   UNL A   1      46.044  32.975  29.827  1.00  0.00     0.031 C 
ATOM     41  C   UNL A   1      43.710  33.643  30.320  1.00  0.00     0.034 A 
BRANCH  28  42
ATOM     42  C   UNL A   1      37.923  31.492  30.573  1.00  0.00     0.023 A 
ATOM     43  C   UNL A   1      37.407  31.430  31.881  1.00  0.00     0.012 A 
ATOM     44  C   UNL A   1      37.068  31.840  29.506  1.00  0.00     0.148 A 
ATOM     45  C   UNL A   1      36.052  31.670  32.117  1.00  0.00     0.002 A 
ATOM     46  C   UNL A   1      35.732  32.126  29.756  1.00  0.00     0.091 A 
ATOM     47  F   UNL A   1      37.574  31.868  28.265  1.00  0.00    -0.205 F 
ATOM     48  C   UNL A   1      35.219  32.028  31.059  1.00  0.00     0.022 A 
BRANCH  46  49
ATOM     49  S   UNL A   1      34.608  32.676  28.469  1.00  0.00     0.127 S 
ATOM     50  O   UNL A   1      33.652  33.474  29.233  1.00  0.00    -0.237 OA
ATOM     51  O   UNL A   1      35.493  33.450  27.598  1.00  0.00    -0.237 OA
ATOM     52  O   UNL A   1      34.070  31.465  27.862  1.00  0.00    -0.744 OA
ENDBRANCH  46  49
ENDBRANCH  28  42
BRANCH  29  53
ATOM     53  C   UNL A   1      47.440  29.177  28.631  1.00  0.00     0.023 A 
ATOM     54  C   UNL A   1      48.138  28.766  29.786  1.00  0.00     0.012 A 
ATOM     55  C   UNL A   1      48.121  29.191  27.401  1.00  0.00     0.148 A 
ATOM     56  C   UNL A   1      49.483  28.400  29.720  1.00  0.00     0.002 A 
ATOM     57  C   UNL A   1      49.436  28.742  27.327  1.00  0.00     0.091 A 
ATOM     58  F   UNL A   1      47.472  29.632  26.314  1.00  0.00    -0.205 F 
ATOM     59  C   UNL A   1      50.127  28.367  28.488  1.00  0.00     0.022 A 
BRANCH  57  60
ATOM     60  S   UNL A   1      50.249  28.489  25.745  1.00  0.00     0.127 S 
ATOM     61  O   UNL A   1      49.137  28.081  24.894  1.00  0.00    -0.237 OA
ATOM     62  O   UNL A   1      50.793  29.818  25.459  1.00  0.00    -0.237 OA
ATOM     63  O   UNL A   1      51.269  27.479  26.006  1.00  0.00    -0.744 OA
ENDBRANCH  57  60
ENDBRANCH  29  53
BRANCH  41  64
ATOM     64  C   UNL A   1      44.202  35.043  30.590  1.00  0.00     0.023 A 
ATOM     65  C   UNL A   1      44.564  35.407  31.903  1.00  0.00     0.012 A 
ATOM     66  C   UNL A   1      44.390  35.964  29.541  1.00  0.00     0.148 A 
ATOM     67  C   UNL A   1      45.073  36.676  32.175  1.00  0.00     0.002 A 
ATOM     68  C   UNL A   1      44.944  37.211  29.812  1.00  0.00     0.091 A 
ATOM     69  F   UNL A   1      44.027  35.606  28.301  1.00  0.00    -0.205 F 
ATOM     70  C   UNL A   1      45.273  37.573  31.128  1.00  0.00     0.022 A 
BRANCH  68  71
ATOM     71  S   UNL A   1      45.331  38.396  28.517  1.00  0.00     0.127 S 
ATOM     72  O   UNL A   1      45.731  39.567  29.296  1.00  0.00    -0.237 OA
ATOM     73  O   UNL A   1      46.426  37.733  27.808  1.00  0.00    -0.237 OA
ATOM     74  O   UNL A   1      44.111  38.549  27.738  1.00  0.00    -0.744 OA
ENDBRANCH  68  71
ENDBRANCH  41  64
ENDBRANCH  15  16
ENDBRANCH   8  10
ENDBRANCH   7   8
ENDBRANCH   6   7
ENDBRANCH   5   6
ENDBRANCH   4   5
ENDBRANCH   3   4
ENDBRANCH   2   3
ENDBRANCH   1   2
BRANCH   1  75
ATOM     75  C   UNL A   1      33.433  22.525  27.848  1.00  0.00     0.188 C 
BRANCH  75  76
ATOM     76  C   UNL A   1      32.238  23.164  27.142  1.00  0.00     0.188 C 
BRANCH  76  77
ATOM     77  O   UNL A   1      30.927  22.799  27.555  1.00  0.00    -0.376 OA
BRANCH  77  78
ATOM     78  C   UNL A   1      29.854  23.388  26.785  1.00  0.00     0.202 C 
BRANCH  78  79
ATOM     79  C   UNL A   1      29.714  24.925  26.812  1.00  0.00     0.261 C 
BRANCH  79  80
ATOM     80  O   UNL A   1      30.180  25.590  25.613  1.00  0.00    -0.458 OA
BRANCH  80  81
ATOM     81  C   UNL A   1      31.173  26.527  25.702  1.00  0.00     0.359 C 
ATOM     82  O   UNL A   1      32.086  26.511  26.491  1.00  0.00    -0.244 OA
BRANCH  81  83
ATOM     83  C   UNL A   1      31.067  27.366  24.456  1.00  0.00     0.179 A 
ATOM     84  N   UNL A   1      30.288  28.496  24.559  1.00  0.00    -0.245 NA
ATOM     85  C   UNL A   1      31.447  26.859  23.212  1.00  0.00     0.161 A 
ATOM     86  C   UNL A   1      29.957  29.106  23.401  1.00  0.00     0.132 A 
ATOM     87  N   UNL A   1      31.074  27.473  22.042  1.00  0.00    -0.247 NA
ATOM     88  C   UNL A   1      30.333  28.600  22.171  1.00  0.00     0.132 A 
BRANCH  85  89
ATOM     89  C   UNL A   1      32.518  25.850  23.083  1.00  0.00     0.274 C 
ATOM     90  O   UNL A   1      33.641  26.327  22.893  1.00  0.00    -0.267 OA
ATOM     91  N   UNL A   1      32.287  24.472  23.190  1.00  0.00    -0.337 N 
ATOM     92  C   UNL A   1      33.445  23.663  23.564  1.00  0.00     0.120 C 
ATOM     93  C   UNL A   1      30.989  23.798  23.260  1.00  0.00     0.120 C 
ATOM     94  C   UNL A   1      33.462  22.295  22.901  1.00  0.00     0.025 C 
ATOM     95  C   UNL A   1      31.002  22.397  22.625  1.00  0.00     0.025 C 
ATOM     96  C   UNL A   1      32.155  21.542  23.180  1.00  0.00    -0.003 C 
BRANCH  96  97
ATOM     97  C   UNL A   1      32.183  20.121  22.573  1.00  0.00     0.039 C 
BRANCH  97  98
ATOM     98  C   UNL A   1      32.553  18.990  23.515  1.00  0.00    -0.048 A 
ATOM     99  C   UNL A   1      33.085  17.803  22.983  1.00  0.00     0.004 A 
ATOM    100  C   UNL A   1      32.341  19.047  24.900  1.00  0.00     0.004 A 
ATOM    101  C   UNL A   1      33.428  16.730  23.812  1.00  0.00     0.000 A 
ATOM    102  C   UNL A   1      32.712  17.986  25.730  1.00  0.00     0.000 A 
ATOM    103  C   UNL A   1      33.252  16.827  25.187  1.00  0.00     0.000 A 
ENDBRANCH  97  98
ENDBRANCH  96  97
ENDBRANCH  85  89
ENDBRANCH  81  83
ENDBRANCH  80  81
ENDBRANCH  79  80
ENDBRANCH  78  79
ENDBRANCH  77  78
ENDBRANCH  76  77
ENDBRANCH  75  76
ENDBRANCH   1  75
TORSDOF 26
ENDMDL
MODEL 2
REMARK VINA RESULT:      -8.9      4.114      9.574
REMARK SMILES O=C(OCCOCCOCCOCCOC(=O)c1nccnc1C(=O)N1CCC(Cc2ccccc2)CC1)c1ccc(-c2c3nc(c(-c4cccc(S(=O)(=O)[O-])c4F)c4ccc([nH]4)c(-c4cccc(S(=O)(=O)[O-])c4F)c4nc(c(-c5cccc(S(=O)(=O)[O-])c5F)c5ccc2[nH]5)C=C4)C=C3)cc1
REMARK SMILES IDX 9 1 8 2 7 3 6 4 5 5 4 6 3 7 2 8 1 9 39 10 40 11 101 12 41 13
REMARK SMILES IDX 100 14 42 15 43 16 44 17 94 18 45 19 99 20 93 21 95 22 46 23
REMARK SMILES IDX 98 24 92 25 91 26 47 28 79 29 59 30 78 31 60 32 63 33 77 34
REMARK SMILES IDX 96 35 61 36 62 37 76 39 97 40 64 41 48 42 49 43 57 44 50 45
REMARK SMILES IDX 52 46 58 47 51 48 53 49 54 50 55 51 56 52 80 53 81 54 89 55
REMARK SMILES IDX 82 56 84 57 90 58 83 59 85 60 86 61 87 62 88 63 65 64 66 65
REMARK SMILES IDX 74 66 67 67 69 68 75 69 68 70 70 71 71 72 72 73 73 74 10 75
REMARK SMILES IDX 11 76 12 77 13 78 14 79 15 80 16 81 17 82 18 83 19 84 23 85
REMARK SMILES IDX 20 86 22 87 21 88 24 89 25 90 26 91 27 92 38 93 28 94 37 95
REMARK SMILES IDX 29 96 30 97 31 98 32 99 36 100 33 101 35 102 34 103
REMARK H PARENT 95 27 63 38
REMARK Flexibility Score: inf
ROOT
ATOM      1  O   UNL A   1      35.272  33.809  30.422  1.00  0.00    -0.377 OA
ENDROOT
BRANCH   1   2
ATOM      2  C   UNL A   1      34.606  32.775  31.140  1.00  0.00     0.188 C 
BRANCH   2   3
ATOM      3  C   UNL A   1      35.174  32.484  32.531  1.00  0.00     0.188 C 
BRANCH   3   4
ATOM      4  O   UNL A   1      36.031  31.335  32.585  1.00  0.00    -0.376 OA
BRANCH   4   5
ATOM      5  C   UNL A   1      37.131  31.474  33.491  1.00  0.00     0.202 C 
BRANCH   5   6
ATOM      6  C   UNL A   1      38.482  31.509  32.774  1.00  0.00     0.261 C 
BRANCH   6   7
ATOM      7  O   UNL A   1      38.400  32.349  31.606  1.00  0.00    -0.460 OA
BRANCH   7   8
ATOM      8  C   UNL A   1      38.674  33.678  31.576  1.00  0.00     0.338 C 
ATOM      9  O   UNL A   1      37.947  34.478  32.155  1.00  0.00    -0.246 OA
BRANCH   8  10
ATOM     10  C   UNL A   1      39.929  34.161  30.959  1.00  0.00     0.060 A 
ATOM     11  C   UNL A   1      40.001  34.688  29.668  1.00  0.00     0.016 A 
ATOM     12  C   UNL A   1      41.071  34.155  31.760  1.00  0.00     0.016 A 
ATOM     13  C   UNL A   1      41.236  35.050  29.126  1.00  0.00     0.010 A 
ATOM     14  C   UNL A   1      42.293  34.593  31.240  1.00  0.00     0.010 A 
ATOM     15  C   UNL A   1      42.405  34.978  29.893  1.00  0.00    -0.014 A 
BRANCH  15  16
ATOM     16  C   UNL A   1      43.751  35.153  29.268  1.00  0.00     0.031 A 
ATOM     17  C   UNL A   1      44.490  33.930  28.779  1.00  0.00     0.074 A 
ATOM     18  C   UNL A   1      44.299  36.370  29.071  1.00  0.00     0.049 A 
ATOM     19  N   UNL A   1      45.728  33.809  28.375  1.00  0.00    -0.248 NA
ATOM     20  C   UNL A   1      43.740  32.661  28.776  1.00  0.00     0.031 C 
ATOM     21  C   UNL A   1      43.669  37.648  29.396  1.00  0.00     0.029 A 
ATOM     22  N   UNL A   1      45.492  36.731  28.492  1.00  0.00    -0.354 N 
ATOM     23  C   UNL A   1      45.934  32.447  28.191  1.00  0.00     0.074 A 
ATOM     24  C   UNL A   1      44.691  31.781  28.504  1.00  0.00     0.031 C 
ATOM     25  C   UNL A   1      44.420  38.645  28.901  1.00  0.00     0.029 A 
ATOM     26  C   UNL A   1      45.634  38.089  28.309  1.00  0.00     0.049 A 
ATOM     27  H   UNL A   1      46.182  36.078  28.231  1.00  0.00     0.167 HD
ATOM     28  C   UNL A   1      47.059  31.809  27.792  1.00  0.00     0.034 A 
ATOM     29  C   UNL A   1      46.620  38.793  27.713  1.00  0.00     0.034 A 
ATOM     30  C   UNL A   1      48.239  32.483  27.326  1.00  0.00     0.049 A 
ATOM     31  C   UNL A   1      47.836  38.061  27.200  1.00  0.00     0.074 A 
ATOM     32  C   UNL A   1      49.441  31.933  26.917  1.00  0.00     0.029 A 
ATOM     33  N   UNL A   1      48.348  33.855  27.164  1.00  0.00    -0.354 N 
ATOM     34  N   UNL A   1      48.054  36.771  27.111  1.00  0.00    -0.248 NA
ATOM     35  C   UNL A   1      48.947  38.889  26.706  1.00  0.00     0.031 C 
ATOM     36  C   UNL A   1      50.282  32.976  26.517  1.00  0.00     0.029 A 
ATOM     37  C   UNL A   1      49.594  34.172  26.652  1.00  0.00     0.049 A 
ATOM     38  H   UNL A   1      47.644  34.507  27.381  1.00  0.00     0.167 HD
ATOM     39  C   UNL A   1      49.322  36.632  26.557  1.00  0.00     0.074 A 
ATOM     40  C   UNL A   1      49.800  37.968  26.272  1.00  0.00     0.031 C 
ATOM     41  C   UNL A   1      50.043  35.504  26.340  1.00  0.00     0.034 A 
BRANCH  28  42
ATOM     42  C   UNL A   1      47.078  30.307  27.882  1.00  0.00     0.023 A 
ATOM     43  C   UNL A   1      47.447  29.655  29.074  1.00  0.00     0.012 A 
ATOM     44  C   UNL A   1      46.700  29.539  26.761  1.00  0.00     0.148 A 
ATOM     45  C   UNL A   1      47.478  28.260  29.135  1.00  0.00     0.002 A 
ATOM     46  C   UNL A   1      46.685  28.153  26.845  1.00  0.00     0.091 A 
ATOM     47  F   UNL A   1      46.378  30.179  25.628  1.00  0.00    -0.205 F 
ATOM     48  C   UNL A   1      47.088  27.511  28.027  1.00  0.00     0.022 A 
BRANCH  46  49
ATOM     49  S   UNL A   1      46.118  27.111  25.497  1.00  0.00     0.127 S 
ATOM     50  O   UNL A   1      45.055  26.344  26.144  1.00  0.00    -0.237 OA
ATOM     51  O   UNL A   1      45.652  28.098  24.523  1.00  0.00    -0.237 OA
ATOM     52  O   UNL A   1      47.278  26.340  25.070  1.00  0.00    -0.744 OA
ENDBRANCH  46  49
ENDBRANCH  28  42
BRANCH  29  53
ATOM     53  C   UNL A   1      46.476  40.265  27.490  1.00  0.00     0.023 A 
ATOM     54  C   UNL A   1      47.022  41.158  28.435  1.00  0.00     0.012 A 
ATOM     55  C   UNL A   1      45.838  40.795  26.354  1.00  0.00     0.148 A 
ATOM     56  C   UNL A   1      46.917  42.540  28.264  1.00  0.00     0.002 A 
ATOM     57  C   UNL A   1      45.813  42.170  26.146  1.00  0.00     0.091 A 
ATOM     58  F   UNL A   1      45.272  39.946  25.483  1.00  0.00    -0.205 F 
ATOM     59  C   UNL A   1      46.331  43.046  27.109  1.00  0.00     0.022 A 
BRANCH  57  60
ATOM     60  S   UNL A   1      45.252  42.869  24.589  1.00  0.00     0.127 S 
ATOM     61  O   UNL A   1      45.753  41.898  23.622  1.00  0.00    -0.237 OA
ATOM     62  O   UNL A   1      43.798  42.880  24.757  1.00  0.00    -0.237 OA
ATOM     63  O   UNL A   1      45.849  44.199  24.539  1.00  0.00    -0.744 OA
ENDBRANCH  57  60
ENDBRANCH  29  53
BRANCH  41  64
ATOM     64  C   UNL A   1      51.438  35.658  25.789  1.00  0.00     0.023 A 
ATOM     65  C   UNL A   1      51.613  35.907  24.412  1.00  0.00     0.012 A 
ATOM     66  C   UNL A   1      52.562  35.648  26.637  1.00  0.00     0.148 A 
ATOM     67  C   UNL A   1      52.886  36.108  23.882  1.00  0.00     0.002 A 
ATOM     68  C   UNL A   1      53.824  35.897  26.109  1.00  0.00     0.091 A 
ATOM     69  F   UNL A   1      52.379  35.396  27.941  1.00  0.00    -0.205 F 
ATOM     70  C   UNL A   1      53.990  36.114  24.732  1.00  0.00     0.022 A 
BRANCH  68  71
ATOM     71  S   UNL A   1      55.292  36.024  27.138  1.00  0.00     0.127 S 
ATOM     72  O   UNL A   1      56.261  36.598  26.206  1.00  0.00    -0.237 OA
ATOM     73  O   UNL A   1      54.851  36.936  28.196  1.00  0.00    -0.237 OA
ATOM     74  O   UNL A   1      55.583  34.671  27.589  1.00  0.00    -0.744 OA
ENDBRANCH  68  71
ENDBRANCH  41  64
ENDBRANCH  15  16
ENDBRANCH   8  10
ENDBRANCH   7   8
ENDBRANCH   6   7
ENDBRANCH   5   6
ENDBRANCH   4   5
ENDBRANCH   3   4
ENDBRANCH   2   3
ENDBRANCH   1   2
BRANCH   1  75
ATOM     75  C   UNL A   1      35.847  33.392  29.193  1.00  0.00     0.188 C 
BRANCH  75  76
ATOM     76  C   UNL A   1      34.872  33.001  28.083  1.00  0.00     0.188 C 
BRANCH  76  77
ATOM     77  O   UNL A   1      34.817  31.640  27.672  1.00  0.00    -0.376 OA
BRANCH  77  78
ATOM     78  C   UNL A   1      33.515  31.180  27.244  1.00  0.00     0.202 C 
BRANCH  78  79
ATOM     79  C   UNL A   1      33.314  29.659  27.072  1.00  0.00     0.261 C 
BRANCH  79  80
ATOM     80  O   UNL A   1      32.536  29.286  25.910  1.00  0.00    -0.458 OA
BRANCH  80  81
ATOM     81  C   UNL A   1      32.945  28.239  25.129  1.00  0.00     0.359 C 
ATOM     82  O   UNL A   1      33.981  27.632  25.254  1.00  0.00    -0.244 OA
BRANCH  81  83
ATOM     83  C   UNL A   1      31.740  27.819  24.330  1.00  0.00     0.179 A 
ATOM     84  N   UNL A   1      31.431  28.615  23.250  1.00  0.00    -0.245 NA
ATOM     85  C   UNL A   1      30.820  26.903  24.841  1.00  0.00     0.161 A 
ATOM     86  C   UNL A   1      30.217  28.424  22.691  1.00  0.00     0.132 A 
ATOM     87  N   UNL A   1      29.576  26.744  24.281  1.00  0.00    -0.247 NA
ATOM     88  C   UNL A   1      29.308  27.517  23.201  1.00  0.00     0.132 A 
BRANCH  85  89
ATOM     89  C   UNL A   1      31.230  25.839  25.782  1.00  0.00     0.274 C 
ATOM     90  O   UNL A   1      30.996  26.096  26.966  1.00  0.00    -0.267 OA
ATOM     91  N   UNL A   1      31.813  24.635  25.366  1.00  0.00    -0.337 N 
ATOM     92  C   UNL A   1      31.678  23.513  26.294  1.00  0.00     0.120 C 
ATOM     93  C   UNL A   1      32.271  24.296  24.018  1.00  0.00     0.120 C 
ATOM     94  C   UNL A   1      32.887  22.592  26.303  1.00  0.00     0.025 C 
ATOM     95  C   UNL A   1      33.473  23.334  24.013  1.00  0.00     0.025 C 
ATOM     96  C   UNL A   1      33.201  22.097  24.886  1.00  0.00    -0.003 C 
BRANCH  96  97
ATOM     97  C   UNL A   1      34.385  21.102  24.886  1.00  0.00     0.039 C 
BRANCH  97  98
ATOM     98  C   UNL A   1      34.051  19.652  24.589  1.00  0.00    -0.048 A 
ATOM     99  C   UNL A   1      32.718  19.297  24.326  1.00  0.00     0.004 A 
ATOM    100  C   UNL A   1      35.008  18.627  24.613  1.00  0.00     0.004 A 
ATOM    101  C   UNL A   1      32.363  17.971  24.059  1.00  0.00     0.000 A 
ATOM    102  C   UNL A   1      34.657  17.307  24.316  1.00  0.00     0.000 A 
ATOM    103  C   UNL A   1      33.335  16.978  24.043  1.00  0.00     0.000 A 
ENDBRANCH  97  98
ENDBRANCH  96  97
ENDBRANCH  85  89
ENDBRANCH  81  83
ENDBRANCH  80  81
ENDBRANCH  79  80
ENDBRANCH  78  79
ENDBRANCH  77  78
ENDBRANCH  76  77
ENDBRANCH  75  76
ENDBRANCH   1  75
TORSDOF 26
ENDMDL
MODEL 3
REMARK VINA RESULT:      -8.6      3.948      9.074
REMARK SMILES O=C(OCCOCCOCCOCCOC(=O)c1nccnc1C(=O)N1CCC(Cc2ccccc2)CC1)c1ccc(-c2c3nc(c(-c4cccc(S(=O)(=O)[O-])c4F)c4ccc([nH]4)c(-c4cccc(S(=O)(=O)[O-])c4F)c4nc(c(-c5cccc(S(=O)(=O)[O-])c5F)c5ccc2[nH]5)C=C4)C=C3)cc1
REMARK SMILES IDX 9 1 8 2 7 3 6 4 5 5 4 6 3 7 2 8 1 9 39 10 40 11 101 12 41 13
REMARK SMILES IDX 100 14 42 15 43 16 44 17 94 18 45 19 99 20 93 21 95 22 46 23
REMARK SMILES IDX 98 24 92 25 91 26 47 28 79 29 59 30 78 31 60 32 63 33 77 34
REMARK SMILES IDX 96 35 61 36 62 37 76 39 97 40 64 41 48 42 49 43 57 44 50 45
REMARK SMILES IDX 52 46 58 47 51 48 53 49 54 50 55 51 56 52 80 53 81 54 89 55
REMARK SMILES IDX 82 56 84 57 90 58 83 59 85 60 86 61 87 62 88 63 65 64 66 65
REMARK SMILES IDX 74 66 67 67 69 68 75 69 68 70 70 71 71 72 72 73 73 74 10 75
REMARK SMILES IDX 11 76 12 77 13 78 14 79 15 80 16 81 17 82 18 83 19 84 23 85
REMARK SMILES IDX 20 86 22 87 21 88 24 89 25 90 26 91 27 92 38 93 28 94 37 95
REMARK SMILES IDX 29 96 30 97 31 98 32 99 36 100 33 101 35 102 34 103
REMARK H PARENT 95 27 63 38
REMARK Flexibility Score: inf
ROOT
ATOM      1  O   UNL A   1      37.246  31.958  29.026  1.00  0.00    -0.377 OA
ENDROOT
BRANCH   1   2
ATOM      2  C   UNL A   1      37.679  32.642  30.198  1.00  0.00     0.188 C 
BRANCH   2   3
ATOM      3  C   UNL A   1      37.060  34.026  30.405  1.00  0.00     0.188 C 
BRANCH   3   4
ATOM      4  O   UNL A   1      36.099  34.086  31.469  1.00  0.00    -0.376 OA
BRANCH   4   5
ATOM      5  C   UNL A   1      36.305  33.107  32.493  1.00  0.00     0.202 C 
BRANCH   5   6
ATOM      6  C   UNL A   1      36.953  33.696  33.747  1.00  0.00     0.261 C 
BRANCH   6   7
ATOM      7  O   UNL A   1      36.646  32.878  34.893  1.00  0.00    -0.460 OA
BRANCH   7   8
ATOM      8  C   UNL A   1      37.558  32.221  35.654  1.00  0.00     0.338 C 
ATOM      9  O   UNL A   1      37.310  31.942  36.822  1.00  0.00    -0.246 OA
BRANCH   8  10
ATOM     10  C   UNL A   1      38.806  31.715  35.042  1.00  0.00     0.060 A 
ATOM     11  C   UNL A   1      40.074  31.937  35.581  1.00  0.00     0.016 A 
ATOM     12  C   UNL A   1      38.674  30.907  33.913  1.00  0.00     0.016 A 
ATOM     13  C   UNL A   1      41.212  31.494  34.903  1.00  0.00     0.010 A 
ATOM     14  C   UNL A   1      39.812  30.397  33.281  1.00  0.00     0.010 A 
ATOM     15  C   UNL A   1      41.099  30.745  33.725  1.00  0.00    -0.014 A 
BRANCH  15  16
ATOM     16  C   UNL A   1      42.295  30.451  32.879  1.00  0.00     0.031 A 
ATOM     17  C   UNL A   1      42.878  29.058  32.903  1.00  0.00     0.074 A 
ATOM     18  C   UNL A   1      42.833  31.370  32.050  1.00  0.00     0.049 A 
ATOM     19  N   UNL A   1      44.002  28.614  32.406  1.00  0.00    -0.248 NA
ATOM     20  C   UNL A   1      42.099  28.027  33.615  1.00  0.00     0.031 C 
ATOM     21  C   UNL A   1      42.327  32.725  31.841  1.00  0.00     0.029 A 
ATOM     22  N   UNL A   1      43.895  31.279  31.183  1.00  0.00    -0.354 N 
ATOM     23  C   UNL A   1      44.120  27.302  32.846  1.00  0.00     0.074 A 
ATOM     24  C   UNL A   1      42.944  27.009  33.633  1.00  0.00     0.031 C 
ATOM     25  C   UNL A   1      42.995  33.289  30.822  1.00  0.00     0.029 A 
ATOM     26  C   UNL A   1      44.044  32.380  30.368  1.00  0.00     0.049 A 
ATOM     27  H   UNL A   1      44.495  30.499  31.147  1.00  0.00     0.167 HD
ATOM     28  C   UNL A   1      45.118  26.418  32.612  1.00  0.00     0.034 A 
ATOM     29  C   UNL A   1      44.912  32.611  29.360  1.00  0.00     0.034 A 
ATOM     30  C   UNL A   1      46.201  26.657  31.699  1.00  0.00     0.049 A 
ATOM     31  C   UNL A   1      45.972  31.581  29.056  1.00  0.00     0.074 A 
ATOM     32  C   UNL A   1      47.275  25.837  31.403  1.00  0.00     0.029 A 
ATOM     33  N   UNL A   1      46.322  27.783  30.900  1.00  0.00    -0.354 N 
ATOM     34  N   UNL A   1      46.123  30.374  29.544  1.00  0.00    -0.248 NA
ATOM     35  C   UNL A   1      46.988  31.952  28.058  1.00  0.00     0.031 C 
ATOM     36  C   UNL A   1      48.053  26.474  30.430  1.00  0.00     0.029 A 
ATOM     37  C   UNL A   1      47.448  27.677  30.103  1.00  0.00     0.049 A 
ATOM     38  H   UNL A   1      45.699  28.545  30.901  1.00  0.00     0.167 HD
ATOM     39  C   UNL A   1      47.247  29.844  28.919  1.00  0.00     0.074 A 
ATOM     40  C   UNL A   1      47.702  30.837  27.970  1.00  0.00     0.031 C 
ATOM     41  C   UNL A   1      47.869  28.658  29.138  1.00  0.00     0.034 A 
BRANCH  28  42
ATOM     42  C   UNL A   1      45.103  25.128  33.387  1.00  0.00     0.023 A 
ATOM     43  C   UNL A   1      44.609  23.941  32.813  1.00  0.00     0.012 A 
ATOM     44  C   UNL A   1      45.612  25.102  34.702  1.00  0.00     0.148 A 
ATOM     45  C   UNL A   1      44.585  22.757  33.552  1.00  0.00     0.002 A 
ATOM     46  C   UNL A   1      45.631  23.908  35.413  1.00  0.00     0.091 A 
ATOM     47  F   UNL A   1      46.053  26.248  35.239  1.00  0.00    -0.205 F 
ATOM     48  C   UNL A   1      45.104  22.738  34.845  1.00  0.00     0.022 A 
BRANCH  46  49
ATOM     49  S   UNL A   1      46.356  23.774  37.050  1.00  0.00     0.127 S 
ATOM     50  O   UNL A   1      47.715  24.257  36.812  1.00  0.00    -0.237 OA
ATOM     51  O   UNL A   1      45.515  24.678  37.834  1.00  0.00    -0.237 OA
ATOM     52  O   UNL A   1      46.247  22.369  37.423  1.00  0.00    -0.744 OA
ENDBRANCH  46  49
ENDBRANCH  28  42
BRANCH  29  53
ATOM     53  C   UNL A   1      44.776  33.830  28.503  1.00  0.00     0.023 A 
ATOM     54  C   UNL A   1      43.973  33.766  27.345  1.00  0.00     0.012 A 
ATOM     55  C   UNL A   1      45.400  35.049  28.824  1.00  0.00     0.148 A 
ATOM     56  C   UNL A   1      43.813  34.880  26.519  1.00  0.00     0.002 A 
ATOM     57  C   UNL A   1      45.166  36.178  28.045  1.00  0.00     0.091 A 
ATOM     58  F   UNL A   1      46.206  35.093  29.895  1.00  0.00    -0.205 F 
ATOM     59  C   UNL A   1      44.392  36.092  26.880  1.00  0.00     0.022 A 
BRANCH  57  60
ATOM     60  S   UNL A   1      45.720  37.804  28.569  1.00  0.00     0.127 S 
ATOM     61  O   UNL A   1      45.762  38.533  27.306  1.00  0.00    -0.237 OA
ATOM     62  O   UNL A   1      44.656  38.216  29.487  1.00  0.00    -0.237 OA
ATOM     63  O   UNL A   1      47.003  37.569  29.223  1.00  0.00    -0.744 OA
ENDBRANCH  57  60
ENDBRANCH  29  53
BRANCH  41  64
ATOM     64  C   UNL A   1      49.128  28.373  28.358  1.00  0.00     0.023 A 
ATOM     65  C   UNL A   1      50.375  28.431  29.014  1.00  0.00     0.012 A 
ATOM     66  C   UNL A   1      49.074  27.963  27.011  1.00  0.00     0.148 A 
ATOM     67  C   UNL A   1      51.552  28.121  28.334  1.00  0.00     0.002 A 
ATOM     68  C   UNL A   1      50.247  27.608  26.354  1.00  0.00     0.091 A 
ATOM     69  F   UNL A   1      47.882  27.927  26.400  1.00  0.00    -0.205 F 
ATOM     70  C   UNL A   1      51.486  27.698  27.008  1.00  0.00     0.022 A 
BRANCH  68  71
ATOM     71  S   UNL A   1      50.253  26.957  24.678  1.00  0.00     0.127 S 
ATOM     72  O   UNL A   1      49.312  25.845  24.787  1.00  0.00    -0.237 OA
ATOM     73  O   UNL A   1      49.762  28.097  23.902  1.00  0.00    -0.237 OA
ATOM     74  O   UNL A   1      51.633  26.585  24.399  1.00  0.00    -0.744 OA
ENDBRANCH  68  71
ENDBRANCH  41  64
ENDBRANCH  15  16
ENDBRANCH   8  10
ENDBRANCH   7   8
ENDBRANCH   6   7
ENDBRANCH   5   6
ENDBRANCH   4   5
ENDBRANCH   3   4
ENDBRANCH   2   3
ENDBRANCH   1   2
BRANCH   1  75
ATOM     75  C   UNL A   1      35.897  31.519  29.068  1.00  0.00     0.188 C 
BRANCH  75  76
ATOM     76  C   UNL A   1      35.106  31.624  27.764  1.00  0.00     0.188 C 
BRANCH  76  77
ATOM     77  O   UNL A   1      33.745  31.212  27.757  1.00  0.00    -0.376 OA
BRANCH  77  78
ATOM     78  C   UNL A   1      33.433  30.139  26.839  1.00  0.00     0.202 C 
BRANCH  78  79
ATOM     79  C   UNL A   1      33.765  28.698  27.281  1.00  0.00     0.261 C 
BRANCH  79  80
ATOM     80  O   UNL A   1      33.009  27.672  26.595  1.00  0.00    -0.458 OA
BRANCH  80  81
ATOM     81  C   UNL A   1      31.662  27.569  26.807  1.00  0.00     0.359 C 
ATOM     82  O   UNL A   1      31.094  27.804  27.846  1.00  0.00    -0.244 OA
BRANCH  81  83
ATOM     83  C   UNL A   1      31.035  27.422  25.446  1.00  0.00     0.179 A 
ATOM     84  N   UNL A   1      31.078  28.538  24.642  1.00  0.00    -0.245 NA
ATOM     85  C   UNL A   1      30.185  26.353  25.157  1.00  0.00     0.161 A 
ATOM     86  C   UNL A   1      30.294  28.518  23.544  1.00  0.00     0.132 A 
ATOM     87  N   UNL A   1      29.368  26.363  24.052  1.00  0.00    -0.247 NA
ATOM     88  C   UNL A   1      29.451  27.460  23.262  1.00  0.00     0.132 A 
BRANCH  85  89
ATOM     89  C   UNL A   1      30.344  25.039  25.813  1.00  0.00     0.274 C 
ATOM     90  O   UNL A   1      29.638  24.887  26.815  1.00  0.00    -0.267 OA
ATOM     91  N   UNL A   1      31.203  24.043  25.331  1.00  0.00    -0.337 N 
ATOM     92  C   UNL A   1      30.878  22.676  25.736  1.00  0.00     0.120 C 
ATOM     93  C   UNL A   1      32.188  24.172  24.256  1.00  0.00     0.120 C 
ATOM     94  C   UNL A   1      32.105  21.809  25.962  1.00  0.00     0.025 C 
ATOM     95  C   UNL A   1      33.419  23.271  24.453  1.00  0.00     0.025 C 
ATOM     96  C   UNL A   1      33.007  21.813  24.721  1.00  0.00    -0.003 C 
BRANCH  96  97
ATOM     97  C   UNL A   1      34.224  20.878  24.906  1.00  0.00     0.039 C 
BRANCH  97  98
ATOM     98  C   UNL A   1      33.965  19.390  24.758  1.00  0.00    -0.048 A 
ATOM     99  C   UNL A   1      32.670  18.895  24.985  1.00  0.00     0.004 A 
ATOM    100  C   UNL A   1      34.974  18.465  24.451  1.00  0.00     0.004 A 
ATOM    101  C   UNL A   1      32.389  17.530  24.872  1.00  0.00     0.000 A 
ATOM    102  C   UNL A   1      34.685  17.106  24.309  1.00  0.00     0.000 A 
ATOM    103  C   UNL A   1      33.395  16.637  24.522  1.00  0.00     0.000 A 
ENDBRANCH  97  98
ENDBRANCH  96  97
ENDBRANCH  85  89
ENDBRANCH  81  83
ENDBRANCH  80  81
ENDBRANCH  79  80
ENDBRANCH  78  79
ENDBRANCH  77  78
ENDBRANCH  76  77
ENDBRANCH  75  76
ENDBRANCH   1  75
TORSDOF 26
ENDMDL
