MODEL 1
REMARK VINA RESULT:     -10.4      0.000      0.000
REMARK SMILES Cc1nn([C@H]2CCS(=O)(=O)C2)c(C)c1/C=C(\CC(=O)OCCOCCOCCOCCOC(=O)c1ccc(-c2c3nc(c(-c4cccc(S(=O)(=O)[O-])c4F)c4ccc([nH]4)c(-c4cccc(S(=O)(=O)[O-])c4F)c4nc(c(-c5cccc(S(=O)(=O)[O-])c5F)c5ccc2[nH]5)C=C4)C=C3)cc1)c1nc2ccccc2s1
REMARK SMILES IDX 26 1 25 2 24 3 23 4 22 5 21 6 20 7 18 8 19 9 17 10 16 11
REMARK SMILES IDX 15 12 14 13 1 14 2 15 3 16 4 17 12 18 13 19 5 20 6 21 11 22
REMARK SMILES IDX 7 23 8 24 9 25 10 26 98 27 99 28 106 29 100 30 105 31 101 32
REMARK SMILES IDX 104 33 102 34 103 35 27 36 28 37 29 38 30 39 31 40 32 41
REMARK SMILES IDX 33 42 34 43 35 44 36 45 97 46 37 47 96 48 38 49 39 50 40 51
REMARK SMILES IDX 90 52 41 53 95 54 89 55 91 56 42 57 94 58 88 59 87 60 43 62
REMARK SMILES IDX 75 63 55 64 74 65 56 66 59 67 73 68 92 69 57 70 58 71 72 73
REMARK SMILES IDX 93 74 60 75 44 76 45 77 53 78 46 79 48 80 54 81 47 82 49 83
REMARK SMILES IDX 50 84 51 85 52 86 76 87 77 88 85 89 78 90 80 91 86 92 79 93
REMARK SMILES IDX 81 94 82 95 83 96 84 97 61 98 62 99 70 100 63 101 65 102
REMARK SMILES IDX 71 103 64 104 66 105 67 106 68 107 69 108
REMARK H PARENT 91 61 59 72
REMARK Flexibility Score: inf
ROOT
ATOM      1  O   UNL A   1      36.162  23.229  25.311  1.00  0.00    -0.377 OA
ENDROOT
BRANCH   1   2
ATOM      2  C   UNL A   1      35.294  24.043  24.547  1.00  0.00     0.188 C 
BRANCH   2   3
ATOM      3  C   UNL A   1      34.596  25.250  25.199  1.00  0.00     0.188 C 
BRANCH   3   4
ATOM      4  O   UNL A   1      34.683  26.538  24.594  1.00  0.00    -0.376 OA
BRANCH   4   5
ATOM      5  C   UNL A   1      33.620  27.051  23.816  1.00  0.00     0.202 C 
BRANCH   5   6
ATOM      6  C   UNL A   1      33.766  27.217  22.295  1.00  0.00     0.261 C 
BRANCH   6   7
ATOM      7  O   UNL A   1      32.829  26.492  21.476  1.00  0.00    -0.463 OA
BRANCH   7   8
ATOM      8  C   UNL A   1      32.729  25.175  21.784  1.00  0.00     0.310 C 
ATOM      9  O   UNL A   1      33.464  24.309  21.315  1.00  0.00    -0.252 OA
BRANCH   8  10
ATOM     10  C   UNL A   1      31.504  24.795  22.597  1.00  0.00     0.161 C 
BRANCH  10  11
ATOM     11  C   UNL A   1      31.435  24.080  23.953  1.00  0.00    -0.000 C 
ATOM     12  C   UNL A   1      30.995  24.711  25.079  1.00  0.00     0.019 C 
BRANCH  12  13
ATOM     13  C   UNL A   1      30.695  26.102  25.226  1.00  0.00     0.019 A 
ATOM     14  C   UNL A   1      32.054  26.786  27.372  1.00  0.00     0.069 C 
ATOM     15  C   UNL A   1      31.246  27.031  26.149  1.00  0.00     0.067 A 
ATOM     16  N   UNL A   1      30.915  28.286  25.803  1.00  0.00    -0.177 NA
ATOM     17  N   UNL A   1      30.179  28.115  24.688  1.00  0.00    -0.265 N 
ATOM     18  C   UNL A   1      29.694  26.832  24.605  1.00  0.00     0.043 A 
ATOM     19  C   UNL A   1      28.419  26.441  23.944  1.00  0.00     0.067 C 
BRANCH  17  20
ATOM     20  C   UNL A   1      30.165  29.163  23.677  1.00  0.00     0.123 C 
ATOM     21  C   UNL A   1      30.667  28.661  22.301  1.00  0.00     0.044 C 
ATOM     22  C   UNL A   1      28.771  29.715  23.368  1.00  0.00     0.164 C 
ATOM     23  C   UNL A   1      30.440  29.785  21.305  1.00  0.00     0.139 C 
ATOM     24  S   UNL A   1      28.950  30.594  21.839  1.00  0.00     0.152 S 
ATOM     25  O   UNL A   1      29.260  31.974  22.147  1.00  0.00    -0.229 OA
ATOM     26  O   UNL A   1      27.866  30.220  20.954  1.00  0.00    -0.229 OA
ENDBRANCH  17  20
ENDBRANCH  12  13
BRANCH  11  27
ATOM     27  C   UNL A   1      31.662  22.640  23.998  1.00  0.00     0.121 A 
ATOM     28  N   UNL A   1      31.685  21.887  22.912  1.00  0.00    -0.236 NA
ATOM     29  S   UNL A   1      32.012  21.746  25.450  1.00  0.00    -0.114 S 
ATOM     30  C   UNL A   1      32.051  20.580  23.201  1.00  0.00     0.082 A 
ATOM     31  C   UNL A   1      32.289  20.312  24.546  1.00  0.00     0.055 A 
ATOM     32  C   UNL A   1      32.230  19.546  22.259  1.00  0.00     0.030 A 
ATOM     33  C   UNL A   1      32.703  19.042  24.987  1.00  0.00     0.021 A 
ATOM     34  C   UNL A   1      32.656  18.282  22.683  1.00  0.00     0.002 A 
ATOM     35  C   UNL A   1      32.890  18.036  24.032  1.00  0.00     0.002 A 
ENDBRANCH  11  27
ENDBRANCH  10  11
ENDBRANCH   8  10
ENDBRANCH   7   8
ENDBRANCH   6   7
ENDBRANCH   5   6
ENDBRANCH   4   5
ENDBRANCH   3   4
ENDBRANCH   2   3
ENDBRANCH   1   2
BRANCH   1  36
ATOM     36  C   UNL A   1      35.569  22.158  26.008  1.00  0.00     0.188 C 
BRANCH  36  37
ATOM     37  C   UNL A   1      36.175  20.799  25.636  1.00  0.00     0.188 C 
BRANCH  37  38
ATOM     38  O   UNL A   1      37.340  20.880  24.825  1.00  0.00    -0.376 OA
BRANCH  38  39
ATOM     39  C   UNL A   1      38.119  19.704  24.594  1.00  0.00     0.202 C 
BRANCH  39  40
ATOM     40  C   UNL A   1      39.055  19.189  25.690  1.00  0.00     0.261 C 
BRANCH  40  41
ATOM     41  O   UNL A   1      40.440  19.275  25.423  1.00  0.00    -0.460 OA
BRANCH  41  42
ATOM     42  C   UNL A   1      41.249  19.797  26.353  1.00  0.00     0.338 C 
ATOM     43  O   UNL A   1      41.910  19.205  27.185  1.00  0.00    -0.246 OA
BRANCH  42  44
ATOM     44  C   UNL A   1      41.110  21.257  26.266  1.00  0.00     0.060 A 
ATOM     45  C   UNL A   1      42.292  21.925  25.972  1.00  0.00     0.016 A 
ATOM     46  C   UNL A   1      40.022  21.876  26.908  1.00  0.00     0.016 A 
ATOM     47  C   UNL A   1      42.533  23.073  26.675  1.00  0.00     0.010 A 
ATOM     48  C   UNL A   1      40.272  23.010  27.630  1.00  0.00     0.010 A 
ATOM     49  C   UNL A   1      41.565  23.512  27.589  1.00  0.00    -0.014 A 
BRANCH  49  50
ATOM     50  C   UNL A   1      41.970  24.567  28.475  1.00  0.00     0.031 A 
ATOM     51  C   UNL A   1      41.135  25.759  28.334  1.00  0.00     0.074 A 
ATOM     52  C   UNL A   1      43.007  24.468  29.319  1.00  0.00     0.049 A 
ATOM     53  N   UNL A   1      41.421  26.842  27.694  1.00  0.00    -0.248 NA
ATOM     54  C   UNL A   1      39.735  25.629  28.749  1.00  0.00     0.031 C 
ATOM     55  C   UNL A   1      43.689  23.258  29.781  1.00  0.00     0.029 A 
ATOM     56  N   UNL A   1      43.580  25.462  30.042  1.00  0.00    -0.354 N 
ATOM     57  C   UNL A   1      40.288  27.629  27.826  1.00  0.00     0.074 A 
ATOM     58  C   UNL A   1      39.229  26.750  28.240  1.00  0.00     0.031 C 
ATOM     59  C   UNL A   1      44.413  23.568  30.880  1.00  0.00     0.029 A 
ATOM     60  C   UNL A   1      44.341  25.006  31.100  1.00  0.00     0.049 A 
ATOM     61  H   UNL A   1      43.464  26.418  29.834  1.00  0.00     0.167 HD
ATOM     62  C   UNL A   1      40.383  28.983  27.869  1.00  0.00     0.034 A 
ATOM     63  C   UNL A   1      44.783  25.761  32.129  1.00  0.00     0.034 A 
ATOM     64  C   UNL A   1      41.673  29.434  27.404  1.00  0.00     0.049 A 
ATOM     65  C   UNL A   1      44.750  27.182  31.704  1.00  0.00     0.074 A 
ATOM     66  C   UNL A   1      42.359  29.412  26.209  1.00  0.00     0.029 A 
ATOM     67  N   UNL A   1      42.593  29.717  28.386  1.00  0.00    -0.354 N 
ATOM     68  N   UNL A   1      45.529  27.687  30.787  1.00  0.00    -0.248 NA
ATOM     69  C   UNL A   1      43.599  28.004  32.054  1.00  0.00     0.031 C 
ATOM     70  C   UNL A   1      43.742  29.386  26.555  1.00  0.00     0.029 A 
ATOM     71  C   UNL A   1      43.847  29.381  27.948  1.00  0.00     0.049 A 
ATOM     72  H   UNL A   1      42.383  30.100  29.267  1.00  0.00     0.167 HD
ATOM     73  C   UNL A   1      44.759  28.658  30.159  1.00  0.00     0.074 A 
ATOM     74  C   UNL A   1      43.665  28.922  31.084  1.00  0.00     0.031 C 
ATOM     75  C   UNL A   1      44.912  28.932  28.828  1.00  0.00     0.034 A 
BRANCH  62  76
ATOM     76  C   UNL A   1      39.497  29.872  28.716  1.00  0.00     0.023 A 
ATOM     77  C   UNL A   1      39.867  30.019  30.070  1.00  0.00     0.012 A 
ATOM     78  C   UNL A   1      38.204  30.325  28.358  1.00  0.00     0.148 A 
ATOM     79  C   UNL A   1      38.973  30.510  31.028  1.00  0.00     0.002 A 
ATOM     80  C   UNL A   1      37.343  30.874  29.299  1.00  0.00     0.091 A 
ATOM     81  F   UNL A   1      37.719  30.118  27.133  1.00  0.00    -0.205 F 
ATOM     82  C   UNL A   1      37.709  30.937  30.643  1.00  0.00     0.022 A 
BRANCH  80  83
ATOM     83  S   UNL A   1      35.709  31.456  28.825  1.00  0.00     0.127 S 
ATOM     84  O   UNL A   1      36.040  32.463  27.821  1.00  0.00    -0.237 OA
ATOM     85  O   UNL A   1      35.091  30.237  28.305  1.00  0.00    -0.237 OA
ATOM     86  O   UNL A   1      35.102  31.948  30.057  1.00  0.00    -0.744 OA
ENDBRANCH  80  83
ENDBRANCH  62  76
BRANCH  63  87
ATOM     87  C   UNL A   1      45.034  25.341  33.522  1.00  0.00     0.023 A 
ATOM     88  C   UNL A   1      46.305  24.872  33.894  1.00  0.00     0.012 A 
ATOM     89  C   UNL A   1      44.088  25.599  34.540  1.00  0.00     0.148 A 
ATOM     90  C   UNL A   1      46.629  24.671  35.240  1.00  0.00     0.002 A 
ATOM     91  C   UNL A   1      44.406  25.377  35.876  1.00  0.00     0.091 A 
ATOM     92  F   UNL A   1      42.909  26.143  34.208  1.00  0.00    -0.205 F 
ATOM     93  C   UNL A   1      45.681  24.923  36.230  1.00  0.00     0.022 A 
BRANCH  91  94
ATOM     94  S   UNL A   1      43.224  25.670  37.198  1.00  0.00     0.127 S 
ATOM     95  O   UNL A   1      42.096  24.833  36.789  1.00  0.00    -0.237 OA
ATOM     96  O   UNL A   1      43.952  25.188  38.367  1.00  0.00    -0.237 OA
ATOM     97  O   UNL A   1      42.943  27.101  37.169  1.00  0.00    -0.744 OA
ENDBRANCH  91  94
ENDBRANCH  63  87
BRANCH  75  98
ATOM     98  C   UNL A   1      46.177  28.451  28.159  1.00  0.00     0.023 A 
ATOM     99  C   UNL A   1      47.343  29.244  28.130  1.00  0.00     0.012 A 
ATOM    100  C   UNL A   1      46.246  27.127  27.687  1.00  0.00     0.148 A 
ATOM    101  C   UNL A   1      48.540  28.742  27.614  1.00  0.00     0.002 A 
ATOM    102  C   UNL A   1      47.453  26.616  27.218  1.00  0.00     0.091 A 
ATOM    103  F   UNL A   1      45.134  26.377  27.725  1.00  0.00    -0.205 F 
ATOM    104  C   UNL A   1      48.598  27.424  27.169  1.00  0.00     0.022 A 
BRANCH 102 105
ATOM    105  S   UNL A   1      47.622  24.887  26.762  1.00  0.00     0.127 S 
ATOM    106  O   UNL A   1      47.564  24.944  25.304  1.00  0.00    -0.237 OA
ATOM    107  O   UNL A   1      48.936  24.538  27.307  1.00  0.00    -0.237 OA
ATOM    108  O   UNL A   1      46.513  24.200  27.415  1.00  0.00    -0.744 OA
ENDBRANCH 102 105
ENDBRANCH  75  98
ENDBRANCH  49  50
ENDBRANCH  42  44
ENDBRANCH  41  42
ENDBRANCH  40  41
ENDBRANCH  39  40
ENDBRANCH  38  39
ENDBRANCH  37  38
ENDBRANCH  36  37
ENDBRANCH   1  36
TORSDOF 27
ENDMDL
MODEL 2
REMARK VINA RESULT:      -9.7      5.520      9.453
REMARK SMILES Cc1nn([C@H]2CCS(=O)(=O)C2)c(C)c1/C=C(\CC(=O)OCCOCCOCCOCCOC(=O)c1ccc(-c2c3nc(c(-c4cccc(S(=O)(=O)[O-])c4F)c4ccc([nH]4)c(-c4cccc(S(=O)(=O)[O-])c4F)c4nc(c(-c5cccc(S(=O)(=O)[O-])c5F)c5ccc2[nH]5)C=C4)C=C3)cc1)c1nc2ccccc2s1
REMARK SMILES IDX 26 1 25 2 24 3 23 4 22 5 21 6 20 7 18 8 19 9 17 10 16 11
REMARK SMILES IDX 15 12 14 13 1 14 2 15 3 16 4 17 12 18 13 19 5 20 6 21 11 22
REMARK SMILES IDX 7 23 8 24 9 25 10 26 98 27 99 28 106 29 100 30 105 31 101 32
REMARK SMILES IDX 104 33 102 34 103 35 27 36 28 37 29 38 30 39 31 40 32 41
REMARK SMILES IDX 33 42 34 43 35 44 36 45 97 46 37 47 96 48 38 49 39 50 40 51
REMARK SMILES IDX 90 52 41 53 95 54 89 55 91 56 42 57 94 58 88 59 87 60 43 62
REMARK SMILES IDX 75 63 55 64 74 65 56 66 59 67 73 68 92 69 57 70 58 71 72 73
REMARK SMILES IDX 93 74 60 75 44 76 45 77 53 78 46 79 48 80 54 81 47 82 49 83
REMARK SMILES IDX 50 84 51 85 52 86 76 87 77 88 85 89 78 90 80 91 86 92 79 93
REMARK SMILES IDX 81 94 82 95 83 96 84 97 61 98 62 99 70 100 63 101 65 102
REMARK SMILES IDX 71 103 64 104 66 105 67 106 68 107 69 108
REMARK H PARENT 91 61 59 72
REMARK Flexibility Score: inf
ROOT
ATOM      1  O   UNL A   1      39.538  24.278  26.692  1.00  0.00    -0.377 OA
ENDROOT
BRANCH   1   2
ATOM      2  C   UNL A   1      39.212  25.128  27.773  1.00  0.00     0.188 C 
BRANCH   2   3
ATOM      3  C   UNL A   1      39.946  26.471  27.947  1.00  0.00     0.188 C 
BRANCH   3   4
ATOM      4  O   UNL A   1      39.370  27.501  28.746  1.00  0.00    -0.376 OA
BRANCH   4   5
ATOM      5  C   UNL A   1      39.454  27.463  30.157  1.00  0.00     0.202 C 
BRANCH   5   6
ATOM      6  C   UNL A   1      40.391  28.419  30.914  1.00  0.00     0.261 C 
BRANCH   6   7
ATOM      7  O   UNL A   1      40.067  28.675  32.295  1.00  0.00    -0.463 OA
BRANCH   7   8
ATOM      8  C   UNL A   1      40.517  29.868  32.756  1.00  0.00     0.310 C 
ATOM      9  O   UNL A   1      41.435  29.982  33.566  1.00  0.00    -0.252 OA
BRANCH   8  10
ATOM     10  C   UNL A   1      39.674  31.069  32.366  1.00  0.00     0.161 C 
BRANCH  10  11
ATOM     11  C   UNL A   1      40.044  32.247  31.456  1.00  0.00    -0.000 C 
ATOM     12  C   UNL A   1      39.197  33.298  31.257  1.00  0.00     0.019 C 
BRANCH  12  13
ATOM     13  C   UNL A   1      37.841  33.406  31.698  1.00  0.00     0.019 A 
ATOM     14  C   UNL A   1      38.067  34.527  34.067  1.00  0.00     0.069 C 
ATOM     15  C   UNL A   1      37.340  34.046  32.864  1.00  0.00     0.067 A 
ATOM     16  N   UNL A   1      36.004  34.167  32.792  1.00  0.00    -0.177 NA
ATOM     17  N   UNL A   1      35.706  33.612  31.602  1.00  0.00    -0.265 N 
ATOM     18  C   UNL A   1      36.718  32.787  31.172  1.00  0.00     0.043 A 
ATOM     19  C   UNL A   1      36.534  31.584  30.316  1.00  0.00     0.067 C 
BRANCH  17  20
ATOM     20  C   UNL A   1      34.537  34.081  30.870  1.00  0.00     0.123 C 
ATOM     21  C   UNL A   1      33.872  35.305  31.545  1.00  0.00     0.044 C 
ATOM     22  C   UNL A   1      34.843  34.576  29.455  1.00  0.00     0.164 C 
ATOM     23  C   UNL A   1      32.786  35.799  30.605  1.00  0.00     0.139 C 
ATOM     24  S   UNL A   1      33.408  35.496  28.968  1.00  0.00     0.152 S 
ATOM     25  O   UNL A   1      32.502  34.593  28.290  1.00  0.00    -0.229 OA
ATOM     26  O   UNL A   1      33.833  36.752  28.383  1.00  0.00    -0.229 OA
ENDBRANCH  17  20
ENDBRANCH  12  13
BRANCH  11  27
ATOM     27  C   UNL A   1      41.407  32.338  30.947  1.00  0.00     0.121 A 
ATOM     28  N   UNL A   1      41.815  31.674  29.879  1.00  0.00    -0.236 NA
ATOM     29  S   UNL A   1      42.637  33.377  31.610  1.00  0.00    -0.114 S 
ATOM     30  C   UNL A   1      43.107  32.029  29.517  1.00  0.00     0.082 A 
ATOM     31  C   UNL A   1      43.720  32.968  30.342  1.00  0.00     0.055 A 
ATOM     32  C   UNL A   1      43.809  31.552  28.390  1.00  0.00     0.030 A 
ATOM     33  C   UNL A   1      45.015  33.452  30.080  1.00  0.00     0.021 A 
ATOM     34  C   UNL A   1      45.092  32.035  28.111  1.00  0.00     0.002 A 
ATOM     35  C   UNL A   1      45.685  32.976  28.947  1.00  0.00     0.002 A 
ENDBRANCH  11  27
ENDBRANCH  10  11
ENDBRANCH   8  10
ENDBRANCH   7   8
ENDBRANCH   6   7
ENDBRANCH   5   6
ENDBRANCH   4   5
ENDBRANCH   3   4
ENDBRANCH   2   3
ENDBRANCH   1   2
BRANCH   1  36
ATOM     36  C   UNL A   1      38.585  23.294  26.357  1.00  0.00     0.188 C 
BRANCH  36  37
ATOM     37  C   UNL A   1      39.195  21.892  26.244  1.00  0.00     0.188 C 
BRANCH  37  38
ATOM     38  O   UNL A   1      40.545  21.874  25.801  1.00  0.00    -0.376 OA
BRANCH  38  39
ATOM     39  C   UNL A   1      41.586  21.563  26.729  1.00  0.00     0.202 C 
BRANCH  39  40
ATOM     40  C   UNL A   1      42.919  22.312  26.650  1.00  0.00     0.261 C 
BRANCH  40  41
ATOM     41  O   UNL A   1      43.003  23.342  25.686  1.00  0.00    -0.460 OA
BRANCH  41  42
ATOM     42  C   UNL A   1      43.929  23.258  24.724  1.00  0.00     0.338 C 
ATOM     43  O   UNL A   1      43.910  22.559  23.729  1.00  0.00    -0.246 OA
BRANCH  42  44
ATOM     44  C   UNL A   1      45.059  24.096  25.149  1.00  0.00     0.060 A 
ATOM     45  C   UNL A   1      46.163  23.379  25.594  1.00  0.00     0.016 A 
ATOM     46  C   UNL A   1      44.814  25.430  25.519  1.00  0.00     0.016 A 
ATOM     47  C   UNL A   1      46.787  23.857  26.712  1.00  0.00     0.010 A 
ATOM     48  C   UNL A   1      45.422  25.897  26.652  1.00  0.00     0.010 A 
ATOM     49  C   UNL A   1      46.309  25.042  27.290  1.00  0.00    -0.014 A 
BRANCH  49  50
ATOM     50  C   UNL A   1      46.829  25.362  28.590  1.00  0.00     0.031 A 
ATOM     51  C   UNL A   1      45.792  25.341  29.621  1.00  0.00     0.074 A 
ATOM     52  C   UNL A   1      48.116  25.658  28.820  1.00  0.00     0.049 A 
ATOM     53  N   UNL A   1      45.192  26.357  30.144  1.00  0.00    -0.248 NA
ATOM     54  C   UNL A   1      45.194  24.038  29.922  1.00  0.00     0.031 C 
ATOM     55  C   UNL A   1      49.275  25.394  27.966  1.00  0.00     0.029 A 
ATOM     56  N   UNL A   1      48.657  26.157  29.959  1.00  0.00    -0.354 N 
ATOM     57  C   UNL A   1      44.277  25.799  31.023  1.00  0.00     0.074 A 
ATOM     58  C   UNL A   1      44.149  24.416  30.653  1.00  0.00     0.031 C 
ATOM     59  C   UNL A   1      50.395  25.512  28.715  1.00  0.00     0.029 A 
ATOM     60  C   UNL A   1      50.024  25.984  30.042  1.00  0.00     0.049 A 
ATOM     61  H   UNL A   1      48.126  26.600  30.660  1.00  0.00     0.167 HD
ATOM     62  C   UNL A   1      43.924  26.447  32.163  1.00  0.00     0.034 A 
ATOM     63  C   UNL A   1      50.765  26.126  31.163  1.00  0.00     0.034 A 
ATOM     64  C   UNL A   1      44.311  27.838  32.118  1.00  0.00     0.049 A 
ATOM     65  C   UNL A   1      49.988  26.945  32.125  1.00  0.00     0.074 A 
ATOM     66  C   UNL A   1      43.960  28.939  31.369  1.00  0.00     0.029 A 
ATOM     67  N   UNL A   1      45.489  28.148  32.756  1.00  0.00    -0.354 N 
ATOM     68  N   UNL A   1      49.715  28.210  31.952  1.00  0.00    -0.248 NA
ATOM     69  C   UNL A   1      49.197  26.280  33.152  1.00  0.00     0.031 C 
ATOM     70  C   UNL A   1      45.114  29.777  31.347  1.00  0.00     0.029 A 
ATOM     71  C   UNL A   1      46.128  29.149  32.074  1.00  0.00     0.049 A 
ATOM     72  H   UNL A   1      45.822  27.717  33.575  1.00  0.00     0.167 HD
ATOM     73  C   UNL A   1      48.463  28.386  32.531  1.00  0.00     0.074 A 
ATOM     74  C   UNL A   1      48.283  27.226  33.392  1.00  0.00     0.031 C 
ATOM     75  C   UNL A   1      47.573  29.294  32.026  1.00  0.00     0.034 A 
BRANCH  62  76
ATOM     76  C   UNL A   1      43.623  25.757  33.477  1.00  0.00     0.023 A 
ATOM     77  C   UNL A   1      43.796  24.356  33.504  1.00  0.00     0.012 A 
ATOM     78  C   UNL A   1      42.925  26.331  34.566  1.00  0.00     0.148 A 
ATOM     79  C   UNL A   1      43.235  23.565  34.512  1.00  0.00     0.002 A 
ATOM     80  C   UNL A   1      42.427  25.549  35.600  1.00  0.00     0.091 A 
ATOM     81  F   UNL A   1      42.605  27.626  34.570  1.00  0.00    -0.205 F 
ATOM     82  C   UNL A   1      42.549  24.161  35.561  1.00  0.00     0.022 A 
BRANCH  80  83
ATOM     83  S   UNL A   1      41.553  26.296  36.983  1.00  0.00     0.127 S 
ATOM     84  O   UNL A   1      41.144  27.575  36.410  1.00  0.00    -0.237 OA
ATOM     85  O   UNL A   1      40.470  25.341  37.211  1.00  0.00    -0.237 OA
ATOM     86  O   UNL A   1      42.526  26.357  38.068  1.00  0.00    -0.744 OA
ENDBRANCH  80  83
ENDBRANCH  62  76
BRANCH  63  87
ATOM     87  C   UNL A   1      52.011  25.422  31.523  1.00  0.00     0.023 A 
ATOM     88  C   UNL A   1      53.235  26.111  31.503  1.00  0.00     0.012 A 
ATOM     89  C   UNL A   1      51.976  24.128  32.093  1.00  0.00     0.148 A 
ATOM     90  C   UNL A   1      54.391  25.533  32.040  1.00  0.00     0.002 A 
ATOM     91  C   UNL A   1      53.131  23.549  32.606  1.00  0.00     0.091 A 
ATOM     92  F   UNL A   1      50.797  23.503  32.212  1.00  0.00    -0.205 F 
ATOM     93  C   UNL A   1      54.340  24.254  32.591  1.00  0.00     0.022 A 
BRANCH  91  94
ATOM     94  S   UNL A   1      53.133  21.898  33.318  1.00  0.00     0.127 S 
ATOM     95  O   UNL A   1      52.807  21.066  32.159  1.00  0.00    -0.237 OA
ATOM     96  O   UNL A   1      54.508  21.775  33.793  1.00  0.00    -0.237 OA
ATOM     97  O   UNL A   1      52.103  21.910  34.349  1.00  0.00    -0.744 OA
ENDBRANCH  91  94
ENDBRANCH  63  87
BRANCH  75  98
ATOM     98  C   UNL A   1      48.111  30.356  31.097  1.00  0.00     0.023 A 
ATOM     99  C   UNL A   1      48.661  31.557  31.592  1.00  0.00     0.012 A 
ATOM    100  C   UNL A   1      48.205  30.083  29.721  1.00  0.00     0.148 A 
ATOM    101  C   UNL A   1      49.263  32.478  30.731  1.00  0.00     0.002 A 
ATOM    102  C   UNL A   1      48.848  30.982  28.874  1.00  0.00     0.091 A 
ATOM    103  F   UNL A   1      47.686  28.935  29.260  1.00  0.00    -0.205 F 
ATOM    104  C   UNL A   1      49.367  32.185  29.374  1.00  0.00     0.022 A 
BRANCH 102 105
ATOM    105  S   UNL A   1      49.134  30.596  27.143  1.00  0.00     0.127 S 
ATOM    106  O   UNL A   1      49.982  29.410  27.227  1.00  0.00    -0.237 OA
ATOM    107  O   UNL A   1      47.782  30.345  26.642  1.00  0.00    -0.237 OA
ATOM    108  O   UNL A   1      49.761  31.785  26.577  1.00  0.00    -0.744 OA
ENDBRANCH 102 105
ENDBRANCH  75  98
ENDBRANCH  49  50
ENDBRANCH  42  44
ENDBRANCH  41  42
ENDBRANCH  40  41
ENDBRANCH  39  40
ENDBRANCH  38  39
ENDBRANCH  37  38
ENDBRANCH  36  37
ENDBRANCH   1  36
TORSDOF 27
ENDMDL
MODEL 3
REMARK VINA RESULT:      -8.9      5.331      9.889
REMARK SMILES Cc1nn([C@H]2CCS(=O)(=O)C2)c(C)c1/C=C(\CC(=O)OCCOCCOCCOCCOC(=O)c1ccc(-c2c3nc(c(-c4cccc(S(=O)(=O)[O-])c4F)c4ccc([nH]4)c(-c4cccc(S(=O)(=O)[O-])c4F)c4nc(c(-c5cccc(S(=O)(=O)[O-])c5F)c5ccc2[nH]5)C=C4)C=C3)cc1)c1nc2ccccc2s1
REMARK SMILES IDX 26 1 25 2 24 3 23 4 22 5 21 6 20 7 18 8 19 9 17 10 16 11
REMARK SMILES IDX 15 12 14 13 1 14 2 15 3 16 4 17 12 18 13 19 5 20 6 21 11 22
REMARK SMILES IDX 7 23 8 24 9 25 10 26 98 27 99 28 106 29 100 30 105 31 101 32
REMARK SMILES IDX 104 33 102 34 103 35 27 36 28 37 29 38 30 39 31 40 32 41
REMARK SMILES IDX 33 42 34 43 35 44 36 45 97 46 37 47 96 48 38 49 39 50 40 51
REMARK SMILES IDX 90 52 41 53 95 54 89 55 91 56 42 57 94 58 88 59 87 60 43 62
REMARK SMILES IDX 75 63 55 64 74 65 56 66 59 67 73 68 92 69 57 70 58 71 72 73
REMARK SMILES IDX 93 74 60 75 44 76 45 77 53 78 46 79 48 80 54 81 47 82 49 83
REMARK SMILES IDX 50 84 51 85 52 86 76 87 77 88 85 89 78 90 80 91 86 92 79 93
REMARK SMILES IDX 81 94 82 95 83 96 84 97 61 98 62 99 70 100 63 101 65 102
REMARK SMILES IDX 71 103 64 104 66 105 67 106 68 107 69 108
REMARK H PARENT 91 61 59 72
REMARK Flexibility Score: inf
ROOT
ATOM      1  O   UNL A   1      39.813  23.701  26.436  1.00  0.00    -0.377 OA
ENDROOT
BRANCH   1   2
ATOM      2  C   UNL A   1      39.466  24.720  27.352  1.00  0.00     0.188 C 
BRANCH   2   3
ATOM      3  C   UNL A   1      40.563  25.440  28.158  1.00  0.00     0.188 C 
BRANCH   3   4
ATOM      4  O   UNL A   1      40.240  26.592  28.932  1.00  0.00    -0.376 OA
BRANCH   4   5
ATOM      5  C   UNL A   1      40.097  27.861  28.326  1.00  0.00     0.202 C 
BRANCH   5   6
ATOM      6  C   UNL A   1      39.210  28.942  28.964  1.00  0.00     0.261 C 
BRANCH   6   7
ATOM      7  O   UNL A   1      39.884  30.113  29.465  1.00  0.00    -0.463 OA
BRANCH   7   8
ATOM      8  C   UNL A   1      40.348  29.985  30.733  1.00  0.00     0.310 C 
ATOM      9  O   UNL A   1      40.538  28.901  31.280  1.00  0.00    -0.252 OA
BRANCH   8  10
ATOM     10  C   UNL A   1      40.426  31.278  31.524  1.00  0.00     0.161 C 
BRANCH  10  11
ATOM     11  C   UNL A   1      40.673  31.471  33.026  1.00  0.00    -0.000 C 
ATOM     12  C   UNL A   1      39.647  31.622  33.912  1.00  0.00     0.019 C 
BRANCH  12  13
ATOM     13  C   UNL A   1      38.260  31.782  33.603  1.00  0.00     0.019 A 
ATOM     14  C   UNL A   1      37.592  33.945  34.943  1.00  0.00     0.069 C 
ATOM     15  C   UNL A   1      37.395  32.854  33.954  1.00  0.00     0.067 A 
ATOM     16  N   UNL A   1      36.247  32.773  33.261  1.00  0.00    -0.177 NA
ATOM     17  N   UNL A   1      36.419  31.672  32.504  1.00  0.00    -0.265 N 
ATOM     18  C   UNL A   1      37.400  30.863  33.022  1.00  0.00     0.043 A 
ATOM     19  C   UNL A   1      37.447  29.381  32.886  1.00  0.00     0.067 C 
BRANCH  17  20
ATOM     20  C   UNL A   1      35.748  31.583  31.214  1.00  0.00     0.123 C 
ATOM     21  C   UNL A   1      34.759  32.752  30.983  1.00  0.00     0.044 C 
ATOM     22  C   UNL A   1      36.691  31.670  30.012  1.00  0.00     0.164 C 
ATOM     23  C   UNL A   1      34.263  32.642  29.552  1.00  0.00     0.139 C 
ATOM     24  S   UNL A   1      35.640  32.006  28.625  1.00  0.00     0.152 S 
ATOM     25  O   UNL A   1      35.254  30.741  28.035  1.00  0.00    -0.229 OA
ATOM     26  O   UNL A   1      36.222  33.080  27.845  1.00  0.00    -0.229 OA
ENDBRANCH  17  20
ENDBRANCH  12  13
BRANCH  11  27
ATOM     27  C   UNL A   1      42.026  31.297  33.542  1.00  0.00     0.121 A 
ATOM     28  N   UNL A   1      43.021  32.107  33.223  1.00  0.00    -0.236 NA
ATOM     29  S   UNL A   1      42.489  30.073  34.691  1.00  0.00    -0.114 S 
ATOM     30  C   UNL A   1      44.171  31.815  33.943  1.00  0.00     0.082 A 
ATOM     31  C   UNL A   1      44.069  30.736  34.816  1.00  0.00     0.055 A 
ATOM     32  C   UNL A   1      45.385  32.530  33.884  1.00  0.00     0.030 A 
ATOM     33  C   UNL A   1      45.140  30.344  35.639  1.00  0.00     0.021 A 
ATOM     34  C   UNL A   1      46.454  32.160  34.707  1.00  0.00     0.002 A 
ATOM     35  C   UNL A   1      46.330  31.079  35.575  1.00  0.00     0.002 A 
ENDBRANCH  11  27
ENDBRANCH  10  11
ENDBRANCH   8  10
ENDBRANCH   7   8
ENDBRANCH   6   7
ENDBRANCH   5   6
ENDBRANCH   4   5
ENDBRANCH   3   4
ENDBRANCH   2   3
ENDBRANCH   1   2
BRANCH   1  36
ATOM     36  C   UNL A   1      38.858  22.684  26.235  1.00  0.00     0.188 C 
BRANCH  36  37
ATOM     37  C   UNL A   1      39.463  21.277  26.316  1.00  0.00     0.188 C 
BRANCH  37  38
ATOM     38  O   UNL A   1      40.784  21.177  25.801  1.00  0.00    -0.376 OA
BRANCH  38  39
ATOM     39  C   UNL A   1      41.867  20.901  26.691  1.00  0.00     0.202 C 
BRANCH  39  40
ATOM     40  C   UNL A   1      43.216  21.592  26.478  1.00  0.00     0.261 C 
BRANCH  40  41
ATOM     41  O   UNL A   1      43.179  22.863  25.863  1.00  0.00    -0.460 OA
BRANCH  41  42
ATOM     42  C   UNL A   1      43.949  23.089  24.792  1.00  0.00     0.338 C 
ATOM     43  O   UNL A   1      43.888  22.552  23.702  1.00  0.00    -0.246 OA
BRANCH  42  44
ATOM     44  C   UNL A   1      44.984  24.045  25.208  1.00  0.00     0.060 A 
ATOM     45  C   UNL A   1      46.194  23.458  25.555  1.00  0.00     0.016 A 
ATOM     46  C   UNL A   1      44.592  25.315  25.668  1.00  0.00     0.016 A 
ATOM     47  C   UNL A   1      46.816  23.956  26.666  1.00  0.00     0.010 A 
ATOM     48  C   UNL A   1      45.199  25.798  26.794  1.00  0.00     0.010 A 
ATOM     49  C   UNL A   1      46.223  25.035  27.336  1.00  0.00    -0.014 A 
BRANCH  49  50
ATOM     50  C   UNL A   1      46.771  25.353  28.625  1.00  0.00     0.031 A 
ATOM     51  C   UNL A   1      45.747  25.385  29.669  1.00  0.00     0.074 A 
ATOM     52  C   UNL A   1      48.071  25.605  28.835  1.00  0.00     0.049 A 
ATOM     53  N   UNL A   1      45.192  26.429  30.185  1.00  0.00    -0.248 NA
ATOM     54  C   UNL A   1      45.105  24.109  29.995  1.00  0.00     0.031 C 
ATOM     55  C   UNL A   1      49.208  25.286  27.971  1.00  0.00     0.029 A 
ATOM     56  N   UNL A   1      48.644  26.098  29.960  1.00  0.00    -0.354 N 
ATOM     57  C   UNL A   1      44.268  25.918  31.083  1.00  0.00     0.074 A 
ATOM     58  C   UNL A   1      44.084  24.536  30.734  1.00  0.00     0.031 C 
ATOM     59  C   UNL A   1      50.341  25.372  28.705  1.00  0.00     0.029 A 
ATOM     60  C   UNL A   1      50.005  25.875  30.029  1.00  0.00     0.049 A 
ATOM     61  H   UNL A   1      48.139  26.570  30.662  1.00  0.00     0.167 HD
ATOM     62  C   UNL A   1      43.954  26.594  32.218  1.00  0.00     0.034 A 
ATOM     63  C   UNL A   1      50.764  26.004  31.139  1.00  0.00     0.034 A 
ATOM     64  C   UNL A   1      44.392  27.968  32.149  1.00  0.00     0.049 A 
ATOM     65  C   UNL A   1      50.032  26.865  32.099  1.00  0.00     0.074 A 
ATOM     66  C   UNL A   1      44.073  29.072  31.389  1.00  0.00     0.029 A 
ATOM     67  N   UNL A   1      45.588  28.243  32.768  1.00  0.00    -0.354 N 
ATOM     68  N   UNL A   1      49.803  28.137  31.912  1.00  0.00    -0.248 NA
ATOM     69  C   UNL A   1      49.230  26.244  33.145  1.00  0.00     0.031 C 
ATOM     70  C   UNL A   1      45.256  29.866  31.341  1.00  0.00     0.029 A 
ATOM     71  C   UNL A   1      46.256  29.210  32.064  1.00  0.00     0.049 A 
ATOM     72  H   UNL A   1      45.916  27.811  33.589  1.00  0.00     0.167 HD
ATOM     73  C   UNL A   1      48.566  28.367  32.503  1.00  0.00     0.074 A 
ATOM     74  C   UNL A   1      48.354  27.226  33.382  1.00  0.00     0.031 C 
ATOM     75  C   UNL A   1      47.704  29.301  31.997  1.00  0.00     0.034 A 
BRANCH  62  76
ATOM     76  C   UNL A   1      43.644  25.933  33.545  1.00  0.00     0.023 A 
ATOM     77  C   UNL A   1      42.509  26.411  34.234  1.00  0.00     0.012 A 
ATOM     78  C   UNL A   1      44.527  25.102  34.275  1.00  0.00     0.148 A 
ATOM     79  C   UNL A   1      42.309  26.148  35.593  1.00  0.00     0.002 A 
ATOM     80  C   UNL A   1      44.290  24.787  35.607  1.00  0.00     0.091 A 
ATOM     81  F   UNL A   1      45.686  24.702  33.750  1.00  0.00    -0.205 F 
ATOM     82  C   UNL A   1      43.201  25.335  36.282  1.00  0.00     0.022 A 
BRANCH  80  83
ATOM     83  S   UNL A   1      45.416  23.720  36.516  1.00  0.00     0.127 S 
ATOM     84  O   UNL A   1      44.955  23.914  37.888  1.00  0.00    -0.237 OA
ATOM     85  O   UNL A   1      45.124  22.408  35.941  1.00  0.00    -0.237 OA
ATOM     86  O   UNL A   1      46.752  24.216  36.209  1.00  0.00    -0.744 OA
ENDBRANCH  80  83
ENDBRANCH  62  76
BRANCH  63  87
ATOM     87  C   UNL A   1      51.989  25.260  31.494  1.00  0.00     0.023 A 
ATOM     88  C   UNL A   1      53.238  25.900  31.441  1.00  0.00     0.012 A 
ATOM     89  C   UNL A   1      51.913  23.980  32.090  1.00  0.00     0.148 A 
ATOM     90  C   UNL A   1      54.379  25.288  31.971  1.00  0.00     0.002 A 
ATOM     91  C   UNL A   1      53.052  23.366  32.597  1.00  0.00     0.091 A 
ATOM     92  F   UNL A   1      50.712  23.404  32.240  1.00  0.00    -0.205 F 
ATOM     93  C   UNL A   1      54.288  24.022  32.548  1.00  0.00     0.022 A 
BRANCH  91  94
ATOM     94  S   UNL A   1      53.002  21.731  33.342  1.00  0.00     0.127 S 
ATOM     95  O   UNL A   1      53.116  20.859  32.172  1.00  0.00    -0.237 OA
ATOM     96  O   UNL A   1      54.180  21.754  34.204  1.00  0.00    -0.237 OA
ATOM     97  O   UNL A   1      51.717  21.645  34.024  1.00  0.00    -0.744 OA
ENDBRANCH  91  94
ENDBRANCH  63  87
BRANCH  75  98
ATOM     98  C   UNL A   1      48.269  30.330  31.047  1.00  0.00     0.023 A 
ATOM     99  C   UNL A   1      48.886  31.507  31.518  1.00  0.00     0.012 A 
ATOM    100  C   UNL A   1      48.318  30.042  29.671  1.00  0.00     0.148 A 
ATOM    101  C   UNL A   1      49.510  32.392  30.636  1.00  0.00     0.002 A 
ATOM    102  C   UNL A   1      48.982  30.903  28.802  1.00  0.00     0.091 A 
ATOM    103  F   UNL A   1      47.734  28.917  29.232  1.00  0.00    -0.205 F 
ATOM    104  C   UNL A   1      49.569  32.085  29.279  1.00  0.00     0.022 A 
BRANCH 102 105
ATOM    105  S   UNL A   1      49.209  30.492  27.068  1.00  0.00     0.127 S 
ATOM    106  O   UNL A   1      50.061  31.582  26.600  1.00  0.00    -0.237 OA
ATOM    107  O   UNL A   1      49.869  29.186  27.132  1.00  0.00    -0.237 OA
ATOM    108  O   UNL A   1      47.867  30.445  26.499  1.00  0.00    -0.744 OA
ENDBRANCH 102 105
ENDBRANCH  75  98
ENDBRANCH  49  50
ENDBRANCH  42  44
ENDBRANCH  41  42
ENDBRANCH  40  41
ENDBRANCH  39  40
ENDBRANCH  38  39
ENDBRANCH  37  38
ENDBRANCH  36  37
ENDBRANCH   1  36
TORSDOF 27
ENDMDL
