MODEL 1
REMARK VINA RESULT:      -8.8      0.000      0.000
REMARK SMILES COc1cc(/C=C/C(=O)OCCOCCOCCOCCOC(=O)c2ccc(-c3c4nc(c(-c5cccc(S(=O)(=O)[O-])c5F)c5ccc([nH]5)c(-c5cccc(S(=O)(=O)[O-])c5F)c5nc(c(-c6cccc(S(=O)(=O)[O-])c6F)c6ccc3[nH]6)C=C5)C=C4)cc2)cc(OC)c1O
REMARK SMILES IDX 17 1 16 2 15 3 14 4 13 5 12 6 11 7 10 8 8 9 9 10 7 11 6 12
REMARK SMILES IDX 5 13 3 14 4 15 92 16 89 17 88 18 2 19 1 20 93 21 90 23 91 24
REMARK SMILES IDX 18 25 19 26 20 27 21 28 22 29 23 30 24 31 25 32 26 33 87 34
REMARK SMILES IDX 27 35 86 36 28 37 29 38 30 39 80 40 31 41 85 42 79 43 81 44
REMARK SMILES IDX 32 45 84 46 78 47 77 48 33 50 65 51 45 52 64 53 46 54 49 55
REMARK SMILES IDX 63 56 82 57 47 58 48 59 62 61 83 62 50 63 34 64 35 65 43 66
REMARK SMILES IDX 36 67 38 68 44 69 37 70 39 71 40 72 41 73 42 74 66 75 67 76
REMARK SMILES IDX 75 77 68 78 70 79 76 80 69 81 71 82 72 83 73 84 74 85 51 86
REMARK SMILES IDX 52 87 60 88 53 89 55 90 61 91 54 92 56 93 57 94 58 95 59 96
REMARK H PARENT 93 22 81 49 49 60
REMARK Flexibility Score: inf
ROOT
ATOM      1  C   UNL A   1      38.367  20.942  25.300  1.00  0.00     0.188 C 
ENDROOT
BRANCH   1   2
ATOM      2  O   UNL A   1      37.247  21.743  24.925  1.00  0.00    -0.377 OA
BRANCH   2   3
ATOM      3  C   UNL A   1      36.596  22.554  25.886  1.00  0.00     0.188 C 
BRANCH   3   4
ATOM      4  C   UNL A   1      35.064  22.669  25.784  1.00  0.00     0.188 C 
BRANCH   4   5
ATOM      5  O   UNL A   1      34.386  21.442  25.988  1.00  0.00    -0.376 OA
BRANCH   5   6
ATOM      6  C   UNL A   1      33.942  20.689  24.872  1.00  0.00     0.202 C 
BRANCH   6   7
ATOM      7  C   UNL A   1      32.508  20.830  24.332  1.00  0.00     0.261 C 
BRANCH   7   8
ATOM      8  O   UNL A   1      32.006  22.159  24.186  1.00  0.00    -0.460 OA
BRANCH   8   9
ATOM      9  C   UNL A   1      31.105  22.579  25.096  1.00  0.00     0.330 C 
ATOM     10  O   UNL A   1      30.490  21.876  25.882  1.00  0.00    -0.247 OA
BRANCH   9  11
ATOM     11  C   UNL A   1      31.060  24.058  25.152  1.00  0.00     0.094 C 
ATOM     12  C   UNL A   1      30.577  24.859  24.186  1.00  0.00     0.016 C 
BRANCH  12  13
ATOM     13  C   UNL A   1      30.578  26.327  24.300  1.00  0.00    -0.018 A 
ATOM     14  C   UNL A   1      29.817  28.530  23.559  1.00  0.00     0.165 A 
ATOM     15  C   UNL A   1      29.735  27.132  23.528  1.00  0.00     0.058 A 
ATOM     16  C   UNL A   1      30.746  29.139  24.417  1.00  0.00     0.200 A 
ATOM     17  C   UNL A   1      31.543  28.353  25.267  1.00  0.00     0.165 A 
ATOM     18  C   UNL A   1      31.440  26.953  25.203  1.00  0.00     0.058 A 
BRANCH  14  19
ATOM     19  O   UNL A   1      28.935  29.115  22.690  1.00  0.00    -0.493 OA
ATOM     20  C   UNL A   1      27.542  28.962  22.902  1.00  0.00     0.278 C 
ENDBRANCH  14  19
BRANCH  16  21
ATOM     21  O   UNL A   1      30.900  30.497  24.397  1.00  0.00    -0.502 OA
ATOM     22  H   UNL A   1      30.673  30.982  23.629  1.00  0.00     0.293 HD
ENDBRANCH  16  21
BRANCH  17  23
ATOM     23  O   UNL A   1      32.478  28.761  26.179  1.00  0.00    -0.493 OA
ATOM     24  C   UNL A   1      33.857  28.650  25.871  1.00  0.00     0.278 C 
ENDBRANCH  17  23
ENDBRANCH  12  13
ENDBRANCH   9  11
ENDBRANCH   8   9
ENDBRANCH   7   8
ENDBRANCH   6   7
ENDBRANCH   5   6
ENDBRANCH   4   5
ENDBRANCH   3   4
ENDBRANCH   2   3
ENDBRANCH   1   2
BRANCH   1  25
ATOM     25  C   UNL A   1      39.545  21.477  26.152  1.00  0.00     0.188 C 
BRANCH  25  26
ATOM     26  O   UNL A   1      40.366  20.480  26.739  1.00  0.00    -0.376 OA
BRANCH  26  27
ATOM     27  C   UNL A   1      41.760  20.550  26.498  1.00  0.00     0.202 C 
BRANCH  27  28
ATOM     28  C   UNL A   1      42.379  19.394  25.703  1.00  0.00     0.261 C 
BRANCH  28  29
ATOM     29  O   UNL A   1      43.811  19.343  25.679  1.00  0.00    -0.460 OA
BRANCH  29  30
ATOM     30  C   UNL A   1      44.438  19.787  24.569  1.00  0.00     0.338 C 
ATOM     31  O   UNL A   1      44.532  19.219  23.495  1.00  0.00    -0.246 OA
BRANCH  30  32
ATOM     32  C   UNL A   1      44.846  21.180  24.838  1.00  0.00     0.060 A 
ATOM     33  C   UNL A   1      45.288  21.544  26.118  1.00  0.00     0.016 A 
ATOM     34  C   UNL A   1      44.820  22.115  23.801  1.00  0.00     0.016 A 
ATOM     35  C   UNL A   1      45.678  22.861  26.371  1.00  0.00     0.010 A 
ATOM     36  C   UNL A   1      45.191  23.432  24.061  1.00  0.00     0.010 A 
ATOM     37  C   UNL A   1      45.589  23.819  25.353  1.00  0.00    -0.014 A 
BRANCH  37  38
ATOM     38  C   UNL A   1      45.686  25.267  25.652  1.00  0.00     0.031 A 
ATOM     39  C   UNL A   1      47.057  25.884  25.653  1.00  0.00     0.074 A 
ATOM     40  C   UNL A   1      44.609  25.992  25.998  1.00  0.00     0.049 A 
ATOM     41  N   UNL A   1      47.438  27.062  26.064  1.00  0.00    -0.248 NA
ATOM     42  C   UNL A   1      48.151  25.041  25.135  1.00  0.00     0.031 C 
ATOM     43  C   UNL A   1      43.230  25.509  26.014  1.00  0.00     0.029 A 
ATOM     44  N   UNL A   1      44.521  27.287  26.450  1.00  0.00    -0.354 N 
ATOM     45  C   UNL A   1      48.818  27.087  25.902  1.00  0.00     0.074 A 
ATOM     46  C   UNL A   1      49.208  25.807  25.354  1.00  0.00     0.031 C 
ATOM     47  C   UNL A   1      42.436  26.480  26.500  1.00  0.00     0.029 A 
ATOM     48  C   UNL A   1      43.257  27.633  26.868  1.00  0.00     0.049 A 
ATOM     49  H   UNL A   1      45.287  27.905  26.473  1.00  0.00     0.167 HD
ATOM     50  C   UNL A   1      49.684  28.087  26.186  1.00  0.00     0.034 A 
ATOM     51  C   UNL A   1      42.827  28.737  27.515  1.00  0.00     0.034 A 
ATOM     52  C   UNL A   1      49.287  29.357  26.724  1.00  0.00     0.049 A 
ATOM     53  C   UNL A   1      43.816  29.826  27.851  1.00  0.00     0.074 A 
ATOM     54  C   UNL A   1      50.079  30.454  27.010  1.00  0.00     0.029 A 
ATOM     55  N   UNL A   1      47.989  29.695  27.073  1.00  0.00    -0.354 N 
ATOM     56  N   UNL A   1      45.105  29.877  27.612  1.00  0.00    -0.248 NA
ATOM     57  C   UNL A   1      43.288  31.024  28.523  1.00  0.00     0.031 C 
ATOM     58  C   UNL A   1      49.265  31.442  27.569  1.00  0.00     0.029 A 
ATOM     59  C   UNL A   1      47.958  30.980  27.580  1.00  0.00     0.049 A 
ATOM     60  H   UNL A   1      47.206  29.107  26.976  1.00  0.00     0.167 HD
ATOM     61  C   UNL A   1      45.529  31.127  28.052  1.00  0.00     0.074 A 
ATOM     62  C   UNL A   1      44.360  31.803  28.574  1.00  0.00     0.031 C 
ATOM     63  C   UNL A   1      46.773  31.665  28.029  1.00  0.00     0.034 A 
BRANCH  50  64
ATOM     64  C   UNL A   1      51.145  27.843  25.920  1.00  0.00     0.023 A 
ATOM     65  C   UNL A   1      52.001  27.469  26.976  1.00  0.00     0.012 A 
ATOM     66  C   UNL A   1      51.660  27.939  24.612  1.00  0.00     0.148 A 
ATOM     67  C   UNL A   1      53.354  27.231  26.741  1.00  0.00     0.002 A 
ATOM     68  C   UNL A   1      52.999  27.650  24.378  1.00  0.00     0.091 A 
ATOM     69  F   UNL A   1      50.835  28.319  23.626  1.00  0.00    -0.205 F 
ATOM     70  C   UNL A   1      53.850  27.310  25.442  1.00  0.00     0.022 A 
BRANCH  68  71
ATOM     71  S   UNL A   1      53.712  27.641  22.730  1.00  0.00     0.127 S 
ATOM     72  O   UNL A   1      52.978  28.728  22.085  1.00  0.00    -0.237 OA
ATOM     73  O   UNL A   1      55.119  27.936  23.005  1.00  0.00    -0.237 OA
ATOM     74  O   UNL A   1      53.463  26.313  22.189  1.00  0.00    -0.744 OA
ENDBRANCH  68  71
ENDBRANCH  50  64
BRANCH  51  75
ATOM     75  C   UNL A   1      41.387  28.881  27.876  1.00  0.00     0.023 A 
ATOM     76  C   UNL A   1      40.445  29.170  26.869  1.00  0.00     0.012 A 
ATOM     77  C   UNL A   1      40.947  28.737  29.206  1.00  0.00     0.148 A 
ATOM     78  C   UNL A   1      39.097  29.346  27.185  1.00  0.00     0.002 A 
ATOM     79  C   UNL A   1      39.595  28.859  29.506  1.00  0.00     0.091 A 
ATOM     80  F   UNL A   1      41.860  28.477  30.152  1.00  0.00    -0.205 F 
ATOM     81  C   UNL A   1      38.671  29.182  28.499  1.00  0.00     0.022 A 
BRANCH  79  82
ATOM     82  S   UNL A   1      38.934  28.548  31.146  1.00  0.00     0.127 S 
ATOM     83  O   UNL A   1      40.064  28.912  31.998  1.00  0.00    -0.237 OA
ATOM     84  O   UNL A   1      37.802  29.475  31.193  1.00  0.00    -0.237 OA
ATOM     85  O   UNL A   1      38.561  27.139  31.162  1.00  0.00    -0.744 OA
ENDBRANCH  79  82
ENDBRANCH  51  75
BRANCH  63  86
ATOM     86  C   UNL A   1      46.943  33.088  28.492  1.00  0.00     0.023 A 
ATOM     87  C   UNL A   1      47.272  33.369  29.832  1.00  0.00     0.012 A 
ATOM     88  C   UNL A   1      46.892  34.141  27.556  1.00  0.00     0.148 A 
ATOM     89  C   UNL A   1      47.526  34.680  30.236  1.00  0.00     0.002 A 
ATOM     90  C   UNL A   1      47.199  35.435  27.953  1.00  0.00     0.091 A 
ATOM     91  F   UNL A   1      46.562  33.851  26.289  1.00  0.00    -0.205 F 
ATOM     92  C   UNL A   1      47.505  35.709  29.296  1.00  0.00     0.022 A 
BRANCH  90  93
ATOM     93  S   UNL A   1      47.301  36.802  26.793  1.00  0.00     0.127 S 
ATOM     94  O   UNL A   1      48.070  36.208  25.700  1.00  0.00    -0.237 OA
ATOM     95  O   UNL A   1      45.892  37.050  26.484  1.00  0.00    -0.237 OA
ATOM     96  O   UNL A   1      47.966  37.887  27.501  1.00  0.00    -0.744 OA
ENDBRANCH  90  93
ENDBRANCH  63  86
ENDBRANCH  37  38
ENDBRANCH  30  32
ENDBRANCH  29  30
ENDBRANCH  28  29
ENDBRANCH  27  28
ENDBRANCH  26  27
ENDBRANCH  25  26
ENDBRANCH   1  25
TORSDOF 27
ENDMDL
MODEL 2
REMARK VINA RESULT:      -8.5      5.665     13.578
REMARK SMILES COc1cc(/C=C/C(=O)OCCOCCOCCOCCOC(=O)c2ccc(-c3c4nc(c(-c5cccc(S(=O)(=O)[O-])c5F)c5ccc([nH]5)c(-c5cccc(S(=O)(=O)[O-])c5F)c5nc(c(-c6cccc(S(=O)(=O)[O-])c6F)c6ccc3[nH]6)C=C5)C=C4)cc2)cc(OC)c1O
REMARK SMILES IDX 17 1 16 2 15 3 14 4 13 5 12 6 11 7 10 8 8 9 9 10 7 11 6 12
REMARK SMILES IDX 5 13 3 14 4 15 92 16 89 17 88 18 2 19 1 20 93 21 90 23 91 24
REMARK SMILES IDX 18 25 19 26 20 27 21 28 22 29 23 30 24 31 25 32 26 33 87 34
REMARK SMILES IDX 27 35 86 36 28 37 29 38 30 39 80 40 31 41 85 42 79 43 81 44
REMARK SMILES IDX 32 45 84 46 78 47 77 48 33 50 65 51 45 52 64 53 46 54 49 55
REMARK SMILES IDX 63 56 82 57 47 58 48 59 62 61 83 62 50 63 34 64 35 65 43 66
REMARK SMILES IDX 36 67 38 68 44 69 37 70 39 71 40 72 41 73 42 74 66 75 67 76
REMARK SMILES IDX 75 77 68 78 70 79 76 80 69 81 71 82 72 83 73 84 74 85 51 86
REMARK SMILES IDX 52 87 60 88 53 89 55 90 61 91 54 92 56 93 57 94 58 95 59 96
REMARK H PARENT 93 22 81 49 49 60
REMARK Flexibility Score: inf
ROOT
ATOM      1  C   UNL A   1      37.999  33.826  28.987  1.00  0.00     0.188 C 
ENDROOT
BRANCH   1   2
ATOM      2  O   UNL A   1      39.035  34.765  29.272  1.00  0.00    -0.377 OA
BRANCH   2   3
ATOM      3  C   UNL A   1      40.221  34.345  29.922  1.00  0.00     0.188 C 
BRANCH   3   4
ATOM      4  C   UNL A   1      41.557  34.781  29.294  1.00  0.00     0.188 C 
BRANCH   4   5
ATOM      5  O   UNL A   1      41.436  35.869  28.393  1.00  0.00    -0.376 OA
BRANCH   5   6
ATOM      6  C   UNL A   1      42.237  35.908  27.226  1.00  0.00     0.202 C 
BRANCH   6   7
ATOM      7  C   UNL A   1      43.045  37.164  26.853  1.00  0.00     0.261 C 
BRANCH   7   8
ATOM      8  O   UNL A   1      42.296  38.347  26.569  1.00  0.00    -0.460 OA
BRANCH   8   9
ATOM      9  C   UNL A   1      42.692  39.485  27.170  1.00  0.00     0.330 C 
ATOM     10  O   UNL A   1      42.671  39.714  28.370  1.00  0.00    -0.247 OA
BRANCH   9  11
ATOM     11  C   UNL A   1      43.332  40.401  26.200  1.00  0.00     0.094 C 
ATOM     12  C   UNL A   1      42.887  41.629  25.878  1.00  0.00     0.016 C 
BRANCH  12  13
ATOM     13  C   UNL A   1      43.564  42.484  24.889  1.00  0.00    -0.018 A 
ATOM     14  C   UNL A   1      43.727  43.442  22.645  1.00  0.00     0.165 A 
ATOM     15  C   UNL A   1      43.026  42.719  23.619  1.00  0.00     0.058 A 
ATOM     16  C   UNL A   1      44.984  43.976  22.964  1.00  0.00     0.200 A 
ATOM     17  C   UNL A   1      45.505  43.828  24.261  1.00  0.00     0.165 A 
ATOM     18  C   UNL A   1      44.780  43.090  25.212  1.00  0.00     0.058 A 
BRANCH  14  19
ATOM     19  O   UNL A   1      43.038  43.507  21.463  1.00  0.00    -0.493 OA
ATOM     20  C   UNL A   1      42.517  42.319  20.892  1.00  0.00     0.278 C 
ENDBRANCH  14  19
BRANCH  16  21
ATOM     21  O   UNL A   1      45.718  44.609  22.000  1.00  0.00    -0.502 OA
ATOM     22  H   UNL A   1      45.965  44.148  21.222  1.00  0.00     0.293 HD
ENDBRANCH  16  21
BRANCH  17  23
ATOM     23  O   UNL A   1      46.690  44.293  24.763  1.00  0.00    -0.493 OA
ATOM     24  C   UNL A   1      47.228  43.720  25.943  1.00  0.00     0.278 C 
ENDBRANCH  17  23
ENDBRANCH  12  13
ENDBRANCH   9  11
ENDBRANCH   8   9
ENDBRANCH   7   8
ENDBRANCH   6   7
ENDBRANCH   5   6
ENDBRANCH   4   5
ENDBRANCH   3   4
ENDBRANCH   2   3
ENDBRANCH   1   2
BRANCH   1  25
ATOM     25  C   UNL A   1      36.822  33.543  29.954  1.00  0.00     0.188 C 
BRANCH  25  26
ATOM     26  O   UNL A   1      35.606  34.199  29.632  1.00  0.00    -0.376 OA
BRANCH  26  27
ATOM     27  C   UNL A   1      34.477  33.392  29.353  1.00  0.00     0.202 C 
BRANCH  27  28
ATOM     28  C   UNL A   1      34.559  32.501  28.108  1.00  0.00     0.261 C 
BRANCH  28  29
ATOM     29  O   UNL A   1      33.968  31.201  28.225  1.00  0.00    -0.460 OA
BRANCH  29  30
ATOM     30  C   UNL A   1      34.485  30.204  27.475  1.00  0.00     0.338 C 
ATOM     31  O   UNL A   1      34.026  29.739  26.446  1.00  0.00    -0.246 OA
BRANCH  30  32
ATOM     32  C   UNL A   1      35.814  29.892  28.037  1.00  0.00     0.060 A 
ATOM     33  C   UNL A   1      36.959  30.040  27.242  1.00  0.00     0.016 A 
ATOM     34  C   UNL A   1      35.917  29.483  29.368  1.00  0.00     0.016 A 
ATOM     35  C   UNL A   1      38.218  29.748  27.775  1.00  0.00     0.010 A 
ATOM     36  C   UNL A   1      37.171  29.174  29.890  1.00  0.00     0.010 A 
ATOM     37  C   UNL A   1      38.322  29.272  29.088  1.00  0.00    -0.014 A 
BRANCH  37  38
ATOM     38  C   UNL A   1      39.575  28.657  29.583  1.00  0.00     0.031 A 
ATOM     39  C   UNL A   1      40.311  29.374  30.682  1.00  0.00     0.074 A 
ATOM     40  C   UNL A   1      40.093  27.551  29.022  1.00  0.00     0.049 A 
ATOM     41  N   UNL A   1      41.508  29.162  31.156  1.00  0.00    -0.248 NA
ATOM     42  C   UNL A   1      39.599  30.499  31.317  1.00  0.00     0.031 C 
ATOM     43  C   UNL A   1      39.462  26.762  27.967  1.00  0.00     0.029 A 
ATOM     44  N   UNL A   1      41.299  26.931  29.237  1.00  0.00    -0.354 N 
ATOM     45  C   UNL A   1      41.714  30.154  32.107  1.00  0.00     0.074 A 
ATOM     46  C   UNL A   1      40.519  30.967  32.145  1.00  0.00     0.031 C 
ATOM     47  C   UNL A   1      40.309  25.786  27.590  1.00  0.00     0.029 A 
ATOM     48  C   UNL A   1      41.554  25.912  28.348  1.00  0.00     0.049 A 
ATOM     49  H   UNL A   1      41.920  27.189  29.955  1.00  0.00     0.167 HD
ATOM     50  C   UNL A   1      42.803  30.369  32.881  1.00  0.00     0.034 A 
ATOM     51  C   UNL A   1      42.680  25.197  28.143  1.00  0.00     0.034 A 
ATOM     52  C   UNL A   1      43.984  29.553  32.841  1.00  0.00     0.049 A 
ATOM     53  C   UNL A   1      43.894  25.476  28.995  1.00  0.00     0.074 A 
ATOM     54  C   UNL A   1      45.127  29.660  33.611  1.00  0.00     0.029 A 
ATOM     55  N   UNL A   1      44.178  28.490  31.973  1.00  0.00    -0.354 N 
ATOM     56  N   UNL A   1      44.048  26.358  29.954  1.00  0.00    -0.248 NA
ATOM     57  C   UNL A   1      45.083  24.644  28.755  1.00  0.00     0.031 C 
ATOM     58  C   UNL A   1      46.031  28.683  33.182  1.00  0.00     0.029 A 
ATOM     59  C   UNL A   1      45.428  27.936  32.182  1.00  0.00     0.049 A 
ATOM     60  H   UNL A   1      43.525  28.176  31.307  1.00  0.00     0.167 HD
ATOM     61  C   UNL A   1      45.325  26.149  30.466  1.00  0.00     0.074 A 
ATOM     62  C   UNL A   1      45.905  25.059  29.711  1.00  0.00     0.031 C 
ATOM     63  C   UNL A   1      45.961  26.803  31.469  1.00  0.00     0.034 A 
BRANCH  50  64
ATOM     64  C   UNL A   1      42.766  31.534  33.833  1.00  0.00     0.023 A 
ATOM     65  C   UNL A   1      43.179  32.811  33.401  1.00  0.00     0.012 A 
ATOM     66  C   UNL A   1      42.275  31.372  35.143  1.00  0.00     0.148 A 
ATOM     67  C   UNL A   1      43.141  33.900  34.270  1.00  0.00     0.002 A 
ATOM     68  C   UNL A   1      42.192  32.473  35.986  1.00  0.00     0.091 A 
ATOM     69  F   UNL A   1      41.909  30.145  35.542  1.00  0.00    -0.205 F 
ATOM     70  C   UNL A   1      42.636  33.734  35.557  1.00  0.00     0.022 A 
BRANCH  68  71
ATOM     71  S   UNL A   1      41.479  32.378  37.632  1.00  0.00     0.127 S 
ATOM     72  O   UNL A   1      40.088  32.043  37.332  1.00  0.00    -0.237 OA
ATOM     73  O   UNL A   1      42.251  31.291  38.237  1.00  0.00    -0.237 OA
ATOM     74  O   UNL A   1      41.689  33.685  38.239  1.00  0.00    -0.744 OA
ENDBRANCH  68  71
ENDBRANCH  50  64
BRANCH  51  75
ATOM     75  C   UNL A   1      42.715  24.135  27.097  1.00  0.00     0.023 A 
ATOM     76  C   UNL A   1      43.359  24.390  25.871  1.00  0.00     0.012 A 
ATOM     77  C   UNL A   1      42.113  22.879  27.308  1.00  0.00     0.148 A 
ATOM     78  C   UNL A   1      43.374  23.426  24.861  1.00  0.00     0.002 A 
ATOM     79  C   UNL A   1      42.180  21.904  26.319  1.00  0.00     0.091 A 
ATOM     80  F   UNL A   1      41.492  22.660  28.475  1.00  0.00    -0.205 F 
ATOM     81  C   UNL A   1      42.794  22.182  25.088  1.00  0.00     0.022 A 
BRANCH  79  82
ATOM     82  S   UNL A   1      41.568  20.233  26.562  1.00  0.00     0.127 S 
ATOM     83  O   UNL A   1      40.122  20.445  26.593  1.00  0.00    -0.237 OA
ATOM     84  O   UNL A   1      42.066  19.555  25.365  1.00  0.00    -0.237 OA
ATOM     85  O   UNL A   1      42.163  19.771  27.810  1.00  0.00    -0.744 OA
ENDBRANCH  79  82
ENDBRANCH  51  75
BRANCH  63  86
ATOM     86  C   UNL A   1      47.322  26.314  31.889  1.00  0.00     0.023 A 
ATOM     87  C   UNL A   1      47.455  25.373  32.927  1.00  0.00     0.012 A 
ATOM     88  C   UNL A   1      48.464  26.707  31.159  1.00  0.00     0.148 A 
ATOM     89  C   UNL A   1      48.707  24.848  33.248  1.00  0.00     0.002 A 
ATOM     90  C   UNL A   1      49.697  26.139  31.448  1.00  0.00     0.091 A 
ATOM     91  F   UNL A   1      48.315  27.615  30.184  1.00  0.00    -0.205 F 
ATOM     92  C   UNL A   1      49.823  25.218  32.500  1.00  0.00     0.022 A 
BRANCH  90  93
ATOM     93  S   UNL A   1      51.166  26.475  30.470  1.00  0.00     0.127 S 
ATOM     94  O   UNL A   1      52.118  25.514  31.025  1.00  0.00    -0.237 OA
ATOM     95  O   UNL A   1      50.709  26.168  29.114  1.00  0.00    -0.237 OA
ATOM     96  O   UNL A   1      51.493  27.876  30.697  1.00  0.00    -0.744 OA
ENDBRANCH  90  93
ENDBRANCH  63  86
ENDBRANCH  37  38
ENDBRANCH  30  32
ENDBRANCH  29  30
ENDBRANCH  28  29
ENDBRANCH  27  28
ENDBRANCH  26  27
ENDBRANCH  25  26
ENDBRANCH   1  25
TORSDOF 27
ENDMDL
MODEL 3
REMARK VINA RESULT:      -8.3      7.981     12.402
REMARK SMILES COc1cc(/C=C/C(=O)OCCOCCOCCOCCOC(=O)c2ccc(-c3c4nc(c(-c5cccc(S(=O)(=O)[O-])c5F)c5ccc([nH]5)c(-c5cccc(S(=O)(=O)[O-])c5F)c5nc(c(-c6cccc(S(=O)(=O)[O-])c6F)c6ccc3[nH]6)C=C5)C=C4)cc2)cc(OC)c1O
REMARK SMILES IDX 17 1 16 2 15 3 14 4 13 5 12 6 11 7 10 8 8 9 9 10 7 11 6 12
REMARK SMILES IDX 5 13 3 14 4 15 92 16 89 17 88 18 2 19 1 20 93 21 90 23 91 24
REMARK SMILES IDX 18 25 19 26 20 27 21 28 22 29 23 30 24 31 25 32 26 33 87 34
REMARK SMILES IDX 27 35 86 36 28 37 29 38 30 39 80 40 31 41 85 42 79 43 81 44
REMARK SMILES IDX 32 45 84 46 78 47 77 48 33 50 65 51 45 52 64 53 46 54 49 55
REMARK SMILES IDX 63 56 82 57 47 58 48 59 62 61 83 62 50 63 34 64 35 65 43 66
REMARK SMILES IDX 36 67 38 68 44 69 37 70 39 71 40 72 41 73 42 74 66 75 67 76
REMARK SMILES IDX 75 77 68 78 70 79 76 80 69 81 71 82 72 83 73 84 74 85 51 86
REMARK SMILES IDX 52 87 60 88 53 89 55 90 61 91 54 92 56 93 57 94 58 95 59 96
REMARK H PARENT 93 22 81 49 49 60
REMARK Flexibility Score: inf
ROOT
ATOM      1  C   UNL A   1      33.181  29.016  27.071  1.00  0.00     0.188 C 
ENDROOT
BRANCH   1   2
ATOM      2  O   UNL A   1      32.371  27.873  27.344  1.00  0.00    -0.377 OA
BRANCH   2   3
ATOM      3  C   UNL A   1      32.225  26.854  26.372  1.00  0.00     0.188 C 
BRANCH   3   4
ATOM      4  C   UNL A   1      31.051  26.989  25.386  1.00  0.00     0.188 C 
BRANCH   4   5
ATOM      5  O   UNL A   1      31.322  27.844  24.289  1.00  0.00    -0.376 OA
BRANCH   5   6
ATOM      6  C   UNL A   1      32.639  27.934  23.776  1.00  0.00     0.202 C 
BRANCH   6   7
ATOM      7  C   UNL A   1      33.010  27.322  22.413  1.00  0.00     0.261 C 
BRANCH   7   8
ATOM      8  O   UNL A   1      32.104  26.356  21.877  1.00  0.00    -0.460 OA
BRANCH   8   9
ATOM      9  C   UNL A   1      32.633  25.212  21.403  1.00  0.00     0.330 C 
ATOM     10  O   UNL A   1      33.101  25.039  20.289  1.00  0.00    -0.247 OA
BRANCH   9  11
ATOM     11  C   UNL A   1      32.739  24.196  22.474  1.00  0.00     0.094 C 
ATOM     12  C   UNL A   1      32.983  22.887  22.283  1.00  0.00     0.016 C 
BRANCH  12  13
ATOM     13  C   UNL A   1      33.059  21.924  23.395  1.00  0.00    -0.018 A 
ATOM     14  C   UNL A   1      32.999  19.633  24.249  1.00  0.00     0.165 A 
ATOM     15  C   UNL A   1      33.038  20.542  23.183  1.00  0.00     0.058 A 
ATOM     16  C   UNL A   1      33.020  20.123  25.563  1.00  0.00     0.200 A 
ATOM     17  C   UNL A   1      33.131  21.504  25.800  1.00  0.00     0.165 A 
ATOM     18  C   UNL A   1      33.160  22.387  24.709  1.00  0.00     0.058 A 
BRANCH  14  19
ATOM     19  O   UNL A   1      32.932  18.337  23.813  1.00  0.00    -0.493 OA
ATOM     20  C   UNL A   1      32.231  18.038  22.618  1.00  0.00     0.278 C 
ENDBRANCH  14  19
BRANCH  16  21
ATOM     21  O   UNL A   1      32.896  19.256  26.612  1.00  0.00    -0.502 OA
ATOM     22  H   UNL A   1      33.406  19.384  27.387  1.00  0.00     0.293 HD
ENDBRANCH  16  21
BRANCH  17  23
ATOM     23  O   UNL A   1      33.190  22.162  26.999  1.00  0.00    -0.493 OA
ATOM     24  C   UNL A   1      34.230  23.094  27.241  1.00  0.00     0.278 C 
ENDBRANCH  17  23
ENDBRANCH  12  13
ENDBRANCH   9  11
ENDBRANCH   8   9
ENDBRANCH   7   8
ENDBRANCH   6   7
ENDBRANCH   5   6
ENDBRANCH   4   5
ENDBRANCH   3   4
ENDBRANCH   2   3
ENDBRANCH   1   2
BRANCH   1  25
ATOM     25  C   UNL A   1      32.594  30.406  26.719  1.00  0.00     0.188 C 
BRANCH  25  26
ATOM     26  O   UNL A   1      33.081  31.483  27.504  1.00  0.00    -0.376 OA
BRANCH  26  27
ATOM     27  C   UNL A   1      34.479  31.567  27.711  1.00  0.00     0.202 C 
BRANCH  27  28
ATOM     28  C   UNL A   1      34.976  32.726  28.584  1.00  0.00     0.261 C 
BRANCH  28  29
ATOM     29  O   UNL A   1      35.938  32.387  29.591  1.00  0.00    -0.460 OA
BRANCH  29  30
ATOM     30  C   UNL A   1      36.999  31.638  29.222  1.00  0.00     0.338 C 
ATOM     31  O   UNL A   1      36.983  30.587  28.606  1.00  0.00    -0.246 OA
BRANCH  30  32
ATOM     32  C   UNL A   1      38.208  32.419  29.550  1.00  0.00     0.060 A 
ATOM     33  C   UNL A   1      39.378  31.758  29.949  1.00  0.00     0.016 A 
ATOM     34  C   UNL A   1      38.181  33.809  29.427  1.00  0.00     0.016 A 
ATOM     35  C   UNL A   1      40.524  32.496  30.256  1.00  0.00     0.010 A 
ATOM     36  C   UNL A   1      39.319  34.545  29.752  1.00  0.00     0.010 A 
ATOM     37  C   UNL A   1      40.483  33.895  30.200  1.00  0.00    -0.014 A 
BRANCH  37  38
ATOM     38  C   UNL A   1      41.553  34.718  30.810  1.00  0.00     0.031 A 
ATOM     39  C   UNL A   1      41.546  34.864  32.307  1.00  0.00     0.074 A 
ATOM     40  C   UNL A   1      42.447  35.386  30.063  1.00  0.00     0.049 A 
ATOM     41  N   UNL A   1      42.237  35.669  33.067  1.00  0.00    -0.248 NA
ATOM     42  C   UNL A   1      40.612  33.991  33.042  1.00  0.00     0.031 C 
ATOM     43  C   UNL A   1      42.564  35.308  28.608  1.00  0.00     0.029 A 
ATOM     44  N   UNL A   1      43.400  36.305  30.431  1.00  0.00    -0.354 N 
ATOM     45  C   UNL A   1      41.788  35.438  34.362  1.00  0.00     0.074 A 
ATOM     46  C   UNL A   1      40.768  34.416  34.286  1.00  0.00     0.031 C 
ATOM     47  C   UNL A   1      43.503  36.181  28.201  1.00  0.00     0.029 A 
ATOM     48  C   UNL A   1      44.020  36.907  29.361  1.00  0.00     0.049 A 
ATOM     49  H   UNL A   1      43.618  36.512  31.368  1.00  0.00     0.167 HD
ATOM     50  C   UNL A   1      42.191  36.024  35.513  1.00  0.00     0.034 A 
ATOM     51  C   UNL A   1      44.871  37.954  29.324  1.00  0.00     0.034 A 
ATOM     52  C   UNL A   1      43.210  37.033  35.580  1.00  0.00     0.049 A 
ATOM     53  C   UNL A   1      45.281  38.615  30.617  1.00  0.00     0.074 A 
ATOM     54  C   UNL A   1      43.721  37.663  36.699  1.00  0.00     0.029 A 
ATOM     55  N   UNL A   1      43.861  37.570  34.480  1.00  0.00    -0.354 N 
ATOM     56  N   UNL A   1      44.919  38.329  31.845  1.00  0.00    -0.248 NA
ATOM     57  C   UNL A   1      46.239  39.727  30.523  1.00  0.00     0.031 C 
ATOM     58  C   UNL A   1      44.656  38.611  36.273  1.00  0.00     0.029 A 
ATOM     59  C   UNL A   1      44.764  38.532  34.893  1.00  0.00     0.049 A 
ATOM     60  H   UNL A   1      43.704  37.307  33.545  1.00  0.00     0.167 HD
ATOM     61  C   UNL A   1      45.643  39.185  32.669  1.00  0.00     0.074 A 
ATOM     62  C   UNL A   1      46.464  40.002  31.802  1.00  0.00     0.031 C 
ATOM     63  C   UNL A   1      45.627  39.287  34.021  1.00  0.00     0.034 A 
BRANCH  50  64
ATOM     64  C   UNL A   1      41.525  35.589  36.790  1.00  0.00     0.023 A 
ATOM     65  C   UNL A   1      40.323  36.199  37.202  1.00  0.00     0.012 A 
ATOM     66  C   UNL A   1      42.067  34.540  37.558  1.00  0.00     0.148 A 
ATOM     67  C   UNL A   1      39.691  35.798  38.378  1.00  0.00     0.002 A 
ATOM     68  C   UNL A   1      41.404  34.111  38.701  1.00  0.00     0.091 A 
ATOM     69  F   UNL A   1      43.223  33.988  37.162  1.00  0.00    -0.205 F 
ATOM     70  C   UNL A   1      40.225  34.748  39.121  1.00  0.00     0.022 A 
BRANCH  68  71
ATOM     71  S   UNL A   1      41.965  32.712  39.678  1.00  0.00     0.127 S 
ATOM     72  O   UNL A   1      43.239  33.208  40.198  1.00  0.00    -0.237 OA
ATOM     73  O   UNL A   1      40.904  32.593  40.678  1.00  0.00    -0.237 OA
ATOM     74  O   UNL A   1      42.064  31.590  38.756  1.00  0.00    -0.744 OA
ENDBRANCH  68  71
ENDBRANCH  50  64
BRANCH  51  75
ATOM     75  C   UNL A   1      45.409  38.437  28.020  1.00  0.00     0.023 A 
ATOM     76  C   UNL A   1      46.426  37.707  27.375  1.00  0.00     0.012 A 
ATOM     77  C   UNL A   1      44.923  39.614  27.417  1.00  0.00     0.148 A 
ATOM     78  C   UNL A   1      46.973  38.156  26.172  1.00  0.00     0.002 A 
ATOM     79  C   UNL A   1      45.433  40.027  26.192  1.00  0.00     0.091 A 
ATOM     80  F   UNL A   1      43.966  40.304  28.053  1.00  0.00    -0.205 F 
ATOM     81  C   UNL A   1      46.471  39.310  25.577  1.00  0.00     0.022 A 
BRANCH  79  82
ATOM     82  S   UNL A   1      44.770  41.431  25.289  1.00  0.00     0.127 S 
ATOM     83  O   UNL A   1      43.377  41.032  25.097  1.00  0.00    -0.237 OA
ATOM     84  O   UNL A   1      44.972  42.522  26.243  1.00  0.00    -0.237 OA
ATOM     85  O   UNL A   1      45.569  41.534  24.075  1.00  0.00    -0.744 OA
ENDBRANCH  79  82
ENDBRANCH  51  75
BRANCH  63  86
ATOM     86  C   UNL A   1      46.585  40.247  34.675  1.00  0.00     0.023 A 
ATOM     87  C   UNL A   1      47.868  39.820  35.069  1.00  0.00     0.012 A 
ATOM     88  C   UNL A   1      46.245  41.612  34.784  1.00  0.00     0.148 A 
ATOM     89  C   UNL A   1      48.788  40.733  35.584  1.00  0.00     0.002 A 
ATOM     90  C   UNL A   1      47.184  42.523  35.245  1.00  0.00     0.091 A 
ATOM     91  F   UNL A   1      45.013  41.992  34.415  1.00  0.00    -0.205 F 
ATOM     92  C   UNL A   1      48.453  42.085  35.657  1.00  0.00     0.022 A 
BRANCH  90  93
ATOM     93  S   UNL A   1      46.878  44.293  35.273  1.00  0.00     0.127 S 
ATOM     94  O   UNL A   1      46.220  44.501  33.984  1.00  0.00    -0.237 OA
ATOM     95  O   UNL A   1      46.001  44.435  36.437  1.00  0.00    -0.237 OA
ATOM     96  O   UNL A   1      48.181  44.927  35.415  1.00  0.00    -0.744 OA
ENDBRANCH  90  93
ENDBRANCH  63  86
ENDBRANCH  37  38
ENDBRANCH  30  32
ENDBRANCH  29  30
ENDBRANCH  28  29
ENDBRANCH  27  28
ENDBRANCH  26  27
ENDBRANCH  25  26
ENDBRANCH   1  25
TORSDOF 27
ENDMDL
