MODEL 1
REMARK VINA RESULT:      -9.7      0.000      0.000
REMARK SMILES Cc1nc(CC(=O)N2Cc3nc[nH]c3C[C@H]2C(=O)OCCOCCOCCOCCOC(=O)c2ccc(-c3c4nc(c(-c5cccc(S(=O)(=O)[O-])c5F)c5ccc([nH]5)c(-c5cccc(S(=O)(=O)[O-])c5F)c5nc(c(-c6cccc(S(=O)(=O)[O-])c6F)c6ccc3[nH]6)C=C5)C=C4)cc2)cs1
REMARK SMILES IDX 25 1 24 2 23 3 22 4 21 5 20 6 19 7 17 8 18 9 16 10 8 11 9 12
REMARK SMILES IDX 10 13 15 14 11 15 14 16 12 17 13 18 6 20 7 21 5 22 4 23 1 24
REMARK SMILES IDX 2 25 3 26 98 27 97 28 26 29 27 30 28 31 29 32 30 33 31 34
REMARK SMILES IDX 32 35 33 36 34 37 35 38 96 39 36 40 95 41 37 42 38 43 39 44
REMARK SMILES IDX 89 45 40 46 94 47 88 48 90 49 41 50 93 51 87 52 86 53 42 55
REMARK SMILES IDX 74 56 54 57 73 58 55 59 58 60 72 61 91 62 56 63 57 64 71 66
REMARK SMILES IDX 92 67 59 68 43 69 44 70 52 71 45 72 47 73 53 74 46 75 48 76
REMARK SMILES IDX 49 77 50 78 51 79 75 80 76 81 84 82 77 83 79 84 85 85 78 86
REMARK SMILES IDX 80 87 81 88 82 89 83 90 60 91 61 92 69 93 62 94 64 95 70 96
REMARK SMILES IDX 63 97 65 98 66 99 67 100 68 101
REMARK H PARENT 13 19 90 54 58 65
REMARK Flexibility Score: inf
ROOT
ATOM      1  O   UNL A   1      35.155  23.009  25.561  1.00  0.00    -0.377 OA
ENDROOT
BRANCH   1   2
ATOM      2  C   UNL A   1      35.361  24.372  25.248  1.00  0.00     0.188 C 
BRANCH   2   3
ATOM      3  C   UNL A   1      34.574  25.391  26.099  1.00  0.00     0.188 C 
BRANCH   3   4
ATOM      4  O   UNL A   1      34.300  26.703  25.618  1.00  0.00    -0.376 OA
BRANCH   4   5
ATOM      5  C   UNL A   1      34.186  27.786  26.529  1.00  0.00     0.202 C 
BRANCH   5   6
ATOM      6  C   UNL A   1      32.868  28.026  27.279  1.00  0.00     0.261 C 
BRANCH   6   7
ATOM      7  O   UNL A   1      31.755  28.449  26.474  1.00  0.00    -0.462 OA
BRANCH   7   8
ATOM      8  C   UNL A   1      31.238  27.536  25.622  1.00  0.00     0.329 C 
ATOM      9  O   UNL A   1      30.471  26.634  25.961  1.00  0.00    -0.250 OA
BRANCH   8  10
ATOM     10  C   UNL A   1      31.764  27.649  24.173  1.00  0.00     0.201 C 
ATOM     11  N   UNL A   1      31.102  26.976  22.993  1.00  0.00    -0.322 N 
ATOM     12  C   UNL A   1      29.713  27.396  22.649  1.00  0.00     0.178 C 
ATOM     13  C   UNL A   1      29.517  28.832  22.992  1.00  0.00     0.081 A 
ATOM     14  C   UNL A   1      31.851  29.182  23.899  1.00  0.00     0.093 C 
ATOM     15  N   UNL A   1      28.328  29.502  22.914  1.00  0.00    -0.240 NA
ATOM     16  C   UNL A   1      30.482  29.635  23.556  1.00  0.00     0.042 A 
ATOM     17  C   UNL A   1      28.567  30.689  23.426  1.00  0.00     0.197 A 
ATOM     18  N   UNL A   1      29.869  30.818  23.834  1.00  0.00    -0.348 N 
ATOM     19  H   UNL A   1      30.280  31.610  24.248  1.00  0.00     0.167 HD
BRANCH  11  20
ATOM     20  C   UNL A   1      31.783  26.241  22.024  1.00  0.00     0.229 C 
ATOM     21  O   UNL A   1      31.352  26.165  20.867  1.00  0.00    -0.274 OA
BRANCH  20  22
ATOM     22  C   UNL A   1      32.949  25.335  22.399  1.00  0.00     0.157 C 
BRANCH  22  23
ATOM     23  C   UNL A   1      32.623  23.974  22.889  1.00  0.00     0.061 A 
ATOM     24  C   UNL A   1      31.184  22.140  25.701  1.00  0.00     0.079 C 
ATOM     25  C   UNL A   1      31.802  22.604  24.430  1.00  0.00     0.090 A 
ATOM     26  N   UNL A   1      32.036  23.865  24.142  1.00  0.00    -0.246 NA
ATOM     27  S   UNL A   1      32.284  21.476  23.227  1.00  0.00    -0.127 S 
ATOM     28  C   UNL A   1      32.817  22.772  22.237  1.00  0.00     0.091 A 
ENDBRANCH  22  23
ENDBRANCH  20  22
ENDBRANCH  11  20
ENDBRANCH   8  10
ENDBRANCH   7   8
ENDBRANCH   6   7
ENDBRANCH   5   6
ENDBRANCH   4   5
ENDBRANCH   3   4
ENDBRANCH   2   3
ENDBRANCH   1   2
BRANCH   1  29
ATOM     29  C   UNL A   1      35.572  22.056  24.592  1.00  0.00     0.188 C 
BRANCH  29  30
ATOM     30  C   UNL A   1      36.260  20.771  25.100  1.00  0.00     0.188 C 
BRANCH  30  31
ATOM     31  O   UNL A   1      37.535  20.493  24.525  1.00  0.00    -0.376 OA
BRANCH  31  32
ATOM     32  C   UNL A   1      38.481  19.730  25.260  1.00  0.00     0.202 C 
BRANCH  32  33
ATOM     33  C   UNL A   1      39.654  20.499  25.869  1.00  0.00     0.261 C 
BRANCH  33  34
ATOM     34  O   UNL A   1      40.682  19.692  26.418  1.00  0.00    -0.460 OA
BRANCH  34  35
ATOM     35  C   UNL A   1      41.915  19.922  25.925  1.00  0.00     0.338 C 
ATOM     36  O   UNL A   1      42.518  19.278  25.088  1.00  0.00    -0.246 OA
BRANCH  35  37
ATOM     37  C   UNL A   1      42.515  21.026  26.659  1.00  0.00     0.060 A 
ATOM     38  C   UNL A   1      42.247  21.080  28.028  1.00  0.00     0.016 A 
ATOM     39  C   UNL A   1      43.028  22.112  25.938  1.00  0.00     0.016 A 
ATOM     40  C   UNL A   1      42.318  22.302  28.646  1.00  0.00     0.010 A 
ATOM     41  C   UNL A   1      43.077  23.335  26.553  1.00  0.00     0.010 A 
ATOM     42  C   UNL A   1      42.652  23.422  27.877  1.00  0.00    -0.014 A 
BRANCH  42  43
ATOM     43  C   UNL A   1      42.652  24.706  28.534  1.00  0.00     0.031 A 
ATOM     44  C   UNL A   1      41.500  25.534  28.134  1.00  0.00     0.074 A 
ATOM     45  C   UNL A   1      43.568  25.030  29.463  1.00  0.00     0.049 A 
ATOM     46  N   UNL A   1      41.520  26.608  27.418  1.00  0.00    -0.248 NA
ATOM     47  C   UNL A   1      40.154  24.989  28.371  1.00  0.00     0.031 C 
ATOM     48  C   UNL A   1      44.545  24.128  30.086  1.00  0.00     0.029 A 
ATOM     49  N   UNL A   1      43.723  26.191  30.157  1.00  0.00    -0.354 N 
ATOM     50  C   UNL A   1      40.191  27.017  27.363  1.00  0.00     0.074 A 
ATOM     51  C   UNL A   1      39.402  25.874  27.719  1.00  0.00     0.031 C 
ATOM     52  C   UNL A   1      45.008  24.701  31.219  1.00  0.00     0.029 A 
ATOM     53  C   UNL A   1      44.457  26.040  31.327  1.00  0.00     0.049 A 
ATOM     54  H   UNL A   1      43.352  27.053  29.858  1.00  0.00     0.167 HD
ATOM     55  C   UNL A   1      39.887  28.342  27.379  1.00  0.00     0.034 A 
ATOM     56  C   UNL A   1      44.532  26.926  32.348  1.00  0.00     0.034 A 
ATOM     57  C   UNL A   1      41.048  29.134  27.053  1.00  0.00     0.049 A 
ATOM     58  C   UNL A   1      44.120  28.247  31.824  1.00  0.00     0.074 A 
ATOM     59  C   UNL A   1      41.844  29.330  25.948  1.00  0.00     0.029 A 
ATOM     60  N   UNL A   1      41.740  29.592  28.146  1.00  0.00    -0.354 N 
ATOM     61  N   UNL A   1      44.827  28.940  30.976  1.00  0.00    -0.248 NA
ATOM     62  C   UNL A   1      42.741  28.686  31.994  1.00  0.00     0.031 C 
ATOM     63  C   UNL A   1      43.121  29.712  26.450  1.00  0.00     0.029 A 
ATOM     64  C   UNL A   1      43.060  29.764  27.844  1.00  0.00     0.049 A 
ATOM     65  H   UNL A   1      41.340  29.772  29.027  1.00  0.00     0.167 HD
ATOM     66  C   UNL A   1      43.879  29.576  30.191  1.00  0.00     0.074 A 
ATOM     67  C   UNL A   1      42.652  29.543  30.974  1.00  0.00     0.031 C 
ATOM     68  C   UNL A   1      44.097  29.765  28.858  1.00  0.00     0.034 A 
BRANCH  55  69
ATOM     69  C   UNL A   1      38.738  28.957  28.166  1.00  0.00     0.023 A 
ATOM     70  C   UNL A   1      37.802  29.708  27.416  1.00  0.00     0.012 A 
ATOM     71  C   UNL A   1      38.687  29.112  29.572  1.00  0.00     0.148 A 
ATOM     72  C   UNL A   1      36.938  30.628  28.019  1.00  0.00     0.002 A 
ATOM     73  C   UNL A   1      37.782  29.980  30.174  1.00  0.00     0.091 A 
ATOM     74  F   UNL A   1      39.584  28.517  30.356  1.00  0.00    -0.205 F 
ATOM     75  C   UNL A   1      36.930  30.768  29.398  1.00  0.00     0.022 A 
BRANCH  73  76
ATOM     76  S   UNL A   1      37.707  30.180  31.961  1.00  0.00     0.127 S 
ATOM     77  O   UNL A   1      37.397  31.602  32.082  1.00  0.00    -0.237 OA
ATOM     78  O   UNL A   1      36.615  29.273  32.313  1.00  0.00    -0.237 OA
ATOM     79  O   UNL A   1      39.012  29.770  32.464  1.00  0.00    -0.744 OA
ENDBRANCH  73  76
ENDBRANCH  55  69
BRANCH  56  80
ATOM     80  C   UNL A   1      44.767  26.710  33.793  1.00  0.00     0.023 A 
ATOM     81  C   UNL A   1      46.027  27.024  34.339  1.00  0.00     0.012 A 
ATOM     82  C   UNL A   1      43.698  26.464  34.683  1.00  0.00     0.148 A 
ATOM     83  C   UNL A   1      46.209  27.138  35.722  1.00  0.00     0.002 A 
ATOM     84  C   UNL A   1      43.885  26.568  36.058  1.00  0.00     0.091 A 
ATOM     85  F   UNL A   1      42.479  26.223  34.182  1.00  0.00    -0.205 F 
ATOM     86  C   UNL A   1      45.136  26.919  36.580  1.00  0.00     0.022 A 
BRANCH  84  87
ATOM     87  S   UNL A   1      42.542  26.321  37.228  1.00  0.00     0.127 S 
ATOM     88  O   UNL A   1      43.255  26.285  38.506  1.00  0.00    -0.237 OA
ATOM     89  O   UNL A   1      41.731  27.515  37.012  1.00  0.00    -0.237 OA
ATOM     90  O   UNL A   1      41.921  25.056  36.857  1.00  0.00    -0.744 OA
ENDBRANCH  84  87
ENDBRANCH  56  80
BRANCH  68  91
ATOM     91  C   UNL A   1      45.519  29.759  28.374  1.00  0.00     0.023 A 
ATOM     92  C   UNL A   1      46.358  30.887  28.449  1.00  0.00     0.012 A 
ATOM     93  C   UNL A   1      46.058  28.531  27.955  1.00  0.00     0.148 A 
ATOM     94  C   UNL A   1      47.706  30.793  28.092  1.00  0.00     0.002 A 
ATOM     95  C   UNL A   1      47.409  28.428  27.657  1.00  0.00     0.091 A 
ATOM     96  F   UNL A   1      45.238  27.471  27.877  1.00  0.00    -0.205 F 
ATOM     97  C   UNL A   1      48.235  29.560  27.713  1.00  0.00     0.022 A 
BRANCH  95  98
ATOM     98  S   UNL A   1      48.160  26.838  27.310  1.00  0.00     0.127 S 
ATOM     99  O   UNL A   1      49.370  27.221  26.586  1.00  0.00    -0.237 OA
ATOM    100  O   UNL A   1      48.394  26.297  28.650  1.00  0.00    -0.237 OA
ATOM    101  O   UNL A   1      47.172  26.093  26.539  1.00  0.00    -0.744 OA
ENDBRANCH  95  98
ENDBRANCH  68  91
ENDBRANCH  42  43
ENDBRANCH  35  37
ENDBRANCH  34  35
ENDBRANCH  33  34
ENDBRANCH  32  33
ENDBRANCH  31  32
ENDBRANCH  30  31
ENDBRANCH  29  30
ENDBRANCH   1  29
TORSDOF 26
ENDMDL
MODEL 2
REMARK VINA RESULT:      -8.6      3.044      4.627
REMARK SMILES Cc1nc(CC(=O)N2Cc3nc[nH]c3C[C@H]2C(=O)OCCOCCOCCOCCOC(=O)c2ccc(-c3c4nc(c(-c5cccc(S(=O)(=O)[O-])c5F)c5ccc([nH]5)c(-c5cccc(S(=O)(=O)[O-])c5F)c5nc(c(-c6cccc(S(=O)(=O)[O-])c6F)c6ccc3[nH]6)C=C5)C=C4)cc2)cs1
REMARK SMILES IDX 25 1 24 2 23 3 22 4 21 5 20 6 19 7 17 8 18 9 16 10 8 11 9 12
REMARK SMILES IDX 10 13 15 14 11 15 14 16 12 17 13 18 6 20 7 21 5 22 4 23 1 24
REMARK SMILES IDX 2 25 3 26 98 27 97 28 26 29 27 30 28 31 29 32 30 33 31 34
REMARK SMILES IDX 32 35 33 36 34 37 35 38 96 39 36 40 95 41 37 42 38 43 39 44
REMARK SMILES IDX 89 45 40 46 94 47 88 48 90 49 41 50 93 51 87 52 86 53 42 55
REMARK SMILES IDX 74 56 54 57 73 58 55 59 58 60 72 61 91 62 56 63 57 64 71 66
REMARK SMILES IDX 92 67 59 68 43 69 44 70 52 71 45 72 47 73 53 74 46 75 48 76
REMARK SMILES IDX 49 77 50 78 51 79 75 80 76 81 84 82 77 83 79 84 85 85 78 86
REMARK SMILES IDX 80 87 81 88 82 89 83 90 60 91 61 92 69 93 62 94 64 95 70 96
REMARK SMILES IDX 63 97 65 98 66 99 67 100 68 101
REMARK H PARENT 13 19 90 54 58 65
REMARK Flexibility Score: inf
ROOT
ATOM      1  O   UNL A   1      39.029  20.728  25.874  1.00  0.00    -0.377 OA
ENDROOT
BRANCH   1   2
ATOM      2  C   UNL A   1      38.034  20.160  25.047  1.00  0.00     0.188 C 
BRANCH   2   3
ATOM      3  C   UNL A   1      36.896  21.105  24.606  1.00  0.00     0.188 C 
BRANCH   3   4
ATOM      4  O   UNL A   1      36.061  21.755  25.559  1.00  0.00    -0.376 OA
BRANCH   4   5
ATOM      5  C   UNL A   1      36.345  23.086  25.964  1.00  0.00     0.202 C 
BRANCH   5   6
ATOM      6  C   UNL A   1      35.851  24.270  25.121  1.00  0.00     0.261 C 
BRANCH   6   7
ATOM      7  O   UNL A   1      34.426  24.445  25.058  1.00  0.00    -0.462 OA
BRANCH   7   8
ATOM      8  C   UNL A   1      33.863  24.419  23.830  1.00  0.00     0.329 C 
ATOM      9  O   UNL A   1      34.032  25.289  22.976  1.00  0.00    -0.250 OA
BRANCH   8  10
ATOM     10  C   UNL A   1      32.895  23.236  23.601  1.00  0.00     0.201 C 
ATOM     11  N   UNL A   1      32.573  22.208  24.661  1.00  0.00    -0.322 N 
ATOM     12  C   UNL A   1      31.889  22.684  25.897  1.00  0.00     0.178 C 
ATOM     13  C   UNL A   1      31.005  23.839  25.578  1.00  0.00     0.081 A 
ATOM     14  C   UNL A   1      31.568  23.894  23.113  1.00  0.00     0.093 C 
ATOM     15  N   UNL A   1      30.326  24.586  26.499  1.00  0.00    -0.240 NA
ATOM     16  C   UNL A   1      30.862  24.383  24.321  1.00  0.00     0.042 A 
ATOM     17  C   UNL A   1      29.784  25.568  25.814  1.00  0.00     0.197 A 
ATOM     18  N   UNL A   1      30.085  25.489  24.479  1.00  0.00    -0.348 N 
ATOM     19  H   UNL A   1      29.796  26.110  23.773  1.00  0.00     0.167 HD
BRANCH  11  20
ATOM     20  C   UNL A   1      32.572  20.831  24.446  1.00  0.00     0.229 C 
ATOM     21  O   UNL A   1      32.150  20.354  23.385  1.00  0.00    -0.274 OA
BRANCH  20  22
ATOM     22  C   UNL A   1      32.881  19.857  25.577  1.00  0.00     0.157 C 
BRANCH  22  23
ATOM     23  C   UNL A   1      33.285  18.482  25.199  1.00  0.00     0.061 A 
ATOM     24  C   UNL A   1      32.476  14.953  25.684  1.00  0.00     0.079 C 
ATOM     25  C   UNL A   1      33.028  16.279  25.299  1.00  0.00     0.090 A 
ATOM     26  N   UNL A   1      32.556  17.427  25.731  1.00  0.00    -0.246 NA
ATOM     27  S   UNL A   1      34.380  16.394  24.245  1.00  0.00    -0.127 S 
ATOM     28  C   UNL A   1      34.308  18.104  24.350  1.00  0.00     0.091 A 
ENDBRANCH  22  23
ENDBRANCH  20  22
ENDBRANCH  11  20
ENDBRANCH   8  10
ENDBRANCH   7   8
ENDBRANCH   6   7
ENDBRANCH   5   6
ENDBRANCH   4   5
ENDBRANCH   3   4
ENDBRANCH   2   3
ENDBRANCH   1   2
BRANCH   1  29
ATOM     29  C   UNL A   1      40.197  19.951  26.101  1.00  0.00     0.188 C 
BRANCH  29  30
ATOM     30  C   UNL A   1      41.104  20.350  27.285  1.00  0.00     0.188 C 
BRANCH  30  31
ATOM     31  O   UNL A   1      42.199  21.204  26.954  1.00  0.00    -0.376 OA
BRANCH  31  32
ATOM     32  C   UNL A   1      42.912  20.986  25.745  1.00  0.00     0.202 C 
BRANCH  32  33
ATOM     33  C   UNL A   1      43.759  22.152  25.232  1.00  0.00     0.261 C 
BRANCH  33  34
ATOM     34  O   UNL A   1      43.044  23.352  24.988  1.00  0.00    -0.460 OA
BRANCH  34  35
ATOM     35  C   UNL A   1      43.777  24.480  25.066  1.00  0.00     0.338 C 
ATOM     36  O   UNL A   1      44.862  24.703  24.567  1.00  0.00    -0.246 OA
BRANCH  35  37
ATOM     37  C   UNL A   1      43.123  25.400  25.985  1.00  0.00     0.060 A 
ATOM     38  C   UNL A   1      43.672  26.680  26.079  1.00  0.00     0.016 A 
ATOM     39  C   UNL A   1      42.227  24.882  26.930  1.00  0.00     0.016 A 
ATOM     40  C   UNL A   1      43.467  27.380  27.241  1.00  0.00     0.010 A 
ATOM     41  C   UNL A   1      42.042  25.575  28.098  1.00  0.00     0.010 A 
ATOM     42  C   UNL A   1      42.722  26.778  28.261  1.00  0.00    -0.014 A 
BRANCH  42  43
ATOM     43  C   UNL A   1      42.579  27.507  29.499  1.00  0.00     0.031 A 
ATOM     44  C   UNL A   1      41.451  28.455  29.457  1.00  0.00     0.074 A 
ATOM     45  C   UNL A   1      43.353  27.253  30.568  1.00  0.00     0.049 A 
ATOM     46  N   UNL A   1      41.512  29.743  29.439  1.00  0.00    -0.248 NA
ATOM     47  C   UNL A   1      40.112  27.908  29.184  1.00  0.00     0.031 C 
ATOM     48  C   UNL A   1      44.283  26.129  30.732  1.00  0.00     0.029 A 
ATOM     49  N   UNL A   1      43.365  27.853  31.789  1.00  0.00    -0.354 N 
ATOM     50  C   UNL A   1      40.183  30.158  29.437  1.00  0.00     0.074 A 
ATOM     51  C   UNL A   1      39.409  29.027  29.016  1.00  0.00     0.031 C 
ATOM     52  C   UNL A   1      44.572  25.988  32.045  1.00  0.00     0.029 A 
ATOM     53  C   UNL A   1      43.950  27.075  32.781  1.00  0.00     0.049 A 
ATOM     54  H   UNL A   1      42.996  28.751  31.954  1.00  0.00     0.167 HD
ATOM     55  C   UNL A   1      39.819  31.274  30.121  1.00  0.00     0.034 A 
ATOM     56  C   UNL A   1      43.853  27.270  34.117  1.00  0.00     0.034 A 
ATOM     57  C   UNL A   1      40.975  32.082  30.429  1.00  0.00     0.049 A 
ATOM     58  C   UNL A   1      43.451  28.677  34.335  1.00  0.00     0.074 A 
ATOM     59  C   UNL A   1      41.895  32.818  29.717  1.00  0.00     0.029 A 
ATOM     60  N   UNL A   1      41.499  31.860  31.677  1.00  0.00    -0.354 N 
ATOM     61  N   UNL A   1      44.227  29.696  34.093  1.00  0.00    -0.248 NA
ATOM     62  C   UNL A   1      42.043  28.997  34.530  1.00  0.00     0.031 C 
ATOM     63  C   UNL A   1      43.078  32.831  30.509  1.00  0.00     0.029 A 
ATOM     64  C   UNL A   1      42.838  32.128  31.691  1.00  0.00     0.049 A 
ATOM     65  H   UNL A   1      40.982  31.549  32.454  1.00  0.00     0.167 HD
ATOM     66  C   UNL A   1      43.358  30.683  33.655  1.00  0.00     0.074 A 
ATOM     67  C   UNL A   1      42.045  30.271  34.128  1.00  0.00     0.031 C 
ATOM     68  C   UNL A   1      43.736  31.552  32.674  1.00  0.00     0.034 A 
BRANCH  55  69
ATOM     69  C   UNL A   1      38.552  31.404  30.955  1.00  0.00     0.023 A 
ATOM     70  C   UNL A   1      38.097  30.220  31.584  1.00  0.00     0.012 A 
ATOM     71  C   UNL A   1      37.638  32.483  30.910  1.00  0.00     0.148 A 
ATOM     72  C   UNL A   1      36.786  30.086  32.049  1.00  0.00     0.002 A 
ATOM     73  C   UNL A   1      36.354  32.368  31.432  1.00  0.00     0.091 A 
ATOM     74  F   UNL A   1      37.941  33.606  30.262  1.00  0.00    -0.205 F 
ATOM     75  C   UNL A   1      35.911  31.159  31.970  1.00  0.00     0.022 A 
BRANCH  73  76
ATOM     76  S   UNL A   1      35.186  33.736  31.383  1.00  0.00     0.127 S 
ATOM     77  O   UNL A   1      34.019  33.147  32.033  1.00  0.00    -0.237 OA
ATOM     78  O   UNL A   1      35.889  34.751  32.167  1.00  0.00    -0.237 OA
ATOM     79  O   UNL A   1      35.024  34.074  29.974  1.00  0.00    -0.744 OA
ENDBRANCH  73  76
ENDBRANCH  55  69
BRANCH  56  80
ATOM     80  C   UNL A   1      43.911  26.304  35.237  1.00  0.00     0.023 A 
ATOM     81  C   UNL A   1      42.722  25.685  35.672  1.00  0.00     0.012 A 
ATOM     82  C   UNL A   1      45.141  25.781  35.693  1.00  0.00     0.148 A 
ATOM     83  C   UNL A   1      42.755  24.554  36.495  1.00  0.00     0.002 A 
ATOM     84  C   UNL A   1      45.169  24.662  36.520  1.00  0.00     0.091 A 
ATOM     85  F   UNL A   1      46.282  26.318  35.241  1.00  0.00    -0.205 F 
ATOM     86  C   UNL A   1      43.978  24.037  36.911  1.00  0.00     0.022 A 
BRANCH  84  87
ATOM     87  S   UNL A   1      46.710  23.925  37.081  1.00  0.00     0.127 S 
ATOM     88  O   UNL A   1      47.294  23.450  35.826  1.00  0.00    -0.237 OA
ATOM     89  O   UNL A   1      47.391  25.069  37.679  1.00  0.00    -0.237 OA
ATOM     90  O   UNL A   1      46.329  22.861  38.000  1.00  0.00    -0.744 OA
ENDBRANCH  84  87
ENDBRANCH  56  80
BRANCH  68  91
ATOM     91  C   UNL A   1      45.207  31.765  32.456  1.00  0.00     0.023 A 
ATOM     92  C   UNL A   1      45.971  32.670  33.216  1.00  0.00     0.012 A 
ATOM     93  C   UNL A   1      45.857  30.920  31.540  1.00  0.00     0.148 A 
ATOM     94  C   UNL A   1      47.357  32.744  33.049  1.00  0.00     0.002 A 
ATOM     95  C   UNL A   1      47.238  30.955  31.419  1.00  0.00     0.091 A 
ATOM     96  F   UNL A   1      45.109  30.074  30.814  1.00  0.00    -0.205 F 
ATOM     97  C   UNL A   1      47.992  31.874  32.164  1.00  0.00     0.022 A 
BRANCH  95  98
ATOM     98  S   UNL A   1      48.108  29.758  30.406  1.00  0.00     0.127 S 
ATOM     99  O   UNL A   1      49.500  29.987  30.786  1.00  0.00    -0.237 OA
ATOM    100  O   UNL A   1      47.549  28.486  30.866  1.00  0.00    -0.237 OA
ATOM    101  O   UNL A   1      47.768  30.086  29.026  1.00  0.00    -0.744 OA
ENDBRANCH  95  98
ENDBRANCH  68  91
ENDBRANCH  42  43
ENDBRANCH  35  37
ENDBRANCH  34  35
ENDBRANCH  33  34
ENDBRANCH  32  33
ENDBRANCH  31  32
ENDBRANCH  30  31
ENDBRANCH  29  30
ENDBRANCH   1  29
TORSDOF 26
ENDMDL
MODEL 3
REMARK VINA RESULT:      -8.5      3.761      5.538
REMARK SMILES Cc1nc(CC(=O)N2Cc3nc[nH]c3C[C@H]2C(=O)OCCOCCOCCOCCOC(=O)c2ccc(-c3c4nc(c(-c5cccc(S(=O)(=O)[O-])c5F)c5ccc([nH]5)c(-c5cccc(S(=O)(=O)[O-])c5F)c5nc(c(-c6cccc(S(=O)(=O)[O-])c6F)c6ccc3[nH]6)C=C5)C=C4)cc2)cs1
REMARK SMILES IDX 25 1 24 2 23 3 22 4 21 5 20 6 19 7 17 8 18 9 16 10 8 11 9 12
REMARK SMILES IDX 10 13 15 14 11 15 14 16 12 17 13 18 6 20 7 21 5 22 4 23 1 24
REMARK SMILES IDX 2 25 3 26 98 27 97 28 26 29 27 30 28 31 29 32 30 33 31 34
REMARK SMILES IDX 32 35 33 36 34 37 35 38 96 39 36 40 95 41 37 42 38 43 39 44
REMARK SMILES IDX 89 45 40 46 94 47 88 48 90 49 41 50 93 51 87 52 86 53 42 55
REMARK SMILES IDX 74 56 54 57 73 58 55 59 58 60 72 61 91 62 56 63 57 64 71 66
REMARK SMILES IDX 92 67 59 68 43 69 44 70 52 71 45 72 47 73 53 74 46 75 48 76
REMARK SMILES IDX 49 77 50 78 51 79 75 80 76 81 84 82 77 83 79 84 85 85 78 86
REMARK SMILES IDX 80 87 81 88 82 89 83 90 60 91 61 92 69 93 62 94 64 95 70 96
REMARK SMILES IDX 63 97 65 98 66 99 67 100 68 101
REMARK H PARENT 13 19 90 54 58 65
REMARK Flexibility Score: inf
ROOT
ATOM      1  O   UNL A   1      39.078  21.225  26.234  1.00  0.00    -0.377 OA
ENDROOT
BRANCH   1   2
ATOM      2  C   UNL A   1      38.343  20.689  25.153  1.00  0.00     0.188 C 
BRANCH   2   3
ATOM      3  C   UNL A   1      37.077  21.470  24.739  1.00  0.00     0.188 C 
BRANCH   3   4
ATOM      4  O   UNL A   1      35.938  21.539  25.591  1.00  0.00    -0.376 OA
BRANCH   4   5
ATOM      5  C   UNL A   1      35.532  22.785  26.136  1.00  0.00     0.202 C 
BRANCH   5   6
ATOM      6  C   UNL A   1      35.601  24.060  25.282  1.00  0.00     0.261 C 
BRANCH   6   7
ATOM      7  O   UNL A   1      34.341  24.678  24.973  1.00  0.00    -0.462 OA
BRANCH   7   8
ATOM      8  C   UNL A   1      33.912  24.578  23.695  1.00  0.00     0.329 C 
ATOM      9  O   UNL A   1      34.225  25.363  22.799  1.00  0.00    -0.250 OA
BRANCH   8  10
ATOM     10  C   UNL A   1      32.901  23.433  23.453  1.00  0.00     0.201 C 
ATOM     11  N   UNL A   1      32.481  22.455  24.525  1.00  0.00    -0.322 N 
ATOM     12  C   UNL A   1      31.762  23.001  25.712  1.00  0.00     0.178 C 
ATOM     13  C   UNL A   1      30.949  24.183  25.315  1.00  0.00     0.081 A 
ATOM     14  C   UNL A   1      31.632  24.135  22.881  1.00  0.00     0.093 C 
ATOM     15  N   UNL A   1      30.262  24.989  26.179  1.00  0.00    -0.240 NA
ATOM     16  C   UNL A   1      30.892  24.694  24.038  1.00  0.00     0.042 A 
ATOM     17  C   UNL A   1      29.800  25.973  25.439  1.00  0.00     0.197 A 
ATOM     18  N   UNL A   1      30.161  25.838  24.124  1.00  0.00    -0.348 N 
ATOM     19  H   UNL A   1      29.936  26.449  23.387  1.00  0.00     0.167 HD
BRANCH  11  20
ATOM     20  C   UNL A   1      32.426  21.073  24.351  1.00  0.00     0.229 C 
ATOM     21  O   UNL A   1      31.987  20.583  23.304  1.00  0.00    -0.274 OA
BRANCH  20  22
ATOM     22  C   UNL A   1      32.695  20.122  25.511  1.00  0.00     0.157 C 
BRANCH  22  23
ATOM     23  C   UNL A   1      33.138  18.748  25.175  1.00  0.00     0.061 A 
ATOM     24  C   UNL A   1      32.411  15.213  25.741  1.00  0.00     0.079 C 
ATOM     25  C   UNL A   1      32.936  16.543  25.329  1.00  0.00     0.090 A 
ATOM     26  N   UNL A   1      32.429  17.689  25.725  1.00  0.00    -0.246 NA
ATOM     27  S   UNL A   1      34.300  16.665  24.292  1.00  0.00    -0.127 S 
ATOM     28  C   UNL A   1      34.183  18.375  24.352  1.00  0.00     0.091 A 
ENDBRANCH  22  23
ENDBRANCH  20  22
ENDBRANCH  11  20
ENDBRANCH   8  10
ENDBRANCH   7   8
ENDBRANCH   6   7
ENDBRANCH   5   6
ENDBRANCH   4   5
ENDBRANCH   3   4
ENDBRANCH   2   3
ENDBRANCH   1   2
BRANCH   1  29
ATOM     29  C   UNL A   1      40.453  20.874  26.313  1.00  0.00     0.188 C 
BRANCH  29  30
ATOM     30  C   UNL A   1      41.297  21.526  27.429  1.00  0.00     0.188 C 
BRANCH  30  31
ATOM     31  O   UNL A   1      41.724  22.863  27.168  1.00  0.00    -0.376 OA
BRANCH  31  32
ATOM     32  C   UNL A   1      42.241  23.192  25.886  1.00  0.00     0.202 C 
BRANCH  32  33
ATOM     33  C   UNL A   1      42.509  24.674  25.618  1.00  0.00     0.261 C 
BRANCH  33  34
ATOM     34  O   UNL A   1      41.384  25.524  25.762  1.00  0.00    -0.460 OA
BRANCH  34  35
ATOM     35  C   UNL A   1      41.633  26.836  25.585  1.00  0.00     0.338 C 
ATOM     36  O   UNL A   1      42.189  27.373  24.647  1.00  0.00    -0.246 OA
BRANCH  35  37
ATOM     37  C   UNL A   1      41.244  27.553  26.791  1.00  0.00     0.060 A 
ATOM     38  C   UNL A   1      41.745  28.847  26.934  1.00  0.00     0.016 A 
ATOM     39  C   UNL A   1      40.688  26.827  27.853  1.00  0.00     0.016 A 
ATOM     40  C   UNL A   1      41.865  29.351  28.204  1.00  0.00     0.010 A 
ATOM     41  C   UNL A   1      40.829  27.324  29.123  1.00  0.00     0.010 A 
ATOM     42  C   UNL A   1      41.480  28.545  29.281  1.00  0.00    -0.014 A 
BRANCH  42  43
ATOM     43  C   UNL A   1      41.680  29.070  30.610  1.00  0.00     0.031 A 
ATOM     44  C   UNL A   1      40.666  30.079  30.966  1.00  0.00     0.074 A 
ATOM     45  C   UNL A   1      42.640  28.598  31.425  1.00  0.00     0.049 A 
ATOM     46  N   UNL A   1      40.847  31.348  31.121  1.00  0.00    -0.248 NA
ATOM     47  C   UNL A   1      39.254  29.668  30.932  1.00  0.00     0.031 C 
ATOM     48  C   UNL A   1      43.470  27.408  31.207  1.00  0.00     0.029 A 
ATOM     49  N   UNL A   1      42.975  28.991  32.684  1.00  0.00    -0.354 N 
ATOM     50  C   UNL A   1      39.595  31.838  31.484  1.00  0.00     0.074 A 
ATOM     51  C   UNL A   1      38.642  30.840  31.094  1.00  0.00     0.031 C 
ATOM     52  C   UNL A   1      44.022  27.038  32.383  1.00  0.00     0.029 A 
ATOM     53  C   UNL A   1      43.683  28.027  33.392  1.00  0.00     0.049 A 
ATOM     54  H   UNL A   1      42.738  29.871  33.057  1.00  0.00     0.167 HD
ATOM     55  C   UNL A   1      39.498  32.849  32.388  1.00  0.00     0.034 A 
ATOM     56  C   UNL A   1      43.899  28.008  34.728  1.00  0.00     0.034 A 
ATOM     57  C   UNL A   1      40.765  33.523  32.535  1.00  0.00     0.049 A 
ATOM     58  C   UNL A   1      43.691  29.383  35.233  1.00  0.00     0.074 A 
ATOM     59  C   UNL A   1      41.575  34.307  31.745  1.00  0.00     0.029 A 
ATOM     60  N   UNL A   1      41.525  33.069  33.583  1.00  0.00    -0.354 N 
ATOM     61  N   UNL A   1      44.491  30.378  34.970  1.00  0.00    -0.248 NA
ATOM     62  C   UNL A   1      42.396  29.753  35.791  1.00  0.00     0.031 C 
ATOM     63  C   UNL A   1      42.898  34.119  32.238  1.00  0.00     0.029 A 
ATOM     64  C   UNL A   1      42.854  33.248  33.328  1.00  0.00     0.049 A 
ATOM     65  H   UNL A   1      41.162  32.669  34.405  1.00  0.00     0.167 HD
ATOM     66  C   UNL A   1      43.647  31.474  34.890  1.00  0.00     0.074 A 
ATOM     67  C   UNL A   1      42.434  31.073  35.588  1.00  0.00     0.031 C 
ATOM     68  C   UNL A   1      43.884  32.466  33.985  1.00  0.00     0.034 A 
BRANCH  55  69
ATOM     69  C   UNL A   1      38.461  32.918  33.501  1.00  0.00     0.023 A 
ATOM     70  C   UNL A   1      37.537  33.988  33.424  1.00  0.00     0.012 A 
ATOM     71  C   UNL A   1      38.523  32.229  34.735  1.00  0.00     0.148 A 
ATOM     72  C   UNL A   1      36.795  34.406  34.532  1.00  0.00     0.002 A 
ATOM     73  C   UNL A   1      37.736  32.606  35.817  1.00  0.00     0.091 A 
ATOM     74  F   UNL A   1      39.424  31.268  34.934  1.00  0.00    -0.205 F 
ATOM     75  C   UNL A   1      36.896  33.717  35.732  1.00  0.00     0.022 A 
BRANCH  73  76
ATOM     76  S   UNL A   1      37.805  31.732  37.389  1.00  0.00     0.127 S 
ATOM     77  O   UNL A   1      37.798  30.340  36.948  1.00  0.00    -0.237 OA
ATOM     78  O   UNL A   1      39.078  32.206  37.932  1.00  0.00    -0.237 OA
ATOM     79  O   UNL A   1      36.635  32.166  38.141  1.00  0.00    -0.744 OA
ENDBRANCH  73  76
ENDBRANCH  55  69
BRANCH  56  80
ATOM     80  C   UNL A   1      44.105  26.871  35.653  1.00  0.00     0.023 A 
ATOM     81  C   UNL A   1      43.072  25.928  35.824  1.00  0.00     0.012 A 
ATOM     82  C   UNL A   1      45.387  26.552  36.151  1.00  0.00     0.148 A 
ATOM     83  C   UNL A   1      43.316  24.689  36.426  1.00  0.00     0.002 A 
ATOM     84  C   UNL A   1      45.624  25.323  36.759  1.00  0.00     0.091 A 
ATOM     85  F   UNL A   1      46.395  27.410  35.944  1.00  0.00    -0.205 F 
ATOM     86  C   UNL A   1      44.594  24.383  36.884  1.00  0.00     0.022 A 
BRANCH  84  87
ATOM     87  S   UNL A   1      47.251  24.848  37.357  1.00  0.00     0.127 S 
ATOM     88  O   UNL A   1      46.948  23.656  38.149  1.00  0.00    -0.237 OA
ATOM     89  O   UNL A   1      47.967  24.590  36.111  1.00  0.00    -0.237 OA
ATOM     90  O   UNL A   1      47.731  25.979  38.141  1.00  0.00    -0.744 OA
ENDBRANCH  84  87
ENDBRANCH  56  80
BRANCH  68  91
ATOM     91  C   UNL A   1      45.286  32.621  33.467  1.00  0.00     0.023 A 
ATOM     92  C   UNL A   1      46.293  33.304  34.176  1.00  0.00     0.012 A 
ATOM     93  C   UNL A   1      45.622  31.936  32.287  1.00  0.00     0.148 A 
ATOM     94  C   UNL A   1      47.608  33.318  33.703  1.00  0.00     0.002 A 
ATOM     95  C   UNL A   1      46.939  31.903  31.853  1.00  0.00     0.091 A 
ATOM     96  F   UNL A   1      44.645  31.303  31.619  1.00  0.00    -0.205 F 
ATOM     97  C   UNL A   1      47.934  32.603  32.551  1.00  0.00     0.022 A 
BRANCH  95  98
ATOM     98  S   UNL A   1      47.429  30.879  30.464  1.00  0.00     0.127 S 
ATOM     99  O   UNL A   1      46.907  31.634  29.327  1.00  0.00    -0.237 OA
ATOM    100  O   UNL A   1      48.889  30.871  30.576  1.00  0.00    -0.237 OA
ATOM    101  O   UNL A   1      46.813  29.578  30.696  1.00  0.00    -0.744 OA
ENDBRANCH  95  98
ENDBRANCH  68  91
ENDBRANCH  42  43
ENDBRANCH  35  37
ENDBRANCH  34  35
ENDBRANCH  33  34
ENDBRANCH  32  33
ENDBRANCH  31  32
ENDBRANCH  30  31
ENDBRANCH  29  30
ENDBRANCH   1  29
TORSDOF 26
ENDMDL
