MODEL 1
REMARK VINA RESULT:     -10.8      0.000      0.000
REMARK SMILES CS(=O)(=O)c1ccc(/C=C(/C(=O)OCCOCCOCCOCCOC(=O)c2ccc(-c3c4nc(c(-c5cccc(S(=O)(=O)[O-])c5F)c5ccc([nH]5)c(-c5cccc(S(=O)(=O)[O-])c5F)c5nc(c(-c6cccc(S(=O)(=O)[O-])c6F)c6ccc3[nH]6)C=C5)C=C4)cc2)c2cccc(Br)c2)cc1
REMARK SMILES IDX 20 1 19 2 18 3 17 4 16 5 15 6 14 7 13 8 11 9 12 10 10 11
REMARK SMILES IDX 9 12 8 13 5 14 6 15 99 16 7 17 98 18 2 19 1 20 3 21 4 22
REMARK SMILES IDX 91 23 92 24 97 25 93 26 95 27 94 28 96 29 21 30 22 31 23 32
REMARK SMILES IDX 24 33 25 34 26 35 27 36 28 37 29 38 90 39 30 40 89 41 31 42
REMARK SMILES IDX 32 43 33 44 83 45 34 46 88 47 82 48 84 49 35 50 87 51 81 52
REMARK SMILES IDX 80 53 36 55 68 56 48 57 67 58 49 59 52 60 66 61 85 62 50 63
REMARK SMILES IDX 51 64 65 66 86 67 53 68 37 69 38 70 46 71 39 72 41 73 47 74
REMARK SMILES IDX 40 75 42 76 43 77 44 78 45 79 69 80 70 81 78 82 71 83 73 84
REMARK SMILES IDX 79 85 72 86 74 87 75 88 76 89 77 90 54 91 55 92 63 93 56 94
REMARK SMILES IDX 58 95 64 96 57 97 59 98 60 99 61 100 62 101
REMARK H PARENT 84 54 52 65
REMARK Flexibility Score: inf
ROOT
ATOM      1  C   UNL A   1      31.585  27.615  25.659  1.00  0.00     0.188 C 
ENDROOT
BRANCH   1   2
ATOM      2  O   UNL A   1      30.816  28.353  24.716  1.00  0.00    -0.377 OA
BRANCH   2   3
ATOM      3  C   UNL A   1      30.020  27.664  23.770  1.00  0.00     0.188 C 
BRANCH   3   4
ATOM      4  C   UNL A   1      30.060  26.118  23.730  1.00  0.00     0.188 C 
BRANCH   4   5
ATOM      5  O   UNL A   1      30.932  25.585  22.751  1.00  0.00    -0.376 OA
BRANCH   5   6
ATOM      6  C   UNL A   1      31.594  26.496  21.892  1.00  0.00     0.202 C 
BRANCH   6   7
ATOM      7  C   UNL A   1      33.131  26.552  21.910  1.00  0.00     0.261 C 
BRANCH   7   8
ATOM      8  O   UNL A   1      33.808  25.372  22.372  1.00  0.00    -0.460 OA
BRANCH   8   9
ATOM      9  C   UNL A   1      34.085  25.278  23.692  1.00  0.00     0.338 C 
ATOM     10  O   UNL A   1      34.186  26.223  24.462  1.00  0.00    -0.246 OA
BRANCH   9  11
ATOM     11  C   UNL A   1      34.084  23.838  24.132  1.00  0.00     0.067 C 
ATOM     12  C   UNL A   1      32.938  23.117  24.036  1.00  0.00     0.024 C 
BRANCH  12  13
ATOM     13  C   UNL A   1      32.732  21.657  24.223  1.00  0.00    -0.025 A 
ATOM     14  C   UNL A   1      32.821  18.849  24.314  1.00  0.00     0.067 A 
ATOM     15  C   UNL A   1      33.018  19.586  25.477  1.00  0.00     0.021 A 
ATOM     16  C   UNL A   1      32.441  19.489  23.135  1.00  0.00     0.021 A 
ATOM     17  C   UNL A   1      32.921  20.978  25.434  1.00  0.00     0.009 A 
ATOM     18  C   UNL A   1      32.403  20.890  23.094  1.00  0.00     0.009 A 
BRANCH  14  19
ATOM     19  S   UNL A   1      33.157  17.107  24.342  1.00  0.00     0.175 S 
ATOM     20  C   UNL A   1      34.847  16.963  24.862  1.00  0.00     0.163 C 
ATOM     21  O   UNL A   1      33.048  16.626  22.980  1.00  0.00    -0.224 OA
ATOM     22  O   UNL A   1      32.349  16.529  25.403  1.00  0.00    -0.224 OA
ENDBRANCH  14  19
ENDBRANCH  12  13
BRANCH  11  23
ATOM     23  C   UNL A   1      35.359  23.276  24.632  1.00  0.00    -0.010 A 
ATOM     24  C   UNL A   1      35.854  22.070  24.100  1.00  0.00     0.009 A 
ATOM     25  C   UNL A   1      36.148  23.988  25.537  1.00  0.00     0.024 A 
ATOM     26  C   UNL A   1      37.113  21.587  24.455  1.00  0.00     0.002 A 
ATOM     27  C   UNL A   1      37.419  23.513  25.869  1.00  0.00     0.018 A 
ATOM     28  C   UNL A   1      37.903  22.316  25.337  1.00  0.00     0.016 A 
ATOM     29  Br  UNL A   1      38.528  24.539  27.004  1.00  0.00    -0.051 Br
ENDBRANCH  11  23
ENDBRANCH   9  11
ENDBRANCH   8   9
ENDBRANCH   7   8
ENDBRANCH   6   7
ENDBRANCH   5   6
ENDBRANCH   4   5
ENDBRANCH   3   4
ENDBRANCH   2   3
ENDBRANCH   1   2
BRANCH   1  30
ATOM     30  C   UNL A   1      31.686  28.081  27.131  1.00  0.00     0.188 C 
BRANCH  30  31
ATOM     31  O   UNL A   1      31.477  29.469  27.339  1.00  0.00    -0.376 OA
BRANCH  31  32
ATOM     32  C   UNL A   1      32.409  30.369  26.766  1.00  0.00     0.202 C 
BRANCH  32  33
ATOM     33  C   UNL A   1      32.202  31.866  27.039  1.00  0.00     0.261 C 
BRANCH  33  34
ATOM     34  O   UNL A   1      33.367  32.695  26.937  1.00  0.00    -0.460 OA
BRANCH  34  35
ATOM     35  C   UNL A   1      33.848  33.242  28.074  1.00  0.00     0.338 C 
ATOM     36  O   UNL A   1      33.303  34.084  28.774  1.00  0.00    -0.246 OA
BRANCH  35  37
ATOM     37  C   UNL A   1      35.066  32.495  28.441  1.00  0.00     0.060 A 
ATOM     38  C   UNL A   1      34.958  31.147  28.810  1.00  0.00     0.016 A 
ATOM     39  C   UNL A   1      36.315  33.117  28.378  1.00  0.00     0.016 A 
ATOM     40  C   UNL A   1      36.102  30.424  29.148  1.00  0.00     0.010 A 
ATOM     41  C   UNL A   1      37.455  32.399  28.741  1.00  0.00     0.010 A 
ATOM     42  C   UNL A   1      37.349  31.062  29.161  1.00  0.00    -0.014 A 
BRANCH  42  43
ATOM     43  C   UNL A   1      38.505  30.402  29.811  1.00  0.00     0.031 A 
ATOM     44  C   UNL A   1      38.824  30.778  31.231  1.00  0.00     0.074 A 
ATOM     45  C   UNL A   1      39.261  29.504  29.159  1.00  0.00     0.049 A 
ATOM     46  N   UNL A   1      39.802  30.373  31.998  1.00  0.00    -0.248 NA
ATOM     47  C   UNL A   1      37.918  31.747  31.870  1.00  0.00     0.031 C 
ATOM     48  C   UNL A   1      39.043  29.049  27.787  1.00  0.00     0.029 A 
ATOM     49  N   UNL A   1      40.386  28.830  29.565  1.00  0.00    -0.354 N 
ATOM     50  C   UNL A   1      39.652  31.065  33.194  1.00  0.00     0.074 A 
ATOM     51  C   UNL A   1      38.496  31.921  33.048  1.00  0.00     0.031 C 
ATOM     52  C   UNL A   1      40.021  28.187  27.456  1.00  0.00     0.029 A 
ATOM     53  C   UNL A   1      40.947  28.054  28.580  1.00  0.00     0.049 A 
ATOM     54  H   UNL A   1      40.755  28.897  30.476  1.00  0.00     0.167 HD
ATOM     55  C   UNL A   1      40.403  30.989  34.316  1.00  0.00     0.034 A 
ATOM     56  C   UNL A   1      42.092  27.341  28.580  1.00  0.00     0.034 A 
ATOM     57  C   UNL A   1      41.549  30.132  34.458  1.00  0.00     0.049 A 
ATOM     58  C   UNL A   1      42.935  27.302  29.829  1.00  0.00     0.074 A 
ATOM     59  C   UNL A   1      42.347  29.942  35.571  1.00  0.00     0.029 A 
ATOM     60  N   UNL A   1      42.076  29.344  33.447  1.00  0.00    -0.354 N 
ATOM     61  N   UNL A   1      42.721  27.868  30.991  1.00  0.00    -0.248 NA
ATOM     62  C   UNL A   1      44.165  26.498  29.774  1.00  0.00     0.031 C 
ATOM     63  C   UNL A   1      43.386  29.074  35.218  1.00  0.00     0.029 A 
ATOM     64  C   UNL A   1      43.204  28.682  33.901  1.00  0.00     0.049 A 
ATOM     65  H   UNL A   1      41.702  29.266  32.539  1.00  0.00     0.167 HD
ATOM     66  C   UNL A   1      43.763  27.459  31.817  1.00  0.00     0.074 A 
ATOM     67  C   UNL A   1      44.602  26.584  31.024  1.00  0.00     0.031 C 
ATOM     68  C   UNL A   1      44.008  27.781  33.113  1.00  0.00     0.034 A 
BRANCH  55  69
ATOM     69  C   UNL A   1      40.009  31.867  35.475  1.00  0.00     0.023 A 
ATOM     70  C   UNL A   1      40.607  33.133  35.640  1.00  0.00     0.012 A 
ATOM     71  C   UNL A   1      39.030  31.441  36.394  1.00  0.00     0.148 A 
ATOM     72  C   UNL A   1      40.272  33.941  36.726  1.00  0.00     0.002 A 
ATOM     73  C   UNL A   1      38.663  32.274  37.444  1.00  0.00     0.091 A 
ATOM     74  F   UNL A   1      38.492  30.224  36.237  1.00  0.00    -0.205 F 
ATOM     75  C   UNL A   1      39.294  33.516  37.621  1.00  0.00     0.022 A 
BRANCH  73  76
ATOM     76  S   UNL A   1      37.356  31.851  38.600  1.00  0.00     0.127 S 
ATOM     77  O   UNL A   1      38.045  31.981  39.883  1.00  0.00    -0.237 OA
ATOM     78  O   UNL A   1      36.362  32.891  38.333  1.00  0.00    -0.237 OA
ATOM     79  O   UNL A   1      36.932  30.502  38.251  1.00  0.00    -0.744 OA
ENDBRANCH  73  76
ENDBRANCH  55  69
BRANCH  56  80
ATOM     80  C   UNL A   1      42.488  26.573  27.365  1.00  0.00     0.023 A 
ATOM     81  C   UNL A   1      43.101  27.244  26.290  1.00  0.00     0.012 A 
ATOM     82  C   UNL A   1      42.283  25.182  27.281  1.00  0.00     0.148 A 
ATOM     83  C   UNL A   1      43.479  26.548  25.141  1.00  0.00     0.002 A 
ATOM     84  C   UNL A   1      42.713  24.486  26.158  1.00  0.00     0.091 A 
ATOM     85  F   UNL A   1      41.688  24.566  28.311  1.00  0.00    -0.205 F 
ATOM     86  C   UNL A   1      43.295  25.169  25.079  1.00  0.00     0.022 A 
BRANCH  84  87
ATOM     87  S   UNL A   1      42.633  22.696  26.038  1.00  0.00     0.127 S 
ATOM     88  O   UNL A   1      43.229  22.456  24.725  1.00  0.00    -0.237 OA
ATOM     89  O   UNL A   1      43.458  22.284  27.174  1.00  0.00    -0.237 OA
ATOM     90  O   UNL A   1      41.224  22.350  26.159  1.00  0.00    -0.744 OA
ENDBRANCH  84  87
ENDBRANCH  56  80
BRANCH  68  91
ATOM     91  C   UNL A   1      45.204  27.152  33.782  1.00  0.00     0.023 A 
ATOM     92  C   UNL A   1      46.421  27.857  33.870  1.00  0.00     0.012 A 
ATOM     93  C   UNL A   1      45.094  25.886  34.395  1.00  0.00     0.148 A 
ATOM     94  C   UNL A   1      47.518  27.297  34.525  1.00  0.00     0.002 A 
ATOM     95  C   UNL A   1      46.174  25.360  35.092  1.00  0.00     0.091 A 
ATOM     96  F   UNL A   1      43.933  25.224  34.288  1.00  0.00    -0.205 F 
ATOM     97  C   UNL A   1      47.392  26.056  35.145  1.00  0.00     0.022 A 
BRANCH  95  98
ATOM     98  S   UNL A   1      46.073  23.817  36.008  1.00  0.00     0.127 S 
ATOM     99  O   UNL A   1      44.748  23.921  36.618  1.00  0.00    -0.237 OA
ATOM    100  O   UNL A   1      46.179  22.818  34.945  1.00  0.00    -0.237 OA
ATOM    101  O   UNL A   1      47.190  23.828  36.943  1.00  0.00    -0.744 OA
ENDBRANCH  95  98
ENDBRANCH  68  91
ENDBRANCH  42  43
ENDBRANCH  35  37
ENDBRANCH  34  35
ENDBRANCH  33  34
ENDBRANCH  32  33
ENDBRANCH  31  32
ENDBRANCH  30  31
ENDBRANCH   1  30
TORSDOF 26
ENDMDL
MODEL 2
REMARK VINA RESULT:     -10.1      2.403      2.886
REMARK SMILES CS(=O)(=O)c1ccc(/C=C(/C(=O)OCCOCCOCCOCCOC(=O)c2ccc(-c3c4nc(c(-c5cccc(S(=O)(=O)[O-])c5F)c5ccc([nH]5)c(-c5cccc(S(=O)(=O)[O-])c5F)c5nc(c(-c6cccc(S(=O)(=O)[O-])c6F)c6ccc3[nH]6)C=C5)C=C4)cc2)c2cccc(Br)c2)cc1
REMARK SMILES IDX 20 1 19 2 18 3 17 4 16 5 15 6 14 7 13 8 11 9 12 10 10 11
REMARK SMILES IDX 9 12 8 13 5 14 6 15 99 16 7 17 98 18 2 19 1 20 3 21 4 22
REMARK SMILES IDX 91 23 92 24 97 25 93 26 95 27 94 28 96 29 21 30 22 31 23 32
REMARK SMILES IDX 24 33 25 34 26 35 27 36 28 37 29 38 90 39 30 40 89 41 31 42
REMARK SMILES IDX 32 43 33 44 83 45 34 46 88 47 82 48 84 49 35 50 87 51 81 52
REMARK SMILES IDX 80 53 36 55 68 56 48 57 67 58 49 59 52 60 66 61 85 62 50 63
REMARK SMILES IDX 51 64 65 66 86 67 53 68 37 69 38 70 46 71 39 72 41 73 47 74
REMARK SMILES IDX 40 75 42 76 43 77 44 78 45 79 69 80 70 81 78 82 71 83 73 84
REMARK SMILES IDX 79 85 72 86 74 87 75 88 76 89 77 90 54 91 55 92 63 93 56 94
REMARK SMILES IDX 58 95 64 96 57 97 59 98 60 99 61 100 62 101
REMARK H PARENT 84 54 52 65
REMARK Flexibility Score: inf
ROOT
ATOM      1  C   UNL A   1      31.588  27.670  25.732  1.00  0.00     0.188 C 
ENDROOT
BRANCH   1   2
ATOM      2  O   UNL A   1      31.045  28.546  24.751  1.00  0.00    -0.377 OA
BRANCH   2   3
ATOM      3  C   UNL A   1      30.255  28.018  23.702  1.00  0.00     0.188 C 
BRANCH   3   4
ATOM      4  C   UNL A   1      30.096  26.485  23.571  1.00  0.00     0.188 C 
BRANCH   4   5
ATOM      5  O   UNL A   1      31.017  25.880  22.682  1.00  0.00    -0.376 OA
BRANCH   5   6
ATOM      6  C   UNL A   1      31.829  26.731  21.895  1.00  0.00     0.202 C 
BRANCH   6   7
ATOM      7  C   UNL A   1      33.358  26.565  21.955  1.00  0.00     0.261 C 
BRANCH   7   8
ATOM      8  O   UNL A   1      33.843  25.296  22.425  1.00  0.00    -0.460 OA
BRANCH   8   9
ATOM      9  C   UNL A   1      34.152  25.184  23.737  1.00  0.00     0.338 C 
ATOM     10  O   UNL A   1      34.278  26.118  24.516  1.00  0.00    -0.246 OA
BRANCH   9  11
ATOM     11  C   UNL A   1      34.151  23.738  24.159  1.00  0.00     0.067 C 
ATOM     12  C   UNL A   1      32.989  23.037  24.118  1.00  0.00     0.024 C 
BRANCH  12  13
ATOM     13  C   UNL A   1      32.769  21.579  24.298  1.00  0.00    -0.025 A 
ATOM     14  C   UNL A   1      32.810  18.769  24.340  1.00  0.00     0.067 A 
ATOM     15  C   UNL A   1      33.108  19.483  25.496  1.00  0.00     0.021 A 
ATOM     16  C   UNL A   1      32.355  19.434  23.203  1.00  0.00     0.021 A 
ATOM     17  C   UNL A   1      33.035  20.877  25.480  1.00  0.00     0.009 A 
ATOM     18  C   UNL A   1      32.342  20.836  23.186  1.00  0.00     0.009 A 
BRANCH  14  19
ATOM     19  S   UNL A   1      33.112  17.020  24.317  1.00  0.00     0.175 S 
ATOM     20  C   UNL A   1      34.709  16.810  25.061  1.00  0.00     0.163 C 
ATOM     21  O   UNL A   1      33.190  16.616  22.929  1.00  0.00    -0.224 OA
ATOM     22  O   UNL A   1      32.154  16.405  25.219  1.00  0.00    -0.224 OA
ENDBRANCH  14  19
ENDBRANCH  12  13
BRANCH  11  23
ATOM     23  C   UNL A   1      35.441  23.149  24.580  1.00  0.00    -0.010 A 
ATOM     24  C   UNL A   1      36.007  22.091  23.843  1.00  0.00     0.009 A 
ATOM     25  C   UNL A   1      36.176  23.710  25.626  1.00  0.00     0.024 A 
ATOM     26  C   UNL A   1      37.281  21.605  24.137  1.00  0.00     0.002 A 
ATOM     27  C   UNL A   1      37.462  23.238  25.899  1.00  0.00     0.018 A 
ATOM     28  C   UNL A   1      38.015  22.188  25.164  1.00  0.00     0.016 A 
ATOM     29  Br  UNL A   1      38.495  24.077  27.240  1.00  0.00    -0.051 Br
ENDBRANCH  11  23
ENDBRANCH   9  11
ENDBRANCH   8   9
ENDBRANCH   7   8
ENDBRANCH   6   7
ENDBRANCH   5   6
ENDBRANCH   4   5
ENDBRANCH   3   4
ENDBRANCH   2   3
ENDBRANCH   1   2
BRANCH   1  30
ATOM     30  C   UNL A   1      31.585  28.062  27.228  1.00  0.00     0.188 C 
BRANCH  30  31
ATOM     31  O   UNL A   1      31.745  29.449  27.487  1.00  0.00    -0.376 OA
BRANCH  31  32
ATOM     32  C   UNL A   1      32.992  30.040  27.165  1.00  0.00     0.202 C 
BRANCH  32  33
ATOM     33  C   UNL A   1      33.178  31.523  27.513  1.00  0.00     0.261 C 
BRANCH  33  34
ATOM     34  O   UNL A   1      34.521  31.945  27.789  1.00  0.00    -0.460 OA
BRANCH  34  35
ATOM     35  C   UNL A   1      34.893  32.047  29.082  1.00  0.00     0.338 C 
ATOM     36  O   UNL A   1      34.248  32.541  29.997  1.00  0.00    -0.246 OA
BRANCH  35  37
ATOM     37  C   UNL A   1      36.137  31.272  29.245  1.00  0.00     0.060 A 
ATOM     38  C   UNL A   1      36.149  30.168  30.107  1.00  0.00     0.016 A 
ATOM     39  C   UNL A   1      37.276  31.613  28.512  1.00  0.00     0.016 A 
ATOM     40  C   UNL A   1      37.314  29.418  30.262  1.00  0.00     0.010 A 
ATOM     41  C   UNL A   1      38.448  30.877  28.687  1.00  0.00     0.010 A 
ATOM     42  C   UNL A   1      38.482  29.800  29.589  1.00  0.00    -0.014 A 
BRANCH  42  43
ATOM     43  C   UNL A   1      39.783  29.212  29.983  1.00  0.00     0.031 A 
ATOM     44  C   UNL A   1      40.540  29.864  31.106  1.00  0.00     0.074 A 
ATOM     45  C   UNL A   1      40.289  28.137  29.355  1.00  0.00     0.049 A 
ATOM     46  N   UNL A   1      41.711  29.562  31.603  1.00  0.00    -0.248 NA
ATOM     47  C   UNL A   1      39.889  31.016  31.751  1.00  0.00     0.031 C 
ATOM     48  C   UNL A   1      39.642  27.411  28.264  1.00  0.00     0.029 A 
ATOM     49  N   UNL A   1      41.483  27.484  29.536  1.00  0.00    -0.354 N 
ATOM     50  C   UNL A   1      41.953  30.509  32.591  1.00  0.00     0.074 A 
ATOM     51  C   UNL A   1      40.814  31.399  32.617  1.00  0.00     0.031 C 
ATOM     52  C   UNL A   1      40.461  26.426  27.855  1.00  0.00     0.029 A 
ATOM     53  C   UNL A   1      41.697  26.471  28.634  1.00  0.00     0.049 A 
ATOM     54  H   UNL A   1      42.124  27.720  30.246  1.00  0.00     0.167 HD
ATOM     55  C   UNL A   1      43.024  30.623  33.411  1.00  0.00     0.034 A 
ATOM     56  C   UNL A   1      42.780  25.690  28.445  1.00  0.00     0.034 A 
ATOM     57  C   UNL A   1      44.152  29.733  33.385  1.00  0.00     0.049 A 
ATOM     58  C   UNL A   1      43.978  25.860  29.343  1.00  0.00     0.074 A 
ATOM     59  C   UNL A   1      45.264  29.730  34.207  1.00  0.00     0.029 A 
ATOM     60  N   UNL A   1      44.326  28.705  32.471  1.00  0.00    -0.354 N 
ATOM     61  N   UNL A   1      44.149  26.682  30.349  1.00  0.00    -0.248 NA
ATOM     62  C   UNL A   1      45.124  24.972  29.097  1.00  0.00     0.031 C 
ATOM     63  C   UNL A   1      46.133  28.729  33.760  1.00  0.00     0.029 A 
ATOM     64  C   UNL A   1      45.538  28.074  32.693  1.00  0.00     0.049 A 
ATOM     65  H   UNL A   1      43.682  28.459  31.769  1.00  0.00     0.167 HD
ATOM     66  C   UNL A   1      45.399  26.385  30.882  1.00  0.00     0.074 A 
ATOM     67  C   UNL A   1      45.938  25.296  30.094  1.00  0.00     0.031 C 
ATOM     68  C   UNL A   1      46.046  26.964  31.926  1.00  0.00     0.034 A 
BRANCH  55  69
ATOM     69  C   UNL A   1      43.023  31.761  34.398  1.00  0.00     0.023 A 
ATOM     70  C   UNL A   1      43.630  32.989  34.064  1.00  0.00     0.012 A 
ATOM     71  C   UNL A   1      42.403  31.617  35.654  1.00  0.00     0.148 A 
ATOM     72  C   UNL A   1      43.662  34.039  34.981  1.00  0.00     0.002 A 
ATOM     73  C   UNL A   1      42.393  32.685  36.543  1.00  0.00     0.091 A 
ATOM     74  F   UNL A   1      41.854  30.435  35.965  1.00  0.00    -0.205 F 
ATOM     75  C   UNL A   1      43.035  33.890  36.215  1.00  0.00     0.022 A 
BRANCH  73  76
ATOM     76  S   UNL A   1      41.541  32.619  38.122  1.00  0.00     0.127 S 
ATOM     77  O   UNL A   1      40.194  32.222  37.714  1.00  0.00    -0.237 OA
ATOM     78  O   UNL A   1      42.292  31.584  38.833  1.00  0.00    -0.237 OA
ATOM     79  O   UNL A   1      41.654  33.953  38.695  1.00  0.00    -0.744 OA
ENDBRANCH  73  76
ENDBRANCH  55  69
BRANCH  56  80
ATOM     80  C   UNL A   1      42.765  24.646  27.379  1.00  0.00     0.023 A 
ATOM     81  C   UNL A   1      43.385  24.909  26.142  1.00  0.00     0.012 A 
ATOM     82  C   UNL A   1      42.163  23.391  27.595  1.00  0.00     0.148 A 
ATOM     83  C   UNL A   1      43.382  23.950  25.129  1.00  0.00     0.002 A 
ATOM     84  C   UNL A   1      42.214  22.421  26.602  1.00  0.00     0.091 A 
ATOM     85  F   UNL A   1      41.570  23.167  28.775  1.00  0.00    -0.205 F 
ATOM     86  C   UNL A   1      42.807  22.703  25.362  1.00  0.00     0.022 A 
BRANCH  84  87
ATOM     87  S   UNL A   1      41.612  20.747  26.852  1.00  0.00     0.127 S 
ATOM     88  O   UNL A   1      40.636  20.935  27.923  1.00  0.00    -0.237 OA
ATOM     89  O   UNL A   1      41.038  20.439  25.542  1.00  0.00    -0.237 OA
ATOM     90  O   UNL A   1      42.780  19.950  27.201  1.00  0.00    -0.744 OA
ENDBRANCH  84  87
ENDBRANCH  56  80
BRANCH  68  91
ATOM     91  C   UNL A   1      47.391  26.406  32.318  1.00  0.00     0.023 A 
ATOM     92  C   UNL A   1      47.486  25.415  33.316  1.00  0.00     0.012 A 
ATOM     93  C   UNL A   1      48.558  26.812  31.637  1.00  0.00     0.148 A 
ATOM     94  C   UNL A   1      48.723  24.866  33.653  1.00  0.00     0.002 A 
ATOM     95  C   UNL A   1      49.777  26.221  31.941  1.00  0.00     0.091 A 
ATOM     96  F   UNL A   1      48.450  27.766  30.701  1.00  0.00    -0.205 F 
ATOM     97  C   UNL A   1      49.865  25.258  32.959  1.00  0.00     0.022 A 
BRANCH  95  98
ATOM     98  S   UNL A   1      51.282  26.588  31.030  1.00  0.00     0.127 S 
ATOM     99  O   UNL A   1      51.436  28.021  31.277  1.00  0.00    -0.237 OA
ATOM    100  O   UNL A   1      52.266  25.743  31.705  1.00  0.00    -0.237 OA
ATOM    101  O   UNL A   1      51.015  26.221  29.645  1.00  0.00    -0.744 OA
ENDBRANCH  95  98
ENDBRANCH  68  91
ENDBRANCH  42  43
ENDBRANCH  35  37
ENDBRANCH  34  35
ENDBRANCH  33  34
ENDBRANCH  32  33
ENDBRANCH  31  32
ENDBRANCH  30  31
ENDBRANCH   1  30
TORSDOF 26
ENDMDL
MODEL 3
REMARK VINA RESULT:      -9.7      5.673     11.456
REMARK SMILES CS(=O)(=O)c1ccc(/C=C(/C(=O)OCCOCCOCCOCCOC(=O)c2ccc(-c3c4nc(c(-c5cccc(S(=O)(=O)[O-])c5F)c5ccc([nH]5)c(-c5cccc(S(=O)(=O)[O-])c5F)c5nc(c(-c6cccc(S(=O)(=O)[O-])c6F)c6ccc3[nH]6)C=C5)C=C4)cc2)c2cccc(Br)c2)cc1
REMARK SMILES IDX 20 1 19 2 18 3 17 4 16 5 15 6 14 7 13 8 11 9 12 10 10 11
REMARK SMILES IDX 9 12 8 13 5 14 6 15 99 16 7 17 98 18 2 19 1 20 3 21 4 22
REMARK SMILES IDX 91 23 92 24 97 25 93 26 95 27 94 28 96 29 21 30 22 31 23 32
REMARK SMILES IDX 24 33 25 34 26 35 27 36 28 37 29 38 90 39 30 40 89 41 31 42
REMARK SMILES IDX 32 43 33 44 83 45 34 46 88 47 82 48 84 49 35 50 87 51 81 52
REMARK SMILES IDX 80 53 36 55 68 56 48 57 67 58 49 59 52 60 66 61 85 62 50 63
REMARK SMILES IDX 51 64 65 66 86 67 53 68 37 69 38 70 46 71 39 72 41 73 47 74
REMARK SMILES IDX 40 75 42 76 43 77 44 78 45 79 69 80 70 81 78 82 71 83 73 84
REMARK SMILES IDX 79 85 72 86 74 87 75 88 76 89 77 90 54 91 55 92 63 93 56 94
REMARK SMILES IDX 58 95 64 96 57 97 59 98 60 99 61 100 62 101
REMARK H PARENT 84 54 52 65
REMARK Flexibility Score: inf
ROOT
ATOM      1  C   UNL A   1      35.754  21.455  25.911  1.00  0.00     0.188 C 
ENDROOT
BRANCH   1   2
ATOM      2  O   UNL A   1      34.691  22.198  26.496  1.00  0.00    -0.377 OA
BRANCH   2   3
ATOM      3  C   UNL A   1      33.404  21.617  26.594  1.00  0.00     0.188 C 
BRANCH   3   4
ATOM      4  C   UNL A   1      32.237  22.455  27.167  1.00  0.00     0.188 C 
BRANCH   4   5
ATOM      5  O   UNL A   1      30.969  22.127  26.629  1.00  0.00    -0.376 OA
BRANCH   5   6
ATOM      6  C   UNL A   1      30.048  23.182  26.421  1.00  0.00     0.202 C 
BRANCH   6   7
ATOM      7  C   UNL A   1      30.526  24.633  26.602  1.00  0.00     0.261 C 
BRANCH   7   8
ATOM      8  O   UNL A   1      30.682  25.408  25.401  1.00  0.00    -0.460 OA
BRANCH   8   9
ATOM      9  C   UNL A   1      31.932  25.795  25.057  1.00  0.00     0.338 C 
ATOM     10  O   UNL A   1      32.778  25.078  24.543  1.00  0.00    -0.246 OA
BRANCH   9  11
ATOM     11  C   UNL A   1      32.092  27.282  25.233  1.00  0.00     0.067 C 
ATOM     12  C   UNL A   1      32.732  27.754  26.333  1.00  0.00     0.024 C 
BRANCH  12  13
ATOM     13  C   UNL A   1      33.176  29.139  26.636  1.00  0.00    -0.025 A 
ATOM     14  C   UNL A   1      33.805  31.660  27.709  1.00  0.00     0.067 A 
ATOM     15  C   UNL A   1      34.818  30.742  27.459  1.00  0.00     0.021 A 
ATOM     16  C   UNL A   1      32.499  31.391  27.301  1.00  0.00     0.021 A 
ATOM     17  C   UNL A   1      34.504  29.511  26.879  1.00  0.00     0.009 A 
ATOM     18  C   UNL A   1      32.190  30.130  26.771  1.00  0.00     0.009 A 
BRANCH  14  19
ATOM     19  S   UNL A   1      34.189  33.123  28.638  1.00  0.00     0.175 S 
ATOM     20  C   UNL A   1      34.670  32.546  30.245  1.00  0.00     0.163 C 
ATOM     21  O   UNL A   1      32.965  33.885  28.765  1.00  0.00    -0.224 OA
ATOM     22  O   UNL A   1      35.375  33.712  28.040  1.00  0.00    -0.224 OA
ENDBRANCH  14  19
ENDBRANCH  12  13
BRANCH  11  23
ATOM     23  C   UNL A   1      31.552  28.157  24.169  1.00  0.00    -0.010 A 
ATOM     24  C   UNL A   1      32.374  28.551  23.095  1.00  0.00     0.009 A 
ATOM     25  C   UNL A   1      30.198  28.499  24.143  1.00  0.00     0.024 A 
ATOM     26  C   UNL A   1      31.857  29.264  22.014  1.00  0.00     0.002 A 
ATOM     27  C   UNL A   1      29.681  29.190  23.044  1.00  0.00     0.018 A 
ATOM     28  C   UNL A   1      30.503  29.577  21.984  1.00  0.00     0.016 A 
ATOM     29  Br  UNL A   1      27.828  29.548  22.960  1.00  0.00    -0.051 Br
ENDBRANCH  11  23
ENDBRANCH   9  11
ENDBRANCH   8   9
ENDBRANCH   7   8
ENDBRANCH   6   7
ENDBRANCH   5   6
ENDBRANCH   4   5
ENDBRANCH   3   4
ENDBRANCH   2   3
ENDBRANCH   1   2
BRANCH   1  30
ATOM     30  C   UNL A   1      36.483  21.981  24.651  1.00  0.00     0.188 C 
BRANCH  30  31
ATOM     31  O   UNL A   1      37.777  21.439  24.435  1.00  0.00    -0.376 OA
BRANCH  31  32
ATOM     32  C   UNL A   1      38.587  21.192  25.570  1.00  0.00     0.202 C 
BRANCH  32  33
ATOM     33  C   UNL A   1      39.405  19.893  25.582  1.00  0.00     0.261 C 
BRANCH  33  34
ATOM     34  O   UNL A   1      40.438  19.804  26.573  1.00  0.00    -0.460 OA
BRANCH  34  35
ATOM     35  C   UNL A   1      41.713  19.700  26.140  1.00  0.00     0.338 C 
ATOM     36  O   UNL A   1      42.208  18.764  25.528  1.00  0.00    -0.246 OA
BRANCH  35  37
ATOM     37  C   UNL A   1      42.359  21.008  26.356  1.00  0.00     0.060 A 
ATOM     38  C   UNL A   1      42.704  21.396  27.657  1.00  0.00     0.016 A 
ATOM     39  C   UNL A   1      42.658  21.830  25.267  1.00  0.00     0.016 A 
ATOM     40  C   UNL A   1      43.326  22.625  27.876  1.00  0.00     0.010 A 
ATOM     41  C   UNL A   1      43.257  23.070  25.490  1.00  0.00     0.010 A 
ATOM     42  C   UNL A   1      43.561  23.487  26.797  1.00  0.00    -0.014 A 
BRANCH  42  43
ATOM     43  C   UNL A   1      43.924  24.900  27.052  1.00  0.00     0.031 A 
ATOM     44  C   UNL A   1      45.353  25.312  26.828  1.00  0.00     0.074 A 
ATOM     45  C   UNL A   1      43.018  25.793  27.482  1.00  0.00     0.049 A 
ATOM     46  N   UNL A   1      45.922  26.473  27.020  1.00  0.00    -0.248 NA
ATOM     47  C   UNL A   1      46.263  24.269  26.326  1.00  0.00     0.031 C 
ATOM     48  C   UNL A   1      41.603  25.517  27.720  1.00  0.00     0.029 A 
ATOM     49  N   UNL A   1      43.167  27.116  27.817  1.00  0.00    -0.354 N 
ATOM     50  C   UNL A   1      47.262  26.291  26.699  1.00  0.00     0.074 A 
ATOM     51  C   UNL A   1      47.422  24.907  26.311  1.00  0.00     0.031 C 
ATOM     52  C   UNL A   1      41.017  26.633  28.189  1.00  0.00     0.029 A 
ATOM     53  C   UNL A   1      42.020  27.690  28.311  1.00  0.00     0.049 A 
ATOM     54  H   UNL A   1      44.015  27.607  27.714  1.00  0.00     0.167 HD
ATOM     55  C   UNL A   1      48.268  27.195  26.718  1.00  0.00     0.034 A 
ATOM     56  C   UNL A   1      41.815  28.919  28.825  1.00  0.00     0.034 A 
ATOM     57  C   UNL A   1      48.102  28.571  27.100  1.00  0.00     0.049 A 
ATOM     58  C   UNL A   1      42.959  29.899  28.874  1.00  0.00     0.074 A 
ATOM     59  C   UNL A   1      49.046  29.582  27.103  1.00  0.00     0.029 A 
ATOM     60  N   UNL A   1      46.922  29.123  27.573  1.00  0.00    -0.354 N 
ATOM     61  N   UNL A   1      44.194  29.751  28.459  1.00  0.00    -0.248 NA
ATOM     62  C   UNL A   1      42.672  31.228  29.434  1.00  0.00     0.031 C 
ATOM     63  C   UNL A   1      48.448  30.734  27.624  1.00  0.00     0.029 A 
ATOM     64  C   UNL A   1      47.117  30.455  27.895  1.00  0.00     0.049 A 
ATOM     65  H   UNL A   1      46.070  28.638  27.667  1.00  0.00     0.167 HD
ATOM     66  C   UNL A   1      44.820  30.976  28.670  1.00  0.00     0.074 A 
ATOM     67  C   UNL A   1      43.822  31.860  29.237  1.00  0.00     0.031 C 
ATOM     68  C   UNL A   1      46.105  31.336  28.421  1.00  0.00     0.034 A 
BRANCH  55  69
ATOM     69  C   UNL A   1      49.639  26.715  26.320  1.00  0.00     0.023 A 
ATOM     70  C   UNL A   1      50.378  25.885  27.187  1.00  0.00     0.012 A 
ATOM     71  C   UNL A   1      50.189  27.076  25.074  1.00  0.00     0.148 A 
ATOM     72  C   UNL A   1      51.661  25.459  26.842  1.00  0.00     0.002 A 
ATOM     73  C   UNL A   1      51.446  26.605  24.715  1.00  0.00     0.091 A 
ATOM     74  F   UNL A   1      49.484  27.887  24.274  1.00  0.00    -0.205 F 
ATOM     75  C   UNL A   1      52.189  25.811  25.603  1.00  0.00     0.022 A 
BRANCH  73  76
ATOM     76  S   UNL A   1      52.177  26.934  23.109  1.00  0.00     0.127 S 
ATOM     77  O   UNL A   1      51.021  26.798  22.224  1.00  0.00    -0.237 OA
ATOM     78  O   UNL A   1      52.665  28.305  23.269  1.00  0.00    -0.237 OA
ATOM     79  O   UNL A   1      53.222  25.936  22.931  1.00  0.00    -0.744 OA
ENDBRANCH  73  76
ENDBRANCH  55  69
BRANCH  56  80
ATOM     80  C   UNL A   1      40.456  29.306  29.303  1.00  0.00     0.023 A 
ATOM     81  C   UNL A   1      39.506  29.784  28.381  1.00  0.00     0.012 A 
ATOM     82  C   UNL A   1      40.096  29.182  30.660  1.00  0.00     0.148 A 
ATOM     83  C   UNL A   1      38.229  30.155  28.803  1.00  0.00     0.002 A 
ATOM     84  C   UNL A   1      38.806  29.499  31.064  1.00  0.00     0.091 A 
ATOM     85  F   UNL A   1      41.019  28.736  31.522  1.00  0.00    -0.205 F 
ATOM     86  C   UNL A   1      37.875  30.003  30.142  1.00  0.00     0.022 A 
BRANCH  84  87
ATOM     87  S   UNL A   1      38.219  29.221  32.739  1.00  0.00     0.127 S 
ATOM     88  O   UNL A   1      36.775  29.376  32.581  1.00  0.00    -0.237 OA
ATOM     89  O   UNL A   1      38.668  27.850  32.987  1.00  0.00    -0.237 OA
ATOM     90  O   UNL A   1      38.871  30.228  33.564  1.00  0.00    -0.744 OA
ENDBRANCH  84  87
ENDBRANCH  56  80
BRANCH  68  91
ATOM     91  C   UNL A   1      46.507  32.760  28.712  1.00  0.00     0.023 A 
ATOM     92  C   UNL A   1      47.187  33.077  29.905  1.00  0.00     0.012 A 
ATOM     93  C   UNL A   1      46.276  33.775  27.760  1.00  0.00     0.148 A 
ATOM     94  C   UNL A   1      47.598  34.385  30.160  1.00  0.00     0.002 A 
ATOM     95  C   UNL A   1      46.737  35.064  27.997  1.00  0.00     0.091 A 
ATOM     96  F   UNL A   1      45.615  33.458  26.637  1.00  0.00    -0.205 F 
ATOM     97  C   UNL A   1      47.385  35.374  29.203  1.00  0.00     0.022 A 
BRANCH  95  98
ATOM     98  S   UNL A   1      46.600  36.378  26.779  1.00  0.00     0.127 S 
ATOM     99  O   UNL A   1      47.608  37.326  27.250  1.00  0.00    -0.237 OA
ATOM    100  O   UNL A   1      46.945  35.686  25.537  1.00  0.00    -0.237 OA
ATOM    101  O   UNL A   1      45.223  36.850  26.848  1.00  0.00    -0.744 OA
ENDBRANCH  95  98
ENDBRANCH  68  91
ENDBRANCH  42  43
ENDBRANCH  35  37
ENDBRANCH  34  35
ENDBRANCH  33  34
ENDBRANCH  32  33
ENDBRANCH  31  32
ENDBRANCH  30  31
ENDBRANCH   1  30
TORSDOF 26
ENDMDL
