MODEL 1
REMARK VINA RESULT:     -10.1      0.000      0.000
REMARK SMILES CC1(C)CCC[C@@]1(CC(=O)OCCOCCOCCOCCOC(=O)c1ccc(-c2c3nc(c(-c4cccc(S(=O)(=O)[O-])c4F)c4ccc([nH]4)c(-c4cccc(S(=O)(=O)[O-])c4F)c4nc(c(-c5cccc(S(=O)(=O)[O-])c5F)c5ccc2[nH]5)C=C4)C=C3)cc1)[NH+]1CCCCC1
REMARK SMILES IDX 18 1 17 2 16 3 15 4 14 5 13 6 12 7 11 8 9 9 10 10 8 11 7 12
REMARK SMILES IDX 1 13 2 14 3 15 4 16 5 17 6 18 89 19 90 20 94 21 91 23 93 24
REMARK SMILES IDX 92 25 19 26 20 27 21 28 22 29 23 30 24 31 25 32 26 33 27 34
REMARK SMILES IDX 88 35 28 36 87 37 29 38 30 39 31 40 81 41 32 42 86 43 80 44
REMARK SMILES IDX 82 45 33 46 85 47 79 48 78 49 34 51 66 52 46 53 65 54 47 55
REMARK SMILES IDX 50 56 64 57 83 58 48 59 49 60 63 62 84 63 51 64 35 65 36 66
REMARK SMILES IDX 44 67 37 68 39 69 45 70 38 71 40 72 41 73 42 74 43 75 67 76
REMARK SMILES IDX 68 77 76 78 69 79 71 80 77 81 70 82 72 83 73 84 74 85 75 86
REMARK SMILES IDX 52 87 53 88 61 89 54 90 56 91 62 92 55 93 57 94 58 95 59 96
REMARK SMILES IDX 60 97
REMARK H PARENT 89 22 82 50 50 61
REMARK Flexibility Score: inf
ROOT
ATOM      1  C   UNL A   1      34.557  33.629  28.033  1.00  0.00     0.188 C 
ENDROOT
BRANCH   1   2
ATOM      2  O   UNL A   1      33.972  32.364  28.303  1.00  0.00    -0.377 OA
BRANCH   2   3
ATOM      3  C   UNL A   1      33.262  31.675  27.292  1.00  0.00     0.188 C 
BRANCH   3   4
ATOM      4  C   UNL A   1      33.386  30.147  27.376  1.00  0.00     0.188 C 
BRANCH   4   5
ATOM      5  O   UNL A   1      32.775  29.391  26.339  1.00  0.00    -0.376 OA
BRANCH   5   6
ATOM      6  C   UNL A   1      33.658  28.699  25.446  1.00  0.00     0.202 C 
BRANCH   6   7
ATOM      7  C   UNL A   1      33.832  27.172  25.640  1.00  0.00     0.261 C 
BRANCH   7   8
ATOM      8  O   UNL A   1      32.683  26.393  25.215  1.00  0.00    -0.463 OA
BRANCH   8   9
ATOM      9  C   UNL A   1      31.876  25.857  26.169  1.00  0.00     0.312 C 
ATOM     10  O   UNL A   1      31.383  26.504  27.087  1.00  0.00    -0.252 OA
BRANCH   9  11
ATOM     11  C   UNL A   1      31.425  24.426  25.827  1.00  0.00     0.191 C 
BRANCH  11  12
ATOM     12  C   UNL A   1      32.334  23.342  25.111  1.00  0.00     0.113 C 
ATOM     13  C   UNL A   1      32.925  24.587  22.847  1.00  0.00     0.018 C 
ATOM     14  C   UNL A   1      32.122  23.453  23.516  1.00  0.00     0.020 C 
ATOM     15  C   UNL A   1      30.645  23.679  23.092  1.00  0.00     0.018 C 
ATOM     16  C   UNL A   1      32.496  22.051  22.985  1.00  0.00     0.013 C 
ATOM     17  C   UNL A   1      31.975  21.091  24.043  1.00  0.00     0.007 C 
ATOM     18  C   UNL A   1      31.846  21.883  25.352  1.00  0.00     0.070 C 
BRANCH  12  19
ATOM     19  N   UNL A   1      33.802  23.588  25.489  1.00  0.00    -0.329 N 
ATOM     20  C   UNL A   1      34.912  23.366  24.546  1.00  0.00     0.262 C 
ATOM     21  C   UNL A   1      34.305  23.168  26.805  1.00  0.00     0.262 C 
ATOM     22  H   UNL A   1      33.569  24.580  25.475  1.00  0.00     0.348 HD
ATOM     23  C   UNL A   1      35.402  21.923  24.428  1.00  0.00     0.062 C 
ATOM     24  C   UNL A   1      34.768  21.716  26.854  1.00  0.00     0.062 C 
ATOM     25  C   UNL A   1      35.783  21.349  25.785  1.00  0.00     0.012 C 
ENDBRANCH  12  19
ENDBRANCH  11  12
ENDBRANCH   9  11
ENDBRANCH   8   9
ENDBRANCH   7   8
ENDBRANCH   6   7
ENDBRANCH   5   6
ENDBRANCH   4   5
ENDBRANCH   3   4
ENDBRANCH   2   3
ENDBRANCH   1   2
BRANCH   1  26
ATOM     26  C   UNL A   1      33.951  34.838  28.764  1.00  0.00     0.188 C 
BRANCH  26  27
ATOM     27  O   UNL A   1      33.161  34.612  29.939  1.00  0.00    -0.376 OA
BRANCH  27  28
ATOM     28  C   UNL A   1      33.695  34.995  31.201  1.00  0.00     0.202 C 
BRANCH  28  29
ATOM     29  C   UNL A   1      35.041  34.392  31.580  1.00  0.00     0.261 C 
BRANCH  29  30
ATOM     30  O   UNL A   1      34.922  32.969  31.722  1.00  0.00    -0.460 OA
BRANCH  30  31
ATOM     31  C   UNL A   1      35.832  32.419  32.557  1.00  0.00     0.338 C 
ATOM     32  O   UNL A   1      35.822  32.440  33.772  1.00  0.00    -0.246 OA
BRANCH  31  33
ATOM     33  C   UNL A   1      36.767  31.587  31.781  1.00  0.00     0.060 A 
ATOM     34  C   UNL A   1      37.764  30.925  32.507  1.00  0.00     0.016 A 
ATOM     35  C   UNL A   1      36.730  31.517  30.386  1.00  0.00     0.016 A 
ATOM     36  C   UNL A   1      38.772  30.245  31.843  1.00  0.00     0.010 A 
ATOM     37  C   UNL A   1      37.761  30.853  29.715  1.00  0.00     0.010 A 
ATOM     38  C   UNL A   1      38.808  30.265  30.445  1.00  0.00    -0.014 A 
BRANCH  38  39
ATOM     39  C   UNL A   1      40.074  29.878  29.789  1.00  0.00     0.031 A 
ATOM     40  C   UNL A   1      40.142  28.534  29.116  1.00  0.00     0.074 A 
ATOM     41  C   UNL A   1      41.101  30.740  29.720  1.00  0.00     0.049 A 
ATOM     42  N   UNL A   1      41.130  27.989  28.460  1.00  0.00    -0.248 NA
ATOM     43  C   UNL A   1      38.931  27.695  29.185  1.00  0.00     0.031 C 
ATOM     44  C   UNL A   1      41.118  32.083  30.299  1.00  0.00     0.029 A 
ATOM     45  N   UNL A   1      42.336  30.603  29.141  1.00  0.00    -0.354 N 
ATOM     46  C   UNL A   1      40.677  26.734  28.069  1.00  0.00     0.074 A 
ATOM     47  C   UNL A   1      39.324  26.596  28.558  1.00  0.00     0.031 C 
ATOM     48  C   UNL A   1      42.324  32.636  30.077  1.00  0.00     0.029 A 
ATOM     49  C   UNL A   1      43.166  31.675  29.368  1.00  0.00     0.049 A 
ATOM     50  H   UNL A   1      42.602  29.815  28.616  1.00  0.00     0.167 HD
ATOM     51  C   UNL A   1      41.331  25.787  27.362  1.00  0.00     0.034 A 
ATOM     52  C   UNL A   1      44.469  31.838  29.065  1.00  0.00     0.034 A 
ATOM     53  C   UNL A   1      42.668  25.944  26.863  1.00  0.00     0.049 A 
ATOM     54  C   UNL A   1      45.182  30.746  28.311  1.00  0.00     0.074 A 
ATOM     55  C   UNL A   1      43.408  25.060  26.098  1.00  0.00     0.029 A 
ATOM     56  N   UNL A   1      43.472  27.048  27.095  1.00  0.00    -0.354 N 
ATOM     57  N   UNL A   1      44.711  29.608  27.861  1.00  0.00    -0.248 NA
ATOM     58  C   UNL A   1      46.600  30.973  27.996  1.00  0.00     0.031 C 
ATOM     59  C   UNL A   1      44.677  25.611  25.907  1.00  0.00     0.029 A 
ATOM     60  C   UNL A   1      44.710  26.859  26.507  1.00  0.00     0.049 A 
ATOM     61  H   UNL A   1      43.203  27.847  27.603  1.00  0.00     0.167 HD
ATOM     62  C   UNL A   1      45.759  29.004  27.175  1.00  0.00     0.074 A 
ATOM     63  C   UNL A   1      46.885  29.913  27.252  1.00  0.00     0.031 C 
ATOM     64  C   UNL A   1      45.797  27.802  26.550  1.00  0.00     0.034 A 
BRANCH  51  65
ATOM     65  C   UNL A   1      40.622  24.489  27.087  1.00  0.00     0.023 A 
ATOM     66  C   UNL A   1      39.361  24.489  26.459  1.00  0.00     0.012 A 
ATOM     67  C   UNL A   1      41.254  23.263  27.372  1.00  0.00     0.148 A 
ATOM     68  C   UNL A   1      38.733  23.287  26.134  1.00  0.00     0.002 A 
ATOM     69  C   UNL A   1      40.645  22.072  27.002  1.00  0.00     0.091 A 
ATOM     70  F   UNL A   1      42.443  23.289  27.992  1.00  0.00    -0.205 F 
ATOM     71  C   UNL A   1      39.381  22.081  26.392  1.00  0.00     0.022 A 
BRANCH  69  72
ATOM     72  S   UNL A   1      41.433  20.473  27.216  1.00  0.00     0.127 S 
ATOM     73  O   UNL A   1      42.786  20.861  27.612  1.00  0.00    -0.237 OA
ATOM     74  O   UNL A   1      40.631  19.878  28.284  1.00  0.00    -0.237 OA
ATOM     75  O   UNL A   1      41.336  19.797  25.929  1.00  0.00    -0.744 OA
ENDBRANCH  69  72
ENDBRANCH  51  65
BRANCH  52  76
ATOM     76  C   UNL A   1      45.190  33.073  29.484  1.00  0.00     0.023 A 
ATOM     77  C   UNL A   1      45.858  33.114  30.723  1.00  0.00     0.012 A 
ATOM     78  C   UNL A   1      45.195  34.218  28.663  1.00  0.00     0.148 A 
ATOM     79  C   UNL A   1      46.475  34.287  31.158  1.00  0.00     0.002 A 
ATOM     80  C   UNL A   1      45.864  35.363  29.075  1.00  0.00     0.091 A 
ATOM     81  F   UNL A   1      44.538  34.166  27.495  1.00  0.00    -0.205 F 
ATOM     82  C   UNL A   1      46.485  35.409  30.331  1.00  0.00     0.022 A 
BRANCH  80  83
ATOM     83  S   UNL A   1      46.034  36.804  28.017  1.00  0.00     0.127 S 
ATOM     84  O   UNL A   1      44.645  37.224  27.858  1.00  0.00    -0.237 OA
ATOM     85  O   UNL A   1      46.856  37.689  28.844  1.00  0.00    -0.237 OA
ATOM     86  O   UNL A   1      46.695  36.328  26.810  1.00  0.00    -0.744 OA
ENDBRANCH  80  83
ENDBRANCH  52  76
BRANCH  64  87
ATOM     87  C   UNL A   1      47.073  27.419  25.846  1.00  0.00     0.023 A 
ATOM     88  C   UNL A   1      48.064  26.686  26.527  1.00  0.00     0.012 A 
ATOM     89  C   UNL A   1      47.252  27.725  24.482  1.00  0.00     0.148 A 
ATOM     90  C   UNL A   1      49.232  26.299  25.871  1.00  0.00     0.002 A 
ATOM     91  C   UNL A   1      48.391  27.286  23.821  1.00  0.00     0.091 A 
ATOM     92  F   UNL A   1      46.301  28.435  23.857  1.00  0.00    -0.205 F 
ATOM     93  C   UNL A   1      49.390  26.587  24.518  1.00  0.00     0.022 A 
BRANCH  91  94
ATOM     94  S   UNL A   1      48.631  27.520  22.057  1.00  0.00     0.127 S 
ATOM     95  O   UNL A   1      49.902  28.243  22.023  1.00  0.00    -0.237 OA
ATOM     96  O   UNL A   1      48.700  26.143  21.569  1.00  0.00    -0.237 OA
ATOM     97  O   UNL A   1      47.474  28.271  21.588  1.00  0.00    -0.744 OA
ENDBRANCH  91  94
ENDBRANCH  64  87
ENDBRANCH  38  39
ENDBRANCH  31  33
ENDBRANCH  30  31
ENDBRANCH  29  30
ENDBRANCH  28  29
ENDBRANCH  27  28
ENDBRANCH  26  27
ENDBRANCH   1  26
TORSDOF 25
ENDMDL
MODEL 2
REMARK VINA RESULT:      -9.6      4.769     12.222
REMARK SMILES CC1(C)CCC[C@@]1(CC(=O)OCCOCCOCCOCCOC(=O)c1ccc(-c2c3nc(c(-c4cccc(S(=O)(=O)[O-])c4F)c4ccc([nH]4)c(-c4cccc(S(=O)(=O)[O-])c4F)c4nc(c(-c5cccc(S(=O)(=O)[O-])c5F)c5ccc2[nH]5)C=C4)C=C3)cc1)[NH+]1CCCCC1
REMARK SMILES IDX 18 1 17 2 16 3 15 4 14 5 13 6 12 7 11 8 9 9 10 10 8 11 7 12
REMARK SMILES IDX 1 13 2 14 3 15 4 16 5 17 6 18 89 19 90 20 94 21 91 23 93 24
REMARK SMILES IDX 92 25 19 26 20 27 21 28 22 29 23 30 24 31 25 32 26 33 27 34
REMARK SMILES IDX 88 35 28 36 87 37 29 38 30 39 31 40 81 41 32 42 86 43 80 44
REMARK SMILES IDX 82 45 33 46 85 47 79 48 78 49 34 51 66 52 46 53 65 54 47 55
REMARK SMILES IDX 50 56 64 57 83 58 48 59 49 60 63 62 84 63 51 64 35 65 36 66
REMARK SMILES IDX 44 67 37 68 39 69 45 70 38 71 40 72 41 73 42 74 43 75 67 76
REMARK SMILES IDX 68 77 76 78 69 79 71 80 77 81 70 82 72 83 73 84 74 85 75 86
REMARK SMILES IDX 52 87 53 88 61 89 54 90 56 91 62 92 55 93 57 94 58 95 59 96
REMARK SMILES IDX 60 97
REMARK H PARENT 89 22 82 50 50 61
REMARK Flexibility Score: inf
ROOT
ATOM      1  C   UNL A   1      41.366  23.019  26.815  1.00  0.00     0.188 C 
ENDROOT
BRANCH   1   2
ATOM      2  O   UNL A   1      40.099  23.642  26.657  1.00  0.00    -0.377 OA
BRANCH   2   3
ATOM      3  C   UNL A   1      39.996  25.052  26.622  1.00  0.00     0.188 C 
BRANCH   3   4
ATOM      4  C   UNL A   1      39.676  25.688  27.982  1.00  0.00     0.188 C 
BRANCH   4   5
ATOM      5  O   UNL A   1      40.137  27.015  28.199  1.00  0.00    -0.376 OA
BRANCH   5   6
ATOM      6  C   UNL A   1      40.171  27.465  29.560  1.00  0.00     0.202 C 
BRANCH   6   7
ATOM      7  C   UNL A   1      40.553  28.943  29.823  1.00  0.00     0.261 C 
BRANCH   7   8
ATOM      8  O   UNL A   1      40.753  29.255  31.227  1.00  0.00    -0.463 OA
BRANCH   8   9
ATOM      9  C   UNL A   1      39.823  30.020  31.859  1.00  0.00     0.312 C 
ATOM     10  O   UNL A   1      39.414  29.799  32.994  1.00  0.00    -0.252 OA
BRANCH   9  11
ATOM     11  C   UNL A   1      39.539  31.339  31.118  1.00  0.00     0.191 C 
BRANCH  11  12
ATOM     12  C   UNL A   1      38.092  31.939  30.869  1.00  0.00     0.113 C 
ATOM     13  C   UNL A   1      38.663  34.492  30.447  1.00  0.00     0.018 C 
ATOM     14  C   UNL A   1      38.054  33.456  31.414  1.00  0.00     0.020 C 
ATOM     15  C   UNL A   1      38.793  33.658  32.764  1.00  0.00     0.018 C 
ATOM     16  C   UNL A   1      36.562  33.714  31.715  1.00  0.00     0.013 C 
ATOM     17  C   UNL A   1      36.051  32.394  32.270  1.00  0.00     0.007 C 
ATOM     18  C   UNL A   1      37.002  31.295  31.776  1.00  0.00     0.070 C 
BRANCH  12  19
ATOM     19  N   UNL A   1      37.777  31.885  29.367  1.00  0.00    -0.329 N 
ATOM     20  C   UNL A   1      36.510  32.384  28.804  1.00  0.00     0.262 C 
ATOM     21  C   UNL A   1      38.119  30.689  28.583  1.00  0.00     0.262 C 
ATOM     22  H   UNL A   1      38.479  32.617  29.262  1.00  0.00     0.348 HD
ATOM     23  C   UNL A   1      35.328  31.417  28.873  1.00  0.00     0.062 C 
ATOM     24  C   UNL A   1      37.051  29.602  28.620  1.00  0.00     0.062 C 
ATOM     25  C   UNL A   1      35.662  30.079  28.231  1.00  0.00     0.012 C 
ENDBRANCH  12  19
ENDBRANCH  11  12
ENDBRANCH   9  11
ENDBRANCH   8   9
ENDBRANCH   7   8
ENDBRANCH   6   7
ENDBRANCH   5   6
ENDBRANCH   4   5
ENDBRANCH   3   4
ENDBRANCH   2   3
ENDBRANCH   1   2
BRANCH   1  26
ATOM     26  C   UNL A   1      41.571  21.683  26.085  1.00  0.00     0.188 C 
BRANCH  26  27
ATOM     27  O   UNL A   1      42.795  21.464  25.371  1.00  0.00    -0.376 OA
BRANCH  27  28
ATOM     28  C   UNL A   1      43.958  22.172  25.784  1.00  0.00     0.202 C 
BRANCH  28  29
ATOM     29  C   UNL A   1      44.921  22.596  24.683  1.00  0.00     0.261 C 
BRANCH  29  30
ATOM     30  O   UNL A   1      44.763  23.993  24.399  1.00  0.00    -0.460 OA
BRANCH  30  31
ATOM     31  C   UNL A   1      45.809  24.757  24.785  1.00  0.00     0.338 C 
ATOM     32  O   UNL A   1      46.954  24.694  24.380  1.00  0.00    -0.246 OA
BRANCH  31  33
ATOM     33  C   UNL A   1      45.327  25.850  25.645  1.00  0.00     0.060 A 
ATOM     34  C   UNL A   1      46.302  26.587  26.326  1.00  0.00     0.016 A 
ATOM     35  C   UNL A   1      43.966  26.100  25.849  1.00  0.00     0.016 A 
ATOM     36  C   UNL A   1      45.928  27.531  27.268  1.00  0.00     0.010 A 
ATOM     37  C   UNL A   1      43.589  27.035  26.817  1.00  0.00     0.010 A 
ATOM     38  C   UNL A   1      44.573  27.708  27.563  1.00  0.00    -0.014 A 
BRANCH  38  39
ATOM     39  C   UNL A   1      44.232  28.416  28.813  1.00  0.00     0.031 A 
ATOM     40  C   UNL A   1      43.936  29.890  28.737  1.00  0.00     0.074 A 
ATOM     41  C   UNL A   1      44.104  27.743  29.969  1.00  0.00     0.049 A 
ATOM     42  N   UNL A   1      43.593  30.713  29.689  1.00  0.00    -0.248 NA
ATOM     43  C   UNL A   1      44.029  30.517  27.405  1.00  0.00     0.031 C 
ATOM     44  C   UNL A   1      44.324  26.308  30.139  1.00  0.00     0.029 A 
ATOM     45  N   UNL A   1      43.770  28.188  31.221  1.00  0.00    -0.354 N 
ATOM     46  C   UNL A   1      43.466  31.958  29.085  1.00  0.00     0.074 A 
ATOM     47  C   UNL A   1      43.764  31.785  27.681  1.00  0.00     0.031 C 
ATOM     48  C   UNL A   1      44.153  25.994  31.436  1.00  0.00     0.029 A 
ATOM     49  C   UNL A   1      43.843  27.210  32.184  1.00  0.00     0.049 A 
ATOM     50  H   UNL A   1      43.505  29.116  31.412  1.00  0.00     0.167 HD
ATOM     51  C   UNL A   1      43.125  33.137  29.651  1.00  0.00     0.034 A 
ATOM     52  C   UNL A   1      43.708  27.302  33.521  1.00  0.00     0.034 A 
ATOM     53  C   UNL A   1      42.809  33.293  31.043  1.00  0.00     0.049 A 
ATOM     54  C   UNL A   1      43.368  28.639  34.127  1.00  0.00     0.074 A 
ATOM     55  C   UNL A   1      42.410  34.437  31.709  1.00  0.00     0.029 A 
ATOM     56  N   UNL A   1      42.875  32.279  31.985  1.00  0.00    -0.354 N 
ATOM     57  N   UNL A   1      43.152  29.787  33.530  1.00  0.00    -0.248 NA
ATOM     58  C   UNL A   1      43.222  28.689  35.589  1.00  0.00     0.031 C 
ATOM     59  C   UNL A   1      42.280  34.125  33.065  1.00  0.00     0.029 A 
ATOM     60  C   UNL A   1      42.545  32.776  33.233  1.00  0.00     0.049 A 
ATOM     61  H   UNL A   1      43.120  31.344  31.794  1.00  0.00     0.167 HD
ATOM     62  C   UNL A   1      42.805  30.682  34.536  1.00  0.00     0.074 A 
ATOM     63  C   UNL A   1      42.819  29.937  35.779  1.00  0.00     0.031 C 
ATOM     64  C   UNL A   1      42.514  32.003  34.448  1.00  0.00     0.034 A 
BRANCH  51  65
ATOM     65  C   UNL A   1      43.080  34.360  28.775  1.00  0.00     0.023 A 
ATOM     66  C   UNL A   1      41.843  34.904  28.381  1.00  0.00     0.012 A 
ATOM     67  C   UNL A   1      44.274  35.018  28.419  1.00  0.00     0.148 A 
ATOM     68  C   UNL A   1      41.795  36.080  27.631  1.00  0.00     0.002 A 
ATOM     69  C   UNL A   1      44.216  36.213  27.715  1.00  0.00     0.091 A 
ATOM     70  F   UNL A   1      45.439  34.467  28.785  1.00  0.00    -0.205 F 
ATOM     71  C   UNL A   1      42.979  36.741  27.312  1.00  0.00     0.022 A 
BRANCH  69  72
ATOM     72  S   UNL A   1      45.677  37.181  27.326  1.00  0.00     0.127 S 
ATOM     73  O   UNL A   1      46.370  36.305  26.382  1.00  0.00    -0.237 OA
ATOM     74  O   UNL A   1      45.097  38.383  26.730  1.00  0.00    -0.237 OA
ATOM     75  O   UNL A   1      46.369  37.397  28.590  1.00  0.00    -0.744 OA
ENDBRANCH  69  72
ENDBRANCH  51  65
BRANCH  52  76
ATOM     76  C   UNL A   1      43.907  26.103  34.383  1.00  0.00     0.023 A 
ATOM     77  C   UNL A   1      42.798  25.340  34.797  1.00  0.00     0.012 A 
ATOM     78  C   UNL A   1      45.196  25.730  34.811  1.00  0.00     0.148 A 
ATOM     79  C   UNL A   1      42.965  24.258  35.662  1.00  0.00     0.002 A 
ATOM     80  C   UNL A   1      45.361  24.614  35.623  1.00  0.00     0.091 A 
ATOM     81  F   UNL A   1      46.237  26.479  34.421  1.00  0.00    -0.205 F 
ATOM     82  C   UNL A   1      44.246  23.890  36.068  1.00  0.00     0.022 A 
BRANCH  80  83
ATOM     83  S   UNL A   1      46.983  23.999  36.083  1.00  0.00     0.127 S 
ATOM     84  O   UNL A   1      46.641  22.831  36.891  1.00  0.00    -0.237 OA
ATOM     85  O   UNL A   1      47.572  23.696  34.778  1.00  0.00    -0.237 OA
ATOM     86  O   UNL A   1      47.631  25.093  36.793  1.00  0.00    -0.744 OA
ENDBRANCH  80  83
ENDBRANCH  52  76
BRANCH  64  87
ATOM     87  C   UNL A   1      42.128  32.722  35.714  1.00  0.00     0.023 A 
ATOM     88  C   UNL A   1      43.090  33.461  36.429  1.00  0.00     0.012 A 
ATOM     89  C   UNL A   1      40.788  32.722  36.151  1.00  0.00     0.148 A 
ATOM     90  C   UNL A   1      42.732  34.156  37.584  1.00  0.00     0.002 A 
ATOM     91  C   UNL A   1      40.428  33.464  37.268  1.00  0.00     0.091 A 
ATOM     92  F   UNL A   1      39.891  32.001  35.463  1.00  0.00    -0.205 F 
ATOM     93  C   UNL A   1      41.401  34.168  37.995  1.00  0.00     0.022 A 
BRANCH  91  94
ATOM     94  S   UNL A   1      38.724  33.622  37.811  1.00  0.00     0.127 S 
ATOM     95  O   UNL A   1      38.535  32.382  38.564  1.00  0.00    -0.237 OA
ATOM     96  O   UNL A   1      38.772  34.832  38.631  1.00  0.00    -0.237 OA
ATOM     97  O   UNL A   1      37.923  33.743  36.600  1.00  0.00    -0.744 OA
ENDBRANCH  91  94
ENDBRANCH  64  87
ENDBRANCH  38  39
ENDBRANCH  31  33
ENDBRANCH  30  31
ENDBRANCH  29  30
ENDBRANCH  28  29
ENDBRANCH  27  28
ENDBRANCH  26  27
ENDBRANCH   1  26
TORSDOF 25
ENDMDL
MODEL 3
REMARK VINA RESULT:      -9.2      4.685      9.380
REMARK SMILES CC1(C)CCC[C@@]1(CC(=O)OCCOCCOCCOCCOC(=O)c1ccc(-c2c3nc(c(-c4cccc(S(=O)(=O)[O-])c4F)c4ccc([nH]4)c(-c4cccc(S(=O)(=O)[O-])c4F)c4nc(c(-c5cccc(S(=O)(=O)[O-])c5F)c5ccc2[nH]5)C=C4)C=C3)cc1)[NH+]1CCCCC1
REMARK SMILES IDX 18 1 17 2 16 3 15 4 14 5 13 6 12 7 11 8 9 9 10 10 8 11 7 12
REMARK SMILES IDX 1 13 2 14 3 15 4 16 5 17 6 18 89 19 90 20 94 21 91 23 93 24
REMARK SMILES IDX 92 25 19 26 20 27 21 28 22 29 23 30 24 31 25 32 26 33 27 34
REMARK SMILES IDX 88 35 28 36 87 37 29 38 30 39 31 40 81 41 32 42 86 43 80 44
REMARK SMILES IDX 82 45 33 46 85 47 79 48 78 49 34 51 66 52 46 53 65 54 47 55
REMARK SMILES IDX 50 56 64 57 83 58 48 59 49 60 63 62 84 63 51 64 35 65 36 66
REMARK SMILES IDX 44 67 37 68 39 69 45 70 38 71 40 72 41 73 42 74 43 75 67 76
REMARK SMILES IDX 68 77 76 78 69 79 71 80 77 81 70 82 72 83 73 84 74 85 75 86
REMARK SMILES IDX 52 87 53 88 61 89 54 90 56 91 62 92 55 93 57 94 58 95 59 96
REMARK SMILES IDX 60 97
REMARK H PARENT 89 22 82 50 50 61
REMARK Flexibility Score: inf
ROOT
ATOM      1  C   UNL A   1      36.125  32.188  29.461  1.00  0.00     0.188 C 
ENDROOT
BRANCH   1   2
ATOM      2  O   UNL A   1      36.527  31.606  28.229  1.00  0.00    -0.377 OA
BRANCH   2   3
ATOM      3  C   UNL A   1      37.444  30.531  28.212  1.00  0.00     0.188 C 
BRANCH   3   4
ATOM      4  C   UNL A   1      37.926  30.102  29.605  1.00  0.00     0.188 C 
BRANCH   4   5
ATOM      5  O   UNL A   1      38.798  28.981  29.671  1.00  0.00    -0.376 OA
BRANCH   5   6
ATOM      6  C   UNL A   1      38.897  28.178  28.487  1.00  0.00     0.202 C 
BRANCH   6   7
ATOM      7  C   UNL A   1      40.232  27.437  28.226  1.00  0.00     0.261 C 
BRANCH   7   8
ATOM      8  O   UNL A   1      40.187  26.529  27.093  1.00  0.00    -0.463 OA
BRANCH   8   9
ATOM      9  C   UNL A   1      41.327  26.326  26.380  1.00  0.00     0.312 C 
ATOM     10  O   UNL A   1      41.372  26.315  25.155  1.00  0.00    -0.252 OA
BRANCH   9  11
ATOM     11  C   UNL A   1      42.591  26.386  27.256  1.00  0.00     0.191 C 
BRANCH  11  12
ATOM     12  C   UNL A   1      43.858  25.450  27.074  1.00  0.00     0.113 C 
ATOM     13  C   UNL A   1      42.711  23.169  26.364  1.00  0.00     0.018 C 
ATOM     14  C   UNL A   1      43.456  23.940  27.472  1.00  0.00     0.020 C 
ATOM     15  C   UNL A   1      42.551  23.842  28.731  1.00  0.00     0.018 C 
ATOM     16  C   UNL A   1      44.795  23.284  27.872  1.00  0.00     0.013 C 
ATOM     17  C   UNL A   1      45.560  24.383  28.591  1.00  0.00     0.007 C 
ATOM     18  C   UNL A   1      44.973  25.724  28.126  1.00  0.00     0.070 C 
BRANCH  12  19
ATOM     19  N   UNL A   1      44.334  25.526  25.615  1.00  0.00    -0.329 N 
ATOM     20  C   UNL A   1      45.231  24.521  25.020  1.00  0.00     0.262 C 
ATOM     21  C   UNL A   1      44.739  26.816  25.037  1.00  0.00     0.262 C 
ATOM     22  H   UNL A   1      43.376  25.285  25.362  1.00  0.00     0.348 HD
ATOM     23  C   UNL A   1      46.721  24.717  25.296  1.00  0.00     0.062 C 
ATOM     24  C   UNL A   1      46.196  27.177  25.298  1.00  0.00     0.062 C 
ATOM     25  C   UNL A   1      47.189  26.104  24.882  1.00  0.00     0.012 C 
ENDBRANCH  12  19
ENDBRANCH  11  12
ENDBRANCH   9  11
ENDBRANCH   8   9
ENDBRANCH   7   8
ENDBRANCH   6   7
ENDBRANCH   5   6
ENDBRANCH   4   5
ENDBRANCH   3   4
ENDBRANCH   2   3
ENDBRANCH   1   2
BRANCH   1  26
ATOM     26  C   UNL A   1      34.613  32.353  29.683  1.00  0.00     0.188 C 
BRANCH  26  27
ATOM     27  O   UNL A   1      34.153  33.348  30.608  1.00  0.00    -0.376 OA
BRANCH  27  28
ATOM     28  C   UNL A   1      35.095  33.938  31.495  1.00  0.00     0.202 C 
BRANCH  28  29
ATOM     29  C   UNL A   1      34.971  33.562  32.966  1.00  0.00     0.261 C 
BRANCH  29  30
ATOM     30  O   UNL A   1      35.785  32.416  33.253  1.00  0.00    -0.460 OA
BRANCH  30  31
ATOM     31  C   UNL A   1      36.661  32.601  34.266  1.00  0.00     0.338 C 
ATOM     32  O   UNL A   1      36.477  33.228  35.292  1.00  0.00    -0.246 OA
BRANCH  31  33
ATOM     33  C   UNL A   1      37.841  31.747  34.055  1.00  0.00     0.060 A 
ATOM     34  C   UNL A   1      39.025  32.151  34.683  1.00  0.00     0.016 A 
ATOM     35  C   UNL A   1      37.822  30.636  33.206  1.00  0.00     0.016 A 
ATOM     36  C   UNL A   1      40.213  31.491  34.416  1.00  0.00     0.010 A 
ATOM     37  C   UNL A   1      39.026  29.986  32.917  1.00  0.00     0.010 A 
ATOM     38  C   UNL A   1      40.227  30.451  33.482  1.00  0.00    -0.014 A 
BRANCH  38  39
ATOM     39  C   UNL A   1      41.536  30.038  32.937  1.00  0.00     0.031 A 
ATOM     40  C   UNL A   1      42.213  30.949  31.950  1.00  0.00     0.074 A 
ATOM     41  C   UNL A   1      42.142  28.924  33.380  1.00  0.00     0.049 A 
ATOM     42  N   UNL A   1      43.368  30.811  31.357  1.00  0.00    -0.248 NA
ATOM     43  C   UNL A   1      41.497  32.187  31.588  1.00  0.00     0.031 C 
ATOM     44  C   UNL A   1      41.590  27.998  34.369  1.00  0.00     0.029 A 
ATOM     45  N   UNL A   1      43.352  28.378  33.041  1.00  0.00    -0.354 N 
ATOM     46  C   UNL A   1      43.502  31.919  30.529  1.00  0.00     0.074 A 
ATOM     47  C   UNL A   1      42.313  32.724  30.695  1.00  0.00     0.031 C 
ATOM     48  C   UNL A   1      42.447  26.975  34.530  1.00  0.00     0.029 A 
ATOM     49  C   UNL A   1      43.588  27.162  33.636  1.00  0.00     0.049 A 
ATOM     50  H   UNL A   1      43.989  28.813  32.430  1.00  0.00     0.167 HD
ATOM     51  C   UNL A   1      44.528  32.237  29.709  1.00  0.00     0.034 A 
ATOM     52  C   UNL A   1      44.597  26.289  33.448  1.00  0.00     0.034 A 
ATOM     53  C   UNL A   1      45.715  31.440  29.569  1.00  0.00     0.049 A 
ATOM     54  C   UNL A   1      45.706  26.654  32.496  1.00  0.00     0.074 A 
ATOM     55  C   UNL A   1      46.833  31.695  28.795  1.00  0.00     0.029 A 
ATOM     56  N   UNL A   1      45.928  30.226  30.200  1.00  0.00    -0.354 N 
ATOM     57  N   UNL A   1      45.868  27.751  31.796  1.00  0.00    -0.248 NA
ATOM     58  C   UNL A   1      46.789  25.674  32.329  1.00  0.00     0.031 C 
ATOM     59  C   UNL A   1      47.704  30.610  28.924  1.00  0.00     0.029 A 
ATOM     60  C   UNL A   1      47.152  29.707  29.817  1.00  0.00     0.049 A 
ATOM     61  H   UNL A   1      45.303  29.796  30.827  1.00  0.00     0.167 HD
ATOM     62  C   UNL A   1      47.087  27.612  31.141  1.00  0.00     0.074 A 
ATOM     63  C   UNL A   1      47.631  26.331  31.546  1.00  0.00     0.031 C 
ATOM     64  C   UNL A   1      47.698  28.455  30.274  1.00  0.00     0.034 A 
BRANCH  51  65
ATOM     65  C   UNL A   1      44.420  33.494  28.889  1.00  0.00     0.023 A 
ATOM     66  C   UNL A   1      43.908  33.444  27.578  1.00  0.00     0.012 A 
ATOM     67  C   UNL A   1      44.746  34.740  29.460  1.00  0.00     0.148 A 
ATOM     68  C   UNL A   1      43.735  34.616  26.841  1.00  0.00     0.002 A 
ATOM     69  C   UNL A   1      44.527  35.905  28.738  1.00  0.00     0.091 A 
ATOM     70  F   UNL A   1      45.254  34.759  30.700  1.00  0.00    -0.205 F 
ATOM     71  C   UNL A   1      44.031  35.846  27.426  1.00  0.00     0.022 A 
BRANCH  69  72
ATOM     72  S   UNL A   1      44.797  37.540  29.431  1.00  0.00     0.127 S 
ATOM     73  O   UNL A   1      44.349  38.402  28.338  1.00  0.00    -0.237 OA
ATOM     74  O   UNL A   1      43.916  37.526  30.597  1.00  0.00    -0.237 OA
ATOM     75  O   UNL A   1      46.219  37.620  29.738  1.00  0.00    -0.744 OA
ENDBRANCH  69  72
ENDBRANCH  51  65
BRANCH  52  76
ATOM     76  C   UNL A   1      44.602  24.980  34.160  1.00  0.00     0.023 A 
ATOM     77  C   UNL A   1      44.038  23.843  33.551  1.00  0.00     0.012 A 
ATOM     78  C   UNL A   1      45.147  24.867  35.454  1.00  0.00     0.148 A 
ATOM     79  C   UNL A   1      43.972  22.629  34.237  1.00  0.00     0.002 A 
ATOM     80  C   UNL A   1      45.134  23.641  36.107  1.00  0.00     0.091 A 
ATOM     81  F   UNL A   1      45.663  25.965  36.025  1.00  0.00    -0.205 F 
ATOM     82  C   UNL A   1      44.528  22.526  35.511  1.00  0.00     0.022 A 
BRANCH  80  83
ATOM     83  S   UNL A   1      45.940  23.393  37.692  1.00  0.00     0.127 S 
ATOM     84  O   UNL A   1      45.139  24.240  38.571  1.00  0.00    -0.237 OA
ATOM     85  O   UNL A   1      45.767  21.954  37.896  1.00  0.00    -0.237 OA
ATOM     86  O   UNL A   1      47.323  23.807  37.498  1.00  0.00    -0.744 OA
ENDBRANCH  80  83
ENDBRANCH  52  76
BRANCH  64  87
ATOM     87  C   UNL A   1      49.051  28.057  29.745  1.00  0.00     0.023 A 
ATOM     88  C   UNL A   1      50.221  28.558  30.347  1.00  0.00     0.012 A 
ATOM     89  C   UNL A   1      49.157  27.124  28.694  1.00  0.00     0.148 A 
ATOM     90  C   UNL A   1      51.477  28.167  29.884  1.00  0.00     0.002 A 
ATOM     91  C   UNL A   1      50.410  26.694  28.277  1.00  0.00     0.091 A 
ATOM     92  F   UNL A   1      48.030  26.669  28.127  1.00  0.00    -0.205 F 
ATOM     93  C   UNL A   1      51.571  27.227  28.860  1.00  0.00     0.022 A 
BRANCH  91  94
ATOM     94  S   UNL A   1      50.626  25.413  27.039  1.00  0.00     0.127 S 
ATOM     95  O   UNL A   1      52.078  25.239  27.041  1.00  0.00    -0.237 OA
ATOM     96  O   UNL A   1      49.877  24.297  27.615  1.00  0.00    -0.237 OA
ATOM     97  O   UNL A   1      50.065  25.946  25.804  1.00  0.00    -0.744 OA
ENDBRANCH  91  94
ENDBRANCH  64  87
ENDBRANCH  38  39
ENDBRANCH  31  33
ENDBRANCH  30  31
ENDBRANCH  29  30
ENDBRANCH  28  29
ENDBRANCH  27  28
ENDBRANCH  26  27
ENDBRANCH   1  26
TORSDOF 25
ENDMDL
