MODEL 1
REMARK VINA RESULT:      -7.6      0.000      0.000
REMARK SMILES C[C@H](Nc1ccc2c(c1)Cc1ccccc1-2)[C@@H](C)C(=O)OCCOCCOCCOCCOC(=O)c1ccc(-c2c3nc(c(-c4cccc(S(=O)(=O)[O-])c4F)c4ccc([nH]4)c(-c4cccc(S(=O)(=O)[O-])c4F)c4nc(c(-c5cccc(S(=O)(=O)[O-])c5F)c5ccc2[nH]5)C=C4)C=C3)cc1
REMARK SMILES IDX 27 1 26 2 25 3 24 4 23 5 22 6 21 7 19 8 20 9 17 10 18 11
REMARK SMILES IDX 2 12 1 13 3 14 4 16 5 17 9 18 6 19 8 20 7 21 10 22 16 23
REMARK SMILES IDX 11 24 15 25 12 26 14 27 13 28 28 29 29 30 30 31 31 32 32 33
REMARK SMILES IDX 33 34 34 35 35 36 36 37 37 38 98 39 38 40 97 41 39 42 40 43
REMARK SMILES IDX 41 44 91 45 42 46 96 47 90 48 92 49 43 50 95 51 89 52 88 53
REMARK SMILES IDX 44 55 76 56 56 57 75 58 57 59 60 60 74 61 93 62 58 63 59 64
REMARK SMILES IDX 73 66 94 67 61 68 45 69 46 70 54 71 47 72 49 73 55 74 48 75
REMARK SMILES IDX 50 76 51 77 52 78 53 79 77 80 78 81 86 82 79 83 81 84 87 85
REMARK SMILES IDX 80 86 82 87 83 88 84 89 85 90 62 91 63 92 71 93 64 94 66 95
REMARK SMILES IDX 72 96 65 97 67 98 68 99 69 100 70 101
REMARK H PARENT 3 15 92 54 60 65
REMARK Flexibility Score: inf
ROOT
ATOM      1  O   UNL A   1      37.557  33.242  40.775  1.00  0.00    -0.377 OA
ENDROOT
BRANCH   1   2
ATOM      2  C   UNL A   1      37.690  31.882  40.401  1.00  0.00     0.188 C 
BRANCH   2   3
ATOM      3  C   UNL A   1      36.791  31.467  39.238  1.00  0.00     0.188 C 
BRANCH   3   4
ATOM      4  O   UNL A   1      37.424  30.963  38.075  1.00  0.00    -0.376 OA
BRANCH   4   5
ATOM      5  C   UNL A   1      37.956  31.896  37.134  1.00  0.00     0.202 C 
BRANCH   5   6
ATOM      6  C   UNL A   1      37.904  31.598  35.620  1.00  0.00     0.261 C 
BRANCH   6   7
ATOM      7  O   UNL A   1      38.988  30.796  35.077  1.00  0.00    -0.463 OA
BRANCH   7   8
ATOM      8  C   UNL A   1      39.306  31.004  33.776  1.00  0.00     0.310 C 
ATOM      9  O   UNL A   1      39.443  32.127  33.287  1.00  0.00    -0.252 OA
BRANCH   8  10
ATOM     10  C   UNL A   1      39.421  29.768  32.882  1.00  0.00     0.118 C 
ATOM     11  C   UNL A   1      40.243  30.228  31.669  1.00  0.00     0.022 C 
BRANCH  10  12
ATOM     12  C   UNL A   1      38.136  29.004  32.481  1.00  0.00     0.090 C 
ATOM     13  C   UNL A   1      38.319  27.472  32.462  1.00  0.00     0.031 C 
BRANCH  12  14
ATOM     14  N   UNL A   1      37.734  29.358  31.100  1.00  0.00    -0.382 N 
ATOM     15  H   UNL A   1      38.117  28.909  30.313  1.00  0.00     0.160 HD
BRANCH  14  16
ATOM     16  C   UNL A   1      36.777  30.371  30.985  1.00  0.00     0.035 A 
ATOM     17  C   UNL A   1      36.439  30.868  29.712  1.00  0.00     0.026 A 
ATOM     18  C   UNL A   1      36.282  31.004  32.136  1.00  0.00     0.030 A 
ATOM     19  C   UNL A   1      35.638  31.999  29.560  1.00  0.00     0.011 A 
ATOM     20  C   UNL A   1      35.504  32.139  31.980  1.00  0.00    -0.034 A 
ATOM     21  C   UNL A   1      35.191  32.639  30.699  1.00  0.00    -0.014 A 
ATOM     22  C   UNL A   1      34.909  33.037  33.049  1.00  0.00     0.072 C 
ATOM     23  C   UNL A   1      34.395  33.834  30.844  1.00  0.00    -0.015 A 
ATOM     24  C   UNL A   1      34.198  34.088  32.218  1.00  0.00    -0.036 A 
ATOM     25  C   UNL A   1      33.858  34.669  29.881  1.00  0.00     0.009 A 
ATOM     26  C   UNL A   1      33.444  35.167  32.645  1.00  0.00     0.005 A 
ATOM     27  C   UNL A   1      33.097  35.760  30.304  1.00  0.00     0.001 A 
ATOM     28  C   UNL A   1      32.888  36.003  31.673  1.00  0.00     0.000 A 
ENDBRANCH  14  16
ENDBRANCH  12  14
ENDBRANCH  10  12
ENDBRANCH   8  10
ENDBRANCH   7   8
ENDBRANCH   6   7
ENDBRANCH   5   6
ENDBRANCH   4   5
ENDBRANCH   3   4
ENDBRANCH   2   3
ENDBRANCH   1   2
BRANCH   1  29
ATOM     29  C   UNL A   1      38.594  34.179  40.481  1.00  0.00     0.188 C 
BRANCH  29  30
ATOM     30  C   UNL A   1      38.842  35.297  41.494  1.00  0.00     0.188 C 
BRANCH  30  31
ATOM     31  O   UNL A   1      40.203  35.560  41.855  1.00  0.00    -0.376 OA
BRANCH  31  32
ATOM     32  C   UNL A   1      40.619  36.920  41.966  1.00  0.00     0.202 C 
BRANCH  32  33
ATOM     33  C   UNL A   1      41.326  37.501  40.740  1.00  0.00     0.261 C 
BRANCH  33  34
ATOM     34  O   UNL A   1      41.605  36.515  39.738  1.00  0.00    -0.460 OA
BRANCH  34  35
ATOM     35  C   UNL A   1      40.792  36.541  38.658  1.00  0.00     0.338 C 
ATOM     36  O   UNL A   1      39.907  37.349  38.412  1.00  0.00    -0.246 OA
BRANCH  35  37
ATOM     37  C   UNL A   1      41.233  35.510  37.707  1.00  0.00     0.060 A 
ATOM     38  C   UNL A   1      42.607  35.283  37.545  1.00  0.00     0.016 A 
ATOM     39  C   UNL A   1      40.298  34.815  36.940  1.00  0.00     0.016 A 
ATOM     40  C   UNL A   1      43.053  34.364  36.599  1.00  0.00     0.010 A 
ATOM     41  C   UNL A   1      40.746  33.912  35.979  1.00  0.00     0.010 A 
ATOM     42  C   UNL A   1      42.124  33.703  35.789  1.00  0.00    -0.014 A 
BRANCH  42  43
ATOM     43  C   UNL A   1      42.576  32.899  34.636  1.00  0.00     0.031 A 
ATOM     44  C   UNL A   1      42.782  33.588  33.319  1.00  0.00     0.074 A 
ATOM     45  C   UNL A   1      42.747  31.573  34.757  1.00  0.00     0.049 A 
ATOM     46  N   UNL A   1      43.039  33.074  32.148  1.00  0.00    -0.248 NA
ATOM     47  C   UNL A   1      42.674  35.057  33.325  1.00  0.00     0.031 C 
ATOM     48  C   UNL A   1      42.598  30.813  35.997  1.00  0.00     0.029 A 
ATOM     49  N   UNL A   1      43.044  30.627  33.811  1.00  0.00    -0.354 N 
ATOM     50  C   UNL A   1      43.087  34.148  31.268  1.00  0.00     0.074 A 
ATOM     51  C   UNL A   1      42.826  35.343  32.041  1.00  0.00     0.031 C 
ATOM     52  C   UNL A   1      42.767  29.506  35.727  1.00  0.00     0.029 A 
ATOM     53  C   UNL A   1      42.993  29.341  34.293  1.00  0.00     0.049 A 
ATOM     54  H   UNL A   1      43.270  30.847  32.879  1.00  0.00     0.167 HD
ATOM     55  C   UNL A   1      43.333  34.138  29.938  1.00  0.00     0.034 A 
ATOM     56  C   UNL A   1      43.077  28.167  33.638  1.00  0.00     0.034 A 
ATOM     57  C   UNL A   1      43.587  32.940  29.182  1.00  0.00     0.049 A 
ATOM     58  C   UNL A   1      43.283  28.177  32.146  1.00  0.00     0.074 A 
ATOM     59  C   UNL A   1      43.880  32.816  27.838  1.00  0.00     0.029 A 
ATOM     60  N   UNL A   1      43.554  31.656  29.707  1.00  0.00    -0.354 N 
ATOM     61  N   UNL A   1      43.422  29.201  31.337  1.00  0.00    -0.248 NA
ATOM     62  C   UNL A   1      43.364  26.871  31.478  1.00  0.00     0.031 C 
ATOM     63  C   UNL A   1      43.985  31.453  27.540  1.00  0.00     0.029 A 
ATOM     64  C   UNL A   1      43.802  30.731  28.709  1.00  0.00     0.049 A 
ATOM     65  H   UNL A   1      43.382  31.436  30.650  1.00  0.00     0.167 HD
ATOM     66  C   UNL A   1      43.647  28.663  30.074  1.00  0.00     0.074 A 
ATOM     67  C   UNL A   1      43.639  27.223  30.229  1.00  0.00     0.031 C 
ATOM     68  C   UNL A   1      43.835  29.301  28.893  1.00  0.00     0.034 A 
BRANCH  55  69
ATOM     69  C   UNL A   1      43.336  35.461  29.219  1.00  0.00     0.023 A 
ATOM     70  C   UNL A   1      42.156  35.935  28.612  1.00  0.00     0.012 A 
ATOM     71  C   UNL A   1      44.502  36.250  29.167  1.00  0.00     0.148 A 
ATOM     72  C   UNL A   1      42.145  37.152  27.930  1.00  0.00     0.002 A 
ATOM     73  C   UNL A   1      44.472  37.484  28.528  1.00  0.00     0.091 A 
ATOM     74  F   UNL A   1      45.623  35.774  29.729  1.00  0.00    -0.205 F 
ATOM     75  C   UNL A   1      43.299  37.930  27.897  1.00  0.00     0.022 A 
BRANCH  73  76
ATOM     76  S   UNL A   1      45.882  38.595  28.498  1.00  0.00     0.127 S 
ATOM     77  O   UNL A   1      45.373  39.696  27.681  1.00  0.00    -0.237 OA
ATOM     78  O   UNL A   1      46.051  38.915  29.915  1.00  0.00    -0.237 OA
ATOM     79  O   UNL A   1      46.979  37.838  27.911  1.00  0.00    -0.744 OA
ENDBRANCH  73  76
ENDBRANCH  55  69
BRANCH  56  80
ATOM     80  C   UNL A   1      42.984  26.885  34.390  1.00  0.00     0.023 A 
ATOM     81  C   UNL A   1      41.721  26.410  34.791  1.00  0.00     0.012 A 
ATOM     82  C   UNL A   1      44.132  26.126  34.691  1.00  0.00     0.148 A 
ATOM     83  C   UNL A   1      41.605  25.216  35.506  1.00  0.00     0.002 A 
ATOM     84  C   UNL A   1      44.004  24.911  35.353  1.00  0.00     0.091 A 
ATOM     85  F   UNL A   1      45.326  26.601  34.308  1.00  0.00    -0.205 F 
ATOM     86  C   UNL A   1      42.743  24.463  35.778  1.00  0.00     0.022 A 
BRANCH  84  87
ATOM     87  S   UNL A   1      45.397  23.813  35.636  1.00  0.00     0.127 S 
ATOM     88  O   UNL A   1      46.072  24.470  36.753  1.00  0.00    -0.237 OA
ATOM     89  O   UNL A   1      44.723  22.559  35.975  1.00  0.00    -0.237 OA
ATOM     90  O   UNL A   1      46.136  23.781  34.383  1.00  0.00    -0.744 OA
ENDBRANCH  84  87
ENDBRANCH  56  80
BRANCH  68  91
ATOM     91  C   UNL A   1      44.095  28.455  27.672  1.00  0.00     0.023 A 
ATOM     92  C   UNL A   1      43.017  27.971  26.906  1.00  0.00     0.012 A 
ATOM     93  C   UNL A   1      45.415  28.218  27.237  1.00  0.00     0.148 A 
ATOM     94  C   UNL A   1      43.248  27.238  25.742  1.00  0.00     0.002 A 
ATOM     95  C   UNL A   1      45.636  27.535  26.048  1.00  0.00     0.091 A 
ATOM     96  F   UNL A   1      46.426  28.677  27.988  1.00  0.00    -0.205 F 
ATOM     97  C   UNL A   1      44.554  27.032  25.307  1.00  0.00     0.022 A 
BRANCH  95  98
ATOM     98  S   UNL A   1      47.278  27.308  25.355  1.00  0.00     0.127 S 
ATOM     99  O   UNL A   1      47.573  28.647  24.847  1.00  0.00    -0.237 OA
ATOM    100  O   UNL A   1      48.055  26.916  26.531  1.00  0.00    -0.237 OA
ATOM    101  O   UNL A   1      47.149  26.274  24.339  1.00  0.00    -0.744 OA
ENDBRANCH  95  98
ENDBRANCH  68  91
ENDBRANCH  42  43
ENDBRANCH  35  37
ENDBRANCH  34  35
ENDBRANCH  33  34
ENDBRANCH  32  33
ENDBRANCH  31  32
ENDBRANCH  30  31
ENDBRANCH  29  30
ENDBRANCH   1  29
TORSDOF 26
ENDMDL
MODEL 2
REMARK VINA RESULT:      -7.3      5.867     11.778
REMARK SMILES C[C@H](Nc1ccc2c(c1)Cc1ccccc1-2)[C@@H](C)C(=O)OCCOCCOCCOCCOC(=O)c1ccc(-c2c3nc(c(-c4cccc(S(=O)(=O)[O-])c4F)c4ccc([nH]4)c(-c4cccc(S(=O)(=O)[O-])c4F)c4nc(c(-c5cccc(S(=O)(=O)[O-])c5F)c5ccc2[nH]5)C=C4)C=C3)cc1
REMARK SMILES IDX 27 1 26 2 25 3 24 4 23 5 22 6 21 7 19 8 20 9 17 10 18 11
REMARK SMILES IDX 2 12 1 13 3 14 4 16 5 17 9 18 6 19 8 20 7 21 10 22 16 23
REMARK SMILES IDX 11 24 15 25 12 26 14 27 13 28 28 29 29 30 30 31 31 32 32 33
REMARK SMILES IDX 33 34 34 35 35 36 36 37 37 38 98 39 38 40 97 41 39 42 40 43
REMARK SMILES IDX 41 44 91 45 42 46 96 47 90 48 92 49 43 50 95 51 89 52 88 53
REMARK SMILES IDX 44 55 76 56 56 57 75 58 57 59 60 60 74 61 93 62 58 63 59 64
REMARK SMILES IDX 73 66 94 67 61 68 45 69 46 70 54 71 47 72 49 73 55 74 48 75
REMARK SMILES IDX 50 76 51 77 52 78 53 79 77 80 78 81 86 82 79 83 81 84 87 85
REMARK SMILES IDX 80 86 82 87 83 88 84 89 85 90 62 91 63 92 71 93 64 94 66 95
REMARK SMILES IDX 72 96 65 97 67 98 68 99 69 100 70 101
REMARK H PARENT 3 15 92 54 60 65
REMARK Flexibility Score: inf
ROOT
ATOM      1  O   UNL A   1      34.704  22.923  27.249  1.00  0.00    -0.377 OA
ENDROOT
BRANCH   1   2
ATOM      2  C   UNL A   1      33.559  22.179  27.630  1.00  0.00     0.188 C 
BRANCH   2   3
ATOM      3  C   UNL A   1      32.257  22.683  27.013  1.00  0.00     0.188 C 
BRANCH   3   4
ATOM      4  O   UNL A   1      31.979  22.302  25.678  1.00  0.00    -0.376 OA
BRANCH   4   5
ATOM      5  C   UNL A   1      31.028  23.067  24.938  1.00  0.00     0.202 C 
BRANCH   5   6
ATOM      6  C   UNL A   1      30.284  24.246  25.601  1.00  0.00     0.261 C 
BRANCH   6   7
ATOM      7  O   UNL A   1      30.829  25.573  25.367  1.00  0.00    -0.463 OA
BRANCH   7   8
ATOM      8  C   UNL A   1      30.208  26.329  24.430  1.00  0.00     0.310 C 
ATOM      9  O   UNL A   1      28.982  26.403  24.328  1.00  0.00    -0.252 OA
BRANCH   8  10
ATOM     10  C   UNL A   1      31.098  27.058  23.421  1.00  0.00     0.118 C 
ATOM     11  C   UNL A   1      31.560  25.971  22.439  1.00  0.00     0.022 C 
BRANCH  10  12
ATOM     12  C   UNL A   1      32.266  27.933  23.939  1.00  0.00     0.090 C 
ATOM     13  C   UNL A   1      33.652  27.434  23.479  1.00  0.00     0.031 C 
BRANCH  12  14
ATOM     14  N   UNL A   1      32.319  27.900  25.419  1.00  0.00    -0.382 N 
ATOM     15  H   UNL A   1      32.002  27.125  25.936  1.00  0.00     0.160 HD
BRANCH  14  16
ATOM     16  C   UNL A   1      32.849  29.038  26.035  1.00  0.00     0.035 A 
ATOM     17  C   UNL A   1      33.993  28.921  26.846  1.00  0.00     0.026 A 
ATOM     18  C   UNL A   1      32.150  30.254  25.985  1.00  0.00     0.030 A 
ATOM     19  C   UNL A   1      34.444  29.984  27.630  1.00  0.00     0.011 A 
ATOM     20  C   UNL A   1      32.588  31.300  26.780  1.00  0.00    -0.034 A 
ATOM     21  C   UNL A   1      33.724  31.162  27.605  1.00  0.00    -0.014 A 
ATOM     22  C   UNL A   1      31.979  32.678  26.958  1.00  0.00     0.072 C 
ATOM     23  C   UNL A   1      33.928  32.392  28.330  1.00  0.00    -0.015 A 
ATOM     24  C   UNL A   1      32.923  33.313  27.961  1.00  0.00    -0.036 A 
ATOM     25  C   UNL A   1      34.901  32.734  29.252  1.00  0.00     0.009 A 
ATOM     26  C   UNL A   1      32.893  34.591  28.491  1.00  0.00     0.005 A 
ATOM     27  C   UNL A   1      34.877  34.020  29.792  1.00  0.00     0.001 A 
ATOM     28  C   UNL A   1      33.886  34.941  29.411  1.00  0.00     0.000 A 
ENDBRANCH  14  16
ENDBRANCH  12  14
ENDBRANCH  10  12
ENDBRANCH   8  10
ENDBRANCH   7   8
ENDBRANCH   6   7
ENDBRANCH   5   6
ENDBRANCH   4   5
ENDBRANCH   3   4
ENDBRANCH   2   3
ENDBRANCH   1   2
BRANCH   1  29
ATOM     29  C   UNL A   1      34.881  23.336  25.893  1.00  0.00     0.188 C 
BRANCH  29  30
ATOM     30  C   UNL A   1      36.314  23.430  25.367  1.00  0.00     0.188 C 
BRANCH  30  31
ATOM     31  O   UNL A   1      37.112  22.242  25.434  1.00  0.00    -0.376 OA
BRANCH  31  32
ATOM     32  C   UNL A   1      38.430  22.347  25.968  1.00  0.00     0.202 C 
BRANCH  32  33
ATOM     33  C   UNL A   1      39.197  21.031  26.111  1.00  0.00     0.261 C 
BRANCH  33  34
ATOM     34  O   UNL A   1      40.471  21.055  25.455  1.00  0.00    -0.460 OA
BRANCH  34  35
ATOM     35  C   UNL A   1      41.513  20.620  26.200  1.00  0.00     0.338 C 
ATOM     36  O   UNL A   1      41.764  19.469  26.530  1.00  0.00    -0.246 OA
BRANCH  35  37
ATOM     37  C   UNL A   1      42.425  21.748  26.445  1.00  0.00     0.060 A 
ATOM     38  C   UNL A   1      43.166  21.773  27.634  1.00  0.00     0.016 A 
ATOM     39  C   UNL A   1      42.503  22.799  25.531  1.00  0.00     0.016 A 
ATOM     40  C   UNL A   1      43.980  22.865  27.922  1.00  0.00     0.010 A 
ATOM     41  C   UNL A   1      43.300  23.900  25.830  1.00  0.00     0.010 A 
ATOM     42  C   UNL A   1      44.021  23.947  27.037  1.00  0.00    -0.014 A 
BRANCH  42  43
ATOM     43  C   UNL A   1      44.695  25.203  27.423  1.00  0.00     0.031 A 
ATOM     44  C   UNL A   1      43.942  26.191  28.264  1.00  0.00     0.074 A 
ATOM     45  C   UNL A   1      45.935  25.472  26.983  1.00  0.00     0.049 A 
ATOM     46  N   UNL A   1      44.271  27.406  28.607  1.00  0.00    -0.248 NA
ATOM     47  C   UNL A   1      42.635  25.749  28.781  1.00  0.00     0.031 C 
ATOM     48  C   UNL A   1      46.761  24.569  26.183  1.00  0.00     0.029 A 
ATOM     49  N   UNL A   1      46.697  26.603  27.116  1.00  0.00    -0.354 N 
ATOM     50  C   UNL A   1      43.200  27.891  29.347  1.00  0.00     0.074 A 
ATOM     51  C   UNL A   1      42.207  26.840  29.399  1.00  0.00     0.031 C 
ATOM     52  C   UNL A   1      47.905  25.198  25.862  1.00  0.00     0.029 A 
ATOM     53  C   UNL A   1      47.868  26.557  26.399  1.00  0.00     0.049 A 
ATOM     54  H   UNL A   1      46.432  27.372  27.670  1.00  0.00     0.167 HD
ATOM     55  C   UNL A   1      43.062  29.101  29.936  1.00  0.00     0.034 A 
ATOM     56  C   UNL A   1      48.782  27.519  26.170  1.00  0.00     0.034 A 
ATOM     57  C   UNL A   1      44.056  30.138  29.872  1.00  0.00     0.049 A 
ATOM     58  C   UNL A   1      48.574  28.882  26.779  1.00  0.00     0.074 A 
ATOM     59  C   UNL A   1      44.035  31.389  30.459  1.00  0.00     0.029 A 
ATOM     60  N   UNL A   1      45.244  30.048  29.160  1.00  0.00    -0.354 N 
ATOM     61  N   UNL A   1      47.605  29.301  27.557  1.00  0.00    -0.248 NA
ATOM     62  C   UNL A   1      49.597  29.898  26.496  1.00  0.00     0.031 C 
ATOM     63  C   UNL A   1      45.192  32.073  30.067  1.00  0.00     0.029 A 
ATOM     64  C   UNL A   1      45.954  31.230  29.273  1.00  0.00     0.049 A 
ATOM     65  H   UNL A   1      45.537  29.260  28.649  1.00  0.00     0.167 HD
ATOM     66  C   UNL A   1      47.921  30.614  27.888  1.00  0.00     0.074 A 
ATOM     67  C   UNL A   1      49.179  30.915  27.237  1.00  0.00     0.031 C 
ATOM     68  C   UNL A   1      47.229  31.494  28.654  1.00  0.00     0.034 A 
BRANCH  55  69
ATOM     69  C   UNL A   1      41.788  29.366  30.696  1.00  0.00     0.023 A 
ATOM     70  C   UNL A   1      41.721  29.081  32.075  1.00  0.00     0.012 A 
ATOM     71  C   UNL A   1      40.666  29.921  30.051  1.00  0.00     0.148 A 
ATOM     72  C   UNL A   1      40.546  29.307  32.791  1.00  0.00     0.002 A 
ATOM     73  C   UNL A   1      39.514  30.188  30.781  1.00  0.00     0.091 A 
ATOM     74  F   UNL A   1      40.739  30.163  28.734  1.00  0.00    -0.205 F 
ATOM     75  C   UNL A   1      39.447  29.869  32.147  1.00  0.00     0.022 A 
BRANCH  73  76
ATOM     76  S   UNL A   1      38.073  30.982  30.061  1.00  0.00     0.127 S 
ATOM     77  O   UNL A   1      37.060  30.743  31.088  1.00  0.00    -0.237 OA
ATOM     78  O   UNL A   1      38.512  32.373  29.952  1.00  0.00    -0.237 OA
ATOM     79  O   UNL A   1      37.840  30.317  28.788  1.00  0.00    -0.744 OA
ENDBRANCH  73  76
ENDBRANCH  55  69
BRANCH  56  80
ATOM     80  C   UNL A   1      49.983  27.226  25.341  1.00  0.00     0.023 A 
ATOM     81  C   UNL A   1      51.157  26.761  25.965  1.00  0.00     0.012 A 
ATOM     82  C   UNL A   1      49.966  27.385  23.941  1.00  0.00     0.148 A 
ATOM     83  C   UNL A   1      52.301  26.488  25.214  1.00  0.00     0.002 A 
ATOM     84  C   UNL A   1      51.091  27.058  23.194  1.00  0.00     0.091 A 
ATOM     85  F   UNL A   1      48.842  27.839  23.367  1.00  0.00    -0.205 F 
ATOM     86  C   UNL A   1      52.266  26.627  23.830  1.00  0.00     0.022 A 
BRANCH  84  87
ATOM     87  S   UNL A   1      51.100  27.085  21.398  1.00  0.00     0.127 S 
ATOM     88  O   UNL A   1      49.843  26.408  21.084  1.00  0.00    -0.237 OA
ATOM     89  O   UNL A   1      51.111  28.522  21.122  1.00  0.00    -0.237 OA
ATOM     90  O   UNL A   1      52.311  26.384  20.998  1.00  0.00    -0.744 OA
ENDBRANCH  84  87
ENDBRANCH  56  80
BRANCH  68  91
ATOM     91  C   UNL A   1      47.833  32.857  28.876  1.00  0.00     0.023 A 
ATOM     92  C   UNL A   1      48.881  33.023  29.803  1.00  0.00     0.012 A 
ATOM     93  C   UNL A   1      47.420  33.956  28.095  1.00  0.00     0.148 A 
ATOM     94  C   UNL A   1      49.487  34.268  29.971  1.00  0.00     0.002 A 
ATOM     95  C   UNL A   1      48.065  35.179  28.229  1.00  0.00     0.091 A 
ATOM     96  F   UNL A   1      46.412  33.779  27.228  1.00  0.00    -0.205 F 
ATOM     97  C   UNL A   1      49.089  35.340  29.176  1.00  0.00     0.022 A 
BRANCH  95  98
ATOM     98  S   UNL A   1      47.691  36.589  27.181  1.00  0.00     0.127 S 
ATOM     99  O   UNL A   1      46.364  36.973  27.662  1.00  0.00    -0.237 OA
ATOM    100  O   UNL A   1      48.761  37.522  27.531  1.00  0.00    -0.237 OA
ATOM    101  O   UNL A   1      47.735  36.098  25.811  1.00  0.00    -0.744 OA
ENDBRANCH  95  98
ENDBRANCH  68  91
ENDBRANCH  42  43
ENDBRANCH  35  37
ENDBRANCH  34  35
ENDBRANCH  33  34
ENDBRANCH  32  33
ENDBRANCH  31  32
ENDBRANCH  30  31
ENDBRANCH  29  30
ENDBRANCH   1  29
TORSDOF 26
ENDMDL
MODEL 3
REMARK VINA RESULT:      -7.3      2.437      4.423
REMARK SMILES C[C@H](Nc1ccc2c(c1)Cc1ccccc1-2)[C@@H](C)C(=O)OCCOCCOCCOCCOC(=O)c1ccc(-c2c3nc(c(-c4cccc(S(=O)(=O)[O-])c4F)c4ccc([nH]4)c(-c4cccc(S(=O)(=O)[O-])c4F)c4nc(c(-c5cccc(S(=O)(=O)[O-])c5F)c5ccc2[nH]5)C=C4)C=C3)cc1
REMARK SMILES IDX 27 1 26 2 25 3 24 4 23 5 22 6 21 7 19 8 20 9 17 10 18 11
REMARK SMILES IDX 2 12 1 13 3 14 4 16 5 17 9 18 6 19 8 20 7 21 10 22 16 23
REMARK SMILES IDX 11 24 15 25 12 26 14 27 13 28 28 29 29 30 30 31 31 32 32 33
REMARK SMILES IDX 33 34 34 35 35 36 36 37 37 38 98 39 38 40 97 41 39 42 40 43
REMARK SMILES IDX 41 44 91 45 42 46 96 47 90 48 92 49 43 50 95 51 89 52 88 53
REMARK SMILES IDX 44 55 76 56 56 57 75 58 57 59 60 60 74 61 93 62 58 63 59 64
REMARK SMILES IDX 73 66 94 67 61 68 45 69 46 70 54 71 47 72 49 73 55 74 48 75
REMARK SMILES IDX 50 76 51 77 52 78 53 79 77 80 78 81 86 82 79 83 81 84 87 85
REMARK SMILES IDX 80 86 82 87 83 88 84 89 85 90 62 91 63 92 71 93 64 94 66 95
REMARK SMILES IDX 72 96 65 97 67 98 68 99 69 100 70 101
REMARK H PARENT 3 15 92 54 60 65
REMARK Flexibility Score: inf
ROOT
ATOM      1  O   UNL A   1      37.558  33.131  40.935  1.00  0.00    -0.377 OA
ENDROOT
BRANCH   1   2
ATOM      2  C   UNL A   1      37.531  31.768  40.547  1.00  0.00     0.188 C 
BRANCH   2   3
ATOM      3  C   UNL A   1      36.577  31.470  39.393  1.00  0.00     0.188 C 
BRANCH   3   4
ATOM      4  O   UNL A   1      37.145  30.994  38.186  1.00  0.00    -0.376 OA
BRANCH   4   5
ATOM      5  C   UNL A   1      37.816  31.926  37.337  1.00  0.00     0.202 C 
BRANCH   5   6
ATOM      6  C   UNL A   1      37.880  31.692  35.813  1.00  0.00     0.261 C 
BRANCH   6   7
ATOM      7  O   UNL A   1      38.369  30.395  35.374  1.00  0.00    -0.463 OA
BRANCH   7   8
ATOM      8  C   UNL A   1      38.339  30.154  34.040  1.00  0.00     0.310 C 
ATOM      9  O   UNL A   1      37.376  29.638  33.470  1.00  0.00    -0.252 OA
BRANCH   8  10
ATOM     10  C   UNL A   1      39.605  30.484  33.246  1.00  0.00     0.118 C 
ATOM     11  C   UNL A   1      39.135  31.413  32.117  1.00  0.00     0.022 C 
BRANCH  10  12
ATOM     12  C   UNL A   1      40.500  29.327  32.738  1.00  0.00     0.090 C 
ATOM     13  C   UNL A   1      41.103  28.478  33.876  1.00  0.00     0.031 C 
BRANCH  12  14
ATOM     14  N   UNL A   1      41.667  29.863  32.000  1.00  0.00    -0.382 N 
ATOM     15  H   UNL A   1      42.204  30.611  32.346  1.00  0.00     0.160 HD
BRANCH  14  16
ATOM     16  C   UNL A   1      41.956  29.240  30.783  1.00  0.00     0.035 A 
ATOM     17  C   UNL A   1      41.729  29.929  29.576  1.00  0.00     0.026 A 
ATOM     18  C   UNL A   1      42.308  27.881  30.755  1.00  0.00     0.030 A 
ATOM     19  C   UNL A   1      41.820  29.287  28.341  1.00  0.00     0.011 A 
ATOM     20  C   UNL A   1      42.378  27.243  29.527  1.00  0.00    -0.034 A 
ATOM     21  C   UNL A   1      42.126  27.941  28.328  1.00  0.00    -0.014 A 
ATOM     22  C   UNL A   1      42.668  25.784  29.231  1.00  0.00     0.072 C 
ATOM     23  C   UNL A   1      42.246  27.025  27.220  1.00  0.00    -0.015 A 
ATOM     24  C   UNL A   1      42.579  25.747  27.717  1.00  0.00    -0.036 A 
ATOM     25  C   UNL A   1      42.087  27.241  25.862  1.00  0.00     0.009 A 
ATOM     26  C   UNL A   1      42.779  24.676  26.863  1.00  0.00     0.005 A 
ATOM     27  C   UNL A   1      42.287  26.167  24.995  1.00  0.00     0.001 A 
ATOM     28  C   UNL A   1      42.635  24.898  25.491  1.00  0.00     0.000 A 
ENDBRANCH  14  16
ENDBRANCH  12  14
ENDBRANCH  10  12
ENDBRANCH   8  10
ENDBRANCH   7   8
ENDBRANCH   6   7
ENDBRANCH   5   6
ENDBRANCH   4   5
ENDBRANCH   3   4
ENDBRANCH   2   3
ENDBRANCH   1   2
BRANCH   1  29
ATOM     29  C   UNL A   1      38.595  33.996  40.471  1.00  0.00     0.188 C 
BRANCH  29  30
ATOM     30  C   UNL A   1      38.964  35.190  41.353  1.00  0.00     0.188 C 
BRANCH  30  31
ATOM     31  O   UNL A   1      40.349  35.548  41.420  1.00  0.00    -0.376 OA
BRANCH  31  32
ATOM     32  C   UNL A   1      40.723  36.866  41.025  1.00  0.00     0.202 C 
BRANCH  32  33
ATOM     33  C   UNL A   1      41.038  37.051  39.539  1.00  0.00     0.261 C 
BRANCH  33  34
ATOM     34  O   UNL A   1      41.114  35.809  38.827  1.00  0.00    -0.460 OA
BRANCH  34  35
ATOM     35  C   UNL A   1      40.558  35.814  37.594  1.00  0.00     0.338 C 
ATOM     36  O   UNL A   1      39.647  36.524  37.192  1.00  0.00    -0.246 OA
BRANCH  35  37
ATOM     37  C   UNL A   1      41.330  34.916  36.722  1.00  0.00     0.060 A 
ATOM     38  C   UNL A   1      42.678  35.210  36.473  1.00  0.00     0.016 A 
ATOM     39  C   UNL A   1      40.711  33.825  36.113  1.00  0.00     0.016 A 
ATOM     40  C   UNL A   1      43.411  34.417  35.594  1.00  0.00     0.010 A 
ATOM     41  C   UNL A   1      41.439  33.046  35.218  1.00  0.00     0.010 A 
ATOM     42  C   UNL A   1      42.782  33.355  34.937  1.00  0.00    -0.014 A 
BRANCH  42  43
ATOM     43  C   UNL A   1      43.469  32.643  33.840  1.00  0.00     0.031 A 
ATOM     44  C   UNL A   1      43.491  33.274  32.480  1.00  0.00     0.074 A 
ATOM     45  C   UNL A   1      44.014  31.433  34.051  1.00  0.00     0.049 A 
ATOM     46  N   UNL A   1      43.907  32.781  31.345  1.00  0.00    -0.248 NA
ATOM     47  C   UNL A   1      42.962  34.646  32.386  1.00  0.00     0.031 C 
ATOM     48  C   UNL A   1      44.068  30.746  35.340  1.00  0.00     0.029 A 
ATOM     49  N   UNL A   1      44.589  30.555  33.171  1.00  0.00    -0.354 N 
ATOM     50  C   UNL A   1      43.658  33.763  30.395  1.00  0.00     0.074 A 
ATOM     51  C   UNL A   1      43.048  34.879  31.085  1.00  0.00     0.031 C 
ATOM     52  C   UNL A   1      44.613  29.529  35.159  1.00  0.00     0.029 A 
ATOM     53  C   UNL A   1      44.903  29.344  33.739  1.00  0.00     0.049 A 
ATOM     54  H   UNL A   1      44.759  30.770  32.225  1.00  0.00     0.167 HD
ATOM     55  C   UNL A   1      43.921  33.738  29.068  1.00  0.00     0.034 A 
ATOM     56  C   UNL A   1      45.335  28.204  33.165  1.00  0.00     0.034 A 
ATOM     57  C   UNL A   1      44.525  32.619  28.395  1.00  0.00     0.049 A 
ATOM     58  C   UNL A   1      45.557  28.176  31.675  1.00  0.00     0.074 A 
ATOM     59  C   UNL A   1      44.866  32.498  27.062  1.00  0.00     0.029 A 
ATOM     60  N   UNL A   1      44.855  31.417  29.006  1.00  0.00    -0.354 N 
ATOM     61  N   UNL A   1      45.409  29.141  30.799  1.00  0.00    -0.248 NA
ATOM     62  C   UNL A   1      46.025  26.908  31.098  1.00  0.00     0.031 C 
ATOM     63  C   UNL A   1      45.366  31.207  26.857  1.00  0.00     0.029 A 
ATOM     64  C   UNL A   1      45.378  30.540  28.072  1.00  0.00     0.049 A 
ATOM     65  H   UNL A   1      44.736  31.219  29.962  1.00  0.00     0.167 HD
ATOM     66  C   UNL A   1      45.804  28.610  29.575  1.00  0.00     0.074 A 
ATOM     67  C   UNL A   1      46.209  27.243  29.827  1.00  0.00     0.031 C 
ATOM     68  C   UNL A   1      45.820  29.197  28.353  1.00  0.00     0.034 A 
BRANCH  55  69
ATOM     69  C   UNL A   1      43.555  34.955  28.261  1.00  0.00     0.023 A 
ATOM     70  C   UNL A   1      42.307  35.017  27.608  1.00  0.00     0.012 A 
ATOM     71  C   UNL A   1      44.435  36.052  28.170  1.00  0.00     0.148 A 
ATOM     72  C   UNL A   1      41.958  36.131  26.845  1.00  0.00     0.002 A 
ATOM     73  C   UNL A   1      44.060  37.179  27.449  1.00  0.00     0.091 A 
ATOM     74  F   UNL A   1      45.628  35.967  28.778  1.00  0.00    -0.205 F 
ATOM     75  C   UNL A   1      42.829  37.215  26.774  1.00  0.00     0.022 A 
BRANCH  73  76
ATOM     76  S   UNL A   1      45.077  38.656  27.361  1.00  0.00     0.127 S 
ATOM     77  O   UNL A   1      46.264  38.156  26.669  1.00  0.00    -0.237 OA
ATOM     78  O   UNL A   1      44.242  39.556  26.567  1.00  0.00    -0.237 OA
ATOM     79  O   UNL A   1      45.291  39.081  28.737  1.00  0.00    -0.744 OA
ENDBRANCH  73  76
ENDBRANCH  55  69
BRANCH  56  80
ATOM     80  C   UNL A   1      45.603  27.002  34.002  1.00  0.00     0.023 A 
ATOM     81  C   UNL A   1      46.756  26.966  34.811  1.00  0.00     0.012 A 
ATOM     82  C   UNL A   1      44.718  25.907  34.019  1.00  0.00     0.148 A 
ATOM     83  C   UNL A   1      47.038  25.849  35.597  1.00  0.00     0.002 A 
ATOM     84  C   UNL A   1      44.976  24.821  34.847  1.00  0.00     0.091 A 
ATOM     85  F   UNL A   1      43.631  25.957  33.234  1.00  0.00    -0.205 F 
ATOM     86  C   UNL A   1      46.144  24.782  35.623  1.00  0.00     0.022 A 
BRANCH  84  87
ATOM     87  S   UNL A   1      43.821  23.459  35.041  1.00  0.00     0.127 S 
ATOM     88  O   UNL A   1      42.698  24.113  35.707  1.00  0.00    -0.237 OA
ATOM     89  O   UNL A   1      43.576  23.076  33.651  1.00  0.00    -0.237 OA
ATOM     90  O   UNL A   1      44.524  22.455  35.829  1.00  0.00    -0.744 OA
ENDBRANCH  84  87
ENDBRANCH  56  80
BRANCH  68  91
ATOM     91  C   UNL A   1      46.336  28.385  27.192  1.00  0.00     0.023 A 
ATOM     92  C   UNL A   1      45.434  27.810  26.276  1.00  0.00     0.012 A 
ATOM     93  C   UNL A   1      47.723  28.270  26.963  1.00  0.00     0.148 A 
ATOM     94  C   UNL A   1      45.903  27.108  25.166  1.00  0.00     0.002 A 
ATOM     95  C   UNL A   1      48.181  27.616  25.826  1.00  0.00     0.091 A 
ATOM     96  F   UNL A   1      48.564  28.813  27.854  1.00  0.00    -0.205 F 
ATOM     97  C   UNL A   1      47.273  27.023  24.935  1.00  0.00     0.022 A 
BRANCH  95  98
ATOM     98  S   UNL A   1      49.922  27.542  25.391  1.00  0.00     0.127 S 
ATOM     99  O   UNL A   1      49.876  26.866  24.094  1.00  0.00    -0.237 OA
ATOM    100  O   UNL A   1      50.282  28.958  25.328  1.00  0.00    -0.237 OA
ATOM    101  O   UNL A   1      50.575  26.795  26.456  1.00  0.00    -0.744 OA
ENDBRANCH  95  98
ENDBRANCH  68  91
ENDBRANCH  42  43
ENDBRANCH  35  37
ENDBRANCH  34  35
ENDBRANCH  33  34
ENDBRANCH  32  33
ENDBRANCH  31  32
ENDBRANCH  30  31
ENDBRANCH  29  30
ENDBRANCH   1  29
TORSDOF 26
ENDMDL
