MODEL 1
REMARK VINA RESULT:      -8.6      0.000      0.000
REMARK SMILES COc1ccc(OC)c(N2C(=O)c3ccc(C(=O)OCCOCCOCCOCCOC(=O)c4ccc(-c5c6nc(c(-c7cccc(S(=O)(=O)[O-])c7F)c7ccc([nH]7)c(-c7cccc(S(=O)(=O)[O-])c7F)c7nc(c(-c8cccc(S(=O)(=O)[O-])c8F)c8ccc5[nH]8)C=C7)C=C6)cc4)cc3C2=O)c1
REMARK SMILES IDX 26 1 25 2 24 3 23 4 22 5 21 6 20 7 19 8 17 9 18 10 16 11
REMARK SMILES IDX 10 12 11 13 99 14 12 15 13 16 98 17 100 18 14 19 97 20 15 21
REMARK SMILES IDX 9 22 3 23 4 24 101 25 5 26 6 27 2 28 1 29 7 30 8 31 27 32
REMARK SMILES IDX 28 33 29 34 30 35 31 36 32 37 33 38 34 39 35 40 96 41 36 42
REMARK SMILES IDX 95 43 37 44 38 45 39 46 89 47 40 48 94 49 88 50 90 51 41 52
REMARK SMILES IDX 93 53 87 54 86 55 42 57 74 58 54 59 73 60 55 61 58 62 72 63
REMARK SMILES IDX 91 64 56 65 57 66 71 68 92 69 59 70 43 71 44 72 52 73 45 74
REMARK SMILES IDX 47 75 53 76 46 77 48 78 49 79 50 80 51 81 75 82 76 83 84 84
REMARK SMILES IDX 77 85 79 86 85 87 78 88 80 89 81 90 82 91 83 92 60 93 61 94
REMARK SMILES IDX 69 95 62 96 64 97 70 98 63 99 65 100 66 101 67 102 68 103
REMARK H PARENT 90 56 58 67
REMARK Flexibility Score: inf
ROOT
ATOM      1  C   UNL A   1      40.157  23.741  27.256  1.00  0.00     0.188 C 
ENDROOT
BRANCH   1   2
ATOM      2  O   UNL A   1      40.181  22.469  26.624  1.00  0.00    -0.377 OA
BRANCH   2   3
ATOM      3  C   UNL A   1      38.998  21.921  26.075  1.00  0.00     0.188 C 
BRANCH   3   4
ATOM      4  C   UNL A   1      37.737  22.796  25.965  1.00  0.00     0.188 C 
BRANCH   4   5
ATOM      5  O   UNL A   1      36.506  22.083  25.944  1.00  0.00    -0.376 OA
BRANCH   5   6
ATOM      6  C   UNL A   1      36.249  21.316  24.774  1.00  0.00     0.202 C 
BRANCH   6   7
ATOM      7  C   UNL A   1      35.250  20.173  24.989  1.00  0.00     0.261 C 
BRANCH   7   8
ATOM      8  O   UNL A   1      34.094  20.553  25.754  1.00  0.00    -0.460 OA
BRANCH   8   9
ATOM      9  C   UNL A   1      32.898  20.332  25.174  1.00  0.00     0.338 C 
ATOM     10  O   UNL A   1      32.161  19.374  25.316  1.00  0.00    -0.246 OA
BRANCH   9  11
ATOM     11  C   UNL A   1      32.494  21.571  24.491  1.00  0.00     0.060 A 
ATOM     12  N   UNL A   1      30.858  25.784  23.775  1.00  0.00    -0.238 N 
ATOM     13  C   UNL A   1      31.505  25.202  22.711  1.00  0.00     0.266 C 
ATOM     14  C   UNL A   1      30.658  24.865  24.784  1.00  0.00     0.266 C 
ATOM     15  O   UNL A   1      31.816  25.631  21.612  1.00  0.00    -0.268 OA
ATOM     16  C   UNL A   1      31.886  23.864  23.133  1.00  0.00     0.053 A 
ATOM     17  C   UNL A   1      31.394  23.660  24.407  1.00  0.00     0.054 A 
ATOM     18  O   UNL A   1      29.951  24.887  25.772  1.00  0.00    -0.268 OA
ATOM     19  C   UNL A   1      32.676  22.940  22.480  1.00  0.00     0.015 A 
ATOM     20  C   UNL A   1      31.656  22.503  25.115  1.00  0.00     0.030 A 
ATOM     21  C   UNL A   1      33.000  21.785  23.186  1.00  0.00     0.016 A 
BRANCH  12  22
ATOM     22  C   UNL A   1      30.495  27.158  23.808  1.00  0.00     0.098 A 
ATOM     23  C   UNL A   1      28.965  28.917  23.057  1.00  0.00     0.121 A 
ATOM     24  C   UNL A   1      29.831  29.882  23.570  1.00  0.00     0.050 A 
ATOM     25  C   UNL A   1      29.296  27.569  23.193  1.00  0.00     0.077 A 
ATOM     26  C   UNL A   1      31.012  29.504  24.210  1.00  0.00     0.052 A 
ATOM     27  C   UNL A   1      31.345  28.149  24.331  1.00  0.00     0.143 A 
BRANCH  23  28
ATOM     28  O   UNL A   1      27.862  29.406  22.410  1.00  0.00    -0.497 OA
ATOM     29  C   UNL A   1      28.037  30.604  21.660  1.00  0.00     0.278 C 
ENDBRANCH  23  28
BRANCH  27  30
ATOM     30  O   UNL A   1      32.617  27.827  24.733  1.00  0.00    -0.495 OA
ATOM     31  C   UNL A   1      32.887  28.278  26.063  1.00  0.00     0.278 C 
ENDBRANCH  27  30
ENDBRANCH  12  22
ENDBRANCH   9  11
ENDBRANCH   8   9
ENDBRANCH   7   8
ENDBRANCH   6   7
ENDBRANCH   5   6
ENDBRANCH   4   5
ENDBRANCH   3   4
ENDBRANCH   2   3
ENDBRANCH   1   2
BRANCH   1  32
ATOM     32  C   UNL A   1      41.399  24.267  28.000  1.00  0.00     0.188 C 
BRANCH  32  33
ATOM     33  O   UNL A   1      42.644  23.922  27.396  1.00  0.00    -0.376 OA
BRANCH  33  34
ATOM     34  C   UNL A   1      43.789  24.560  27.945  1.00  0.00     0.202 C 
BRANCH  34  35
ATOM     35  C   UNL A   1      44.904  24.784  26.919  1.00  0.00     0.261 C 
BRANCH  35  36
ATOM     36  O   UNL A   1      45.230  26.161  26.681  1.00  0.00    -0.460 OA
BRANCH  36  37
ATOM     37  C   UNL A   1      44.285  26.922  26.086  1.00  0.00     0.338 C 
ATOM     38  O   UNL A   1      43.546  26.604  25.172  1.00  0.00    -0.246 OA
BRANCH  37  39
ATOM     39  C   UNL A   1      44.177  28.176  26.853  1.00  0.00     0.060 A 
ATOM     40  C   UNL A   1      43.311  29.177  26.394  1.00  0.00     0.016 A 
ATOM     41  C   UNL A   1      44.920  28.352  28.021  1.00  0.00     0.016 A 
ATOM     42  C   UNL A   1      43.217  30.381  27.092  1.00  0.00     0.010 A 
ATOM     43  C   UNL A   1      44.836  29.561  28.708  1.00  0.00     0.010 A 
ATOM     44  C   UNL A   1      44.011  30.591  28.227  1.00  0.00    -0.014 A 
BRANCH  44  45
ATOM     45  C   UNL A   1      44.136  31.946  28.810  1.00  0.00     0.031 A 
ATOM     46  C   UNL A   1      45.217  32.847  28.285  1.00  0.00     0.074 A 
ATOM     47  C   UNL A   1      43.345  32.346  29.821  1.00  0.00     0.049 A 
ATOM     48  N   UNL A   1      45.551  34.051  28.668  1.00  0.00    -0.248 NA
ATOM     49  C   UNL A   1      46.041  32.312  27.187  1.00  0.00     0.031 C 
ATOM     50  C   UNL A   1      42.285  31.548  30.432  1.00  0.00     0.029 A 
ATOM     51  N   UNL A   1      43.345  33.516  30.536  1.00  0.00    -0.354 N 
ATOM     52  C   UNL A   1      46.636  34.408  27.878  1.00  0.00     0.074 A 
ATOM     53  C   UNL A   1      46.914  33.291  27.003  1.00  0.00     0.031 C 
ATOM     54  C   UNL A   1      41.762  32.238  31.462  1.00  0.00     0.029 A 
ATOM     55  C   UNL A   1      42.461  33.516  31.588  1.00  0.00     0.049 A 
ATOM     56  H   UNL A   1      43.923  34.283  30.317  1.00  0.00     0.167 HD
ATOM     57  C   UNL A   1      47.330  35.568  27.871  1.00  0.00     0.034 A 
ATOM     58  C   UNL A   1      42.259  34.435  32.554  1.00  0.00     0.034 A 
ATOM     59  C   UNL A   1      47.046  36.682  28.732  1.00  0.00     0.049 A 
ATOM     60  C   UNL A   1      43.044  35.722  32.525  1.00  0.00     0.074 A 
ATOM     61  C   UNL A   1      47.647  37.927  28.754  1.00  0.00     0.029 A 
ATOM     62  N   UNL A   1      46.091  36.678  29.736  1.00  0.00    -0.354 N 
ATOM     63  N   UNL A   1      43.956  36.114  31.668  1.00  0.00    -0.248 NA
ATOM     64  C   UNL A   1      42.749  36.708  33.576  1.00  0.00     0.031 C 
ATOM     65  C   UNL A   1      47.068  38.671  29.788  1.00  0.00     0.029 A 
ATOM     66  C   UNL A   1      46.094  37.894  30.396  1.00  0.00     0.049 A 
ATOM     67  H   UNL A   1      45.498  35.921  29.948  1.00  0.00     0.167 HD
ATOM     68  C   UNL A   1      44.319  37.400  32.056  1.00  0.00     0.074 A 
ATOM     69  C   UNL A   1      43.514  37.729  33.213  1.00  0.00     0.031 C 
ATOM     70  C   UNL A   1      45.246  38.229  31.511  1.00  0.00     0.034 A 
BRANCH  57  71
ATOM     71  C   UNL A   1      48.448  35.698  26.872  1.00  0.00     0.023 A 
ATOM     72  C   UNL A   1      48.194  36.299  25.623  1.00  0.00     0.012 A 
ATOM     73  C   UNL A   1      49.748  35.256  27.178  1.00  0.00     0.148 A 
ATOM     74  C   UNL A   1      49.212  36.431  24.680  1.00  0.00     0.002 A 
ATOM     75  C   UNL A   1      50.767  35.427  26.248  1.00  0.00     0.091 A 
ATOM     76  F   UNL A   1      49.962  34.657  28.358  1.00  0.00    -0.205 F 
ATOM     77  C   UNL A   1      50.499  36.005  24.996  1.00  0.00     0.022 A 
BRANCH  75  78
ATOM     78  S   UNL A   1      52.469  34.970  26.593  1.00  0.00     0.127 S 
ATOM     79  O   UNL A   1      52.789  35.849  27.717  1.00  0.00    -0.237 OA
ATOM     80  O   UNL A   1      52.345  33.555  26.944  1.00  0.00    -0.237 OA
ATOM     81  O   UNL A   1      53.206  35.224  25.364  1.00  0.00    -0.744 OA
ENDBRANCH  75  78
ENDBRANCH  57  71
BRANCH  58  82
ATOM     82  C   UNL A   1      41.235  34.188  33.608  1.00  0.00     0.023 A 
ATOM     83  C   UNL A   1      39.883  34.480  33.347  1.00  0.00     0.012 A 
ATOM     84  C   UNL A   1      41.591  33.639  34.857  1.00  0.00     0.148 A 
ATOM     85  C   UNL A   1      38.906  34.256  34.317  1.00  0.00     0.002 A 
ATOM     86  C   UNL A   1      40.605  33.369  35.799  1.00  0.00     0.091 A 
ATOM     87  F   UNL A   1      42.886  33.386  35.094  1.00  0.00    -0.205 F 
ATOM     88  C   UNL A   1      39.264  33.690  35.537  1.00  0.00     0.022 A 
BRANCH  86  89
ATOM     89  S   UNL A   1      40.958  32.526  37.347  1.00  0.00     0.127 S 
ATOM     90  O   UNL A   1      41.554  31.278  36.878  1.00  0.00    -0.237 OA
ATOM     91  O   UNL A   1      41.893  33.453  37.987  1.00  0.00    -0.237 OA
ATOM     92  O   UNL A   1      39.676  32.402  38.027  1.00  0.00    -0.744 OA
ENDBRANCH  86  89
ENDBRANCH  58  82
BRANCH  70  93
ATOM     93  C   UNL A   1      45.431  39.587  32.136  1.00  0.00     0.023 A 
ATOM     94  C   UNL A   1      46.436  39.778  33.103  1.00  0.00     0.012 A 
ATOM     95  C   UNL A   1      44.673  40.691  31.698  1.00  0.00     0.148 A 
ATOM     96  C   UNL A   1      46.670  41.043  33.643  1.00  0.00     0.002 A 
ATOM     97  C   UNL A   1      44.942  41.957  32.206  1.00  0.00     0.091 A 
ATOM     98  F   UNL A   1      43.707  40.486  30.790  1.00  0.00    -0.205 F 
ATOM     99  C   UNL A   1      45.933  42.133  33.185  1.00  0.00     0.022 A 
BRANCH  97 100
ATOM    100  S   UNL A   1      44.107  43.429  31.602  1.00  0.00     0.127 S 
ATOM    101  O   UNL A   1      44.717  43.600  30.285  1.00  0.00    -0.237 OA
ATOM    102  O   UNL A   1      42.706  43.007  31.575  1.00  0.00    -0.237 OA
ATOM    103  O   UNL A   1      44.399  44.477  32.571  1.00  0.00    -0.744 OA
ENDBRANCH  97 100
ENDBRANCH  70  93
ENDBRANCH  44  45
ENDBRANCH  37  39
ENDBRANCH  36  37
ENDBRANCH  35  36
ENDBRANCH  34  35
ENDBRANCH  33  34
ENDBRANCH  32  33
ENDBRANCH   1  32
TORSDOF 26
ENDMDL
MODEL 2
REMARK VINA RESULT:      -8.3      6.291      9.951
REMARK SMILES COc1ccc(OC)c(N2C(=O)c3ccc(C(=O)OCCOCCOCCOCCOC(=O)c4ccc(-c5c6nc(c(-c7cccc(S(=O)(=O)[O-])c7F)c7ccc([nH]7)c(-c7cccc(S(=O)(=O)[O-])c7F)c7nc(c(-c8cccc(S(=O)(=O)[O-])c8F)c8ccc5[nH]8)C=C7)C=C6)cc4)cc3C2=O)c1
REMARK SMILES IDX 26 1 25 2 24 3 23 4 22 5 21 6 20 7 19 8 17 9 18 10 16 11
REMARK SMILES IDX 10 12 11 13 99 14 12 15 13 16 98 17 100 18 14 19 97 20 15 21
REMARK SMILES IDX 9 22 3 23 4 24 101 25 5 26 6 27 2 28 1 29 7 30 8 31 27 32
REMARK SMILES IDX 28 33 29 34 30 35 31 36 32 37 33 38 34 39 35 40 96 41 36 42
REMARK SMILES IDX 95 43 37 44 38 45 39 46 89 47 40 48 94 49 88 50 90 51 41 52
REMARK SMILES IDX 93 53 87 54 86 55 42 57 74 58 54 59 73 60 55 61 58 62 72 63
REMARK SMILES IDX 91 64 56 65 57 66 71 68 92 69 59 70 43 71 44 72 52 73 45 74
REMARK SMILES IDX 47 75 53 76 46 77 48 78 49 79 50 80 51 81 75 82 76 83 84 84
REMARK SMILES IDX 77 85 79 86 85 87 78 88 80 89 81 90 82 91 83 92 60 93 61 94
REMARK SMILES IDX 69 95 62 96 64 97 70 98 63 99 65 100 66 101 67 102 68 103
REMARK H PARENT 90 56 58 67
REMARK Flexibility Score: inf
ROOT
ATOM      1  C   UNL A   1      47.659  25.410  29.650  1.00  0.00     0.188 C 
ENDROOT
BRANCH   1   2
ATOM      2  O   UNL A   1      46.325  25.699  29.261  1.00  0.00    -0.377 OA
BRANCH   2   3
ATOM      3  C   UNL A   1      45.259  24.879  29.700  1.00  0.00     0.188 C 
BRANCH   3   4
ATOM      4  C   UNL A   1      43.972  24.791  28.860  1.00  0.00     0.188 C 
BRANCH   4   5
ATOM      5  O   UNL A   1      44.100  24.087  27.632  1.00  0.00    -0.376 OA
BRANCH   5   6
ATOM      6  C   UNL A   1      43.040  24.260  26.699  1.00  0.00     0.202 C 
BRANCH   6   7
ATOM      7  C   UNL A   1      43.390  25.180  25.525  1.00  0.00     0.261 C 
BRANCH   7   8
ATOM      8  O   UNL A   1      43.817  26.492  25.926  1.00  0.00    -0.460 OA
BRANCH   8   9
ATOM      9  C   UNL A   1      43.074  27.523  25.476  1.00  0.00     0.338 C 
ATOM     10  O   UNL A   1      42.689  27.729  24.340  1.00  0.00    -0.246 OA
BRANCH   9  11
ATOM     11  C   UNL A   1      42.590  28.273  26.645  1.00  0.00     0.060 A 
ATOM     12  N   UNL A   1      39.771  30.123  29.738  1.00  0.00    -0.238 N 
ATOM     13  C   UNL A   1      41.112  30.184  30.035  1.00  0.00     0.266 C 
ATOM     14  C   UNL A   1      39.579  29.690  28.443  1.00  0.00     0.266 C 
ATOM     15  O   UNL A   1      41.711  30.565  31.027  1.00  0.00    -0.268 OA
ATOM     16  C   UNL A   1      41.818  29.599  28.907  1.00  0.00     0.053 A 
ATOM     17  C   UNL A   1      40.887  29.273  27.941  1.00  0.00     0.054 A 
ATOM     18  O   UNL A   1      38.604  29.709  27.717  1.00  0.00    -0.268 OA
ATOM     19  C   UNL A   1      43.159  29.300  28.783  1.00  0.00     0.015 A 
ATOM     20  C   UNL A   1      41.242  28.627  26.772  1.00  0.00     0.030 A 
ATOM     21  C   UNL A   1      43.542  28.605  27.640  1.00  0.00     0.016 A 
BRANCH  12  22
ATOM     22  C   UNL A   1      38.751  30.434  30.678  1.00  0.00     0.098 A 
ATOM     23  C   UNL A   1      37.278  32.130  31.655  1.00  0.00     0.121 A 
ATOM     24  C   UNL A   1      36.935  31.240  32.671  1.00  0.00     0.050 A 
ATOM     25  C   UNL A   1      38.169  31.717  30.663  1.00  0.00     0.077 A 
ATOM     26  C   UNL A   1      37.473  29.952  32.695  1.00  0.00     0.052 A 
ATOM     27  C   UNL A   1      38.377  29.548  31.705  1.00  0.00     0.143 A 
BRANCH  23  28
ATOM     28  O   UNL A   1      36.726  33.379  31.759  1.00  0.00    -0.497 OA
ATOM     29  C   UNL A   1      35.356  33.506  31.389  1.00  0.00     0.278 C 
ENDBRANCH  23  28
BRANCH  27  30
ATOM     30  O   UNL A   1      39.073  28.382  31.898  1.00  0.00    -0.495 OA
ATOM     31  C   UNL A   1      38.267  27.375  32.516  1.00  0.00     0.278 C 
ENDBRANCH  27  30
ENDBRANCH  12  22
ENDBRANCH   9  11
ENDBRANCH   8   9
ENDBRANCH   7   8
ENDBRANCH   6   7
ENDBRANCH   5   6
ENDBRANCH   4   5
ENDBRANCH   3   4
ENDBRANCH   2   3
ENDBRANCH   1   2
BRANCH   1  32
ATOM     32  C   UNL A   1      48.843  25.846  28.765  1.00  0.00     0.188 C 
BRANCH  32  33
ATOM     33  O   UNL A   1      49.847  26.597  29.444  1.00  0.00    -0.376 OA
BRANCH  33  34
ATOM     34  C   UNL A   1      51.179  26.386  28.996  1.00  0.00     0.202 C 
BRANCH  34  35
ATOM     35  C   UNL A   1      51.353  26.622  27.492  1.00  0.00     0.261 C 
BRANCH  35  36
ATOM     36  O   UNL A   1      51.392  28.002  27.104  1.00  0.00    -0.460 OA
BRANCH  36  37
ATOM     37  C   UNL A   1      50.428  28.431  26.259  1.00  0.00     0.338 C 
ATOM     38  O   UNL A   1      50.319  28.179  25.073  1.00  0.00    -0.246 OA
BRANCH  37  39
ATOM     39  C   UNL A   1      49.412  29.133  27.062  1.00  0.00     0.060 A 
ATOM     40  C   UNL A   1      49.834  29.997  28.082  1.00  0.00     0.016 A 
ATOM     41  C   UNL A   1      48.054  28.943  26.800  1.00  0.00     0.016 A 
ATOM     42  C   UNL A   1      48.885  30.647  28.871  1.00  0.00     0.010 A 
ATOM     43  C   UNL A   1      47.109  29.583  27.599  1.00  0.00     0.010 A 
ATOM     44  C   UNL A   1      47.522  30.410  28.658  1.00  0.00    -0.014 A 
BRANCH  44  45
ATOM     45  C   UNL A   1      46.521  30.862  29.651  1.00  0.00     0.031 A 
ATOM     46  C   UNL A   1      46.204  29.952  30.802  1.00  0.00     0.074 A 
ATOM     47  C   UNL A   1      45.868  32.028  29.501  1.00  0.00     0.049 A 
ATOM     48  N   UNL A   1      45.335  30.107  31.766  1.00  0.00    -0.248 NA
ATOM     49  C   UNL A   1      46.961  28.690  30.870  1.00  0.00     0.031 C 
ATOM     50  C   UNL A   1      46.070  32.977  28.409  1.00  0.00     0.029 A 
ATOM     51  N   UNL A   1      44.872  32.588  30.259  1.00  0.00    -0.354 N 
ATOM     52  C   UNL A   1      45.422  28.955  32.538  1.00  0.00     0.074 A 
ATOM     53  C   UNL A   1      46.418  28.105  31.927  1.00  0.00     0.031 C 
ATOM     54  C   UNL A   1      45.190  33.985  28.543  1.00  0.00     0.029 A 
ATOM     55  C   UNL A   1      44.359  33.744  29.722  1.00  0.00     0.049 A 
ATOM     56  H   UNL A   1      44.554  32.199  31.106  1.00  0.00     0.167 HD
ATOM     57  C   UNL A   1      44.744  28.641  33.665  1.00  0.00     0.034 A 
ATOM     58  C   UNL A   1      43.321  34.505  30.126  1.00  0.00     0.034 A 
ATOM     59  C   UNL A   1      43.764  29.491  34.279  1.00  0.00     0.049 A 
ATOM     60  C   UNL A   1      42.580  34.134  31.386  1.00  0.00     0.074 A 
ATOM     61  C   UNL A   1      43.072  29.293  35.460  1.00  0.00     0.029 A 
ATOM     62  N   UNL A   1      43.322  30.694  33.750  1.00  0.00    -0.354 N 
ATOM     63  N   UNL A   1      42.785  33.125  32.198  1.00  0.00    -0.248 NA
ATOM     64  C   UNL A   1      41.487  35.025  31.804  1.00  0.00     0.031 C 
ATOM     65  C   UNL A   1      42.194  30.370  35.635  1.00  0.00     0.029 A 
ATOM     66  C   UNL A   1      42.355  31.245  34.573  1.00  0.00     0.049 A 
ATOM     67  H   UNL A   1      43.648  31.096  32.913  1.00  0.00     0.167 HD
ATOM     68  C   UNL A   1      41.872  33.278  33.237  1.00  0.00     0.074 A 
ATOM     69  C   UNL A   1      41.126  34.488  32.962  1.00  0.00     0.031 C 
ATOM     70  C   UNL A   1      41.661  32.480  34.315  1.00  0.00     0.034 A 
BRANCH  57  71
ATOM     71  C   UNL A   1      45.070  27.328  34.322  1.00  0.00     0.023 A 
ATOM     72  C   UNL A   1      46.096  27.273  35.288  1.00  0.00     0.012 A 
ATOM     73  C   UNL A   1      44.348  26.161  34.011  1.00  0.00     0.148 A 
ATOM     74  C   UNL A   1      46.418  26.069  35.912  1.00  0.00     0.002 A 
ATOM     75  C   UNL A   1      44.648  24.973  34.667  1.00  0.00     0.091 A 
ATOM     76  F   UNL A   1      43.398  26.228  33.067  1.00  0.00    -0.205 F 
ATOM     77  C   UNL A   1      45.688  24.923  35.610  1.00  0.00     0.022 A 
BRANCH  75  78
ATOM     78  S   UNL A   1      43.717  23.462  34.390  1.00  0.00     0.127 S 
ATOM     79  O   UNL A   1      42.387  23.844  34.862  1.00  0.00    -0.237 OA
ATOM     80  O   UNL A   1      43.823  23.294  32.941  1.00  0.00    -0.237 OA
ATOM     81  O   UNL A   1      44.390  22.432  35.168  1.00  0.00    -0.744 OA
ENDBRANCH  75  78
ENDBRANCH  57  71
BRANCH  58  82
ATOM     82  C   UNL A   1      42.948  35.721  29.349  1.00  0.00     0.023 A 
ATOM     83  C   UNL A   1      42.005  35.619  28.309  1.00  0.00     0.012 A 
ATOM     84  C   UNL A   1      43.504  36.979  29.654  1.00  0.00     0.148 A 
ATOM     85  C   UNL A   1      41.639  36.744  27.569  1.00  0.00     0.002 A 
ATOM     86  C   UNL A   1      43.094  38.104  28.946  1.00  0.00     0.091 A 
ATOM     87  F   UNL A   1      44.415  37.052  30.634  1.00  0.00    -0.205 F 
ATOM     88  C   UNL A   1      42.174  37.987  27.894  1.00  0.00     0.022 A 
BRANCH  86  89
ATOM     89  S   UNL A   1      43.635  39.763  29.380  1.00  0.00     0.127 S 
ATOM     90  O   UNL A   1      45.082  39.659  29.209  1.00  0.00    -0.237 OA
ATOM     91  O   UNL A   1      42.952  40.575  28.371  1.00  0.00    -0.237 OA
ATOM     92  O   UNL A   1      43.171  39.983  30.742  1.00  0.00    -0.744 OA
ENDBRANCH  86  89
ENDBRANCH  58  82
BRANCH  70  93
ATOM     93  C   UNL A   1      40.599  32.894  35.300  1.00  0.00     0.023 A 
ATOM     94  C   UNL A   1      39.295  32.377  35.177  1.00  0.00     0.012 A 
ATOM     95  C   UNL A   1      40.916  33.718  36.398  1.00  0.00     0.148 A 
ATOM     96  C   UNL A   1      38.315  32.691  36.119  1.00  0.00     0.002 A 
ATOM     97  C   UNL A   1      39.947  33.991  37.358  1.00  0.00     0.091 A 
ATOM     98  F   UNL A   1      42.157  34.217  36.488  1.00  0.00    -0.205 F 
ATOM     99  C   UNL A   1      38.645  33.487  37.215  1.00  0.00     0.022 A 
BRANCH  97 100
ATOM    100  S   UNL A   1      40.312  34.926  38.848  1.00  0.00     0.127 S 
ATOM    101  O   UNL A   1      41.546  35.615  38.474  1.00  0.00    -0.237 OA
ATOM    102  O   UNL A   1      39.141  35.795  38.969  1.00  0.00    -0.237 OA
ATOM    103  O   UNL A   1      40.441  33.941  39.914  1.00  0.00    -0.744 OA
ENDBRANCH  97 100
ENDBRANCH  70  93
ENDBRANCH  44  45
ENDBRANCH  37  39
ENDBRANCH  36  37
ENDBRANCH  35  36
ENDBRANCH  34  35
ENDBRANCH  33  34
ENDBRANCH  32  33
ENDBRANCH   1  32
TORSDOF 26
ENDMDL
MODEL 3
REMARK VINA RESULT:      -8.0      4.651      8.504
REMARK SMILES COc1ccc(OC)c(N2C(=O)c3ccc(C(=O)OCCOCCOCCOCCOC(=O)c4ccc(-c5c6nc(c(-c7cccc(S(=O)(=O)[O-])c7F)c7ccc([nH]7)c(-c7cccc(S(=O)(=O)[O-])c7F)c7nc(c(-c8cccc(S(=O)(=O)[O-])c8F)c8ccc5[nH]8)C=C7)C=C6)cc4)cc3C2=O)c1
REMARK SMILES IDX 26 1 25 2 24 3 23 4 22 5 21 6 20 7 19 8 17 9 18 10 16 11
REMARK SMILES IDX 10 12 11 13 99 14 12 15 13 16 98 17 100 18 14 19 97 20 15 21
REMARK SMILES IDX 9 22 3 23 4 24 101 25 5 26 6 27 2 28 1 29 7 30 8 31 27 32
REMARK SMILES IDX 28 33 29 34 30 35 31 36 32 37 33 38 34 39 35 40 96 41 36 42
REMARK SMILES IDX 95 43 37 44 38 45 39 46 89 47 40 48 94 49 88 50 90 51 41 52
REMARK SMILES IDX 93 53 87 54 86 55 42 57 74 58 54 59 73 60 55 61 58 62 72 63
REMARK SMILES IDX 91 64 56 65 57 66 71 68 92 69 59 70 43 71 44 72 52 73 45 74
REMARK SMILES IDX 47 75 53 76 46 77 48 78 49 79 50 80 51 81 75 82 76 83 84 84
REMARK SMILES IDX 77 85 79 86 85 87 78 88 80 89 81 90 82 91 83 92 60 93 61 94
REMARK SMILES IDX 69 95 62 96 64 97 70 98 63 99 65 100 66 101 67 102 68 103
REMARK H PARENT 90 56 58 67
REMARK Flexibility Score: inf
ROOT
ATOM      1  C   UNL A   1      44.220  26.610  30.065  1.00  0.00     0.188 C 
ENDROOT
BRANCH   1   2
ATOM      2  O   UNL A   1      43.010  27.353  30.064  1.00  0.00    -0.377 OA
BRANCH   2   3
ATOM      3  C   UNL A   1      41.820  26.781  29.553  1.00  0.00     0.188 C 
BRANCH   3   4
ATOM      4  C   UNL A   1      40.785  27.680  28.855  1.00  0.00     0.188 C 
BRANCH   4   5
ATOM      5  O   UNL A   1      40.178  27.118  27.699  1.00  0.00    -0.376 OA
BRANCH   5   6
ATOM      6  C   UNL A   1      40.849  26.006  27.119  1.00  0.00     0.202 C 
BRANCH   6   7
ATOM      7  C   UNL A   1      40.008  25.241  26.092  1.00  0.00     0.261 C 
BRANCH   7   8
ATOM      8  O   UNL A   1      38.835  24.625  26.649  1.00  0.00    -0.460 OA
BRANCH   8   9
ATOM      9  C   UNL A   1      38.519  23.405  26.171  1.00  0.00     0.338 C 
ATOM     10  O   UNL A   1      39.032  22.336  26.446  1.00  0.00    -0.246 OA
BRANCH   9  11
ATOM     11  C   UNL A   1      37.267  23.531  25.409  1.00  0.00     0.060 A 
ATOM     12  N   UNL A   1      33.189  25.058  24.006  1.00  0.00    -0.238 N 
ATOM     13  C   UNL A   1      33.791  24.124  23.197  1.00  0.00     0.266 C 
ATOM     14  C   UNL A   1      33.869  25.179  25.199  1.00  0.00     0.266 C 
ATOM     15  O   UNL A   1      33.487  23.675  22.104  1.00  0.00    -0.268 OA
ATOM     16  C   UNL A   1      35.030  23.740  23.852  1.00  0.00     0.053 A 
ATOM     17  C   UNL A   1      35.097  24.398  25.064  1.00  0.00     0.054 A 
ATOM     18  O   UNL A   1      33.567  25.698  26.256  1.00  0.00    -0.268 OA
ATOM     19  C   UNL A   1      36.053  22.945  23.376  1.00  0.00     0.015 A 
ATOM     20  C   UNL A   1      36.199  24.296  25.892  1.00  0.00     0.030 A 
ATOM     21  C   UNL A   1      37.198  22.861  24.163  1.00  0.00     0.016 A 
BRANCH  12  22
ATOM     22  C   UNL A   1      32.043  25.805  23.614  1.00  0.00     0.098 A 
ATOM     23  C   UNL A   1      31.139  27.894  22.712  1.00  0.00     0.121 A 
ATOM     24  C   UNL A   1      29.854  27.482  23.058  1.00  0.00     0.050 A 
ATOM     25  C   UNL A   1      32.217  27.050  22.978  1.00  0.00     0.077 A 
ATOM     26  C   UNL A   1      29.648  26.241  23.663  1.00  0.00     0.052 A 
ATOM     27  C   UNL A   1      30.735  25.404  23.940  1.00  0.00     0.143 A 
BRANCH  23  28
ATOM     28  O   UNL A   1      31.226  29.148  22.167  1.00  0.00    -0.497 OA
ATOM     29  C   UNL A   1      30.022  29.908  22.115  1.00  0.00     0.278 C 
ENDBRANCH  23  28
BRANCH  27  30
ATOM     30  O   UNL A   1      30.528  24.318  24.754  1.00  0.00    -0.495 OA
ATOM     31  C   UNL A   1      30.237  24.707  26.099  1.00  0.00     0.278 C 
ENDBRANCH  27  30
ENDBRANCH  12  22
ENDBRANCH   9  11
ENDBRANCH   8   9
ENDBRANCH   7   8
ENDBRANCH   6   7
ENDBRANCH   5   6
ENDBRANCH   4   5
ENDBRANCH   3   4
ENDBRANCH   2   3
ENDBRANCH   1   2
BRANCH   1  32
ATOM     32  C   UNL A   1      44.870  26.173  28.739  1.00  0.00     0.188 C 
BRANCH  32  33
ATOM     33  O   UNL A   1      44.692  27.088  27.660  1.00  0.00    -0.376 OA
BRANCH  33  34
ATOM     34  C   UNL A   1      45.632  26.975  26.600  1.00  0.00     0.202 C 
BRANCH  34  35
ATOM     35  C   UNL A   1      45.934  28.314  25.919  1.00  0.00     0.261 C 
BRANCH  35  36
ATOM     36  O   UNL A   1      46.446  29.328  26.795  1.00  0.00    -0.460 OA
BRANCH  36  37
ATOM     37  C   UNL A   1      46.072  30.603  26.545  1.00  0.00     0.338 C 
ATOM     38  O   UNL A   1      45.928  31.131  25.458  1.00  0.00    -0.246 OA
BRANCH  37  39
ATOM     39  C   UNL A   1      45.696  31.216  27.831  1.00  0.00     0.060 A 
ATOM     40  C   UNL A   1      46.041  30.561  29.020  1.00  0.00     0.016 A 
ATOM     41  C   UNL A   1      45.015  32.435  27.855  1.00  0.00     0.016 A 
ATOM     42  C   UNL A   1      45.667  31.113  30.245  1.00  0.00     0.010 A 
ATOM     43  C   UNL A   1      44.630  32.977  29.080  1.00  0.00     0.010 A 
ATOM     44  C   UNL A   1      44.926  32.301  30.276  1.00  0.00    -0.014 A 
BRANCH  44  45
ATOM     45  C   UNL A   1      44.284  32.748  31.533  1.00  0.00     0.031 A 
ATOM     46  C   UNL A   1      42.802  32.557  31.680  1.00  0.00     0.074 A 
ATOM     47  C   UNL A   1      44.993  33.362  32.498  1.00  0.00     0.049 A 
ATOM     48  N   UNL A   1      42.014  32.909  32.662  1.00  0.00    -0.248 NA
ATOM     49  C   UNL A   1      42.112  31.888  30.563  1.00  0.00     0.031 C 
ATOM     50  C   UNL A   1      46.428  33.629  32.453  1.00  0.00     0.029 A 
ATOM     51  N   UNL A   1      44.582  33.905  33.688  1.00  0.00    -0.354 N 
ATOM     52  C   UNL A   1      40.736  32.529  32.271  1.00  0.00     0.074 A 
ATOM     53  C   UNL A   1      40.850  31.931  30.960  1.00  0.00     0.031 C 
ATOM     54  C   UNL A   1      46.773  34.327  33.550  1.00  0.00     0.029 A 
ATOM     55  C   UNL A   1      45.581  34.564  34.363  1.00  0.00     0.049 A 
ATOM     56  H   UNL A   1      43.661  33.831  34.026  1.00  0.00     0.167 HD
ATOM     57  C   UNL A   1      39.574  32.653  32.951  1.00  0.00     0.034 A 
ATOM     58  C   UNL A   1      45.530  35.293  35.497  1.00  0.00     0.034 A 
ATOM     59  C   UNL A   1      39.463  33.235  34.258  1.00  0.00     0.049 A 
ATOM     60  C   UNL A   1      44.223  35.417  36.237  1.00  0.00     0.074 A 
ATOM     61  C   UNL A   1      38.342  33.344  35.060  1.00  0.00     0.029 A 
ATOM     62  N   UNL A   1      40.510  33.825  34.949  1.00  0.00    -0.354 N 
ATOM     63  N   UNL A   1      43.052  34.908  35.936  1.00  0.00    -0.248 NA
ATOM     64  C   UNL A   1      44.236  36.184  37.492  1.00  0.00     0.031 C 
ATOM     65  C   UNL A   1      38.707  34.019  36.230  1.00  0.00     0.029 A 
ATOM     66  C   UNL A   1      40.059  34.313  36.163  1.00  0.00     0.049 A 
ATOM     67  H   UNL A   1      41.437  33.886  34.624  1.00  0.00     0.167 HD
ATOM     68  C   UNL A   1      42.200  35.266  36.976  1.00  0.00     0.074 A 
ATOM     69  C   UNL A   1      42.993  36.018  37.926  1.00  0.00     0.031 C 
ATOM     70  C   UNL A   1      40.875  35.009  37.125  1.00  0.00     0.034 A 
BRANCH  57  71
ATOM     71  C   UNL A   1      38.331  32.114  32.296  1.00  0.00     0.023 A 
ATOM     72  C   UNL A   1      37.959  30.771  32.515  1.00  0.00     0.012 A 
ATOM     73  C   UNL A   1      37.519  32.936  31.494  1.00  0.00     0.148 A 
ATOM     74  C   UNL A   1      36.812  30.248  31.921  1.00  0.00     0.002 A 
ATOM     75  C   UNL A   1      36.356  32.418  30.936  1.00  0.00     0.091 A 
ATOM     76  F   UNL A   1      37.908  34.200  31.271  1.00  0.00    -0.205 F 
ATOM     77  C   UNL A   1      36.007  31.072  31.140  1.00  0.00     0.022 A 
BRANCH  75  78
ATOM     78  S   UNL A   1      35.222  33.423  29.973  1.00  0.00     0.127 S 
ATOM     79  O   UNL A   1      36.055  33.794  28.830  1.00  0.00    -0.237 OA
ATOM     80  O   UNL A   1      34.152  32.475  29.664  1.00  0.00    -0.237 OA
ATOM     81  O   UNL A   1      34.824  34.519  30.844  1.00  0.00    -0.744 OA
ENDBRANCH  75  78
ENDBRANCH  57  71
BRANCH  58  82
ATOM     82  C   UNL A   1      46.771  35.929  36.024  1.00  0.00     0.023 A 
ATOM     83  C   UNL A   1      47.104  37.237  35.626  1.00  0.00     0.012 A 
ATOM     84  C   UNL A   1      47.606  35.254  36.936  1.00  0.00     0.148 A 
ATOM     85  C   UNL A   1      48.260  37.854  36.107  1.00  0.00     0.002 A 
ATOM     86  C   UNL A   1      48.726  35.895  37.452  1.00  0.00     0.091 A 
ATOM     87  F   UNL A   1      47.282  34.002  37.288  1.00  0.00    -0.205 F 
ATOM     88  C   UNL A   1      49.064  37.189  37.027  1.00  0.00     0.022 A 
BRANCH  86  89
ATOM     89  S   UNL A   1      49.748  35.162  38.737  1.00  0.00     0.127 S 
ATOM     90  O   UNL A   1      50.738  36.211  38.966  1.00  0.00    -0.237 OA
ATOM     91  O   UNL A   1      48.782  34.979  39.821  1.00  0.00    -0.237 OA
ATOM     92  O   UNL A   1      50.257  33.920  38.172  1.00  0.00    -0.744 OA
ENDBRANCH  86  89
ENDBRANCH  58  82
BRANCH  70  93
ATOM     93  C   UNL A   1      40.195  35.516  38.369  1.00  0.00     0.023 A 
ATOM     94  C   UNL A   1      39.682  36.828  38.399  1.00  0.00     0.012 A 
ATOM     95  C   UNL A   1      39.979  34.664  39.471  1.00  0.00     0.148 A 
ATOM     96  C   UNL A   1      38.987  37.293  39.515  1.00  0.00     0.002 A 
ATOM     97  C   UNL A   1      39.246  35.119  40.561  1.00  0.00     0.091 A 
ATOM     98  F   UNL A   1      40.491  33.425  39.433  1.00  0.00    -0.205 F 
ATOM     99  C   UNL A   1      38.758  36.435  40.590  1.00  0.00     0.022 A 
BRANCH  97 100
ATOM    100  S   UNL A   1      38.823  34.053  41.944  1.00  0.00     0.127 S 
ATOM    101  O   UNL A   1      38.578  35.025  43.008  1.00  0.00    -0.237 OA
ATOM    102  O   UNL A   1      37.625  33.367  41.457  1.00  0.00    -0.237 OA
ATOM    103  O   UNL A   1      39.974  33.182  42.142  1.00  0.00    -0.744 OA
ENDBRANCH  97 100
ENDBRANCH  70  93
ENDBRANCH  44  45
ENDBRANCH  37  39
ENDBRANCH  36  37
ENDBRANCH  35  36
ENDBRANCH  34  35
ENDBRANCH  33  34
ENDBRANCH  32  33
ENDBRANCH   1  32
TORSDOF 26
ENDMDL
