MODEL 1
REMARK VINA RESULT:     -11.9      0.000      0.000
REMARK SMILES Cc1ccc(C(=O)N2CCCC[C@@H]2C(=O)OCCOCCOCCOCCOC(=O)c2ccc(-c3c4nc(c(-c5cccc(S(=O)(=O)[O-])c5F)c5ccc([nH]5)c(-c5cccc(S(=O)(=O)[O-])c5F)c5nc(c(-c6cccc(S(=O)(=O)[O-])c6F)c6ccc3[nH]6)C=C5)C=C4)cc2)cc1S(=O)(=O)N1CCCCC1
REMARK SMILES IDX 21 1 20 2 19 3 18 4 17 5 16 6 14 7 15 8 13 9 8 10 9 11 10 12
REMARK SMILES IDX 12 13 11 14 6 15 7 16 5 17 1 18 2 19 3 20 95 21 4 22 94 23
REMARK SMILES IDX 96 24 97 25 98 26 99 27 100 28 104 29 101 30 103 31 102 32
REMARK SMILES IDX 22 33 23 34 24 35 25 36 26 37 27 38 28 39 29 40 30 41 31 42
REMARK SMILES IDX 32 43 93 44 33 45 92 46 34 47 35 48 36 49 86 50 37 51 91 52
REMARK SMILES IDX 85 53 87 54 38 55 90 56 84 57 83 58 39 60 71 61 51 62 70 63
REMARK SMILES IDX 52 64 55 65 69 66 88 67 53 68 54 69 68 71 89 72 56 73 40 74
REMARK SMILES IDX 41 75 49 76 42 77 44 78 50 79 43 80 45 81 46 82 47 83 48 84
REMARK SMILES IDX 72 85 73 86 81 87 74 88 76 89 82 90 75 91 77 92 78 93 79 94
REMARK SMILES IDX 80 95 57 96 58 97 66 98 59 99 61 100 67 101 60 102 62 103
REMARK SMILES IDX 63 104 64 105 65 106
REMARK H PARENT 87 59 55 70
REMARK Flexibility Score: inf
ROOT
ATOM      1  C   UNL A   1      33.618  24.570  25.967  1.00  0.00     0.188 C 
ENDROOT
BRANCH   1   2
ATOM      2  C   UNL A   1      34.574  23.593  24.862  1.00  0.00     0.188 C 
BRANCH   2   3
ATOM      3  O   UNL A   1      35.749  22.198  25.052  1.00  0.00    -0.376 OA
BRANCH   3   4
ATOM      4  C   UNL A   1      37.512  22.024  24.688  1.00  0.00     0.202 C 
BRANCH   4   5
ATOM      5  C   UNL A   1      38.812  21.939  26.000  1.00  0.00     0.261 C 
BRANCH   5   6
ATOM      6  O   UNL A   1      40.213  20.770  26.091  1.00  0.00    -0.462 OA
BRANCH   6   7
ATOM      7  C   UNL A   1      41.365  20.235  26.922  1.00  0.00     0.328 C 
ATOM      8  O   UNL A   1      41.307  19.731  28.058  1.00  0.00    -0.250 OA
BRANCH   7   9
ATOM      9  C   UNL A   1      42.882  20.217  26.418  1.00  0.00     0.195 C 
ATOM     10  N   UNL A   1      43.434  21.179  25.498  1.00  0.00    -0.325 N 
ATOM     11  C   UNL A   1      44.839  21.003  25.134  1.00  0.00     0.121 C 
ATOM     12  C   UNL A   1      45.008  19.740  24.339  1.00  0.00     0.022 C 
ATOM     13  C   UNL A   1      43.373  18.742  26.064  1.00  0.00     0.037 C 
ATOM     14  C   UNL A   1      44.637  18.555  25.206  1.00  0.00     0.005 C 
BRANCH  10  15
ATOM     15  C   UNL A   1      42.969  22.484  25.470  1.00  0.00     0.254 C 
ATOM     16  O   UNL A   1      42.910  23.039  24.369  1.00  0.00    -0.269 OA
BRANCH  15  17
ATOM     17  C   UNL A   1      42.921  23.241  26.799  1.00  0.00     0.041 A 
ATOM     18  C   UNL A   1      42.224  27.765  29.286  1.00  0.00     0.046 C 
ATOM     19  C   UNL A   1      42.571  26.559  28.483  1.00  0.00    -0.031 A 
ATOM     20  C   UNL A   1      41.439  25.314  28.638  1.00  0.00     0.005 A 
ATOM     21  C   UNL A   1      44.022  26.224  27.528  1.00  0.00     0.086 A 
ATOM     22  C   UNL A   1      41.609  23.759  27.888  1.00  0.00     0.014 A 
ATOM     23  C   UNL A   1      44.195  24.331  26.667  1.00  0.00     0.035 A 
BRANCH  21  24
ATOM     24  S   UNL A   1      45.306  27.790  27.628  1.00  0.00     0.243 S 
ATOM     25  O   UNL A   1      44.782  29.030  27.071  1.00  0.00    -0.207 OA
ATOM     26  O   UNL A   1      45.781  27.843  28.995  1.00  0.00    -0.207 OA
BRANCH  24  27
ATOM     27  N   UNL A   1      46.567  27.424  26.565  1.00  0.00    -0.198 NA
ATOM     28  C   UNL A   1      46.300  27.950  25.227  1.00  0.00     0.102 C 
ATOM     29  C   UNL A   1      47.411  26.236  26.773  1.00  0.00     0.102 C 
ATOM     30  C   UNL A   1      47.110  27.310  24.132  1.00  0.00     0.017 C 
ATOM     31  C   UNL A   1      48.409  25.910  25.669  1.00  0.00     0.017 C 
ATOM     32  C   UNL A   1      48.509  26.984  24.611  1.00  0.00     0.003 C 
ENDBRANCH  24  27
ENDBRANCH  21  24
ENDBRANCH  15  17
ENDBRANCH  10  15
ENDBRANCH   7   9
ENDBRANCH   6   7
ENDBRANCH   5   6
ENDBRANCH   4   5
ENDBRANCH   3   4
ENDBRANCH   2   3
ENDBRANCH   1   2
BRANCH   1  33
ATOM     33  O   UNL A   1      32.890  25.821  26.022  1.00  0.00    -0.377 OA
BRANCH  33  34
ATOM     34  C   UNL A   1      32.834  26.902  25.100  1.00  0.00     0.188 C 
BRANCH  34  35
ATOM     35  C   UNL A   1      33.765  28.016  25.418  1.00  0.00     0.188 C 
BRANCH  35  36
ATOM     36  O   UNL A   1      33.136  28.728  26.455  1.00  0.00    -0.376 OA
BRANCH  36  37
ATOM     37  C   UNL A   1      33.967  29.345  27.395  1.00  0.00     0.202 C 
BRANCH  37  38
ATOM     38  C   UNL A   1      33.808  30.844  27.218  1.00  0.00     0.261 C 
BRANCH  38  39
ATOM     39  O   UNL A   1      34.182  31.523  28.455  1.00  0.00    -0.460 OA
BRANCH  39  40
ATOM     40  C   UNL A   1      35.495  31.948  28.582  1.00  0.00     0.338 C 
ATOM     41  O   UNL A   1      35.976  32.851  27.917  1.00  0.00    -0.246 OA
BRANCH  40  42
ATOM     42  C   UNL A   1      36.306  31.005  29.449  1.00  0.00     0.060 A 
ATOM     43  C   UNL A   1      36.102  30.878  30.849  1.00  0.00     0.016 A 
ATOM     44  C   UNL A   1      37.574  30.848  29.032  1.00  0.00     0.016 A 
ATOM     45  C   UNL A   1      37.133  31.165  31.838  1.00  0.00     0.010 A 
ATOM     46  C   UNL A   1      38.505  31.217  29.983  1.00  0.00     0.010 A 
ATOM     47  C   UNL A   1      38.382  31.618  31.438  1.00  0.00    -0.014 A 
BRANCH  47  48
ATOM     48  C   UNL A   1      39.715  32.408  32.507  1.00  0.00     0.031 A 
ATOM     49  C   UNL A   1      39.307  33.115  34.375  1.00  0.00     0.074 A 
ATOM     50  C   UNL A   1      40.890  32.563  31.708  1.00  0.00     0.049 A 
ATOM     51  N   UNL A   1      39.963  33.921  35.236  1.00  0.00    -0.248 NA
ATOM     52  C   UNL A   1      37.777  33.332  35.151  1.00  0.00     0.031 C 
ATOM     53  C   UNL A   1      42.298  32.321  32.048  1.00  0.00     0.029 A 
ATOM     54  N   UNL A   1      41.139  33.406  30.597  1.00  0.00    -0.354 N 
ATOM     55  C   UNL A   1      39.351  34.150  36.436  1.00  0.00     0.074 A 
ATOM     56  C   UNL A   1      37.979  34.114  36.186  1.00  0.00     0.031 C 
ATOM     57  C   UNL A   1      43.154  33.235  31.587  1.00  0.00     0.029 A 
ATOM     58  C   UNL A   1      42.386  34.120  30.764  1.00  0.00     0.049 A 
ATOM     59  H   UNL A   1      40.544  33.494  29.818  1.00  0.00     0.167 HD
ATOM     60  C   UNL A   1      40.028  34.301  37.597  1.00  0.00     0.034 A 
ATOM     61  C   UNL A   1      43.092  35.025  30.031  1.00  0.00     0.034 A 
ATOM     62  C   UNL A   1      41.419  34.960  37.352  1.00  0.00     0.049 A 
ATOM     63  C   UNL A   1      43.788  36.164  30.914  1.00  0.00     0.074 A 
ATOM     64  C   UNL A   1      43.002  35.265  38.142  1.00  0.00     0.029 A 
ATOM     65  N   UNL A   1      41.453  36.000  35.804  1.00  0.00    -0.354 N 
ATOM     66  N   UNL A   1      43.732  36.198  32.230  1.00  0.00    -0.248 NA
ATOM     67  C   UNL A   1      44.536  37.350  30.493  1.00  0.00     0.031 C 
ATOM     68  C   UNL A   1      44.054  36.641  37.178  1.00  0.00     0.029 A 
ATOM     69  C   UNL A   1      43.139  37.101  35.636  1.00  0.00     0.049 A 
ATOM     70  H   UNL A   1      40.727  36.011  35.139  1.00  0.00     0.167 HD
ATOM     71  C   UNL A   1      44.136  37.431  32.862  1.00  0.00     0.074 A 
ATOM     72  C   UNL A   1      44.757  38.031  31.654  1.00  0.00     0.031 C 
ATOM     73  C   UNL A   1      43.836  37.939  34.240  1.00  0.00     0.034 A 
BRANCH  60  74
ATOM     74  C   UNL A   1      39.217  34.031  38.940  1.00  0.00     0.023 A 
ATOM     75  C   UNL A   1      39.489  34.871  40.018  1.00  0.00     0.012 A 
ATOM     76  C   UNL A   1      38.124  33.107  39.206  1.00  0.00     0.148 A 
ATOM     77  C   UNL A   1      38.560  35.075  41.059  1.00  0.00     0.002 A 
ATOM     78  C   UNL A   1      37.188  33.309  40.236  1.00  0.00     0.091 A 
ATOM     79  F   UNL A   1      38.029  31.937  38.567  1.00  0.00    -0.205 F 
ATOM     80  C   UNL A   1      37.370  34.358  41.121  1.00  0.00     0.022 A 
BRANCH  78  81
ATOM     81  S   UNL A   1      35.708  32.286  40.494  1.00  0.00     0.127 S 
ATOM     82  O   UNL A   1      36.289  30.988  40.841  1.00  0.00    -0.237 OA
ATOM     83  O   UNL A   1      35.044  32.966  41.607  1.00  0.00    -0.237 OA
ATOM     84  O   UNL A   1      34.963  32.312  39.242  1.00  0.00    -0.744 OA
ENDBRANCH  78  81
ENDBRANCH  60  74
BRANCH  61  85
ATOM     85  C   UNL A   1      42.743  34.768  28.573  1.00  0.00     0.023 A 
ATOM     86  C   UNL A   1      42.222  35.921  27.881  1.00  0.00     0.012 A 
ATOM     87  C   UNL A   1      43.649  33.968  27.848  1.00  0.00     0.148 A 
ATOM     88  C   UNL A   1      42.795  36.392  26.679  1.00  0.00     0.002 A 
ATOM     89  C   UNL A   1      44.222  34.448  26.653  1.00  0.00     0.091 A 
ATOM     90  F   UNL A   1      44.119  32.863  28.442  1.00  0.00    -0.205 F 
ATOM     91  C   UNL A   1      43.839  35.682  26.094  1.00  0.00     0.022 A 
BRANCH  89  92
ATOM     92  S   UNL A   1      45.666  33.602  25.980  1.00  0.00     0.127 S 
ATOM     93  O   UNL A   1      46.045  34.485  24.884  1.00  0.00    -0.237 OA
ATOM     94  O   UNL A   1      46.601  33.593  27.107  1.00  0.00    -0.237 OA
ATOM     95  O   UNL A   1      45.149  32.287  25.625  1.00  0.00    -0.744 OA
ENDBRANCH  89  92
ENDBRANCH  61  85
BRANCH  73  96
ATOM     96  C   UNL A   1      43.789  39.500  34.433  1.00  0.00     0.023 A 
ATOM     97  C   UNL A   1      44.558  40.117  35.446  1.00  0.00     0.012 A 
ATOM     98  C   UNL A   1      43.280  40.380  33.436  1.00  0.00     0.148 A 
ATOM     99  C   UNL A   1      44.795  41.493  35.505  1.00  0.00     0.002 A 
ATOM    100  C   UNL A   1      43.632  41.738  33.423  1.00  0.00     0.091 A 
ATOM    101  F   UNL A   1      42.473  39.908  32.481  1.00  0.00    -0.205 F 
ATOM    102  C   UNL A   1      44.367  42.297  34.470  1.00  0.00     0.022 A 
BRANCH 100 103
ATOM    103  S   UNL A   1      43.393  42.824  31.999  1.00  0.00     0.127 S 
ATOM    104  O   UNL A   1      43.530  44.149  32.597  1.00  0.00    -0.237 OA
ATOM    105  O   UNL A   1      44.504  42.433  31.127  1.00  0.00    -0.237 OA
ATOM    106  O   UNL A   1      42.082  42.511  31.462  1.00  0.00    -0.744 OA
ENDBRANCH 100 103
ENDBRANCH  73  96
ENDBRANCH  47  48
ENDBRANCH  40  42
ENDBRANCH  39  40
ENDBRANCH  38  39
ENDBRANCH  37  38
ENDBRANCH  36  37
ENDBRANCH  35  36
ENDBRANCH  34  35
ENDBRANCH  33  34
ENDBRANCH   1  33
TORSDOF 27
ENDMDL
MODEL 2
REMARK VINA RESULT:     -10.4      4.849     13.858
REMARK SMILES Cc1ccc(C(=O)N2CCCC[C@@H]2C(=O)OCCOCCOCCOCCOC(=O)c2ccc(-c3c4nc(c(-c5cccc(S(=O)(=O)[O-])c5F)c5ccc([nH]5)c(-c5cccc(S(=O)(=O)[O-])c5F)c5nc(c(-c6cccc(S(=O)(=O)[O-])c6F)c6ccc3[nH]6)C=C5)C=C4)cc2)cc1S(=O)(=O)N1CCCCC1
REMARK SMILES IDX 21 1 20 2 19 3 18 4 17 5 16 6 14 7 15 8 13 9 8 10 9 11 10 12
REMARK SMILES IDX 12 13 11 14 6 15 7 16 5 17 1 18 2 19 3 20 95 21 4 22 94 23
REMARK SMILES IDX 96 24 97 25 98 26 99 27 100 28 104 29 101 30 103 31 102 32
REMARK SMILES IDX 22 33 23 34 24 35 25 36 26 37 27 38 28 39 29 40 30 41 31 42
REMARK SMILES IDX 32 43 93 44 33 45 92 46 34 47 35 48 36 49 86 50 37 51 91 52
REMARK SMILES IDX 85 53 87 54 38 55 90 56 84 57 83 58 39 60 71 61 51 62 70 63
REMARK SMILES IDX 52 64 55 65 69 66 88 67 53 68 54 69 68 71 89 72 56 73 40 74
REMARK SMILES IDX 41 75 49 76 42 77 44 78 50 79 43 80 45 81 46 82 47 83 48 84
REMARK SMILES IDX 72 85 73 86 81 87 74 88 76 89 82 90 75 91 77 92 78 93 79 94
REMARK SMILES IDX 80 95 57 96 58 97 66 98 59 99 61 100 67 101 60 102 62 103
REMARK SMILES IDX 63 104 64 105 65 106
REMARK H PARENT 87 59 55 70
REMARK Flexibility Score: inf
ROOT
ATOM      1  C   UNL A   1      42.124  35.703  28.789  1.00  0.00     0.188 C 
ENDROOT
BRANCH   1   2
ATOM      2  C   UNL A   1      43.377  34.500  29.062  1.00  0.00     0.188 C 
BRANCH   2   3
ATOM      3  O   UNL A   1      43.906  32.965  28.209  1.00  0.00    -0.376 OA
BRANCH   3   4
ATOM      4  C   UNL A   1      44.261  31.295  28.804  1.00  0.00     0.202 C 
BRANCH   4   5
ATOM      5  C   UNL A   1      42.956  30.153  29.448  1.00  0.00     0.261 C 
BRANCH   5   6
ATOM      6  O   UNL A   1      41.162  30.480  29.562  1.00  0.00    -0.462 OA
BRANCH   6   7
ATOM      7  C   UNL A   1      40.071  31.384  30.106  1.00  0.00     0.328 C 
ATOM      8  O   UNL A   1      39.955  32.612  29.940  1.00  0.00    -0.250 OA
BRANCH   7   9
ATOM      9  C   UNL A   1      38.845  30.856  30.985  1.00  0.00     0.195 C 
ATOM     10  N   UNL A   1      37.579  30.446  30.433  1.00  0.00    -0.325 N 
ATOM     11  C   UNL A   1      36.563  30.003  31.387  1.00  0.00     0.121 C 
ATOM     12  C   UNL A   1      36.126  31.156  32.243  1.00  0.00     0.022 C 
ATOM     13  C   UNL A   1      38.638  31.730  32.302  1.00  0.00     0.037 C 
ATOM     14  C   UNL A   1      37.304  31.640  33.063  1.00  0.00     0.005 C 
BRANCH  10  15
ATOM     15  C   UNL A   1      37.504  29.876  29.173  1.00  0.00     0.254 C 
ATOM     16  O   UNL A   1      38.416  29.113  28.843  1.00  0.00    -0.269 OA
BRANCH  15  17
ATOM     17  C   UNL A   1      36.528  30.505  28.175  1.00  0.00     0.041 A 
ATOM     18  C   UNL A   1      31.603  31.665  26.942  1.00  0.00     0.046 C 
ATOM     19  C   UNL A   1      32.953  31.148  27.297  1.00  0.00    -0.031 A 
ATOM     20  C   UNL A   1      34.051  32.373  27.681  1.00  0.00     0.005 A 
ATOM     21  C   UNL A   1      33.571  29.491  27.244  1.00  0.00     0.086 A 
ATOM     22  C   UNL A   1      35.720  32.088  28.057  1.00  0.00     0.014 A 
ATOM     23  C   UNL A   1      35.592  29.199  27.678  1.00  0.00     0.035 A 
BRANCH  21  24
ATOM     24  S   UNL A   1      32.128  28.223  26.596  1.00  0.00     0.243 S 
ATOM     25  O   UNL A   1      31.177  27.822  27.624  1.00  0.00    -0.207 OA
ATOM     26  O   UNL A   1      31.574  28.814  25.395  1.00  0.00    -0.207 OA
BRANCH  24  27
ATOM     27  N   UNL A   1      32.912  26.767  26.246  1.00  0.00    -0.198 NA
ATOM     28  C   UNL A   1      33.818  26.916  25.109  1.00  0.00     0.102 C 
ATOM     29  C   UNL A   1      32.287  25.475  26.573  1.00  0.00     0.102 C 
ATOM     30  C   UNL A   1      34.206  25.621  24.447  1.00  0.00     0.017 C 
ATOM     31  C   UNL A   1      33.003  24.228  26.067  1.00  0.00     0.017 C 
ATOM     32  C   UNL A   1      34.360  24.514  25.468  1.00  0.00     0.003 C 
ENDBRANCH  24  27
ENDBRANCH  21  24
ENDBRANCH  15  17
ENDBRANCH  10  15
ENDBRANCH   7   9
ENDBRANCH   6   7
ENDBRANCH   5   6
ENDBRANCH   4   5
ENDBRANCH   3   4
ENDBRANCH   2   3
ENDBRANCH   1   2
BRANCH   1  33
ATOM     33  O   UNL A   1      41.842  36.872  27.982  1.00  0.00    -0.377 OA
BRANCH  33  34
ATOM     34  C   UNL A   1      42.420  37.316  26.761  1.00  0.00     0.188 C 
BRANCH  34  35
ATOM     35  C   UNL A   1      43.058  38.655  26.848  1.00  0.00     0.188 C 
BRANCH  35  36
ATOM     36  O   UNL A   1      42.084  39.482  27.437  1.00  0.00    -0.376 OA
BRANCH  36  37
ATOM     37  C   UNL A   1      42.508  40.326  28.468  1.00  0.00     0.202 C 
BRANCH  37  38
ATOM     38  C   UNL A   1      43.837  39.790  28.967  1.00  0.00     0.261 C 
BRANCH  38  39
ATOM     39  O   UNL A   1      43.625  39.025  30.193  1.00  0.00    -0.460 OA
BRANCH  39  40
ATOM     40  C   UNL A   1      44.016  39.607  31.388  1.00  0.00     0.338 C 
ATOM     41  O   UNL A   1      44.108  40.813  31.549  1.00  0.00    -0.246 OA
BRANCH  40  42
ATOM     42  C   UNL A   1      44.544  38.575  32.365  1.00  0.00     0.060 A 
ATOM     43  C   UNL A   1      45.916  38.480  32.720  1.00  0.00     0.016 A 
ATOM     44  C   UNL A   1      43.872  37.411  32.332  1.00  0.00     0.016 A 
ATOM     45  C   UNL A   1      46.724  37.291  32.483  1.00  0.00     0.010 A 
ATOM     46  C   UNL A   1      44.676  36.332  32.019  1.00  0.00     0.010 A 
ATOM     47  C   UNL A   1      46.174  36.183  31.855  1.00  0.00    -0.014 A 
BRANCH  47  48
ATOM     48  C   UNL A   1      47.085  34.716  31.106  1.00  0.00     0.031 A 
ATOM     49  C   UNL A   1      47.843  34.783  29.214  1.00  0.00     0.074 A 
ATOM     50  C   UNL A   1      46.952  33.607  31.997  1.00  0.00     0.049 A 
ATOM     51  N   UNL A   1      48.300  33.848  28.354  1.00  0.00    -0.248 NA
ATOM     52  C   UNL A   1      47.600  35.971  27.981  1.00  0.00     0.031 C 
ATOM     53  C   UNL A   1      47.946  32.613  32.419  1.00  0.00     0.029 A 
ATOM     54  N   UNL A   1      45.810  32.846  32.349  1.00  0.00    -0.354 N 
ATOM     55  C   UNL A   1      48.756  34.306  27.150  1.00  0.00     0.074 A 
ATOM     56  C   UNL A   1      47.994  35.434  26.849  1.00  0.00     0.031 C 
ATOM     57  C   UNL A   1      47.494  31.360  32.492  1.00  0.00     0.029 A 
ATOM     58  C   UNL A   1      46.085  31.430  32.247  1.00  0.00     0.049 A 
ATOM     59  H   UNL A   1      44.946  33.230  32.625  1.00  0.00     0.167 HD
ATOM     60  C   UNL A   1      49.794  33.746  26.489  1.00  0.00     0.034 A 
ATOM     61  C   UNL A   1      45.378  30.286  32.462  1.00  0.00     0.034 A 
ATOM     62  C   UNL A   1      49.871  32.214  26.762  1.00  0.00     0.049 A 
ATOM     63  C   UNL A   1      45.686  29.132  31.397  1.00  0.00     0.074 A 
ATOM     64  C   UNL A   1      50.963  30.797  26.596  1.00  0.00     0.029 A 
ATOM     65  N   UNL A   1      48.217  31.487  27.222  1.00  0.00    -0.354 N 
ATOM     66  N   UNL A   1      46.576  29.251  30.434  1.00  0.00    -0.248 NA
ATOM     67  C   UNL A   1      45.065  27.815  31.237  1.00  0.00     0.031 C 
ATOM     68  C   UNL A   1      49.986  29.086  26.810  1.00  0.00     0.029 A 
ATOM     69  C   UNL A   1      48.236  29.467  27.276  1.00  0.00     0.049 A 
ATOM     70  H   UNL A   1      47.419  32.030  27.417  1.00  0.00     0.167 HD
ATOM     71  C   UNL A   1      46.525  28.265  29.380  1.00  0.00     0.074 A 
ATOM     72  C   UNL A   1      45.611  27.330  30.084  1.00  0.00     0.031 C 
ATOM     73  C   UNL A   1      47.091  28.321  27.993  1.00  0.00     0.034 A 
BRANCH  60  74
ATOM     74  C   UNL A   1      50.539  34.660  25.419  1.00  0.00     0.023 A 
ATOM     75  C   UNL A   1      50.209  36.014  25.410  1.00  0.00     0.012 A 
ATOM     76  C   UNL A   1      51.622  34.337  24.502  1.00  0.00     0.148 A 
ATOM     77  C   UNL A   1      51.084  36.993  24.895  1.00  0.00     0.002 A 
ATOM     78  C   UNL A   1      52.506  35.306  23.993  1.00  0.00     0.091 A 
ATOM     79  F   UNL A   1      51.755  33.112  23.984  1.00  0.00    -0.205 F 
ATOM     80  C   UNL A   1      52.273  36.644  24.265  1.00  0.00     0.022 A 
BRANCH  78  81
ATOM     81  S   UNL A   1      53.976  34.932  22.992  1.00  0.00     0.127 S 
ATOM     82  O   UNL A   1      53.385  34.379  21.774  1.00  0.00    -0.237 OA
ATOM     83  O   UNL A   1      54.587  36.251  22.823  1.00  0.00    -0.237 OA
ATOM     84  O   UNL A   1      54.777  33.994  23.769  1.00  0.00    -0.744 OA
ENDBRANCH  78  81
ENDBRANCH  60  74
BRANCH  61  85
ATOM     85  C   UNL A   1      44.332  30.614  33.515  1.00  0.00     0.023 A 
ATOM     86  C   UNL A   1      42.993  30.740  32.994  1.00  0.00     0.012 A 
ATOM     87  C   UNL A   1      44.455  29.942  34.748  1.00  0.00     0.148 A 
ATOM     88  C   UNL A   1      41.915  29.990  33.517  1.00  0.00     0.002 A 
ATOM     89  C   UNL A   1      43.378  29.191  35.259  1.00  0.00     0.091 A 
ATOM     90  F   UNL A   1      45.679  29.847  35.286  1.00  0.00    -0.205 F 
ATOM     91  C   UNL A   1      42.125  29.167  34.619  1.00  0.00     0.022 A 
BRANCH  89  92
ATOM     92  S   UNL A   1      43.691  28.021  36.596  1.00  0.00     0.127 S 
ATOM     93  O   UNL A   1      44.720  27.169  36.011  1.00  0.00    -0.237 OA
ATOM     94  O   UNL A   1      44.157  28.879  37.686  1.00  0.00    -0.237 OA
ATOM     95  O   UNL A   1      42.385  27.419  36.828  1.00  0.00    -0.744 OA
ENDBRANCH  89  92
ENDBRANCH  61  85
BRANCH  73  96
ATOM     96  C   UNL A   1      46.349  27.489  26.884  1.00  0.00     0.023 A 
ATOM     97  C   UNL A   1      46.815  26.203  26.525  1.00  0.00     0.012 A 
ATOM     98  C   UNL A   1      45.031  27.802  26.444  1.00  0.00     0.148 A 
ATOM     99  C   UNL A   1      46.067  25.294  25.772  1.00  0.00     0.002 A 
ATOM    100  C   UNL A   1      44.235  26.839  25.806  1.00  0.00     0.091 A 
ATOM    101  F   UNL A   1      44.530  29.022  26.660  1.00  0.00    -0.205 F 
ATOM    102  C   UNL A   1      44.762  25.596  25.448  1.00  0.00     0.022 A 
BRANCH 100 103
ATOM    103  S   UNL A   1      42.447  26.994  25.595  1.00  0.00     0.127 S 
ATOM    104  O   UNL A   1      42.348  28.034  24.573  1.00  0.00    -0.237 OA
ATOM    105  O   UNL A   1      42.076  25.654  25.134  1.00  0.00    -0.237 OA
ATOM    106  O   UNL A   1      41.911  27.342  26.897  1.00  0.00    -0.744 OA
ENDBRANCH 100 103
ENDBRANCH  73  96
ENDBRANCH  47  48
ENDBRANCH  40  42
ENDBRANCH  39  40
ENDBRANCH  38  39
ENDBRANCH  37  38
ENDBRANCH  36  37
ENDBRANCH  35  36
ENDBRANCH  34  35
ENDBRANCH  33  34
ENDBRANCH   1  33
TORSDOF 27
ENDMDL
MODEL 3
REMARK VINA RESULT:      -9.8      2.376      3.824
REMARK SMILES Cc1ccc(C(=O)N2CCCC[C@@H]2C(=O)OCCOCCOCCOCCOC(=O)c2ccc(-c3c4nc(c(-c5cccc(S(=O)(=O)[O-])c5F)c5ccc([nH]5)c(-c5cccc(S(=O)(=O)[O-])c5F)c5nc(c(-c6cccc(S(=O)(=O)[O-])c6F)c6ccc3[nH]6)C=C5)C=C4)cc2)cc1S(=O)(=O)N1CCCCC1
REMARK SMILES IDX 21 1 20 2 19 3 18 4 17 5 16 6 14 7 15 8 13 9 8 10 9 11 10 12
REMARK SMILES IDX 12 13 11 14 6 15 7 16 5 17 1 18 2 19 3 20 95 21 4 22 94 23
REMARK SMILES IDX 96 24 97 25 98 26 99 27 100 28 104 29 101 30 103 31 102 32
REMARK SMILES IDX 22 33 23 34 24 35 25 36 26 37 27 38 28 39 29 40 30 41 31 42
REMARK SMILES IDX 32 43 93 44 33 45 92 46 34 47 35 48 36 49 86 50 37 51 91 52
REMARK SMILES IDX 85 53 87 54 38 55 90 56 84 57 83 58 39 60 71 61 51 62 70 63
REMARK SMILES IDX 52 64 55 65 69 66 88 67 53 68 54 69 68 71 89 72 56 73 40 74
REMARK SMILES IDX 41 75 49 76 42 77 44 78 50 79 43 80 45 81 46 82 47 83 48 84
REMARK SMILES IDX 72 85 73 86 81 87 74 88 76 89 82 90 75 91 77 92 78 93 79 94
REMARK SMILES IDX 80 95 57 96 58 97 66 98 59 99 61 100 67 101 60 102 62 103
REMARK SMILES IDX 63 104 64 105 65 106
REMARK H PARENT 87 59 55 70
REMARK Flexibility Score: inf
ROOT
ATOM      1  C   UNL A   1      34.255  24.744  25.860  1.00  0.00     0.188 C 
ENDROOT
BRANCH   1   2
ATOM      2  C   UNL A   1      35.664  24.225  24.946  1.00  0.00     0.188 C 
BRANCH   2   3
ATOM      3  O   UNL A   1      37.237  23.379  25.360  1.00  0.00    -0.376 OA
BRANCH   3   4
ATOM      4  C   UNL A   1      38.512  23.704  26.601  1.00  0.00     0.202 C 
BRANCH   4   5
ATOM      5  C   UNL A   1      39.836  24.976  26.381  1.00  0.00     0.261 C 
BRANCH   5   6
ATOM      6  O   UNL A   1      40.189  26.401  27.469  1.00  0.00    -0.462 OA
BRANCH   6   7
ATOM      7  C   UNL A   1      40.988  27.676  27.669  1.00  0.00     0.328 C 
ATOM      8  O   UNL A   1      41.174  28.587  26.842  1.00  0.00    -0.250 OA
BRANCH   7   9
ATOM      9  C   UNL A   1      41.711  28.057  29.042  1.00  0.00     0.195 C 
ATOM     10  N   UNL A   1      42.545  27.150  29.789  1.00  0.00    -0.325 N 
ATOM     11  C   UNL A   1      43.117  27.663  31.033  1.00  0.00     0.121 C 
ATOM     12  C   UNL A   1      42.026  27.915  32.033  1.00  0.00     0.022 C 
ATOM     13  C   UNL A   1      40.750  28.879  30.012  1.00  0.00     0.037 C 
ATOM     14  C   UNL A   1      41.108  28.996  31.503  1.00  0.00     0.005 C 
BRANCH  10  15
ATOM     15  C   UNL A   1      43.292  26.177  29.145  1.00  0.00     0.254 C 
ATOM     16  O   UNL A   1      43.578  25.165  29.792  1.00  0.00    -0.269 OA
BRANCH  15  17
ATOM     17  C   UNL A   1      44.004  26.579  27.851  1.00  0.00     0.041 A 
ATOM     18  C   UNL A   1      47.908  25.735  24.508  1.00  0.00     0.046 C 
ATOM     19  C   UNL A   1      46.929  26.007  25.597  1.00  0.00    -0.031 A 
ATOM     20  C   UNL A   1      45.333  25.685  25.148  1.00  0.00     0.005 A 
ATOM     21  C   UNL A   1      47.196  26.718  27.195  1.00  0.00     0.086 A 
ATOM     22  C   UNL A   1      43.965  25.978  26.174  1.00  0.00     0.014 A 
ATOM     23  C   UNL A   1      45.518  27.078  28.384  1.00  0.00     0.035 A 
BRANCH  21  24
ATOM     24  S   UNL A   1      49.156  27.176  27.443  1.00  0.00     0.243 S 
ATOM     25  O   UNL A   1      50.071  26.106  27.072  1.00  0.00    -0.207 OA
ATOM     26  O   UNL A   1      49.360  28.457  26.800  1.00  0.00    -0.207 OA
BRANCH  24  27
ATOM     27  N   UNL A   1      49.398  27.292  29.111  1.00  0.00    -0.198 NA
ATOM     28  C   UNL A   1      50.620  26.602  29.517  1.00  0.00     0.102 C 
ATOM     29  C   UNL A   1      48.259  27.452  30.031  1.00  0.00     0.102 C 
ATOM     30  C   UNL A   1      50.688  26.262  30.982  1.00  0.00     0.017 C 
ATOM     31  C   UNL A   1      48.574  27.381  31.520  1.00  0.00     0.017 C 
ATOM     32  C   UNL A   1      50.054  27.351  31.821  1.00  0.00     0.003 C 
ENDBRANCH  24  27
ENDBRANCH  21  24
ENDBRANCH  15  17
ENDBRANCH  10  15
ENDBRANCH   7   9
ENDBRANCH   6   7
ENDBRANCH   5   6
ENDBRANCH   4   5
ENDBRANCH   3   4
ENDBRANCH   2   3
ENDBRANCH   1   2
BRANCH   1  33
ATOM     33  O   UNL A   1      33.212  25.750  25.847  1.00  0.00    -0.377 OA
BRANCH  33  34
ATOM     34  C   UNL A   1      33.005  26.859  24.982  1.00  0.00     0.188 C 
BRANCH  34  35
ATOM     35  C   UNL A   1      33.806  28.059  25.339  1.00  0.00     0.188 C 
BRANCH  35  36
ATOM     36  O   UNL A   1      33.140  28.624  26.441  1.00  0.00    -0.376 OA
BRANCH  36  37
ATOM     37  C   UNL A   1      33.925  29.303  27.378  1.00  0.00     0.202 C 
BRANCH  37  38
ATOM     38  C   UNL A   1      33.617  30.782  27.232  1.00  0.00     0.261 C 
BRANCH  38  39
ATOM     39  O   UNL A   1      34.054  31.491  28.431  1.00  0.00    -0.460 OA
BRANCH  39  40
ATOM     40  C   UNL A   1      35.335  32.021  28.432  1.00  0.00     0.338 C 
ATOM     41  O   UNL A   1      35.651  33.014  27.798  1.00  0.00    -0.246 OA
BRANCH  40  42
ATOM     42  C   UNL A   1      36.325  31.088  29.102  1.00  0.00     0.060 A 
ATOM     43  C   UNL A   1      36.224  30.707  30.466  1.00  0.00     0.016 A 
ATOM     44  C   UNL A   1      37.576  31.199  28.622  1.00  0.00     0.016 A 
ATOM     45  C   UNL A   1      37.256  30.988  31.455  1.00  0.00     0.010 A 
ATOM     46  C   UNL A   1      38.496  31.549  29.591  1.00  0.00     0.010 A 
ATOM     47  C   UNL A   1      38.399  31.686  31.096  1.00  0.00    -0.014 A 
BRANCH  47  48
ATOM     48  C   UNL A   1      39.661  32.492  32.238  1.00  0.00     0.031 A 
ATOM     49  C   UNL A   1      39.124  33.263  34.048  1.00  0.00     0.074 A 
ATOM     50  C   UNL A   1      40.895  32.604  31.528  1.00  0.00     0.049 A 
ATOM     51  N   UNL A   1      39.727  34.087  34.931  1.00  0.00    -0.248 NA
ATOM     52  C   UNL A   1      37.543  33.527  34.698  1.00  0.00     0.031 C 
ATOM     53  C   UNL A   1      42.269  32.353  31.981  1.00  0.00     0.029 A 
ATOM     54  N   UNL A   1      41.242  33.407  30.414  1.00  0.00    -0.354 N 
ATOM     55  C   UNL A   1      39.029  34.363  36.073  1.00  0.00     0.074 A 
ATOM     56  C   UNL A   1      37.680  34.339  35.721  1.00  0.00     0.031 C 
ATOM     57  C   UNL A   1      43.173  33.239  31.559  1.00  0.00     0.029 A 
ATOM     58  C   UNL A   1      42.484  34.108  30.653  1.00  0.00     0.049 A 
ATOM     59  H   UNL A   1      40.709  33.479  29.589  1.00  0.00     0.167 HD
ATOM     60  C   UNL A   1      39.618  34.542  37.277  1.00  0.00     0.034 A 
ATOM     61  C   UNL A   1      43.259  34.979  29.948  1.00  0.00     0.034 A 
ATOM     62  C   UNL A   1      41.034  35.172  37.119  1.00  0.00     0.049 A 
ATOM     63  C   UNL A   1      43.905  36.136  30.847  1.00  0.00     0.074 A 
ATOM     64  C   UNL A   1      42.558  35.480  38.018  1.00  0.00     0.029 A 
ATOM     65  N   UNL A   1      41.203  36.161  35.547  1.00  0.00    -0.354 N 
ATOM     66  N   UNL A   1      43.750  36.212  32.152  1.00  0.00    -0.248 NA
ATOM     67  C   UNL A   1      44.703  37.296  30.447  1.00  0.00     0.031 C 
ATOM     68  C   UNL A   1      43.703  36.808  37.095  1.00  0.00     0.029 A 
ATOM     69  C   UNL A   1      42.916  37.233  35.475  1.00  0.00     0.049 A 
ATOM     70  H   UNL A   1      40.530  36.161  34.829  1.00  0.00     0.167 HD
ATOM     71  C   UNL A   1      44.126  37.460  32.775  1.00  0.00     0.074 A 
ATOM     72  C   UNL A   1      44.846  38.012  31.601  1.00  0.00     0.031 C 
ATOM     73  C   UNL A   1      43.730  38.016  34.110  1.00  0.00     0.034 A 
BRANCH  60  74
ATOM     74  C   UNL A   1      38.704  34.326  38.562  1.00  0.00     0.023 A 
ATOM     75  C   UNL A   1      37.653  33.420  38.440  1.00  0.00     0.012 A 
ATOM     76  C   UNL A   1      38.854  34.838  39.916  1.00  0.00     0.148 A 
ATOM     77  C   UNL A   1      37.086  32.778  39.562  1.00  0.00     0.002 A 
ATOM     78  C   UNL A   1      38.301  34.198  41.040  1.00  0.00     0.091 A 
ATOM     79  F   UNL A   1      39.416  36.028  40.154  1.00  0.00    -0.205 F 
ATOM     80  C   UNL A   1      37.472  33.104  40.856  1.00  0.00     0.022 A 
BRANCH  78  81
ATOM     81  S   UNL A   1      38.608  34.695  42.762  1.00  0.00     0.127 S 
ATOM     82  O   UNL A   1      39.694  35.664  42.611  1.00  0.00    -0.237 OA
ATOM     83  O   UNL A   1      37.326  35.281  43.154  1.00  0.00    -0.237 OA
ATOM     84  O   UNL A   1      38.962  33.481  43.486  1.00  0.00    -0.744 OA
ENDBRANCH  78  81
ENDBRANCH  60  74
BRANCH  61  85
ATOM     85  C   UNL A   1      43.017  34.681  28.477  1.00  0.00     0.023 A 
ATOM     86  C   UNL A   1      42.577  35.821  27.711  1.00  0.00     0.012 A 
ATOM     87  C   UNL A   1      43.958  33.840  27.849  1.00  0.00     0.148 A 
ATOM     88  C   UNL A   1      43.251  36.239  26.542  1.00  0.00     0.002 A 
ATOM     89  C   UNL A   1      44.631  34.268  26.688  1.00  0.00     0.091 A 
ATOM     90  F   UNL A   1      44.356  32.745  28.513  1.00  0.00    -0.205 F 
ATOM     91  C   UNL A   1      44.321  35.489  26.063  1.00  0.00     0.022 A 
BRANCH  89  92
ATOM     92  S   UNL A   1      46.104  33.371  26.156  1.00  0.00     0.127 S 
ATOM     93  O   UNL A   1      45.522  32.201  25.510  1.00  0.00    -0.237 OA
ATOM     94  O   UNL A   1      46.754  34.312  25.242  1.00  0.00    -0.237 OA
ATOM     95  O   UNL A   1      46.830  33.151  27.400  1.00  0.00    -0.744 OA
ENDBRANCH  89  92
ENDBRANCH  61  85
BRANCH  73  96
ATOM     96  C   UNL A   1      43.695  39.582  34.251  1.00  0.00     0.023 A 
ATOM     97  C   UNL A   1      44.347  40.216  35.333  1.00  0.00     0.012 A 
ATOM     98  C   UNL A   1      43.331  40.440  33.174  1.00  0.00     0.148 A 
ATOM     99  C   UNL A   1      44.606  41.589  35.380  1.00  0.00     0.002 A 
ATOM    100  C   UNL A   1      43.713  41.790  33.166  1.00  0.00     0.091 A 
ATOM    101  F   UNL A   1      42.636  39.953  32.141  1.00  0.00    -0.205 F 
ATOM    102  C   UNL A   1      44.326  42.368  34.278  1.00  0.00     0.022 A 
BRANCH 100 103
ATOM    103  S   UNL A   1      43.674  42.835  31.692  1.00  0.00     0.127 S 
ATOM    104  O   UNL A   1      42.275  43.254  31.650  1.00  0.00    -0.237 OA
ATOM    105  O   UNL A   1      44.616  43.899  32.048  1.00  0.00    -0.237 OA
ATOM    106  O   UNL A   1      44.112  42.001  30.588  1.00  0.00    -0.744 OA
ENDBRANCH 100 103
ENDBRANCH  73  96
ENDBRANCH  47  48
ENDBRANCH  40  42
ENDBRANCH  39  40
ENDBRANCH  38  39
ENDBRANCH  37  38
ENDBRANCH  36  37
ENDBRANCH  35  36
ENDBRANCH  34  35
ENDBRANCH  33  34
ENDBRANCH   1  33
TORSDOF 27
ENDMDL
