MODEL 1
REMARK VINA RESULT:     -10.5      0.000      0.000
REMARK SMILES O=C(OCCOCCOCCOCCOC(=O)[C@H]1CCCCN1c1ccnc2ccccc12)c1ccc(-c2c3nc(c(-c4cccc(S(=O)(=O)[O-])c4F)c4ccc([nH]4)c(-c4cccc(S(=O)(=O)[O-])c4F)c4nc(c(-c5cccc(S(=O)(=O)[O-])c5F)c5ccc2[nH]5)C=C4)C=C3)cc1
REMARK SMILES IDX 8 1 7 2 6 3 5 4 4 5 3 6 2 7 1 8 34 9 35 10 96 11 36 12 95 13
REMARK SMILES IDX 37 14 38 15 39 16 89 17 40 18 94 19 88 20 90 21 41 22 93 23
REMARK SMILES IDX 87 24 86 25 42 27 74 28 54 29 73 30 55 31 58 32 72 33 91 34
REMARK SMILES IDX 56 35 57 36 71 38 92 39 59 40 43 41 44 42 52 43 45 44 47 45
REMARK SMILES IDX 53 46 46 47 48 48 49 49 50 50 51 51 75 52 76 53 84 54 77 55
REMARK SMILES IDX 79 56 85 57 78 58 80 59 81 60 82 61 83 62 60 63 61 64 69 65
REMARK SMILES IDX 62 66 64 67 70 68 63 69 65 70 66 71 67 72 68 73 9 74 10 75
REMARK SMILES IDX 11 76 12 77 13 78 14 79 15 80 16 81 17 82 18 83 19 84 23 85
REMARK SMILES IDX 20 86 22 87 21 88 24 89 25 90 33 91 26 92 28 93 32 94 27 95
REMARK SMILES IDX 29 96 31 97 30 98
REMARK H PARENT 90 26 58 37
REMARK Flexibility Score: inf
ROOT
ATOM      1  C   UNL A   1      33.640  29.853  27.185  1.00  0.00     0.188 C 
ENDROOT
BRANCH   1   2
ATOM      2  C   UNL A   1      34.706  30.823  27.696  1.00  0.00     0.188 C 
BRANCH   2   3
ATOM      3  O   UNL A   1      34.405  32.186  27.379  1.00  0.00    -0.376 OA
BRANCH   3   4
ATOM      4  C   UNL A   1      33.113  32.689  27.741  1.00  0.00     0.202 C 
BRANCH   4   5
ATOM      5  C   UNL A   1      32.881  34.197  27.634  1.00  0.00     0.261 C 
BRANCH   5   6
ATOM      6  O   UNL A   1      32.513  34.818  28.866  1.00  0.00    -0.460 OA
BRANCH   6   7
ATOM      7  C   UNL A   1      33.299  35.049  29.948  1.00  0.00     0.338 C 
ATOM      8  O   UNL A   1      33.082  36.074  30.594  1.00  0.00    -0.246 OA
BRANCH   7   9
ATOM      9  C   UNL A   1      34.503  34.220  30.315  1.00  0.00     0.060 A 
ATOM     10  C   UNL A   1      34.519  33.149  31.214  1.00  0.00     0.016 A 
ATOM     11  C   UNL A   1      35.699  34.504  29.631  1.00  0.00     0.016 A 
ATOM     12  C   UNL A   1      35.616  32.327  31.377  1.00  0.00     0.010 A 
ATOM     13  C   UNL A   1      36.856  33.764  29.879  1.00  0.00     0.010 A 
ATOM     14  C   UNL A   1      36.806  32.692  30.775  1.00  0.00    -0.014 A 
BRANCH  14  15
ATOM     15  C   UNL A   1      38.006  32.191  31.442  1.00  0.00     0.031 A 
ATOM     16  C   UNL A   1      38.741  31.098  30.728  1.00  0.00     0.074 A 
ATOM     17  C   UNL A   1      38.488  32.806  32.530  1.00  0.00     0.049 A 
ATOM     18  N   UNL A   1      39.761  30.393  31.116  1.00  0.00    -0.248 NA
ATOM     19  C   UNL A   1      38.265  30.768  29.368  1.00  0.00     0.031 C 
ATOM     20  C   UNL A   1      37.917  34.003  33.148  1.00  0.00     0.029 A 
ATOM     21  N   UNL A   1      39.566  32.499  33.308  1.00  0.00    -0.354 N 
ATOM     22  C   UNL A   1      39.993  29.486  30.090  1.00  0.00     0.074 A 
ATOM     23  C   UNL A   1      39.048  29.759  29.037  1.00  0.00     0.031 C 
ATOM     24  C   UNL A   1      38.622  34.295  34.253  1.00  0.00     0.029 A 
ATOM     25  C   UNL A   1      39.638  33.268  34.443  1.00  0.00     0.049 A 
ATOM     26  H   UNL A   1      40.222  31.800  33.079  1.00  0.00     0.167 HD
ATOM     27  C   UNL A   1      40.899  28.487  30.060  1.00  0.00     0.034 A 
ATOM     28  C   UNL A   1      40.400  33.088  35.537  1.00  0.00     0.034 A 
ATOM     29  C   UNL A   1      41.796  28.251  31.152  1.00  0.00     0.049 A 
ATOM     30  C   UNL A   1      41.345  31.916  35.532  1.00  0.00     0.074 A 
ATOM     31  C   UNL A   1      42.729  27.250  31.307  1.00  0.00     0.029 A 
ATOM     32  N   UNL A   1      41.841  29.038  32.298  1.00  0.00    -0.354 N 
ATOM     33  N   UNL A   1      41.546  31.027  34.585  1.00  0.00    -0.248 NA
ATOM     34  C   UNL A   1      42.177  31.725  36.725  1.00  0.00     0.031 C 
ATOM     35  C   UNL A   1      43.311  27.407  32.570  1.00  0.00     0.029 A 
ATOM     36  C   UNL A   1      42.781  28.542  33.174  1.00  0.00     0.049 A 
ATOM     37  H   UNL A   1      41.283  29.832  32.459  1.00  0.00     0.167 HD
ATOM     38  C   UNL A   1      42.555  30.192  35.047  1.00  0.00     0.074 A 
ATOM     39  C   UNL A   1      42.921  30.687  36.363  1.00  0.00     0.031 C 
ATOM     40  C   UNL A   1      43.130  29.118  34.451  1.00  0.00     0.034 A 
BRANCH  27  41
ATOM     41  C   UNL A   1      40.856  27.561  28.877  1.00  0.00     0.023 A 
ATOM     42  C   UNL A   1      39.972  26.462  28.852  1.00  0.00     0.012 A 
ATOM     43  C   UNL A   1      41.765  27.737  27.816  1.00  0.00     0.148 A 
ATOM     44  C   UNL A   1      40.034  25.524  27.820  1.00  0.00     0.002 A 
ATOM     45  C   UNL A   1      41.785  26.829  26.766  1.00  0.00     0.091 A 
ATOM     46  F   UNL A   1      42.626  28.763  27.876  1.00  0.00    -0.205 F 
ATOM     47  C   UNL A   1      40.935  25.712  26.775  1.00  0.00     0.022 A 
BRANCH  45  48
ATOM     48  S   UNL A   1      42.863  27.017  25.343  1.00  0.00     0.127 S 
ATOM     49  O   UNL A   1      44.169  27.168  25.976  1.00  0.00    -0.237 OA
ATOM     50  O   UNL A   1      42.664  25.754  24.640  1.00  0.00    -0.237 OA
ATOM     51  O   UNL A   1      42.378  28.196  24.626  1.00  0.00    -0.744 OA
ENDBRANCH  45  48
ENDBRANCH  27  41
BRANCH  28  52
ATOM     52  C   UNL A   1      40.253  34.002  36.703  1.00  0.00     0.023 A 
ATOM     53  C   UNL A   1      39.172  33.844  37.588  1.00  0.00     0.012 A 
ATOM     54  C   UNL A   1      41.224  34.990  36.975  1.00  0.00     0.148 A 
ATOM     55  C   UNL A   1      39.050  34.663  38.714  1.00  0.00     0.002 A 
ATOM     56  C   UNL A   1      41.125  35.767  38.123  1.00  0.00     0.091 A 
ATOM     57  F   UNL A   1      42.241  35.133  36.115  1.00  0.00    -0.205 F 
ATOM     58  C   UNL A   1      40.029  35.615  38.987  1.00  0.00     0.022 A 
BRANCH  56  59
ATOM     59  S   UNL A   1      42.398  36.933  38.619  1.00  0.00     0.127 S 
ATOM     60  O   UNL A   1      43.220  36.118  39.509  1.00  0.00    -0.237 OA
ATOM     61  O   UNL A   1      43.019  37.264  37.337  1.00  0.00    -0.237 OA
ATOM     62  O   UNL A   1      41.695  38.042  39.255  1.00  0.00    -0.744 OA
ENDBRANCH  56  59
ENDBRANCH  28  52
BRANCH  40  63
ATOM     63  C   UNL A   1      44.265  28.455  35.174  1.00  0.00     0.023 A 
ATOM     64  C   UNL A   1      45.589  28.883  34.960  1.00  0.00     0.012 A 
ATOM     65  C   UNL A   1      43.984  27.504  36.172  1.00  0.00     0.148 A 
ATOM     66  C   UNL A   1      46.624  28.356  35.729  1.00  0.00     0.002 A 
ATOM     67  C   UNL A   1      45.011  27.032  36.973  1.00  0.00     0.091 A 
ATOM     68  F   UNL A   1      42.714  27.108  36.337  1.00  0.00    -0.205 F 
ATOM     69  C   UNL A   1      46.333  27.446  36.745  1.00  0.00     0.022 A 
BRANCH  67  70
ATOM     70  S   UNL A   1      44.709  25.961  38.382  1.00  0.00     0.127 S 
ATOM     71  O   UNL A   1      44.790  24.636  37.769  1.00  0.00    -0.237 OA
ATOM     72  O   UNL A   1      45.824  26.296  39.267  1.00  0.00    -0.237 OA
ATOM     73  O   UNL A   1      43.396  26.329  38.896  1.00  0.00    -0.744 OA
ENDBRANCH  67  70
ENDBRANCH  40  63
ENDBRANCH  14  15
ENDBRANCH   7   9
ENDBRANCH   6   7
ENDBRANCH   5   6
ENDBRANCH   4   5
ENDBRANCH   3   4
ENDBRANCH   2   3
ENDBRANCH   1   2
BRANCH   1  74
ATOM     74  O   UNL A   1      33.281  30.005  25.826  1.00  0.00    -0.377 OA
BRANCH  74  75
ATOM     75  C   UNL A   1      31.932  29.757  25.501  1.00  0.00     0.188 C 
BRANCH  75  76
ATOM     76  C   UNL A   1      31.520  28.935  24.272  1.00  0.00     0.188 C 
BRANCH  76  77
ATOM     77  O   UNL A   1      30.282  28.251  24.225  1.00  0.00    -0.376 OA
BRANCH  77  78
ATOM     78  C   UNL A   1      30.267  26.919  24.691  1.00  0.00     0.202 C 
BRANCH  78  79
ATOM     79  C   UNL A   1      29.649  25.922  23.691  1.00  0.00     0.261 C 
BRANCH  79  80
ATOM     80  O   UNL A   1      30.452  24.765  23.312  1.00  0.00    -0.462 OA
BRANCH  80  81
ATOM     81  C   UNL A   1      31.623  25.008  22.649  1.00  0.00     0.328 C 
ATOM     82  O   UNL A   1      31.660  25.669  21.613  1.00  0.00    -0.250 OA
BRANCH  81  83
ATOM     83  C   UNL A   1      32.888  24.256  23.234  1.00  0.00     0.192 C 
ATOM     84  C   UNL A   1      34.032  25.297  23.278  1.00  0.00     0.037 C 
ATOM     85  N   UNL A   1      32.810  23.535  24.590  1.00  0.00    -0.358 N 
ATOM     86  C   UNL A   1      33.887  26.232  24.476  1.00  0.00     0.005 C 
ATOM     87  C   UNL A   1      32.968  24.321  25.834  1.00  0.00     0.117 C 
ATOM     88  C   UNL A   1      34.023  25.418  25.750  1.00  0.00     0.022 C 
BRANCH  85  89
ATOM     89  C   UNL A   1      33.244  22.182  24.689  1.00  0.00     0.048 A 
ATOM     90  C   UNL A   1      32.289  21.169  24.765  1.00  0.00     0.046 A 
ATOM     91  C   UNL A   1      34.631  21.750  24.680  1.00  0.00     0.024 A 
ATOM     92  C   UNL A   1      32.695  19.851  24.895  1.00  0.00     0.114 A 
ATOM     93  C   UNL A   1      34.925  20.381  24.894  1.00  0.00     0.072 A 
ATOM     94  C   UNL A   1      35.760  22.567  24.470  1.00  0.00     0.012 A 
ATOM     95  N   UNL A   1      33.973  19.450  24.994  1.00  0.00    -0.256 NA
ATOM     96  C   UNL A   1      36.249  19.944  24.998  1.00  0.00     0.029 A 
ATOM     97  C   UNL A   1      37.086  22.115  24.526  1.00  0.00     0.001 A 
ATOM     98  C   UNL A   1      37.334  20.798  24.834  1.00  0.00     0.002 A 
ENDBRANCH  85  89
ENDBRANCH  81  83
ENDBRANCH  80  81
ENDBRANCH  79  80
ENDBRANCH  78  79
ENDBRANCH  77  78
ENDBRANCH  76  77
ENDBRANCH  75  76
ENDBRANCH  74  75
ENDBRANCH   1  74
TORSDOF 24
ENDMDL
MODEL 2
REMARK VINA RESULT:     -10.4      1.911      7.777
REMARK SMILES O=C(OCCOCCOCCOCCOC(=O)[C@H]1CCCCN1c1ccnc2ccccc12)c1ccc(-c2c3nc(c(-c4cccc(S(=O)(=O)[O-])c4F)c4ccc([nH]4)c(-c4cccc(S(=O)(=O)[O-])c4F)c4nc(c(-c5cccc(S(=O)(=O)[O-])c5F)c5ccc2[nH]5)C=C4)C=C3)cc1
REMARK SMILES IDX 8 1 7 2 6 3 5 4 4 5 3 6 2 7 1 8 34 9 35 10 96 11 36 12 95 13
REMARK SMILES IDX 37 14 38 15 39 16 89 17 40 18 94 19 88 20 90 21 41 22 93 23
REMARK SMILES IDX 87 24 86 25 42 27 74 28 54 29 73 30 55 31 58 32 72 33 91 34
REMARK SMILES IDX 56 35 57 36 71 38 92 39 59 40 43 41 44 42 52 43 45 44 47 45
REMARK SMILES IDX 53 46 46 47 48 48 49 49 50 50 51 51 75 52 76 53 84 54 77 55
REMARK SMILES IDX 79 56 85 57 78 58 80 59 81 60 82 61 83 62 60 63 61 64 69 65
REMARK SMILES IDX 62 66 64 67 70 68 63 69 65 70 66 71 67 72 68 73 9 74 10 75
REMARK SMILES IDX 11 76 12 77 13 78 14 79 15 80 16 81 17 82 18 83 19 84 23 85
REMARK SMILES IDX 20 86 22 87 21 88 24 89 25 90 33 91 26 92 28 93 32 94 27 95
REMARK SMILES IDX 29 96 31 97 30 98
REMARK H PARENT 90 26 58 37
REMARK Flexibility Score: inf
ROOT
ATOM      1  C   UNL A   1      31.451  28.878  25.745  1.00  0.00     0.188 C 
ENDROOT
BRANCH   1   2
ATOM      2  C   UNL A   1      32.035  29.781  26.833  1.00  0.00     0.188 C 
BRANCH   2   3
ATOM      3  O   UNL A   1      31.781  31.169  26.589  1.00  0.00    -0.376 OA
BRANCH   3   4
ATOM      4  C   UNL A   1      32.711  32.122  27.115  1.00  0.00     0.202 C 
BRANCH   4   5
ATOM      5  C   UNL A   1      32.191  33.525  27.430  1.00  0.00     0.261 C 
BRANCH   5   6
ATOM      6  O   UNL A   1      33.202  34.437  27.863  1.00  0.00    -0.460 OA
BRANCH   6   7
ATOM      7  C   UNL A   1      33.930  34.390  29.007  1.00  0.00     0.338 C 
ATOM      8  O   UNL A   1      33.758  35.294  29.823  1.00  0.00    -0.246 OA
BRANCH   7   9
ATOM      9  C   UNL A   1      35.032  33.396  29.270  1.00  0.00     0.060 A 
ATOM     10  C   UNL A   1      34.867  32.098  29.764  1.00  0.00     0.016 A 
ATOM     11  C   UNL A   1      36.335  33.788  28.913  1.00  0.00     0.016 A 
ATOM     12  C   UNL A   1      35.900  31.184  29.823  1.00  0.00     0.010 A 
ATOM     13  C   UNL A   1      37.415  32.920  29.088  1.00  0.00     0.010 A 
ATOM     14  C   UNL A   1      37.184  31.627  29.568  1.00  0.00    -0.014 A 
BRANCH  14  15
ATOM     15  C   UNL A   1      38.238  30.849  30.217  1.00  0.00     0.031 A 
ATOM     16  C   UNL A   1      38.443  31.120  31.676  1.00  0.00     0.074 A 
ATOM     17  C   UNL A   1      38.843  29.846  29.568  1.00  0.00     0.049 A 
ATOM     18  N   UNL A   1      39.357  30.671  32.483  1.00  0.00    -0.248 NA
ATOM     19  C   UNL A   1      37.459  32.014  32.322  1.00  0.00     0.031 C 
ATOM     20  C   UNL A   1      38.533  29.412  28.205  1.00  0.00     0.029 A 
ATOM     21  N   UNL A   1      39.850  29.018  29.973  1.00  0.00    -0.354 N 
ATOM     22  C   UNL A   1      39.109  31.290  33.701  1.00  0.00     0.074 A 
ATOM     23  C   UNL A   1      37.930  32.105  33.551  1.00  0.00     0.031 C 
ATOM     24  C   UNL A   1      39.383  28.428  27.864  1.00  0.00     0.029 A 
ATOM     25  C   UNL A   1      40.323  28.223  28.959  1.00  0.00     0.049 A 
ATOM     26  H   UNL A   1      40.198  28.993  30.894  1.00  0.00     0.167 HD
ATOM     27  C   UNL A   1      39.837  31.206  34.833  1.00  0.00     0.034 A 
ATOM     28  C   UNL A   1      41.445  27.482  28.921  1.00  0.00     0.034 A 
ATOM     29  C   UNL A   1      41.016  30.396  34.913  1.00  0.00     0.049 A 
ATOM     30  C   UNL A   1      42.300  27.466  30.160  1.00  0.00     0.074 A 
ATOM     31  C   UNL A   1      41.898  30.247  35.961  1.00  0.00     0.029 A 
ATOM     32  N   UNL A   1      41.483  29.609  33.866  1.00  0.00    -0.354 N 
ATOM     33  N   UNL A   1      42.099  28.078  31.306  1.00  0.00    -0.248 NA
ATOM     34  C   UNL A   1      43.520  26.654  30.117  1.00  0.00     0.031 C 
ATOM     35  C   UNL A   1      42.924  29.400  35.530  1.00  0.00     0.029 A 
ATOM     36  C   UNL A   1      42.649  28.975  34.236  1.00  0.00     0.049 A 
ATOM     37  H   UNL A   1      41.045  29.517  32.989  1.00  0.00     0.167 HD
ATOM     38  C   UNL A   1      43.143  27.697  32.137  1.00  0.00     0.074 A 
ATOM     39  C   UNL A   1      43.976  26.798  31.356  1.00  0.00     0.031 C 
ATOM     40  C   UNL A   1      43.401  28.050  33.421  1.00  0.00     0.034 A 
BRANCH  27  41
ATOM     41  C   UNL A   1      39.421  32.085  35.980  1.00  0.00     0.023 A 
ATOM     42  C   UNL A   1      38.497  31.627  36.942  1.00  0.00     0.012 A 
ATOM     43  C   UNL A   1      39.892  33.410  36.053  1.00  0.00     0.148 A 
ATOM     44  C   UNL A   1      38.006  32.492  37.922  1.00  0.00     0.002 A 
ATOM     45  C   UNL A   1      39.439  34.250  37.062  1.00  0.00     0.091 A 
ATOM     46  F   UNL A   1      40.738  33.841  35.106  1.00  0.00    -0.205 F 
ATOM     47  C   UNL A   1      38.482  33.800  37.985  1.00  0.00     0.022 A 
BRANCH  45  48
ATOM     48  S   UNL A   1      40.039  35.929  37.268  1.00  0.00     0.127 S 
ATOM     49  O   UNL A   1      39.653  36.540  36.001  1.00  0.00    -0.237 OA
ATOM     50  O   UNL A   1      39.277  36.384  38.427  1.00  0.00    -0.237 OA
ATOM     51  O   UNL A   1      41.480  35.815  37.493  1.00  0.00    -0.744 OA
ENDBRANCH  45  48
ENDBRANCH  27  41
BRANCH  28  52
ATOM     52  C   UNL A   1      41.817  26.759  27.674  1.00  0.00     0.023 A 
ATOM     53  C   UNL A   1      42.383  27.463  26.596  1.00  0.00     0.012 A 
ATOM     54  C   UNL A   1      41.671  25.359  27.578  1.00  0.00     0.148 A 
ATOM     55  C   UNL A   1      42.783  26.789  25.439  1.00  0.00     0.002 A 
ATOM     56  C   UNL A   1      42.117  24.687  26.446  1.00  0.00     0.091 A 
ATOM     57  F   UNL A   1      41.120  24.706  28.611  1.00  0.00    -0.205 F 
ATOM     58  C   UNL A   1      42.661  25.403  25.368  1.00  0.00     0.022 A 
BRANCH  56  59
ATOM     59  S   UNL A   1      42.111  22.895  26.313  1.00  0.00     0.127 S 
ATOM     60  O   UNL A   1      42.648  22.693  24.971  1.00  0.00    -0.237 OA
ATOM     61  O   UNL A   1      43.010  22.511  27.401  1.00  0.00    -0.237 OA
ATOM     62  O   UNL A   1      40.724  22.488  26.503  1.00  0.00    -0.744 OA
ENDBRANCH  56  59
ENDBRANCH  28  52
BRANCH  40  63
ATOM     63  C   UNL A   1      44.578  27.405  34.090  1.00  0.00     0.023 A 
ATOM     64  C   UNL A   1      45.802  28.092  34.191  1.00  0.00     0.012 A 
ATOM     65  C   UNL A   1      44.407  26.169  34.742  1.00  0.00     0.148 A 
ATOM     66  C   UNL A   1      46.850  27.543  34.926  1.00  0.00     0.002 A 
ATOM     67  C   UNL A   1      45.433  25.661  35.521  1.00  0.00     0.091 A 
ATOM     68  F   UNL A   1      43.233  25.535  34.610  1.00  0.00    -0.205 F 
ATOM     69  C   UNL A   1      46.660  26.340  35.605  1.00  0.00     0.022 A 
BRANCH  67  70
ATOM     70  S   UNL A   1      45.229  24.188  36.527  1.00  0.00     0.127 S 
ATOM     71  O   UNL A   1      46.457  23.454  36.229  1.00  0.00    -0.237 OA
ATOM     72  O   UNL A   1      45.163  24.747  37.878  1.00  0.00    -0.237 OA
ATOM     73  O   UNL A   1      43.999  23.554  36.073  1.00  0.00    -0.744 OA
ENDBRANCH  67  70
ENDBRANCH  40  63
ENDBRANCH  14  15
ENDBRANCH   7   9
ENDBRANCH   6   7
ENDBRANCH   5   6
ENDBRANCH   4   5
ENDBRANCH   3   4
ENDBRANCH   2   3
ENDBRANCH   1   2
BRANCH   1  74
ATOM     74  O   UNL A   1      31.213  27.539  26.131  1.00  0.00    -0.377 OA
BRANCH  74  75
ATOM     75  C   UNL A   1      31.442  26.553  25.149  1.00  0.00     0.188 C 
BRANCH  75  76
ATOM     76  C   UNL A   1      31.967  26.897  23.748  1.00  0.00     0.188 C 
BRANCH  76  77
ATOM     77  O   UNL A   1      31.135  26.801  22.606  1.00  0.00    -0.376 OA
BRANCH  77  78
ATOM     78  C   UNL A   1      31.584  25.978  21.552  1.00  0.00     0.202 C 
BRANCH  78  79
ATOM     79  C   UNL A   1      33.045  25.511  21.712  1.00  0.00     0.261 C 
BRANCH  79  80
ATOM     80  O   UNL A   1      33.295  24.075  21.720  1.00  0.00    -0.462 OA
BRANCH  80  81
ATOM     81  C   UNL A   1      33.045  23.404  22.886  1.00  0.00     0.328 C 
ATOM     82  O   UNL A   1      31.918  23.347  23.374  1.00  0.00    -0.250 OA
BRANCH  81  83
ATOM     83  C   UNL A   1      34.330  22.843  23.620  1.00  0.00     0.192 C 
ATOM     84  C   UNL A   1      35.157  24.075  24.055  1.00  0.00     0.037 C 
ATOM     85  N   UNL A   1      34.191  21.882  24.813  1.00  0.00    -0.358 N 
ATOM     86  C   UNL A   1      34.576  24.720  25.312  1.00  0.00     0.005 C 
ATOM     87  C   UNL A   1      33.927  22.439  26.159  1.00  0.00     0.117 C 
ATOM     88  C   UNL A   1      34.678  23.731  26.459  1.00  0.00     0.022 C 
BRANCH  85  89
ATOM     89  C   UNL A   1      34.919  20.658  24.814  1.00  0.00     0.048 A 
ATOM     90  C   UNL A   1      36.297  20.691  25.030  1.00  0.00     0.046 A 
ATOM     91  C   UNL A   1      34.333  19.341  24.642  1.00  0.00     0.024 A 
ATOM     92  C   UNL A   1      37.024  19.512  25.001  1.00  0.00     0.114 A 
ATOM     93  C   UNL A   1      35.187  18.214  24.557  1.00  0.00     0.072 A 
ATOM     94  C   UNL A   1      32.958  19.043  24.552  1.00  0.00     0.012 A 
ATOM     95  N   UNL A   1      36.507  18.300  24.739  1.00  0.00    -0.256 NA
ATOM     96  C   UNL A   1      34.668  16.945  24.286  1.00  0.00     0.029 A 
ATOM     97  C   UNL A   1      32.438  17.759  24.330  1.00  0.00     0.001 A 
ATOM     98  C   UNL A   1      33.305  16.706  24.154  1.00  0.00     0.002 A 
ENDBRANCH  85  89
ENDBRANCH  81  83
ENDBRANCH  80  81
ENDBRANCH  79  80
ENDBRANCH  78  79
ENDBRANCH  77  78
ENDBRANCH  76  77
ENDBRANCH  75  76
ENDBRANCH  74  75
ENDBRANCH   1  74
TORSDOF 24
ENDMDL
MODEL 3
REMARK VINA RESULT:      -9.3      1.833      7.598
REMARK SMILES O=C(OCCOCCOCCOCCOC(=O)[C@H]1CCCCN1c1ccnc2ccccc12)c1ccc(-c2c3nc(c(-c4cccc(S(=O)(=O)[O-])c4F)c4ccc([nH]4)c(-c4cccc(S(=O)(=O)[O-])c4F)c4nc(c(-c5cccc(S(=O)(=O)[O-])c5F)c5ccc2[nH]5)C=C4)C=C3)cc1
REMARK SMILES IDX 8 1 7 2 6 3 5 4 4 5 3 6 2 7 1 8 34 9 35 10 96 11 36 12 95 13
REMARK SMILES IDX 37 14 38 15 39 16 89 17 40 18 94 19 88 20 90 21 41 22 93 23
REMARK SMILES IDX 87 24 86 25 42 27 74 28 54 29 73 30 55 31 58 32 72 33 91 34
REMARK SMILES IDX 56 35 57 36 71 38 92 39 59 40 43 41 44 42 52 43 45 44 47 45
REMARK SMILES IDX 53 46 46 47 48 48 49 49 50 50 51 51 75 52 76 53 84 54 77 55
REMARK SMILES IDX 79 56 85 57 78 58 80 59 81 60 82 61 83 62 60 63 61 64 69 65
REMARK SMILES IDX 62 66 64 67 70 68 63 69 65 70 66 71 67 72 68 73 9 74 10 75
REMARK SMILES IDX 11 76 12 77 13 78 14 79 15 80 16 81 17 82 18 83 19 84 23 85
REMARK SMILES IDX 20 86 22 87 21 88 24 89 25 90 33 91 26 92 28 93 32 94 27 95
REMARK SMILES IDX 29 96 31 97 30 98
REMARK H PARENT 90 26 58 37
REMARK Flexibility Score: inf
ROOT
ATOM      1  C   UNL A   1      31.882  29.514  26.617  1.00  0.00     0.188 C 
ENDROOT
BRANCH   1   2
ATOM      2  C   UNL A   1      32.825  30.474  27.343  1.00  0.00     0.188 C 
BRANCH   2   3
ATOM      3  O   UNL A   1      32.696  31.824  26.884  1.00  0.00    -0.376 OA
BRANCH   3   4
ATOM      4  C   UNL A   1      33.264  32.862  27.690  1.00  0.00     0.202 C 
BRANCH   4   5
ATOM      5  C   UNL A   1      32.383  34.068  28.023  1.00  0.00     0.261 C 
BRANCH   5   6
ATOM      6  O   UNL A   1      33.023  35.048  28.841  1.00  0.00    -0.460 OA
BRANCH   6   7
ATOM      7  C   UNL A   1      33.580  34.875  30.066  1.00  0.00     0.338 C 
ATOM      8  O   UNL A   1      33.246  35.659  30.954  1.00  0.00    -0.246 OA
BRANCH   7   9
ATOM      9  C   UNL A   1      34.681  33.890  30.366  1.00  0.00     0.060 A 
ATOM     10  C   UNL A   1      34.550  32.711  31.106  1.00  0.00     0.016 A 
ATOM     11  C   UNL A   1      35.935  34.147  29.781  1.00  0.00     0.016 A 
ATOM     12  C   UNL A   1      35.557  31.772  31.200  1.00  0.00     0.010 A 
ATOM     13  C   UNL A   1      37.005  33.271  29.973  1.00  0.00     0.010 A 
ATOM     14  C   UNL A   1      36.807  32.097  30.707  1.00  0.00    -0.014 A 
BRANCH  14  15
ATOM     15  C   UNL A   1      37.918  31.396  31.350  1.00  0.00     0.031 A 
ATOM     16  C   UNL A   1      38.223  31.810  32.757  1.00  0.00     0.074 A 
ATOM     17  C   UNL A   1      38.491  30.340  30.758  1.00  0.00     0.049 A 
ATOM     18  N   UNL A   1      39.201  31.450  33.533  1.00  0.00    -0.248 NA
ATOM     19  C   UNL A   1      37.274  32.754  33.383  1.00  0.00     0.031 C 
ATOM     20  C   UNL A   1      38.090  29.772  29.470  1.00  0.00     0.029 A 
ATOM     21  N   UNL A   1      39.537  29.565  31.166  1.00  0.00    -0.354 N 
ATOM     22  C   UNL A   1      39.031  32.183  34.701  1.00  0.00     0.074 A 
ATOM     23  C   UNL A   1      37.832  32.968  34.560  1.00  0.00     0.031 C 
ATOM     24  C   UNL A   1      38.928  28.767  29.164  1.00  0.00     0.029 A 
ATOM     25  C   UNL A   1      39.949  28.679  30.201  1.00  0.00     0.049 A 
ATOM     26  H   UNL A   1      39.951  29.633  32.056  1.00  0.00     0.167 HD
ATOM     27  C   UNL A   1      39.841  32.217  35.779  1.00  0.00     0.034 A 
ATOM     28  C   UNL A   1      41.076  27.948  30.153  1.00  0.00     0.034 A 
ATOM     29  C   UNL A   1      41.035  31.429  35.849  1.00  0.00     0.049 A 
ATOM     30  C   UNL A   1      42.020  28.060  31.321  1.00  0.00     0.074 A 
ATOM     31  C   UNL A   1      41.993  31.391  36.839  1.00  0.00     0.029 A 
ATOM     32  N   UNL A   1      41.438  30.548  34.852  1.00  0.00    -0.354 N 
ATOM     33  N   UNL A   1      41.892  28.780  32.413  1.00  0.00    -0.248 NA
ATOM     34  C   UNL A   1      43.246  27.259  31.267  1.00  0.00     0.031 C 
ATOM     35  C   UNL A   1      43.000  30.515  36.418  1.00  0.00     0.029 A 
ATOM     36  C   UNL A   1      42.638  29.963  35.195  1.00  0.00     0.049 A 
ATOM     37  H   UNL A   1      40.939  30.367  34.023  1.00  0.00     0.167 HD
ATOM     38  C   UNL A   1      42.999  28.492  33.198  1.00  0.00     0.074 A 
ATOM     39  C   UNL A   1      43.788  27.528  32.449  1.00  0.00     0.031 C 
ATOM     40  C   UNL A   1      43.343  28.970  34.420  1.00  0.00     0.034 A 
BRANCH  27  41
ATOM     41  C   UNL A   1      39.495  33.200  36.863  1.00  0.00     0.023 A 
ATOM     42  C   UNL A   1      39.853  34.559  36.746  1.00  0.00     0.012 A 
ATOM     43  C   UNL A   1      38.882  32.749  38.048  1.00  0.00     0.148 A 
ATOM     44  C   UNL A   1      39.659  35.438  37.813  1.00  0.00     0.002 A 
ATOM     45  C   UNL A   1      38.644  33.640  39.085  1.00  0.00     0.091 A 
ATOM     46  F   UNL A   1      38.587  31.446  38.159  1.00  0.00    -0.205 F 
ATOM     47  C   UNL A   1      39.049  34.980  38.978  1.00  0.00     0.022 A 
BRANCH  45  48
ATOM     48  S   UNL A   1      37.807  33.164  40.600  1.00  0.00     0.127 S 
ATOM     49  O   UNL A   1      38.464  34.017  41.584  1.00  0.00    -0.237 OA
ATOM     50  O   UNL A   1      36.422  33.518  40.307  1.00  0.00    -0.237 OA
ATOM     51  O   UNL A   1      38.049  31.730  40.757  1.00  0.00    -0.744 OA
ENDBRANCH  45  48
ENDBRANCH  27  41
BRANCH  28  52
ATOM     52  C   UNL A   1      41.369  27.110  28.957  1.00  0.00     0.023 A 
ATOM     53  C   UNL A   1      40.724  25.871  28.792  1.00  0.00     0.012 A 
ATOM     54  C   UNL A   1      42.238  27.571  27.945  1.00  0.00     0.148 A 
ATOM     55  C   UNL A   1      40.951  25.098  27.651  1.00  0.00     0.002 A 
ATOM     56  C   UNL A   1      42.421  26.822  26.789  1.00  0.00     0.091 A 
ATOM     57  F   UNL A   1      42.852  28.749  28.124  1.00  0.00    -0.205 F 
ATOM     58  C   UNL A   1      41.789  25.577  26.646  1.00  0.00     0.022 A 
BRANCH  56  59
ATOM     59  S   UNL A   1      43.385  27.411  25.392  1.00  0.00     0.127 S 
ATOM     60  O   UNL A   1      43.771  26.160  24.745  1.00  0.00    -0.237 OA
ATOM     61  O   UNL A   1      42.398  28.205  24.660  1.00  0.00    -0.237 OA
ATOM     62  O   UNL A   1      44.480  28.186  25.964  1.00  0.00    -0.744 OA
ENDBRANCH  56  59
ENDBRANCH  28  52
BRANCH  40  63
ATOM     63  C   UNL A   1      44.577  28.404  35.059  1.00  0.00     0.023 A 
ATOM     64  C   UNL A   1      45.765  29.156  35.100  1.00  0.00     0.012 A 
ATOM     65  C   UNL A   1      44.495  27.177  35.745  1.00  0.00     0.148 A 
ATOM     66  C   UNL A   1      46.866  28.682  35.809  1.00  0.00     0.002 A 
ATOM     67  C   UNL A   1      45.574  26.743  36.497  1.00  0.00     0.091 A 
ATOM     68  F   UNL A   1      43.352  26.479  35.671  1.00  0.00    -0.205 F 
ATOM     69  C   UNL A   1      46.764  27.487  36.521  1.00  0.00     0.022 A 
BRANCH  67  70
ATOM     70  S   UNL A   1      45.484  25.287  37.543  1.00  0.00     0.127 S 
ATOM     71  O   UNL A   1      46.795  25.307  38.191  1.00  0.00    -0.237 OA
ATOM     72  O   UNL A   1      44.361  25.610  38.423  1.00  0.00    -0.237 OA
ATOM     73  O   UNL A   1      45.249  24.160  36.650  1.00  0.00    -0.744 OA
ENDBRANCH  67  70
ENDBRANCH  40  63
ENDBRANCH  14  15
ENDBRANCH   7   9
ENDBRANCH   6   7
ENDBRANCH   5   6
ENDBRANCH   4   5
ENDBRANCH   3   4
ENDBRANCH   2   3
ENDBRANCH   1   2
BRANCH   1  74
ATOM     74  O   UNL A   1      31.532  28.348  27.334  1.00  0.00    -0.377 OA
BRANCH  74  75
ATOM     75  C   UNL A   1      31.537  27.139  26.607  1.00  0.00     0.188 C 
BRANCH  75  76
ATOM     76  C   UNL A   1      31.409  27.101  25.078  1.00  0.00     0.188 C 
BRANCH  76  77
ATOM     77  O   UNL A   1      30.143  27.044  24.447  1.00  0.00    -0.376 OA
BRANCH  77  78
ATOM     78  C   UNL A   1      29.827  25.860  23.747  1.00  0.00     0.202 C 
BRANCH  78  79
ATOM     79  C   UNL A   1      31.026  25.247  22.996  1.00  0.00     0.261 C 
BRANCH  79  80
ATOM     80  O   UNL A   1      31.221  23.806  23.102  1.00  0.00    -0.462 OA
BRANCH  80  81
ATOM     81  C   UNL A   1      31.816  23.339  24.242  1.00  0.00     0.328 C 
ATOM     82  O   UNL A   1      31.246  23.364  25.331  1.00  0.00    -0.250 OA
BRANCH  81  83
ATOM     83  C   UNL A   1      33.330  22.907  24.074  1.00  0.00     0.192 C 
ATOM     84  C   UNL A   1      34.083  24.153  23.550  1.00  0.00     0.037 C 
ATOM     85  N   UNL A   1      34.108  22.309  25.258  1.00  0.00    -0.358 N 
ATOM     86  C   UNL A   1      34.368  25.145  24.676  1.00  0.00     0.005 C 
ATOM     87  C   UNL A   1      34.701  23.219  26.263  1.00  0.00     0.117 C 
ATOM     88  C   UNL A   1      35.303  24.491  25.677  1.00  0.00     0.022 C 
BRANCH  85  89
ATOM     89  C   UNL A   1      34.812  21.083  25.085  1.00  0.00     0.048 A 
ATOM     90  C   UNL A   1      36.201  21.077  25.210  1.00  0.00     0.046 A 
ATOM     91  C   UNL A   1      34.191  19.798  24.819  1.00  0.00     0.024 A 
ATOM     92  C   UNL A   1      36.903  19.900  25.013  1.00  0.00     0.114 A 
ATOM     93  C   UNL A   1      35.018  18.676  24.562  1.00  0.00     0.072 A 
ATOM     94  C   UNL A   1      32.808  19.526  24.790  1.00  0.00     0.012 A 
ATOM     95  N   UNL A   1      36.348  18.728  24.663  1.00  0.00    -0.256 NA
ATOM     96  C   UNL A   1      34.459  17.448  24.197  1.00  0.00     0.029 A 
ATOM     97  C   UNL A   1      32.252  18.279  24.473  1.00  0.00     0.001 A 
ATOM     98  C   UNL A   1      33.086  17.239  24.132  1.00  0.00     0.002 A 
ENDBRANCH  85  89
ENDBRANCH  81  83
ENDBRANCH  80  81
ENDBRANCH  79  80
ENDBRANCH  78  79
ENDBRANCH  77  78
ENDBRANCH  76  77
ENDBRANCH  75  76
ENDBRANCH  74  75
ENDBRANCH   1  74
TORSDOF 24
ENDMDL
