MODEL 1
REMARK VINA RESULT:      -8.9      0.000      0.000
REMARK SMILES COC(=O)c1ccccc1-c1ccc(/C=C(\C#N)C(=O)OCCOCCOCCOCCOC(=O)c2ccc(-c3c4nc(c(-c5cccc(S(=O)(=O)[O-])c5F)c5ccc([nH]5)c(-c5cccc(S(=O)(=O)[O-])c5F)c5nc(c(-c6cccc(S(=O)(=O)[O-])c6F)c6ccc3[nH]6)C=C5)C=C4)cc2)o1
REMARK SMILES IDX 26 1 25 2 24 3 23 4 22 5 21 6 19 7 20 8 16 9 15 10 14 11
REMARK SMILES IDX 11 12 12 13 99 14 13 15 10 16 5 17 6 18 7 19 9 20 8 21 3 22
REMARK SMILES IDX 4 23 2 24 1 25 17 26 18 27 27 28 28 29 29 30 30 31 31 32
REMARK SMILES IDX 32 33 33 34 34 35 35 36 36 37 37 38 98 39 38 40 97 41 39 42
REMARK SMILES IDX 40 43 41 44 91 45 42 46 96 47 90 48 92 49 43 50 95 51 89 52
REMARK SMILES IDX 88 53 44 55 76 56 56 57 75 58 57 59 60 60 74 61 93 62 58 63
REMARK SMILES IDX 59 64 73 66 94 67 61 68 45 69 46 70 54 71 47 72 49 73 55 74
REMARK SMILES IDX 48 75 50 76 51 77 52 78 53 79 77 80 78 81 86 82 79 83 81 84
REMARK SMILES IDX 87 85 80 86 82 87 83 88 84 89 85 90 62 91 63 92 71 93 64 94
REMARK SMILES IDX 66 95 72 96 65 97 67 98 68 99 69 100 70 101
REMARK H PARENT 92 54 60 65
REMARK Flexibility Score: inf
ROOT
ATOM      1  C   UNL A   1      36.768  23.570  25.364  1.00  0.00     0.188 C 
ENDROOT
BRANCH   1   2
ATOM      2  C   UNL A   1      35.245  23.413  25.512  1.00  0.00     0.188 C 
BRANCH   2   3
ATOM      3  O   UNL A   1      34.861  22.394  26.417  1.00  0.00    -0.376 OA
BRANCH   3   4
ATOM      4  C   UNL A   1      34.151  21.244  25.974  1.00  0.00     0.202 C 
BRANCH   4   5
ATOM      5  C   UNL A   1      33.896  20.850  24.502  1.00  0.00     0.261 C 
BRANCH   5   6
ATOM      6  O   UNL A   1      32.545  20.777  24.045  1.00  0.00    -0.459 OA
BRANCH   6   7
ATOM      7  C   UNL A   1      32.216  21.392  22.894  1.00  0.00     0.349 C 
ATOM      8  O   UNL A   1      31.925  20.842  21.843  1.00  0.00    -0.245 OA
BRANCH   7   9
ATOM      9  C   UNL A   1      32.051  22.842  23.160  1.00  0.00     0.141 C 
ATOM     10  C   UNL A   1      31.036  23.149  23.987  1.00  0.00     0.074 C 
BRANCH  10  11
ATOM     11  C   UNL A   1      30.721  24.462  24.434  1.00  0.00     0.129 A 
ATOM     12  C   UNL A   1      29.958  26.555  24.404  1.00  0.00     0.135 A 
ATOM     13  C   UNL A   1      30.360  26.310  25.698  1.00  0.00     0.051 A 
ATOM     14  O   UNL A   1      30.176  25.444  23.647  1.00  0.00    -0.457 OA
ATOM     15  C   UNL A   1      30.859  24.987  25.713  1.00  0.00     0.051 A 
BRANCH  12  16
ATOM     16  C   UNL A   1      29.338  27.682  23.713  1.00  0.00     0.032 A 
ATOM     17  C   UNL A   1      30.047  28.823  23.295  1.00  0.00     0.071 A 
ATOM     18  C   UNL A   1      29.368  29.928  22.753  1.00  0.00     0.016 A 
ATOM     19  C   UNL A   1      27.984  29.893  22.590  1.00  0.00     0.001 A 
ATOM     20  C   UNL A   1      27.944  27.663  23.516  1.00  0.00     0.013 A 
ATOM     21  C   UNL A   1      27.274  28.756  22.962  1.00  0.00     0.001 A 
BRANCH  17  22
ATOM     22  C   UNL A   1      31.515  28.946  23.405  1.00  0.00     0.338 C 
ATOM     23  O   UNL A   1      32.285  28.683  22.494  1.00  0.00    -0.246 OA
BRANCH  22  24
ATOM     24  O   UNL A   1      31.850  29.331  24.659  1.00  0.00    -0.465 OA
ATOM     25  C   UNL A   1      33.183  28.994  25.042  1.00  0.00     0.282 C 
ENDBRANCH  22  24
ENDBRANCH  17  22
ENDBRANCH  12  16
ENDBRANCH  10  11
BRANCH   9  26
ATOM     26  C   UNL A   1      33.015  23.758  22.652  1.00  0.00     0.107 C 
ATOM     27  N   UNL A   1      33.800  24.495  22.226  1.00  0.00    -0.192 NA
ENDBRANCH   9  26
ENDBRANCH   7   9
ENDBRANCH   6   7
ENDBRANCH   5   6
ENDBRANCH   4   5
ENDBRANCH   3   4
ENDBRANCH   2   3
ENDBRANCH   1   2
BRANCH   1  28
ATOM     28  O   UNL A   1      37.463  22.479  25.944  1.00  0.00    -0.377 OA
BRANCH  28  29
ATOM     29  C   UNL A   1      37.869  21.424  25.077  1.00  0.00     0.188 C 
BRANCH  29  30
ATOM     30  C   UNL A   1      38.738  20.262  25.611  1.00  0.00     0.188 C 
BRANCH  30  31
ATOM     31  O   UNL A   1      40.111  20.599  25.799  1.00  0.00    -0.376 OA
BRANCH  31  32
ATOM     32  C   UNL A   1      40.854  19.802  26.712  1.00  0.00     0.202 C 
BRANCH  32  33
ATOM     33  C   UNL A   1      42.184  19.270  26.165  1.00  0.00     0.261 C 
BRANCH  33  34
ATOM     34  O   UNL A   1      42.779  20.051  25.121  1.00  0.00    -0.460 OA
BRANCH  34  35
ATOM     35  C   UNL A   1      44.100  20.320  25.208  1.00  0.00     0.338 C 
ATOM     36  O   UNL A   1      45.025  19.586  24.915  1.00  0.00    -0.246 OA
BRANCH  35  37
ATOM     37  C   UNL A   1      44.230  21.748  25.558  1.00  0.00     0.060 A 
ATOM     38  C   UNL A   1      44.088  22.720  24.557  1.00  0.00     0.016 A 
ATOM     39  C   UNL A   1      44.474  22.118  26.881  1.00  0.00     0.016 A 
ATOM     40  C   UNL A   1      44.229  24.072  24.877  1.00  0.00     0.010 A 
ATOM     41  C   UNL A   1      44.632  23.465  27.196  1.00  0.00     0.010 A 
ATOM     42  C   UNL A   1      44.544  24.445  26.191  1.00  0.00    -0.014 A 
BRANCH  42  43
ATOM     43  C   UNL A   1      45.014  25.812  26.511  1.00  0.00     0.031 A 
ATOM     44  C   UNL A   1      46.415  26.175  26.097  1.00  0.00     0.074 A 
ATOM     45  C   UNL A   1      44.261  26.673  27.218  1.00  0.00     0.049 A 
ATOM     46  N   UNL A   1      47.136  27.212  26.428  1.00  0.00    -0.248 NA
ATOM     47  C   UNL A   1      47.098  25.227  25.197  1.00  0.00     0.031 C 
ATOM     48  C   UNL A   1      42.885  26.441  27.652  1.00  0.00     0.029 A 
ATOM     49  N   UNL A   1      44.576  27.905  27.737  1.00  0.00    -0.354 N 
ATOM     50  C   UNL A   1      48.366  27.025  25.807  1.00  0.00     0.074 A 
ATOM     51  C   UNL A   1      48.298  25.776  25.085  1.00  0.00     0.031 C 
ATOM     52  C   UNL A   1      42.486  27.481  28.407  1.00  0.00     0.029 A 
ATOM     53  C   UNL A   1      43.592  28.427  28.544  1.00  0.00     0.049 A 
ATOM     54  H   UNL A   1      45.424  28.369  27.549  1.00  0.00     0.167 HD
ATOM     55  C   UNL A   1      49.453  27.829  25.830  1.00  0.00     0.034 A 
ATOM     56  C   UNL A   1      43.606  29.522  29.332  1.00  0.00     0.034 A 
ATOM     57  C   UNL A   1      49.514  29.071  26.548  1.00  0.00     0.049 A 
ATOM     58  C   UNL A   1      44.854  30.372  29.384  1.00  0.00     0.074 A 
ATOM     59  C   UNL A   1      50.568  29.961  26.639  1.00  0.00     0.029 A 
ATOM     60  N   UNL A   1      48.475  29.595  27.299  1.00  0.00    -0.354 N 
ATOM     61  N   UNL A   1      45.984  30.225  28.735  1.00  0.00    -0.248 NA
ATOM     62  C   UNL A   1      44.820  31.555  30.259  1.00  0.00     0.031 C 
ATOM     63  C   UNL A   1      50.170  31.020  27.460  1.00  0.00     0.029 A 
ATOM     64  C   UNL A   1      48.858  30.803  27.851  1.00  0.00     0.049 A 
ATOM     65  H   UNL A   1      47.595  29.171  27.422  1.00  0.00     0.167 HD
ATOM     66  C   UNL A   1      46.767  31.325  29.075  1.00  0.00     0.074 A 
ATOM     67  C   UNL A   1      45.984  32.130  29.987  1.00  0.00     0.031 C 
ATOM     68  C   UNL A   1      48.025  31.636  28.678  1.00  0.00     0.034 A 
BRANCH  55  69
ATOM     69  C   UNL A   1      50.655  27.405  25.031  1.00  0.00     0.023 A 
ATOM     70  C   UNL A   1      50.819  27.891  23.718  1.00  0.00     0.012 A 
ATOM     71  C   UNL A   1      51.647  26.579  25.593  1.00  0.00     0.148 A 
ATOM     72  C   UNL A   1      51.940  27.542  22.967  1.00  0.00     0.002 A 
ATOM     73  C   UNL A   1      52.783  26.271  24.855  1.00  0.00     0.091 A 
ATOM     74  F   UNL A   1      51.460  26.110  26.835  1.00  0.00    -0.205 F 
ATOM     75  C   UNL A   1      52.926  26.743  23.539  1.00  0.00     0.022 A 
BRANCH  73  76
ATOM     76  S   UNL A   1      54.146  25.312  25.524  1.00  0.00     0.127 S 
ATOM     77  O   UNL A   1      54.458  26.054  26.744  1.00  0.00    -0.237 OA
ATOM     78  O   UNL A   1      53.523  24.008  25.745  1.00  0.00    -0.237 OA
ATOM     79  O   UNL A   1      55.187  25.326  24.505  1.00  0.00    -0.744 OA
ENDBRANCH  73  76
ENDBRANCH  55  69
BRANCH  56  80
ATOM     80  C   UNL A   1      42.403  29.907  30.127  1.00  0.00     0.023 A 
ATOM     81  C   UNL A   1      41.601  30.980  29.688  1.00  0.00     0.012 A 
ATOM     82  C   UNL A   1      42.069  29.253  31.330  1.00  0.00     0.148 A 
ATOM     83  C   UNL A   1      40.520  31.423  30.450  1.00  0.00     0.002 A 
ATOM     84  C   UNL A   1      40.957  29.665  32.057  1.00  0.00     0.091 A 
ATOM     85  F   UNL A   1      42.853  28.248  31.746  1.00  0.00    -0.205 F 
ATOM     86  C   UNL A   1      40.193  30.762  31.630  1.00  0.00     0.022 A 
BRANCH  84  87
ATOM     87  S   UNL A   1      40.397  28.806  33.532  1.00  0.00     0.127 S 
ATOM     88  O   UNL A   1      39.406  29.738  34.062  1.00  0.00    -0.237 OA
ATOM     89  O   UNL A   1      39.844  27.572  32.971  1.00  0.00    -0.237 OA
ATOM     90  O   UNL A   1      41.589  28.615  34.346  1.00  0.00    -0.744 OA
ENDBRANCH  84  87
ENDBRANCH  56  80
BRANCH  68  91
ATOM     91  C   UNL A   1      48.614  32.945  29.132  1.00  0.00     0.023 A 
ATOM     92  C   UNL A   1      49.410  33.001  30.292  1.00  0.00     0.012 A 
ATOM     93  C   UNL A   1      48.475  34.093  28.327  1.00  0.00     0.148 A 
ATOM     94  C   UNL A   1      50.046  34.189  30.652  1.00  0.00     0.002 A 
ATOM     95  C   UNL A   1      49.152  35.258  28.665  1.00  0.00     0.091 A 
ATOM     96  F   UNL A   1      47.700  34.017  27.234  1.00  0.00    -0.205 F 
ATOM     97  C   UNL A   1      49.929  35.310  29.832  1.00  0.00     0.022 A 
BRANCH  95  98
ATOM     98  S   UNL A   1      49.147  36.717  27.616  1.00  0.00     0.127 S 
ATOM     99  O   UNL A   1      49.937  37.656  28.411  1.00  0.00    -0.237 OA
ATOM    100  O   UNL A   1      49.812  36.230  26.408  1.00  0.00    -0.237 OA
ATOM    101  O   UNL A   1      47.748  37.081  27.435  1.00  0.00    -0.744 OA
ENDBRANCH  95  98
ENDBRANCH  68  91
ENDBRANCH  42  43
ENDBRANCH  35  37
ENDBRANCH  34  35
ENDBRANCH  33  34
ENDBRANCH  32  33
ENDBRANCH  31  32
ENDBRANCH  30  31
ENDBRANCH  29  30
ENDBRANCH  28  29
ENDBRANCH   1  28
TORSDOF 28
ENDMDL
MODEL 2
REMARK VINA RESULT:      -8.7      3.484      5.047
REMARK SMILES COC(=O)c1ccccc1-c1ccc(/C=C(\C#N)C(=O)OCCOCCOCCOCCOC(=O)c2ccc(-c3c4nc(c(-c5cccc(S(=O)(=O)[O-])c5F)c5ccc([nH]5)c(-c5cccc(S(=O)(=O)[O-])c5F)c5nc(c(-c6cccc(S(=O)(=O)[O-])c6F)c6ccc3[nH]6)C=C5)C=C4)cc2)o1
REMARK SMILES IDX 26 1 25 2 24 3 23 4 22 5 21 6 19 7 20 8 16 9 15 10 14 11
REMARK SMILES IDX 11 12 12 13 99 14 13 15 10 16 5 17 6 18 7 19 9 20 8 21 3 22
REMARK SMILES IDX 4 23 2 24 1 25 17 26 18 27 27 28 28 29 29 30 30 31 31 32
REMARK SMILES IDX 32 33 33 34 34 35 35 36 36 37 37 38 98 39 38 40 97 41 39 42
REMARK SMILES IDX 40 43 41 44 91 45 42 46 96 47 90 48 92 49 43 50 95 51 89 52
REMARK SMILES IDX 88 53 44 55 76 56 56 57 75 58 57 59 60 60 74 61 93 62 58 63
REMARK SMILES IDX 59 64 73 66 94 67 61 68 45 69 46 70 54 71 47 72 49 73 55 74
REMARK SMILES IDX 48 75 50 76 51 77 52 78 53 79 77 80 78 81 86 82 79 83 81 84
REMARK SMILES IDX 87 85 80 86 82 87 83 88 84 89 85 90 62 91 63 92 71 93 64 94
REMARK SMILES IDX 66 95 72 96 65 97 67 98 68 99 69 100 70 101
REMARK H PARENT 92 54 60 65
REMARK Flexibility Score: inf
ROOT
ATOM      1  C   UNL A   1      36.939  23.366  25.347  1.00  0.00     0.188 C 
ENDROOT
BRANCH   1   2
ATOM      2  C   UNL A   1      35.706  22.452  25.246  1.00  0.00     0.188 C 
BRANCH   2   3
ATOM      3  O   UNL A   1      35.257  21.956  26.494  1.00  0.00    -0.376 OA
BRANCH   3   4
ATOM      4  C   UNL A   1      33.994  21.317  26.623  1.00  0.00     0.202 C 
BRANCH   4   5
ATOM      5  C   UNL A   1      33.367  20.340  25.604  1.00  0.00     0.261 C 
BRANCH   5   6
ATOM      6  O   UNL A   1      32.160  20.728  24.946  1.00  0.00    -0.459 OA
BRANCH   6   7
ATOM      7  C   UNL A   1      32.235  21.233  23.701  1.00  0.00     0.349 C 
ATOM      8  O   UNL A   1      32.211  20.588  22.663  1.00  0.00    -0.245 OA
BRANCH   7   9
ATOM      9  C   UNL A   1      32.133  22.710  23.778  1.00  0.00     0.141 C 
ATOM     10  C   UNL A   1      31.267  23.165  24.701  1.00  0.00     0.074 C 
BRANCH  10  11
ATOM     11  C   UNL A   1      31.043  24.537  24.999  1.00  0.00     0.129 A 
ATOM     12  C   UNL A   1      30.363  26.646  24.761  1.00  0.00     0.135 A 
ATOM     13  C   UNL A   1      30.865  26.545  26.039  1.00  0.00     0.051 A 
ATOM     14  O   UNL A   1      30.472  25.439  24.138  1.00  0.00    -0.457 OA
ATOM     15  C   UNL A   1      31.311  25.211  26.185  1.00  0.00     0.051 A 
BRANCH  12  16
ATOM     16  C   UNL A   1      29.731  27.707  23.982  1.00  0.00     0.032 A 
ATOM     17  C   UNL A   1      30.365  28.921  23.664  1.00  0.00     0.071 A 
ATOM     18  C   UNL A   1      29.656  29.953  23.024  1.00  0.00     0.016 A 
ATOM     19  C   UNL A   1      28.322  29.771  22.665  1.00  0.00     0.001 A 
ATOM     20  C   UNL A   1      28.390  27.540  23.588  1.00  0.00     0.013 A 
ATOM     21  C   UNL A   1      27.692  28.561  22.937  1.00  0.00     0.001 A 
BRANCH  17  22
ATOM     22  C   UNL A   1      31.781  29.200  23.982  1.00  0.00     0.338 C 
ATOM     23  O   UNL A   1      32.177  29.492  25.099  1.00  0.00    -0.246 OA
BRANCH  22  24
ATOM     24  O   UNL A   1      32.526  29.135  22.853  1.00  0.00    -0.465 OA
ATOM     25  C   UNL A   1      32.776  27.809  22.388  1.00  0.00     0.282 C 
ENDBRANCH  22  24
ENDBRANCH  17  22
ENDBRANCH  12  16
ENDBRANCH  10  11
BRANCH   9  26
ATOM     26  C   UNL A   1      33.013  23.512  22.998  1.00  0.00     0.107 C 
ATOM     27  N   UNL A   1      33.730  24.173  22.375  1.00  0.00    -0.192 NA
ENDBRANCH   9  26
ENDBRANCH   7   9
ENDBRANCH   6   7
ENDBRANCH   5   6
ENDBRANCH   4   5
ENDBRANCH   3   4
ENDBRANCH   2   3
ENDBRANCH   1   2
BRANCH   1  28
ATOM     28  O   UNL A   1      37.967  22.769  26.120  1.00  0.00    -0.377 OA
BRANCH  28  29
ATOM     29  C   UNL A   1      38.692  21.694  25.529  1.00  0.00     0.188 C 
BRANCH  29  30
ATOM     30  C   UNL A   1      39.978  21.156  26.198  1.00  0.00     0.188 C 
BRANCH  30  31
ATOM     31  O   UNL A   1      41.158  21.886  25.862  1.00  0.00    -0.376 OA
BRANCH  31  32
ATOM     32  C   UNL A   1      42.343  21.562  26.576  1.00  0.00     0.202 C 
BRANCH  32  33
ATOM     33  C   UNL A   1      43.645  21.823  25.809  1.00  0.00     0.261 C 
BRANCH  33  34
ATOM     34  O   UNL A   1      43.856  23.178  25.392  1.00  0.00    -0.460 OA
BRANCH  34  35
ATOM     35  C   UNL A   1      44.952  23.818  25.856  1.00  0.00     0.338 C 
ATOM     36  O   UNL A   1      46.111  23.456  25.773  1.00  0.00    -0.246 OA
BRANCH  35  37
ATOM     37  C   UNL A   1      44.510  25.143  26.332  1.00  0.00     0.060 A 
ATOM     38  C   UNL A   1      44.534  26.236  25.455  1.00  0.00     0.016 A 
ATOM     39  C   UNL A   1      44.056  25.292  27.644  1.00  0.00     0.016 A 
ATOM     40  C   UNL A   1      44.136  27.497  25.904  1.00  0.00     0.010 A 
ATOM     41  C   UNL A   1      43.676  26.553  28.096  1.00  0.00     0.010 A 
ATOM     42  C   UNL A   1      43.747  27.667  27.240  1.00  0.00    -0.014 A 
BRANCH  42  43
ATOM     43  C   UNL A   1      43.628  29.014  27.841  1.00  0.00     0.031 A 
ATOM     44  C   UNL A   1      44.886  29.833  27.956  1.00  0.00     0.074 A 
ATOM     45  C   UNL A   1      42.466  29.465  28.347  1.00  0.00     0.049 A 
ATOM     46  N   UNL A   1      45.099  30.939  28.616  1.00  0.00    -0.248 NA
ATOM     47  C   UNL A   1      46.067  29.321  27.238  1.00  0.00     0.031 C 
ATOM     48  C   UNL A   1      41.181  28.773  28.272  1.00  0.00     0.029 A 
ATOM     49  N   UNL A   1      42.197  30.601  29.069  1.00  0.00    -0.354 N 
ATOM     50  C   UNL A   1      46.443  31.236  28.422  1.00  0.00     0.074 A 
ATOM     51  C   UNL A   1      46.998  30.195  27.589  1.00  0.00     0.031 C 
ATOM     52  C   UNL A   1      40.265  29.480  28.958  1.00  0.00     0.029 A 
ATOM     53  C   UNL A   1      40.910  30.649  29.555  1.00  0.00     0.049 A 
ATOM     54  H   UNL A   1      42.859  31.313  29.223  1.00  0.00     0.167 HD
ATOM     55  C   UNL A   1      47.151  32.290  28.890  1.00  0.00     0.034 A 
ATOM     56  C   UNL A   1      40.339  31.517  30.415  1.00  0.00     0.034 A 
ATOM     57  C   UNL A   1      46.592  33.323  29.716  1.00  0.00     0.049 A 
ATOM     58  C   UNL A   1      41.167  32.654  30.968  1.00  0.00     0.074 A 
ATOM     59  C   UNL A   1      47.222  34.434  30.246  1.00  0.00     0.029 A 
ATOM     60  N   UNL A   1      45.272  33.369  30.131  1.00  0.00    -0.354 N 
ATOM     61  N   UNL A   1      42.416  32.965  30.719  1.00  0.00    -0.248 NA
ATOM     62  C   UNL A   1      40.499  33.573  31.904  1.00  0.00     0.031 C 
ATOM     63  C   UNL A   1      46.282  35.147  30.996  1.00  0.00     0.029 A 
ATOM     64  C   UNL A   1      45.062  34.495  30.905  1.00  0.00     0.049 A 
ATOM     65  H   UNL A   1      44.585  32.700  29.909  1.00  0.00     0.167 HD
ATOM     66  C   UNL A   1      42.663  34.146  31.415  1.00  0.00     0.074 A 
ATOM     67  C   UNL A   1      41.434  34.494  32.096  1.00  0.00     0.031 C 
ATOM     68  C   UNL A   1      43.804  34.872  31.493  1.00  0.00     0.034 A 
BRANCH  55  69
ATOM     69  C   UNL A   1      48.598  32.394  28.494  1.00  0.00     0.023 A 
ATOM     70  C   UNL A   1      49.579  31.758  29.282  1.00  0.00     0.012 A 
ATOM     71  C   UNL A   1      48.983  33.065  27.318  1.00  0.00     0.148 A 
ATOM     72  C   UNL A   1      50.923  31.810  28.921  1.00  0.00     0.002 A 
ATOM     73  C   UNL A   1      50.319  33.075  26.939  1.00  0.00     0.091 A 
ATOM     74  F   UNL A   1      48.036  33.682  26.595  1.00  0.00    -0.205 F 
ATOM     75  C   UNL A   1      51.292  32.458  27.744  1.00  0.00     0.022 A 
BRANCH  73  76
ATOM     76  S   UNL A   1      50.890  33.817  25.406  1.00  0.00     0.127 S 
ATOM     77  O   UNL A   1      51.157  32.634  24.589  1.00  0.00    -0.237 OA
ATOM     78  O   UNL A   1      49.724  34.595  24.990  1.00  0.00    -0.237 OA
ATOM     79  O   UNL A   1      52.062  34.610  25.753  1.00  0.00    -0.744 OA
ENDBRANCH  73  76
ENDBRANCH  55  69
BRANCH  56  80
ATOM     80  C   UNL A   1      38.904  31.378  30.803  1.00  0.00     0.023 A 
ATOM     81  C   UNL A   1      38.553  30.482  31.832  1.00  0.00     0.012 A 
ATOM     82  C   UNL A   1      37.885  32.089  30.139  1.00  0.00     0.148 A 
ATOM     83  C   UNL A   1      37.216  30.262  32.163  1.00  0.00     0.002 A 
ATOM     84  C   UNL A   1      36.558  31.906  30.511  1.00  0.00     0.091 A 
ATOM     85  F   UNL A   1      38.233  32.922  29.148  1.00  0.00    -0.205 F 
ATOM     86  C   UNL A   1      36.218  30.978  31.508  1.00  0.00     0.022 A 
BRANCH  84  87
ATOM     87  S   UNL A   1      35.215  32.863  29.798  1.00  0.00     0.127 S 
ATOM     88  O   UNL A   1      34.151  32.661  30.777  1.00  0.00    -0.237 OA
ATOM     89  O   UNL A   1      35.785  34.212  29.777  1.00  0.00    -0.237 OA
ATOM     90  O   UNL A   1      34.985  32.287  28.481  1.00  0.00    -0.744 OA
ENDBRANCH  84  87
ENDBRANCH  56  80
BRANCH  68  91
ATOM     91  C   UNL A   1      43.774  36.172  32.253  1.00  0.00     0.023 A 
ATOM     92  C   UNL A   1      43.844  36.173  33.659  1.00  0.00     0.012 A 
ATOM     93  C   UNL A   1      43.805  37.395  31.553  1.00  0.00     0.148 A 
ATOM     94  C   UNL A   1      43.926  37.377  34.359  1.00  0.00     0.002 A 
ATOM     95  C   UNL A   1      43.938  38.586  32.254  1.00  0.00     0.091 A 
ATOM     96  F   UNL A   1      43.723  37.367  30.215  1.00  0.00    -0.205 F 
ATOM     97  C   UNL A   1      43.989  38.579  33.657  1.00  0.00     0.022 A 
BRANCH  95  98
ATOM     98  S   UNL A   1      44.133  40.173  31.435  1.00  0.00     0.127 S 
ATOM     99  O   UNL A   1      42.928  40.230  30.609  1.00  0.00    -0.237 OA
ATOM    100  O   UNL A   1      44.145  41.103  32.563  1.00  0.00    -0.237 OA
ATOM    101  O   UNL A   1      45.387  40.096  30.697  1.00  0.00    -0.744 OA
ENDBRANCH  95  98
ENDBRANCH  68  91
ENDBRANCH  42  43
ENDBRANCH  35  37
ENDBRANCH  34  35
ENDBRANCH  33  34
ENDBRANCH  32  33
ENDBRANCH  31  32
ENDBRANCH  30  31
ENDBRANCH  29  30
ENDBRANCH  28  29
ENDBRANCH   1  28
TORSDOF 28
ENDMDL
MODEL 3
REMARK VINA RESULT:      -8.4      2.070      2.409
REMARK SMILES COC(=O)c1ccccc1-c1ccc(/C=C(\C#N)C(=O)OCCOCCOCCOCCOC(=O)c2ccc(-c3c4nc(c(-c5cccc(S(=O)(=O)[O-])c5F)c5ccc([nH]5)c(-c5cccc(S(=O)(=O)[O-])c5F)c5nc(c(-c6cccc(S(=O)(=O)[O-])c6F)c6ccc3[nH]6)C=C5)C=C4)cc2)o1
REMARK SMILES IDX 26 1 25 2 24 3 23 4 22 5 21 6 19 7 20 8 16 9 15 10 14 11
REMARK SMILES IDX 11 12 12 13 99 14 13 15 10 16 5 17 6 18 7 19 9 20 8 21 3 22
REMARK SMILES IDX 4 23 2 24 1 25 17 26 18 27 27 28 28 29 29 30 30 31 31 32
REMARK SMILES IDX 32 33 33 34 34 35 35 36 36 37 37 38 98 39 38 40 97 41 39 42
REMARK SMILES IDX 40 43 41 44 91 45 42 46 96 47 90 48 92 49 43 50 95 51 89 52
REMARK SMILES IDX 88 53 44 55 76 56 56 57 75 58 57 59 60 60 74 61 93 62 58 63
REMARK SMILES IDX 59 64 73 66 94 67 61 68 45 69 46 70 54 71 47 72 49 73 55 74
REMARK SMILES IDX 48 75 50 76 51 77 52 78 53 79 77 80 78 81 86 82 79 83 81 84
REMARK SMILES IDX 87 85 80 86 82 87 83 88 84 89 85 90 62 91 63 92 71 93 64 94
REMARK SMILES IDX 66 95 72 96 65 97 67 98 68 99 69 100 70 101
REMARK H PARENT 92 54 60 65
REMARK Flexibility Score: inf
ROOT
ATOM      1  C   UNL A   1      36.652  23.641  25.308  1.00  0.00     0.188 C 
ENDROOT
BRANCH   1   2
ATOM      2  C   UNL A   1      35.129  23.473  25.442  1.00  0.00     0.188 C 
BRANCH   2   3
ATOM      3  O   UNL A   1      34.741  22.580  26.471  1.00  0.00    -0.376 OA
BRANCH   3   4
ATOM      4  C   UNL A   1      33.989  21.408  26.185  1.00  0.00     0.202 C 
BRANCH   4   5
ATOM      5  C   UNL A   1      33.759  20.800  24.784  1.00  0.00     0.261 C 
BRANCH   5   6
ATOM      6  O   UNL A   1      32.451  20.881  24.216  1.00  0.00    -0.459 OA
BRANCH   6   7
ATOM      7  C   UNL A   1      32.303  21.459  23.010  1.00  0.00     0.349 C 
ATOM      8  O   UNL A   1      32.154  20.874  21.947  1.00  0.00    -0.245 OA
BRANCH   7   9
ATOM      9  C   UNL A   1      32.130  22.920  23.199  1.00  0.00     0.141 C 
ATOM     10  C   UNL A   1      31.280  23.261  24.183  1.00  0.00     0.074 C 
BRANCH  10  11
ATOM     11  C   UNL A   1      31.001  24.595  24.589  1.00  0.00     0.129 A 
ATOM     12  C   UNL A   1      30.244  26.690  24.514  1.00  0.00     0.135 A 
ATOM     13  C   UNL A   1      30.734  26.503  25.786  1.00  0.00     0.051 A 
ATOM     14  O   UNL A   1      30.405  25.543  23.797  1.00  0.00    -0.457 OA
ATOM     15  C   UNL A   1      31.229  25.179  25.830  1.00  0.00     0.051 A 
BRANCH  12  16
ATOM     16  C   UNL A   1      29.580  27.787  23.815  1.00  0.00     0.032 A 
ATOM     17  C   UNL A   1      30.224  28.987  23.465  1.00  0.00     0.071 A 
ATOM     18  C   UNL A   1      29.495  30.054  22.911  1.00  0.00     0.016 A 
ATOM     19  C   UNL A   1      28.129  29.923  22.669  1.00  0.00     0.001 A 
ATOM     20  C   UNL A   1      28.205  27.671  23.539  1.00  0.00     0.013 A 
ATOM     21  C   UNL A   1      27.486  28.727  22.973  1.00  0.00     0.001 A 
BRANCH  17  22
ATOM     22  C   UNL A   1      31.671  29.215  23.661  1.00  0.00     0.338 C 
ATOM     23  O   UNL A   1      32.163  29.549  24.726  1.00  0.00    -0.246 OA
BRANCH  22  24
ATOM     24  O   UNL A   1      32.323  29.051  22.485  1.00  0.00    -0.465 OA
ATOM     25  C   UNL A   1      33.608  28.441  22.605  1.00  0.00     0.282 C 
ENDBRANCH  22  24
ENDBRANCH  17  22
ENDBRANCH  12  16
ENDBRANCH  10  11
BRANCH   9  26
ATOM     26  C   UNL A   1      32.938  23.820  22.449  1.00  0.00     0.107 C 
ATOM     27  N   UNL A   1      33.602  24.556  21.851  1.00  0.00    -0.192 NA
ENDBRANCH   9  26
ENDBRANCH   7   9
ENDBRANCH   6   7
ENDBRANCH   5   6
ENDBRANCH   4   5
ENDBRANCH   3   4
ENDBRANCH   2   3
ENDBRANCH   1   2
BRANCH   1  28
ATOM     28  O   UNL A   1      37.351  22.587  25.948  1.00  0.00    -0.377 OA
BRANCH  28  29
ATOM     29  C   UNL A   1      37.858  21.541  25.123  1.00  0.00     0.188 C 
BRANCH  29  30
ATOM     30  C   UNL A   1      38.813  20.475  25.709  1.00  0.00     0.188 C 
BRANCH  30  31
ATOM     31  O   UNL A   1      40.150  20.935  25.902  1.00  0.00    -0.376 OA
BRANCH  31  32
ATOM     32  C   UNL A   1      40.989  20.150  26.738  1.00  0.00     0.202 C 
BRANCH  32  33
ATOM     33  C   UNL A   1      42.376  19.849  26.156  1.00  0.00     0.261 C 
BRANCH  33  34
ATOM     34  O   UNL A   1      42.930  20.875  25.321  1.00  0.00    -0.460 OA
BRANCH  34  35
ATOM     35  C   UNL A   1      44.275  20.995  25.277  1.00  0.00     0.338 C 
ATOM     36  O   UNL A   1      45.078  20.173  24.875  1.00  0.00    -0.246 OA
BRANCH  35  37
ATOM     37  C   UNL A   1      44.599  22.387  25.642  1.00  0.00     0.060 A 
ATOM     38  C   UNL A   1      44.380  23.414  24.712  1.00  0.00     0.016 A 
ATOM     39  C   UNL A   1      45.102  22.672  26.912  1.00  0.00     0.016 A 
ATOM     40  C   UNL A   1      44.702  24.732  25.043  1.00  0.00     0.010 A 
ATOM     41  C   UNL A   1      45.439  23.984  27.235  1.00  0.00     0.010 A 
ATOM     42  C   UNL A   1      45.273  25.014  26.291  1.00  0.00    -0.014 A 
BRANCH  42  43
ATOM     43  C   UNL A   1      45.919  26.317  26.564  1.00  0.00     0.031 A 
ATOM     44  C   UNL A   1      47.269  26.563  25.946  1.00  0.00     0.074 A 
ATOM     45  C   UNL A   1      45.372  27.218  27.400  1.00  0.00     0.049 A 
ATOM     46  N   UNL A   1      48.132  27.513  26.184  1.00  0.00    -0.248 NA
ATOM     47  C   UNL A   1      47.710  25.589  24.930  1.00  0.00     0.031 C 
ATOM     48  C   UNL A   1      44.062  27.102  28.036  1.00  0.00     0.029 A 
ATOM     49  N   UNL A   1      45.883  28.395  27.890  1.00  0.00    -0.354 N 
ATOM     50  C   UNL A   1      49.227  27.235  25.375  1.00  0.00     0.074 A 
ATOM     51  C   UNL A   1      48.927  26.026  24.644  1.00  0.00     0.031 C 
ATOM     52  C   UNL A   1      43.888  28.145  28.867  1.00  0.00     0.029 A 
ATOM     53  C   UNL A   1      45.090  28.977  28.852  1.00  0.00     0.049 A 
ATOM     54  H   UNL A   1      46.733  28.784  27.584  1.00  0.00     0.167 HD
ATOM     55  C   UNL A   1      50.380  27.931  25.247  1.00  0.00     0.034 A 
ATOM     56  C   UNL A   1      45.332  30.036  29.653  1.00  0.00     0.034 A 
ATOM     57  C   UNL A   1      50.672  29.134  25.974  1.00  0.00     0.049 A 
ATOM     58  C   UNL A   1      46.652  30.762  29.529  1.00  0.00     0.074 A 
ATOM     59  C   UNL A   1      51.811  29.916  25.920  1.00  0.00     0.029 A 
ATOM     60  N   UNL A   1      49.817  29.726  26.889  1.00  0.00    -0.354 N 
ATOM     61  N   UNL A   1      47.649  30.533  28.709  1.00  0.00    -0.248 NA
ATOM     62  C   UNL A   1      46.869  31.909  30.425  1.00  0.00     0.031 C 
ATOM     63  C   UNL A   1      51.649  30.977  26.816  1.00  0.00     0.029 A 
ATOM     64  C   UNL A   1      50.397  30.870  27.402  1.00  0.00     0.049 A 
ATOM     65  H   UNL A   1      48.928  29.382  27.137  1.00  0.00     0.167 HD
ATOM     66  C   UNL A   1      48.580  31.540  28.948  1.00  0.00     0.074 A 
ATOM     67  C   UNL A   1      48.029  32.382  29.988  1.00  0.00     0.031 C 
ATOM     68  C   UNL A   1      49.787  31.746  28.366  1.00  0.00     0.034 A 
BRANCH  55  69
ATOM     69  C   UNL A   1      51.398  27.426  24.261  1.00  0.00     0.023 A 
ATOM     70  C   UNL A   1      52.476  26.642  24.720  1.00  0.00     0.012 A 
ATOM     71  C   UNL A   1      51.259  27.674  22.882  1.00  0.00     0.148 A 
ATOM     72  C   UNL A   1      53.414  26.133  23.825  1.00  0.00     0.002 A 
ATOM     73  C   UNL A   1      52.173  27.127  21.991  1.00  0.00     0.091 A 
ATOM     74  F   UNL A   1      50.239  28.441  22.470  1.00  0.00    -0.205 F 
ATOM     75  C   UNL A   1      53.257  26.366  22.461  1.00  0.00     0.022 A 
BRANCH  73  76
ATOM     76  S   UNL A   1      52.020  27.304  20.210  1.00  0.00     0.127 S 
ATOM     77  O   UNL A   1      50.702  26.717  19.968  1.00  0.00    -0.237 OA
ATOM     78  O   UNL A   1      52.083  28.754  20.040  1.00  0.00    -0.237 OA
ATOM     79  O   UNL A   1      53.140  26.572  19.634  1.00  0.00    -0.744 OA
ENDBRANCH  73  76
ENDBRANCH  55  69
BRANCH  56  80
ATOM     80  C   UNL A   1      44.309  30.503  30.634  1.00  0.00     0.023 A 
ATOM     81  C   UNL A   1      44.309  29.967  31.937  1.00  0.00     0.012 A 
ATOM     82  C   UNL A   1      43.316  31.437  30.280  1.00  0.00     0.148 A 
ATOM     83  C   UNL A   1      43.317  30.316  32.854  1.00  0.00     0.002 A 
ATOM     84  C   UNL A   1      42.361  31.822  31.215  1.00  0.00     0.091 A 
ATOM     85  F   UNL A   1      43.316  31.922  29.030  1.00  0.00    -0.205 F 
ATOM     86  C   UNL A   1      42.347  31.247  32.496  1.00  0.00     0.022 A 
BRANCH  84  87
ATOM     87  S   UNL A   1      41.139  33.095  30.879  1.00  0.00     0.127 S 
ATOM     88  O   UNL A   1      41.926  34.078  30.141  1.00  0.00    -0.237 OA
ATOM     89  O   UNL A   1      40.156  32.364  30.077  1.00  0.00    -0.237 OA
ATOM     90  O   UNL A   1      40.653  33.520  32.184  1.00  0.00    -0.744 OA
ENDBRANCH  84  87
ENDBRANCH  56  80
BRANCH  68  91
ATOM     91  C   UNL A   1      50.565  32.977  28.752  1.00  0.00     0.023 A 
ATOM     92  C   UNL A   1      51.525  32.916  29.780  1.00  0.00     0.012 A 
ATOM     93  C   UNL A   1      50.425  34.160  28.000  1.00  0.00     0.148 A 
ATOM     94  C   UNL A   1      52.323  34.024  30.064  1.00  0.00     0.002 A 
ATOM     95  C   UNL A   1      51.258  35.242  28.255  1.00  0.00     0.091 A 
ATOM     96  F   UNL A   1      49.494  34.196  27.035  1.00  0.00    -0.205 F 
ATOM     97  C   UNL A   1      52.200  35.178  29.294  1.00  0.00     0.022 A 
BRANCH  95  98
ATOM     98  S   UNL A   1      51.245  36.729  27.248  1.00  0.00     0.127 S 
ATOM     99  O   UNL A   1      52.654  37.117  27.273  1.00  0.00    -0.237 OA
ATOM    100  O   UNL A   1      50.773  36.225  25.959  1.00  0.00    -0.237 OA
ATOM    101  O   UNL A   1      50.334  37.657  27.907  1.00  0.00    -0.744 OA
ENDBRANCH  95  98
ENDBRANCH  68  91
ENDBRANCH  42  43
ENDBRANCH  35  37
ENDBRANCH  34  35
ENDBRANCH  33  34
ENDBRANCH  32  33
ENDBRANCH  31  32
ENDBRANCH  30  31
ENDBRANCH  29  30
ENDBRANCH  28  29
ENDBRANCH   1  28
TORSDOF 28
ENDMDL
