MODEL 1
REMARK VINA RESULT:     -10.4      0.000      0.000
REMARK SMILES Cc1ccc([C@@H](C)Nc2ccc(N)cc2C(=O)OCCOCCOCCOCCOC(=O)c2ccc(-c3c4nc(c(-c5cccc(S(=O)(=O)[O-])c5F)c5ccc([nH]5)c(-c5cccc(S(=O)(=O)[O-])c5F)c5nc(c(-c6cccc(S(=O)(=O)[O-])c6F)c6ccc3[nH]6)C=C5)C=C4)cc2)cc1F
REMARK SMILES IDX 24 1 23 2 22 3 21 4 20 5 19 6 18 7 16 8 17 9 15 10 9 11
REMARK SMILES IDX 10 12 11 13 14 14 12 15 8 16 6 18 7 19 5 20 1 21 2 22 3 23
REMARK SMILES IDX 97 24 4 25 96 26 98 27 13 28 25 31 26 32 27 33 28 34 29 35
REMARK SMILES IDX 30 36 31 37 32 38 33 39 34 40 95 41 35 42 94 43 36 44 37 45
REMARK SMILES IDX 38 46 88 47 39 48 93 49 87 50 89 51 40 52 92 53 86 54 85 55
REMARK SMILES IDX 41 57 73 58 53 59 72 60 54 61 57 62 71 63 90 64 55 65 56 66
REMARK SMILES IDX 70 68 91 69 58 70 42 71 43 72 51 73 44 74 46 75 52 76 45 77
REMARK SMILES IDX 47 78 48 79 49 80 50 81 74 82 75 83 83 84 76 85 78 86 84 87
REMARK SMILES IDX 77 88 79 89 80 90 81 91 82 92 59 93 60 94 68 95 61 96 63 97
REMARK SMILES IDX 69 98 62 99 64 100 65 101 66 102 67 103
REMARK H PARENT 8 17 13 29 13 30 89 56 57 67
REMARK Flexibility Score: inf
ROOT
ATOM      1  O   UNL A   1      36.289  22.815  26.066  1.00  0.00    -0.377 OA
ENDROOT
BRANCH   1   2
ATOM      2  C   UNL A   1      34.976  23.301  25.886  1.00  0.00     0.188 C 
BRANCH   2   3
ATOM      3  C   UNL A   1      34.730  24.830  25.935  1.00  0.00     0.188 C 
BRANCH   3   4
ATOM      4  O   UNL A   1      34.017  25.506  24.910  1.00  0.00    -0.376 OA
BRANCH   4   5
ATOM      5  C   UNL A   1      34.066  25.151  23.541  1.00  0.00     0.202 C 
BRANCH   5   6
ATOM      6  C   UNL A   1      33.764  26.172  22.448  1.00  0.00     0.261 C 
BRANCH   6   7
ATOM      7  O   UNL A   1      32.413  26.645  22.488  1.00  0.00    -0.460 OA
BRANCH   7   8
ATOM      8  C   UNL A   1      32.250  27.944  22.828  1.00  0.00     0.340 C 
ATOM      9  O   UNL A   1      33.144  28.764  22.974  1.00  0.00    -0.246 OA
BRANCH   8  10
ATOM     10  C   UNL A   1      30.824  28.329  22.752  1.00  0.00     0.085 A 
ATOM     11  C   UNL A   1      29.720  27.619  23.249  1.00  0.00     0.049 A 
ATOM     12  C   UNL A   1      28.476  28.297  23.122  1.00  0.00     0.029 A 
ATOM     13  C   UNL A   1      28.320  29.544  22.507  1.00  0.00     0.027 A 
ATOM     14  C   UNL A   1      30.655  29.592  22.114  1.00  0.00     0.043 A 
ATOM     15  C   UNL A   1      29.406  30.184  21.945  1.00  0.00     0.032 A 
BRANCH  11  16
ATOM     16  N   UNL A   1      29.622  26.407  23.890  1.00  0.00    -0.378 N 
ATOM     17  H   UNL A   1      29.023  25.814  23.381  1.00  0.00     0.161 HD
BRANCH  16  18
ATOM     18  C   UNL A   1      30.110  25.708  25.077  1.00  0.00     0.106 C 
ATOM     19  C   UNL A   1      30.925  26.515  26.068  1.00  0.00     0.036 C 
BRANCH  18  20
ATOM     20  C   UNL A   1      30.628  24.301  24.786  1.00  0.00    -0.023 A 
ATOM     21  C   UNL A   1      32.609  20.575  23.791  1.00  0.00     0.047 C 
ATOM     22  C   UNL A   1      31.918  21.854  24.135  1.00  0.00    -0.015 A 
ATOM     23  C   UNL A   1      31.386  22.659  23.129  1.00  0.00     0.007 A 
ATOM     24  C   UNL A   1      31.765  22.260  25.460  1.00  0.00     0.126 A 
ATOM     25  C   UNL A   1      30.767  23.872  23.451  1.00  0.00     0.006 A 
ATOM     26  C   UNL A   1      31.118  23.451  25.790  1.00  0.00     0.045 A 
ATOM     27  F   UNL A   1      32.294  21.528  26.450  1.00  0.00    -0.207 F 
ENDBRANCH  18  20
ENDBRANCH  16  18
ENDBRANCH  11  16
BRANCH  15  28
ATOM     28  N   UNL A   1      29.273  31.441  21.378  1.00  0.00    -0.399 N 
ATOM     29  H   UNL A   1      28.615  31.590  20.660  1.00  0.00     0.156 HD
ATOM     30  H   UNL A   1      29.835  32.185  21.692  1.00  0.00     0.156 HD
ENDBRANCH  15  28
ENDBRANCH   8  10
ENDBRANCH   7   8
ENDBRANCH   6   7
ENDBRANCH   5   6
ENDBRANCH   4   5
ENDBRANCH   3   4
ENDBRANCH   2   3
ENDBRANCH   1   2
BRANCH   1  31
ATOM     31  C   UNL A   1      37.135  23.014  24.956  1.00  0.00     0.188 C 
BRANCH  31  32
ATOM     32  C   UNL A   1      38.533  22.405  25.145  1.00  0.00     0.188 C 
BRANCH  32  33
ATOM     33  O   UNL A   1      38.804  21.518  26.216  1.00  0.00    -0.376 OA
BRANCH  33  34
ATOM     34  C   UNL A   1      40.086  20.953  26.479  1.00  0.00     0.202 C 
BRANCH  34  35
ATOM     35  C   UNL A   1      41.249  21.684  27.160  1.00  0.00     0.261 C 
BRANCH  35  36
ATOM     36  O   UNL A   1      41.621  22.891  26.514  1.00  0.00    -0.460 OA
BRANCH  36  37
ATOM     37  C   UNL A   1      41.531  23.928  27.357  1.00  0.00     0.338 C 
ATOM     38  O   UNL A   1      42.261  24.238  28.275  1.00  0.00    -0.246 OA
BRANCH  37  39
ATOM     39  C   UNL A   1      40.376  24.763  27.022  1.00  0.00     0.060 A 
ATOM     40  C   UNL A   1      40.699  25.777  26.097  1.00  0.00     0.016 A 
ATOM     41  C   UNL A   1      39.525  24.942  28.101  1.00  0.00     0.016 A 
ATOM     42  C   UNL A   1      40.576  27.070  26.522  1.00  0.00     0.010 A 
ATOM     43  C   UNL A   1      39.387  26.229  28.518  1.00  0.00     0.010 A 
ATOM     44  C   UNL A   1      40.052  27.233  27.793  1.00  0.00    -0.014 A 
BRANCH  44  45
ATOM     45  C   UNL A   1      40.330  28.406  28.565  1.00  0.00     0.031 A 
ATOM     46  C   UNL A   1      39.309  29.445  28.554  1.00  0.00     0.074 A 
ATOM     47  C   UNL A   1      41.414  28.347  29.367  1.00  0.00     0.049 A 
ATOM     48  N   UNL A   1      39.506  30.676  28.849  1.00  0.00    -0.248 NA
ATOM     49  C   UNL A   1      37.949  29.179  28.086  1.00  0.00     0.031 C 
ATOM     50  C   UNL A   1      41.680  29.147  30.551  1.00  0.00     0.029 A 
ATOM     51  N   UNL A   1      42.573  27.582  29.245  1.00  0.00    -0.354 N 
ATOM     52  C   UNL A   1      38.254  31.201  29.070  1.00  0.00     0.074 A 
ATOM     53  C   UNL A   1      37.344  30.333  28.365  1.00  0.00     0.031 C 
ATOM     54  C   UNL A   1      42.991  29.055  30.841  1.00  0.00     0.029 A 
ATOM     55  C   UNL A   1      43.628  28.364  29.729  1.00  0.00     0.049 A 
ATOM     56  H   UNL A   1      42.638  26.668  28.887  1.00  0.00     0.167 HD
ATOM     57  C   UNL A   1      38.109  32.148  30.037  1.00  0.00     0.034 A 
ATOM     58  C   UNL A   1      44.555  28.943  28.901  1.00  0.00     0.034 A 
ATOM     59  C   UNL A   1      39.409  32.468  30.635  1.00  0.00     0.049 A 
ATOM     60  C   UNL A   1      44.466  30.472  28.880  1.00  0.00     0.074 A 
ATOM     61  C   UNL A   1      40.027  32.138  31.831  1.00  0.00     0.029 A 
ATOM     62  N   UNL A   1      40.423  32.919  29.808  1.00  0.00    -0.354 N 
ATOM     63  N   UNL A   1      43.493  31.154  29.422  1.00  0.00    -0.248 NA
ATOM     64  C   UNL A   1      45.407  31.348  28.179  1.00  0.00     0.031 C 
ATOM     65  C   UNL A   1      41.421  32.424  31.711  1.00  0.00     0.029 A 
ATOM     66  C   UNL A   1      41.645  32.929  30.445  1.00  0.00     0.049 A 
ATOM     67  H   UNL A   1      40.286  33.201  28.875  1.00  0.00     0.167 HD
ATOM     68  C   UNL A   1      43.663  32.495  29.205  1.00  0.00     0.074 A 
ATOM     69  C   UNL A   1      44.856  32.561  28.379  1.00  0.00     0.031 C 
ATOM     70  C   UNL A   1      42.794  33.429  29.702  1.00  0.00     0.034 A 
BRANCH  57  71
ATOM     71  C   UNL A   1      36.771  32.530  30.629  1.00  0.00     0.023 A 
ATOM     72  C   UNL A   1      36.366  32.152  31.930  1.00  0.00     0.012 A 
ATOM     73  C   UNL A   1      35.849  33.313  29.905  1.00  0.00     0.148 A 
ATOM     74  C   UNL A   1      35.193  32.627  32.529  1.00  0.00     0.002 A 
ATOM     75  C   UNL A   1      34.659  33.752  30.487  1.00  0.00     0.091 A 
ATOM     76  F   UNL A   1      36.100  33.648  28.635  1.00  0.00    -0.205 F 
ATOM     77  C   UNL A   1      34.335  33.437  31.806  1.00  0.00     0.022 A 
BRANCH  75  78
ATOM     78  S   UNL A   1      33.522  34.722  29.497  1.00  0.00     0.127 S 
ATOM     79  O   UNL A   1      34.338  35.863  29.095  1.00  0.00    -0.237 OA
ATOM     80  O   UNL A   1      33.123  33.790  28.447  1.00  0.00    -0.237 OA
ATOM     81  O   UNL A   1      32.454  35.049  30.443  1.00  0.00    -0.744 OA
ENDBRANCH  75  78
ENDBRANCH  57  71
BRANCH  58  82
ATOM     82  C   UNL A   1      44.949  28.092  27.737  1.00  0.00     0.023 A 
ATOM     83  C   UNL A   1      44.353  28.276  26.477  1.00  0.00     0.012 A 
ATOM     84  C   UNL A   1      45.626  26.877  27.996  1.00  0.00     0.148 A 
ATOM     85  C   UNL A   1      44.349  27.233  25.539  1.00  0.00     0.002 A 
ATOM     86  C   UNL A   1      45.581  25.830  27.079  1.00  0.00     0.091 A 
ATOM     87  F   UNL A   1      46.244  26.726  29.179  1.00  0.00    -0.205 F 
ATOM     88  C   UNL A   1      44.933  26.002  25.850  1.00  0.00     0.022 A 
BRANCH  86  89
ATOM     89  S   UNL A   1      46.187  24.204  27.570  1.00  0.00     0.127 S 
ATOM     90  O   UNL A   1      45.741  23.358  26.466  1.00  0.00    -0.237 OA
ATOM     91  O   UNL A   1      47.631  24.380  27.694  1.00  0.00    -0.237 OA
ATOM     92  O   UNL A   1      45.505  23.932  28.835  1.00  0.00    -0.744 OA
ENDBRANCH  86  89
ENDBRANCH  58  82
BRANCH  70  93
ATOM     93  C   UNL A   1      42.870  34.921  29.456  1.00  0.00     0.023 A 
ATOM     94  C   UNL A   1      42.361  35.447  28.238  1.00  0.00     0.012 A 
ATOM     95  C   UNL A   1      43.368  35.851  30.371  1.00  0.00     0.148 A 
ATOM     96  C   UNL A   1      42.441  36.797  27.899  1.00  0.00     0.002 A 
ATOM     97  C   UNL A   1      43.507  37.192  30.009  1.00  0.00     0.091 A 
ATOM     98  F   UNL A   1      43.665  35.466  31.620  1.00  0.00    -0.205 F 
ATOM     99  C   UNL A   1      43.052  37.671  28.777  1.00  0.00     0.022 A 
BRANCH  97 100
ATOM    100  S   UNL A   1      44.396  38.286  31.113  1.00  0.00     0.127 S 
ATOM    101  O   UNL A   1      45.766  37.791  31.047  1.00  0.00    -0.237 OA
ATOM    102  O   UNL A   1      44.148  39.598  30.522  1.00  0.00    -0.237 OA
ATOM    103  O   UNL A   1      43.737  38.077  32.402  1.00  0.00    -0.744 OA
ENDBRANCH  97 100
ENDBRANCH  70  93
ENDBRANCH  44  45
ENDBRANCH  37  39
ENDBRANCH  36  37
ENDBRANCH  35  36
ENDBRANCH  34  35
ENDBRANCH  33  34
ENDBRANCH  32  33
ENDBRANCH  31  32
ENDBRANCH   1  31
TORSDOF 27
ENDMDL
MODEL 2
REMARK VINA RESULT:     -10.4      1.791      3.617
REMARK SMILES Cc1ccc([C@@H](C)Nc2ccc(N)cc2C(=O)OCCOCCOCCOCCOC(=O)c2ccc(-c3c4nc(c(-c5cccc(S(=O)(=O)[O-])c5F)c5ccc([nH]5)c(-c5cccc(S(=O)(=O)[O-])c5F)c5nc(c(-c6cccc(S(=O)(=O)[O-])c6F)c6ccc3[nH]6)C=C5)C=C4)cc2)cc1F
REMARK SMILES IDX 24 1 23 2 22 3 21 4 20 5 19 6 18 7 16 8 17 9 15 10 9 11
REMARK SMILES IDX 10 12 11 13 14 14 12 15 8 16 6 18 7 19 5 20 1 21 2 22 3 23
REMARK SMILES IDX 97 24 4 25 96 26 98 27 13 28 25 31 26 32 27 33 28 34 29 35
REMARK SMILES IDX 30 36 31 37 32 38 33 39 34 40 95 41 35 42 94 43 36 44 37 45
REMARK SMILES IDX 38 46 88 47 39 48 93 49 87 50 89 51 40 52 92 53 86 54 85 55
REMARK SMILES IDX 41 57 73 58 53 59 72 60 54 61 57 62 71 63 90 64 55 65 56 66
REMARK SMILES IDX 70 68 91 69 58 70 42 71 43 72 51 73 44 74 46 75 52 76 45 77
REMARK SMILES IDX 47 78 48 79 49 80 50 81 74 82 75 83 83 84 76 85 78 86 84 87
REMARK SMILES IDX 77 88 79 89 80 90 81 91 82 92 59 93 60 94 68 95 61 96 63 97
REMARK SMILES IDX 69 98 62 99 64 100 65 101 66 102 67 103
REMARK H PARENT 8 17 13 29 13 30 89 56 57 67
REMARK Flexibility Score: inf
ROOT
ATOM      1  O   UNL A   1      37.607  23.655  25.572  1.00  0.00    -0.377 OA
ENDROOT
BRANCH   1   2
ATOM      2  C   UNL A   1      36.430  24.347  25.935  1.00  0.00     0.188 C 
BRANCH   2   3
ATOM      3  C   UNL A   1      35.234  24.356  24.950  1.00  0.00     0.188 C 
BRANCH   3   4
ATOM      4  O   UNL A   1      33.895  24.497  25.402  1.00  0.00    -0.376 OA
BRANCH   4   5
ATOM      5  C   UNL A   1      33.265  25.742  25.642  1.00  0.00     0.202 C 
BRANCH   5   6
ATOM      6  C   UNL A   1      31.992  25.835  26.479  1.00  0.00     0.261 C 
BRANCH   6   7
ATOM      7  O   UNL A   1      30.871  25.199  25.855  1.00  0.00    -0.460 OA
BRANCH   7   8
ATOM      8  C   UNL A   1      30.641  23.916  26.216  1.00  0.00     0.340 C 
ATOM      9  O   UNL A   1      29.916  23.547  27.128  1.00  0.00    -0.246 OA
BRANCH   8  10
ATOM     10  C   UNL A   1      31.178  22.984  25.202  1.00  0.00     0.085 A 
ATOM     11  C   UNL A   1      31.284  23.195  23.818  1.00  0.00     0.049 A 
ATOM     12  C   UNL A   1      31.945  22.154  23.110  1.00  0.00     0.029 A 
ATOM     13  C   UNL A   1      32.415  20.976  23.702  1.00  0.00     0.027 A 
ATOM     14  C   UNL A   1      31.646  21.775  25.795  1.00  0.00     0.043 A 
ATOM     15  C   UNL A   1      32.221  20.749  25.050  1.00  0.00     0.032 A 
BRANCH  11  16
ATOM     16  N   UNL A   1      30.914  24.252  23.021  1.00  0.00    -0.378 N 
ATOM     17  H   UNL A   1      29.940  24.232  22.880  1.00  0.00     0.161 HD
BRANCH  16  18
ATOM     18  C   UNL A   1      31.488  25.394  22.313  1.00  0.00     0.106 C 
ATOM     19  C   UNL A   1      32.985  25.378  22.075  1.00  0.00     0.036 C 
BRANCH  18  20
ATOM     20  C   UNL A   1      30.901  26.737  22.743  1.00  0.00    -0.023 A 
ATOM     21  C   UNL A   1      29.204  30.676  23.373  1.00  0.00     0.047 C 
ATOM     22  C   UNL A   1      29.789  29.318  23.165  1.00  0.00    -0.015 A 
ATOM     23  C   UNL A   1      31.144  29.174  22.868  1.00  0.00     0.007 A 
ATOM     24  C   UNL A   1      29.011  28.167  23.288  1.00  0.00     0.126 A 
ATOM     25  C   UNL A   1      31.685  27.904  22.643  1.00  0.00     0.006 A 
ATOM     26  C   UNL A   1      29.553  26.896  23.099  1.00  0.00     0.045 A 
ATOM     27  F   UNL A   1      27.699  28.270  23.538  1.00  0.00    -0.207 F 
ENDBRANCH  18  20
ENDBRANCH  16  18
ENDBRANCH  11  16
BRANCH  15  28
ATOM     28  N   UNL A   1      32.725  19.610  25.656  1.00  0.00    -0.399 N 
ATOM     29  H   UNL A   1      32.327  18.731  25.460  1.00  0.00     0.156 HD
ATOM     30  H   UNL A   1      33.480  19.680  26.284  1.00  0.00     0.156 HD
ENDBRANCH  15  28
ENDBRANCH   8  10
ENDBRANCH   7   8
ENDBRANCH   6   7
ENDBRANCH   5   6
ENDBRANCH   4   5
ENDBRANCH   3   4
ENDBRANCH   2   3
ENDBRANCH   1   2
BRANCH   1  31
ATOM     31  C   UNL A   1      37.376  22.409  24.956  1.00  0.00     0.188 C 
BRANCH  31  32
ATOM     32  C   UNL A   1      38.319  21.303  25.457  1.00  0.00     0.188 C 
BRANCH  32  33
ATOM     33  O   UNL A   1      39.355  21.591  26.380  1.00  0.00    -0.376 OA
BRANCH  33  34
ATOM     34  C   UNL A   1      40.685  21.093  26.265  1.00  0.00     0.202 C 
BRANCH  34  35
ATOM     35  C   UNL A   1      41.958  21.933  26.425  1.00  0.00     0.261 C 
BRANCH  35  36
ATOM     36  O   UNL A   1      41.852  23.239  25.884  1.00  0.00    -0.460 OA
BRANCH  36  37
ATOM     37  C   UNL A   1      41.757  24.152  26.860  1.00  0.00     0.338 C 
ATOM     38  O   UNL A   1      42.492  24.344  27.806  1.00  0.00    -0.246 OA
BRANCH  37  39
ATOM     39  C   UNL A   1      40.589  25.009  26.650  1.00  0.00     0.060 A 
ATOM     40  C   UNL A   1      40.886  26.131  25.849  1.00  0.00     0.016 A 
ATOM     41  C   UNL A   1      39.758  25.048  27.760  1.00  0.00     0.016 A 
ATOM     42  C   UNL A   1      40.762  27.362  26.429  1.00  0.00     0.010 A 
ATOM     43  C   UNL A   1      39.619  26.274  28.331  1.00  0.00     0.010 A 
ATOM     44  C   UNL A   1      40.261  27.365  27.719  1.00  0.00    -0.014 A 
BRANCH  44  45
ATOM     45  C   UNL A   1      40.547  28.439  28.622  1.00  0.00     0.031 A 
ATOM     46  C   UNL A   1      39.578  29.527  28.659  1.00  0.00     0.074 A 
ATOM     47  C   UNL A   1      41.574  28.244  29.474  1.00  0.00     0.049 A 
ATOM     48  N   UNL A   1      39.814  30.710  29.089  1.00  0.00    -0.248 NA
ATOM     49  C   UNL A   1      38.238  29.381  28.090  1.00  0.00     0.031 C 
ATOM     50  C   UNL A   1      41.803  28.907  30.747  1.00  0.00     0.029 A 
ATOM     51  N   UNL A   1      42.701  27.434  29.341  1.00  0.00    -0.354 N 
ATOM     52  C   UNL A   1      38.577  31.277  29.291  1.00  0.00     0.074 A 
ATOM     53  C   UNL A   1      37.672  30.532  28.451  1.00  0.00     0.031 C 
ATOM     54  C   UNL A   1      43.088  28.717  31.101  1.00  0.00     0.029 A 
ATOM     55  C   UNL A   1      43.760  28.107  29.962  1.00  0.00     0.049 A 
ATOM     56  H   UNL A   1      42.745  26.558  28.895  1.00  0.00     0.167 HD
ATOM     57  C   UNL A   1      38.417  32.130  30.340  1.00  0.00     0.034 A 
ATOM     58  C   UNL A   1      44.763  28.715  29.251  1.00  0.00     0.034 A 
ATOM     59  C   UNL A   1      39.691  32.319  31.040  1.00  0.00     0.049 A 
ATOM     60  C   UNL A   1      44.748  30.242  29.381  1.00  0.00     0.074 A 
ATOM     61  C   UNL A   1      40.218  31.841  32.230  1.00  0.00     0.029 A 
ATOM     62  N   UNL A   1      40.774  32.796  30.323  1.00  0.00    -0.354 N 
ATOM     63  N   UNL A   1      43.775  30.918  29.933  1.00  0.00    -0.248 NA
ATOM     64  C   UNL A   1      45.770  31.131  28.828  1.00  0.00     0.031 C 
ATOM     65  C   UNL A   1      41.628  32.062  32.219  1.00  0.00     0.029 A 
ATOM     66  C   UNL A   1      41.954  32.678  31.026  1.00  0.00     0.049 A 
ATOM     67  H   UNL A   1      40.709  33.175  29.417  1.00  0.00     0.167 HD
ATOM     68  C   UNL A   1      44.022  32.262  29.865  1.00  0.00     0.074 A 
ATOM     69  C   UNL A   1      45.266  32.346  29.119  1.00  0.00     0.031 C 
ATOM     70  C   UNL A   1      43.169  33.188  30.405  1.00  0.00     0.034 A 
BRANCH  57  71
ATOM     71  C   UNL A   1      37.064  32.522  30.891  1.00  0.00     0.023 A 
ATOM     72  C   UNL A   1      36.582  32.076  32.143  1.00  0.00     0.012 A 
ATOM     73  C   UNL A   1      36.207  33.383  30.176  1.00  0.00     0.148 A 
ATOM     74  C   UNL A   1      35.397  32.554  32.715  1.00  0.00     0.002 A 
ATOM     75  C   UNL A   1      35.004  33.827  30.727  1.00  0.00     0.091 A 
ATOM     76  F   UNL A   1      36.533  33.790  28.945  1.00  0.00    -0.205 F 
ATOM     77  C   UNL A   1      34.604  33.439  32.006  1.00  0.00     0.022 A 
BRANCH  75  78
ATOM     78  S   UNL A   1      33.952  34.900  29.751  1.00  0.00     0.127 S 
ATOM     79  O   UNL A   1      34.794  35.220  28.603  1.00  0.00    -0.237 OA
ATOM     80  O   UNL A   1      32.778  34.070  29.501  1.00  0.00    -0.237 OA
ATOM     81  O   UNL A   1      33.705  36.030  30.649  1.00  0.00    -0.744 OA
ENDBRANCH  75  78
ENDBRANCH  57  71
BRANCH  58  82
ATOM     82  C   UNL A   1      45.187  27.964  28.031  1.00  0.00     0.023 A 
ATOM     83  C   UNL A   1      44.668  28.293  26.767  1.00  0.00     0.012 A 
ATOM     84  C   UNL A   1      45.804  26.702  28.203  1.00  0.00     0.148 A 
ATOM     85  C   UNL A   1      44.676  27.347  25.732  1.00  0.00     0.002 A 
ATOM     86  C   UNL A   1      45.770  25.751  27.186  1.00  0.00     0.091 A 
ATOM     87  F   UNL A   1      46.351  26.412  29.395  1.00  0.00    -0.205 F 
ATOM     88  C   UNL A   1      45.197  26.068  25.949  1.00  0.00     0.022 A 
BRANCH  86  89
ATOM     89  S   UNL A   1      46.287  24.062  27.545  1.00  0.00     0.127 S 
ATOM     90  O   UNL A   1      47.740  24.188  27.619  1.00  0.00    -0.237 OA
ATOM     91  O   UNL A   1      45.612  23.737  28.799  1.00  0.00    -0.237 OA
ATOM     92  O   UNL A   1      45.820  23.288  26.395  1.00  0.00    -0.744 OA
ENDBRANCH  86  89
ENDBRANCH  58  82
BRANCH  70  93
ATOM     93  C   UNL A   1      43.330  34.690  30.316  1.00  0.00     0.023 A 
ATOM     94  C   UNL A   1      43.590  35.428  31.502  1.00  0.00     0.012 A 
ATOM     95  C   UNL A   1      43.291  35.422  29.128  1.00  0.00     0.148 A 
ATOM     96  C   UNL A   1      43.694  36.818  31.527  1.00  0.00     0.002 A 
ATOM     97  C   UNL A   1      43.333  36.818  29.157  1.00  0.00     0.091 A 
ATOM     98  F   UNL A   1      43.268  34.784  27.950  1.00  0.00    -0.205 F 
ATOM     99  C   UNL A   1      43.528  37.522  30.349  1.00  0.00     0.022 A 
BRANCH  97 100
ATOM    100  S   UNL A   1      43.009  37.713  27.642  1.00  0.00     0.127 S 
ATOM    101  O   UNL A   1      42.871  39.094  28.089  1.00  0.00    -0.237 OA
ATOM    102  O   UNL A   1      44.186  37.404  26.835  1.00  0.00    -0.237 OA
ATOM    103  O   UNL A   1      41.770  37.109  27.148  1.00  0.00    -0.744 OA
ENDBRANCH  97 100
ENDBRANCH  70  93
ENDBRANCH  44  45
ENDBRANCH  37  39
ENDBRANCH  36  37
ENDBRANCH  35  36
ENDBRANCH  34  35
ENDBRANCH  33  34
ENDBRANCH  32  33
ENDBRANCH  31  32
ENDBRANCH   1  31
TORSDOF 27
ENDMDL
MODEL 3
REMARK VINA RESULT:      -9.7      3.925      9.695
REMARK SMILES Cc1ccc([C@@H](C)Nc2ccc(N)cc2C(=O)OCCOCCOCCOCCOC(=O)c2ccc(-c3c4nc(c(-c5cccc(S(=O)(=O)[O-])c5F)c5ccc([nH]5)c(-c5cccc(S(=O)(=O)[O-])c5F)c5nc(c(-c6cccc(S(=O)(=O)[O-])c6F)c6ccc3[nH]6)C=C5)C=C4)cc2)cc1F
REMARK SMILES IDX 24 1 23 2 22 3 21 4 20 5 19 6 18 7 16 8 17 9 15 10 9 11
REMARK SMILES IDX 10 12 11 13 14 14 12 15 8 16 6 18 7 19 5 20 1 21 2 22 3 23
REMARK SMILES IDX 97 24 4 25 96 26 98 27 13 28 25 31 26 32 27 33 28 34 29 35
REMARK SMILES IDX 30 36 31 37 32 38 33 39 34 40 95 41 35 42 94 43 36 44 37 45
REMARK SMILES IDX 38 46 88 47 39 48 93 49 87 50 89 51 40 52 92 53 86 54 85 55
REMARK SMILES IDX 41 57 73 58 53 59 72 60 54 61 57 62 71 63 90 64 55 65 56 66
REMARK SMILES IDX 70 68 91 69 58 70 42 71 43 72 51 73 44 74 46 75 52 76 45 77
REMARK SMILES IDX 47 78 48 79 49 80 50 81 74 82 75 83 83 84 76 85 78 86 84 87
REMARK SMILES IDX 77 88 79 89 80 90 81 91 82 92 59 93 60 94 68 95 61 96 63 97
REMARK SMILES IDX 69 98 62 99 64 100 65 101 66 102 67 103
REMARK H PARENT 8 17 13 29 13 30 89 56 57 67
REMARK Flexibility Score: inf
ROOT
ATOM      1  O   UNL A   1      33.706  28.530  25.027  1.00  0.00    -0.377 OA
ENDROOT
BRANCH   1   2
ATOM      2  C   UNL A   1      32.660  28.360  24.094  1.00  0.00     0.188 C 
BRANCH   2   3
ATOM      3  C   UNL A   1      32.999  28.349  22.582  1.00  0.00     0.188 C 
BRANCH   3   4
ATOM      4  O   UNL A   1      33.659  27.249  21.972  1.00  0.00    -0.376 OA
BRANCH   4   5
ATOM      5  C   UNL A   1      33.093  25.959  21.837  1.00  0.00     0.202 C 
BRANCH   5   6
ATOM      6  C   UNL A   1      33.512  24.812  22.753  1.00  0.00     0.261 C 
BRANCH   6   7
ATOM      7  O   UNL A   1      34.402  25.229  23.793  1.00  0.00    -0.460 OA
BRANCH   7   8
ATOM      8  C   UNL A   1      34.313  24.548  24.958  1.00  0.00     0.340 C 
ATOM      9  O   UNL A   1      33.432  24.672  25.795  1.00  0.00    -0.246 OA
BRANCH   8  10
ATOM     10  C   UNL A   1      35.284  23.433  24.986  1.00  0.00     0.085 A 
ATOM     11  C   UNL A   1      35.097  22.125  24.512  1.00  0.00     0.049 A 
ATOM     12  C   UNL A   1      36.254  21.302  24.577  1.00  0.00     0.029 A 
ATOM     13  C   UNL A   1      37.480  21.709  25.115  1.00  0.00     0.027 A 
ATOM     14  C   UNL A   1      36.531  23.837  25.546  1.00  0.00     0.043 A 
ATOM     15  C   UNL A   1      37.616  22.972  25.658  1.00  0.00     0.032 A 
BRANCH  11  16
ATOM     16  N   UNL A   1      34.012  21.502  23.942  1.00  0.00    -0.378 N 
ATOM     17  H   UNL A   1      34.061  21.589  22.963  1.00  0.00     0.161 HD
BRANCH  16  18
ATOM     18  C   UNL A   1      32.811  20.755  24.307  1.00  0.00     0.106 C 
ATOM     19  C   UNL A   1      31.827  21.439  25.236  1.00  0.00     0.036 C 
BRANCH  18  20
ATOM     20  C   UNL A   1      33.076  19.278  24.596  1.00  0.00    -0.023 A 
ATOM     21  C   UNL A   1      33.245  15.000  25.276  1.00  0.00     0.047 C 
ATOM     22  C   UNL A   1      33.195  16.474  25.044  1.00  0.00    -0.015 A 
ATOM     23  C   UNL A   1      32.638  17.319  26.004  1.00  0.00     0.007 A 
ATOM     24  C   UNL A   1      33.723  17.044  23.887  1.00  0.00     0.126 A 
ATOM     25  C   UNL A   1      32.565  18.696  25.773  1.00  0.00     0.006 A 
ATOM     26  C   UNL A   1      33.684  18.421  23.666  1.00  0.00     0.045 A 
ATOM     27  F   UNL A   1      34.235  16.260  22.928  1.00  0.00    -0.207 F 
ENDBRANCH  18  20
ENDBRANCH  16  18
ENDBRANCH  11  16
BRANCH  15  28
ATOM     28  N   UNL A   1      38.838  23.404  26.148  1.00  0.00    -0.399 N 
ATOM     29  H   UNL A   1      39.596  22.779  26.202  1.00  0.00     0.156 HD
ATOM     30  H   UNL A   1      38.947  24.337  26.443  1.00  0.00     0.156 HD
ENDBRANCH  15  28
ENDBRANCH   8  10
ENDBRANCH   7   8
ENDBRANCH   6   7
ENDBRANCH   5   6
ENDBRANCH   4   5
ENDBRANCH   3   4
ENDBRANCH   2   3
ENDBRANCH   1   2
BRANCH   1  31
ATOM     31  C   UNL A   1      33.270  28.700  26.356  1.00  0.00     0.188 C 
BRANCH  31  32
ATOM     32  C   UNL A   1      32.898  30.153  26.691  1.00  0.00     0.188 C 
BRANCH  32  33
ATOM     33  O   UNL A   1      33.745  30.956  27.495  1.00  0.00    -0.376 OA
BRANCH  33  34
ATOM     34  C   UNL A   1      35.120  30.671  27.737  1.00  0.00     0.202 C 
BRANCH  34  35
ATOM     35  C   UNL A   1      36.199  31.719  28.033  1.00  0.00     0.261 C 
BRANCH  35  36
ATOM     36  O   UNL A   1      35.683  32.950  28.512  1.00  0.00    -0.460 OA
BRANCH  36  37
ATOM     37  C   UNL A   1      35.624  32.953  29.851  1.00  0.00     0.338 C 
ATOM     38  O   UNL A   1      34.859  32.366  30.587  1.00  0.00    -0.246 OA
BRANCH  37  39
ATOM     39  C   UNL A   1      36.692  33.783  30.410  1.00  0.00     0.060 A 
ATOM     40  C   UNL A   1      37.702  34.063  29.467  1.00  0.00     0.016 A 
ATOM     41  C   UNL A   1      36.937  33.498  31.744  1.00  0.00     0.016 A 
ATOM     42  C   UNL A   1      38.952  33.577  29.729  1.00  0.00     0.010 A 
ATOM     43  C   UNL A   1      38.184  33.029  32.013  1.00  0.00     0.010 A 
ATOM     44  C   UNL A   1      39.101  32.944  30.951  1.00  0.00    -0.014 A 
BRANCH  44  45
ATOM     45  C   UNL A   1      40.126  31.966  31.158  1.00  0.00     0.031 A 
ATOM     46  C   UNL A   1      39.913  30.665  30.536  1.00  0.00     0.074 A 
ATOM     47  C   UNL A   1      41.259  32.406  31.743  1.00  0.00     0.049 A 
ATOM     48  N   UNL A   1      40.487  29.576  30.890  1.00  0.00    -0.248 NA
ATOM     49  C   UNL A   1      38.912  30.470  29.487  1.00  0.00     0.031 C 
ATOM     50  C   UNL A   1      42.580  31.804  31.670  1.00  0.00     0.029 A 
ATOM     51  N   UNL A   1      41.457  33.479  32.610  1.00  0.00    -0.354 N 
ATOM     52  C   UNL A   1      40.298  28.708  29.840  1.00  0.00     0.074 A 
ATOM     53  C   UNL A   1      39.146  29.208  29.132  1.00  0.00     0.031 C 
ATOM     54  C   UNL A   1      43.335  32.312  32.662  1.00  0.00     0.029 A 
ATOM     55  C   UNL A   1      42.449  33.091  33.517  1.00  0.00     0.049 A 
ATOM     56  H   UNL A   1      40.987  34.344  32.590  1.00  0.00     0.167 HD
ATOM     57  C   UNL A   1      41.291  27.827  29.540  1.00  0.00     0.034 A 
ATOM     58  C   UNL A   1      42.171  32.771  34.821  1.00  0.00     0.034 A 
ATOM     59  C   UNL A   1      42.395  27.960  30.495  1.00  0.00     0.049 A 
ATOM     60  C   UNL A   1      42.404  31.290  35.137  1.00  0.00     0.074 A 
ATOM     61  C   UNL A   1      43.653  28.540  30.439  1.00  0.00     0.029 A 
ATOM     62  N   UNL A   1      42.128  27.788  31.841  1.00  0.00    -0.354 N 
ATOM     63  N   UNL A   1      42.642  30.379  34.231  1.00  0.00    -0.248 NA
ATOM     64  C   UNL A   1      42.301  30.701  36.473  1.00  0.00     0.031 C 
ATOM     65  C   UNL A   1      44.140  28.688  31.774  1.00  0.00     0.029 A 
ATOM     66  C   UNL A   1      43.179  28.195  32.635  1.00  0.00     0.049 A 
ATOM     67  H   UNL A   1      41.285  27.418  32.192  1.00  0.00     0.167 HD
ATOM     68  C   UNL A   1      42.764  29.144  34.808  1.00  0.00     0.074 A 
ATOM     69  C   UNL A   1      42.494  29.394  36.213  1.00  0.00     0.031 C 
ATOM     70  C   UNL A   1      43.049  28.023  34.075  1.00  0.00     0.034 A 
BRANCH  57  71
ATOM     71  C   UNL A   1      41.377  27.092  28.220  1.00  0.00     0.023 A 
ATOM     72  C   UNL A   1      41.030  27.684  26.984  1.00  0.00     0.012 A 
ATOM     73  C   UNL A   1      41.832  25.760  28.154  1.00  0.00     0.148 A 
ATOM     74  C   UNL A   1      41.247  27.055  25.752  1.00  0.00     0.002 A 
ATOM     75  C   UNL A   1      42.008  25.116  26.929  1.00  0.00     0.091 A 
ATOM     76  F   UNL A   1      42.101  25.084  29.276  1.00  0.00    -0.205 F 
ATOM     77  C   UNL A   1      41.744  25.764  25.722  1.00  0.00     0.022 A 
BRANCH  75  78
ATOM     78  S   UNL A   1      42.566  23.413  26.923  1.00  0.00     0.127 S 
ATOM     79  O   UNL A   1      43.997  23.543  26.672  1.00  0.00    -0.237 OA
ATOM     80  O   UNL A   1      42.165  22.932  28.241  1.00  0.00    -0.237 OA
ATOM     81  O   UNL A   1      41.812  22.820  25.817  1.00  0.00    -0.744 OA
ENDBRANCH  75  78
ENDBRANCH  57  71
BRANCH  58  82
ATOM     82  C   UNL A   1      41.115  33.624  35.446  1.00  0.00     0.023 A 
ATOM     83  C   UNL A   1      41.458  34.773  36.180  1.00  0.00     0.012 A 
ATOM     84  C   UNL A   1      39.823  33.072  35.616  1.00  0.00     0.148 A 
ATOM     85  C   UNL A   1      40.570  35.295  37.132  1.00  0.00     0.002 A 
ATOM     86  C   UNL A   1      38.963  33.567  36.593  1.00  0.00     0.091 A 
ATOM     87  F   UNL A   1      39.476  32.009  34.871  1.00  0.00    -0.205 F 
ATOM     88  C   UNL A   1      39.338  34.675  37.361  1.00  0.00     0.022 A 
BRANCH  86  89
ATOM     89  S   UNL A   1      37.461  32.650  36.988  1.00  0.00     0.127 S 
ATOM     90  O   UNL A   1      37.031  33.277  38.235  1.00  0.00    -0.237 OA
ATOM     91  O   UNL A   1      36.593  32.865  35.834  1.00  0.00    -0.237 OA
ATOM     92  O   UNL A   1      37.914  31.268  37.149  1.00  0.00    -0.744 OA
ENDBRANCH  86  89
ENDBRANCH  58  82
BRANCH  70  93
ATOM     93  C   UNL A   1      43.136  26.614  34.621  1.00  0.00     0.023 A 
ATOM     94  C   UNL A   1      41.947  25.967  35.056  1.00  0.00     0.012 A 
ATOM     95  C   UNL A   1      44.310  25.861  34.689  1.00  0.00     0.148 A 
ATOM     96  C   UNL A   1      41.938  24.695  35.626  1.00  0.00     0.002 A 
ATOM     97  C   UNL A   1      44.314  24.614  35.316  1.00  0.00     0.091 A 
ATOM     98  F   UNL A   1      45.428  26.313  34.103  1.00  0.00    -0.205 F 
ATOM     99  C   UNL A   1      43.136  24.027  35.790  1.00  0.00     0.022 A 
BRANCH  97 100
ATOM    100  S   UNL A   1      45.886  23.814  35.616  1.00  0.00     0.127 S 
ATOM    101  O   UNL A   1      46.446  23.659  34.278  1.00  0.00    -0.237 OA
ATOM    102  O   UNL A   1      46.559  24.764  36.498  1.00  0.00    -0.237 OA
ATOM    103  O   UNL A   1      45.511  22.558  36.266  1.00  0.00    -0.744 OA
ENDBRANCH  97 100
ENDBRANCH  70  93
ENDBRANCH  44  45
ENDBRANCH  37  39
ENDBRANCH  36  37
ENDBRANCH  35  36
ENDBRANCH  34  35
ENDBRANCH  33  34
ENDBRANCH  32  33
ENDBRANCH  31  32
ENDBRANCH   1  31
TORSDOF 27
ENDMDL
