MODEL 1
REMARK VINA RESULT:      -8.8      0.000      0.000
REMARK SMILES CC(C)Cc1cc2c(cc1Cl)C=C(C(=O)OCCOCCOCCOCCOC(=O)c1ccc(-c3c4nc(c(-c5cccc(S(=O)(=O)[O-])c5F)c5ccc([nH]5)c(-c5cccc(S(=O)(=O)[O-])c5F)c5nc(c(-c6cccc(S(=O)(=O)[O-])c6F)c6ccc3[nH]6)C=C5)C=C4)cc1)[C@@H](C(F)(F)F)O2
REMARK SMILES IDX 23 1 22 2 21 3 20 4 19 5 18 6 17 7 16 8 14 9 15 10 13 11
REMARK SMILES IDX 5 12 6 13 10 14 7 15 9 16 11 17 8 18 99 19 12 20 94 21 4 22
REMARK SMILES IDX 2 23 1 24 3 25 95 26 96 27 97 28 98 29 24 30 25 31 26 32
REMARK SMILES IDX 27 33 28 34 29 35 30 36 31 37 32 38 93 39 33 40 92 41 34 42
REMARK SMILES IDX 35 43 36 44 86 45 37 46 91 47 85 48 87 49 38 50 90 51 84 52
REMARK SMILES IDX 83 53 39 55 71 56 51 57 70 58 52 59 55 60 69 61 88 62 53 63
REMARK SMILES IDX 54 64 68 66 89 67 56 68 40 69 41 70 49 71 42 72 44 73 50 74
REMARK SMILES IDX 43 75 45 76 46 77 47 78 48 79 72 80 73 81 81 82 74 83 76 84
REMARK SMILES IDX 82 85 75 86 77 87 78 88 79 89 80 90 57 91 58 92 66 93 59 94
REMARK SMILES IDX 61 95 67 96 60 97 62 98 63 99 64 100 65 101
REMARK H PARENT 87 54 55 65
REMARK Flexibility Score: inf
ROOT
ATOM      1  C   UNL A   1      33.298  22.290  25.655  1.00  0.00     0.188 C 
ENDROOT
BRANCH   1   2
ATOM      2  O   UNL A   1      32.719  23.580  25.852  1.00  0.00    -0.377 OA
BRANCH   2   3
ATOM      3  C   UNL A   1      31.313  23.629  26.037  1.00  0.00     0.188 C 
BRANCH   3   4
ATOM      4  C   UNL A   1      30.545  23.452  24.714  1.00  0.00     0.188 C 
BRANCH   4   5
ATOM      5  O   UNL A   1      30.645  24.586  23.859  1.00  0.00    -0.376 OA
BRANCH   5   6
ATOM      6  C   UNL A   1      29.499  25.413  23.695  1.00  0.00     0.202 C 
BRANCH   6   7
ATOM      7  C   UNL A   1      29.640  26.939  23.836  1.00  0.00     0.261 C 
BRANCH   7   8
ATOM      8  O   UNL A   1      29.663  27.681  22.609  1.00  0.00    -0.460 OA
BRANCH   8   9
ATOM      9  C   UNL A   1      30.492  28.734  22.512  1.00  0.00     0.338 C 
ATOM     10  O   UNL A   1      30.378  29.696  21.772  1.00  0.00    -0.246 OA
BRANCH   9  11
ATOM     11  C   UNL A   1      31.482  28.623  23.610  1.00  0.00     0.087 C 
ATOM     12  C   UNL A   1      34.638  29.460  27.414  1.00  0.00    -0.025 A 
ATOM     13  C   UNL A   1      34.328  28.344  26.622  1.00  0.00     0.052 A 
ATOM     14  C   UNL A   1      33.748  30.550  27.376  1.00  0.00     0.045 A 
ATOM     15  C   UNL A   1      33.292  28.390  25.686  1.00  0.00     0.128 A 
ATOM     16  C   UNL A   1      32.685  30.582  26.467  1.00  0.00     0.032 A 
ATOM     17  Cl  UNL A   1      33.932  31.916  28.423  1.00  0.00    -0.084 Cl
ATOM     18  C   UNL A   1      32.498  29.527  25.572  1.00  0.00     0.019 A 
ATOM     19  O   UNL A   1      33.144  27.280  24.909  1.00  0.00    -0.475 OA
ATOM     20  C   UNL A   1      31.527  29.625  24.498  1.00  0.00     0.027 C 
ATOM     21  C   UNL A   1      32.315  27.367  23.717  1.00  0.00     0.316 C 
BRANCH  12  22
ATOM     22  C   UNL A   1      35.897  29.521  28.260  1.00  0.00     0.040 C 
BRANCH  22  23
ATOM     23  C   UNL A   1      37.085  30.381  27.767  1.00  0.00    -0.013 C 
ATOM     24  C   UNL A   1      37.481  31.487  28.754  1.00  0.00     0.008 C 
ATOM     25  C   UNL A   1      38.303  29.480  27.535  1.00  0.00     0.008 C 
ENDBRANCH  22  23
ENDBRANCH  12  22
BRANCH  21  26
ATOM     26  C   UNL A   1      33.200  27.158  22.482  1.00  0.00     0.430 C 
ATOM     27  F   UNL A   1      33.818  28.307  22.119  1.00  0.00    -0.167 F 
ATOM     28  F   UNL A   1      34.167  26.240  22.703  1.00  0.00    -0.167 F 
ATOM     29  F   UNL A   1      32.478  26.736  21.417  1.00  0.00    -0.167 F 
ENDBRANCH  21  26
ENDBRANCH   9  11
ENDBRANCH   8   9
ENDBRANCH   7   8
ENDBRANCH   6   7
ENDBRANCH   5   6
ENDBRANCH   4   5
ENDBRANCH   3   4
ENDBRANCH   2   3
ENDBRANCH   1   2
BRANCH   1  30
ATOM     30  C   UNL A   1      34.122  21.612  26.774  1.00  0.00     0.188 C 
BRANCH  30  31
ATOM     31  O   UNL A   1      35.407  21.156  26.345  1.00  0.00    -0.376 OA
BRANCH  31  32
ATOM     32  C   UNL A   1      35.838  21.582  25.059  1.00  0.00     0.202 C 
BRANCH  32  33
ATOM     33  C   UNL A   1      37.355  21.773  24.941  1.00  0.00     0.261 C 
BRANCH  33  34
ATOM     34  O   UNL A   1      38.022  22.144  26.156  1.00  0.00    -0.460 OA
BRANCH  34  35
ATOM     35  C   UNL A   1      39.362  21.973  26.217  1.00  0.00     0.338 C 
ATOM     36  O   UNL A   1      40.014  21.098  25.675  1.00  0.00    -0.246 OA
BRANCH  35  37
ATOM     37  C   UNL A   1      39.923  23.162  26.892  1.00  0.00     0.060 A 
ATOM     38  C   UNL A   1      40.830  23.011  27.944  1.00  0.00     0.016 A 
ATOM     39  C   UNL A   1      39.502  24.437  26.494  1.00  0.00     0.016 A 
ATOM     40  C   UNL A   1      41.344  24.141  28.578  1.00  0.00     0.010 A 
ATOM     41  C   UNL A   1      40.012  25.569  27.136  1.00  0.00     0.010 A 
ATOM     42  C   UNL A   1      40.955  25.428  28.164  1.00  0.00    -0.014 A 
BRANCH  42  43
ATOM     43  C   UNL A   1      41.706  26.605  28.661  1.00  0.00     0.031 A 
ATOM     44  C   UNL A   1      41.115  27.596  29.615  1.00  0.00     0.074 A 
ATOM     45  C   UNL A   1      42.964  26.767  28.209  1.00  0.00     0.049 A 
ATOM     46  N   UNL A   1      41.705  28.600  30.210  1.00  0.00    -0.248 NA
ATOM     47  C   UNL A   1      39.689  27.452  29.942  1.00  0.00     0.031 C 
ATOM     48  C   UNL A   1      43.619  25.895  27.231  1.00  0.00     0.029 A 
ATOM     49  N   UNL A   1      43.913  27.710  28.506  1.00  0.00    -0.354 N 
ATOM     50  C   UNL A   1      40.729  29.217  30.979  1.00  0.00     0.074 A 
ATOM     51  C   UNL A   1      39.499  28.479  30.764  1.00  0.00     0.031 C 
ATOM     52  C   UNL A   1      44.869  26.334  27.021  1.00  0.00     0.029 A 
ATOM     53  C   UNL A   1      45.099  27.520  27.841  1.00  0.00     0.049 A 
ATOM     54  H   UNL A   1      43.759  28.452  29.135  1.00  0.00     0.167 HD
ATOM     55  C   UNL A   1      40.858  30.285  31.801  1.00  0.00     0.034 A 
ATOM     56  C   UNL A   1      46.254  28.209  27.892  1.00  0.00     0.034 A 
ATOM     57  C   UNL A   1      42.088  31.002  32.020  1.00  0.00     0.049 A 
ATOM     58  C   UNL A   1      46.375  29.375  28.826  1.00  0.00     0.074 A 
ATOM     59  C   UNL A   1      42.327  32.045  32.898  1.00  0.00     0.029 A 
ATOM     60  N   UNL A   1      43.277  30.767  31.347  1.00  0.00    -0.354 N 
ATOM     61  N   UNL A   1      45.485  29.846  29.666  1.00  0.00    -0.248 NA
ATOM     62  C   UNL A   1      47.661  30.084  28.848  1.00  0.00     0.031 C 
ATOM     63  C   UNL A   1      43.656  32.453  32.744  1.00  0.00     0.029 A 
ATOM     64  C   UNL A   1      44.248  31.655  31.779  1.00  0.00     0.049 A 
ATOM     65  H   UNL A   1      43.411  30.072  30.662  1.00  0.00     0.167 HD
ATOM     66  C   UNL A   1      46.107  30.895  30.328  1.00  0.00     0.074 A 
ATOM     67  C   UNL A   1      47.455  30.982  29.804  1.00  0.00     0.031 C 
ATOM     68  C   UNL A   1      45.598  31.715  31.278  1.00  0.00     0.034 A 
BRANCH  55  69
ATOM     69  C   UNL A   1      39.656  30.724  32.593  1.00  0.00     0.023 A 
ATOM     70  C   UNL A   1      39.358  30.066  33.801  1.00  0.00     0.012 A 
ATOM     71  C   UNL A   1      38.909  31.857  32.215  1.00  0.00     0.148 A 
ATOM     72  C   UNL A   1      38.330  30.523  34.624  1.00  0.00     0.002 A 
ATOM     73  C   UNL A   1      37.902  32.324  33.054  1.00  0.00     0.091 A 
ATOM     74  F   UNL A   1      39.207  32.461  31.058  1.00  0.00    -0.205 F 
ATOM     75  C   UNL A   1      37.610  31.657  34.255  1.00  0.00     0.022 A 
BRANCH  73  76
ATOM     76  S   UNL A   1      36.951  33.807  32.702  1.00  0.00     0.127 S 
ATOM     77  O   UNL A   1      36.109  33.907  33.893  1.00  0.00    -0.237 OA
ATOM     78  O   UNL A   1      37.995  34.828  32.606  1.00  0.00    -0.237 OA
ATOM     79  O   UNL A   1      36.238  33.545  31.460  1.00  0.00    -0.744 OA
ENDBRANCH  73  76
ENDBRANCH  55  69
BRANCH  56  80
ATOM     80  C   UNL A   1      47.407  27.731  27.087  1.00  0.00     0.023 A 
ATOM     81  C   UNL A   1      47.662  28.327  25.838  1.00  0.00     0.012 A 
ATOM     82  C   UNL A   1      48.309  26.779  27.601  1.00  0.00     0.148 A 
ATOM     83  C   UNL A   1      48.799  27.980  25.109  1.00  0.00     0.002 A 
ATOM     84  C   UNL A   1      49.458  26.467  26.887  1.00  0.00     0.091 A 
ATOM     85  F   UNL A   1      48.041  26.236  28.796  1.00  0.00    -0.205 F 
ATOM     86  C   UNL A   1      49.700  27.061  25.637  1.00  0.00     0.022 A 
BRANCH  84  87
ATOM     87  S   UNL A   1      50.733  25.378  27.529  1.00  0.00     0.127 S 
ATOM     88  O   UNL A   1      51.674  25.331  26.412  1.00  0.00    -0.237 OA
ATOM     89  O   UNL A   1      51.199  26.123  28.698  1.00  0.00    -0.237 OA
ATOM     90  O   UNL A   1      50.066  24.121  27.836  1.00  0.00    -0.744 OA
ENDBRANCH  84  87
ENDBRANCH  56  80
BRANCH  68  91
ATOM     91  C   UNL A   1      46.488  32.796  31.828  1.00  0.00     0.023 A 
ATOM     92  C   UNL A   1      46.427  34.088  31.273  1.00  0.00     0.012 A 
ATOM     93  C   UNL A   1      47.290  32.562  32.963  1.00  0.00     0.148 A 
ATOM     94  C   UNL A   1      47.155  35.135  31.836  1.00  0.00     0.002 A 
ATOM     95  C   UNL A   1      47.986  33.617  33.539  1.00  0.00     0.091 A 
ATOM     96  F   UNL A   1      47.337  31.320  33.466  1.00  0.00    -0.205 F 
ATOM     97  C   UNL A   1      47.924  34.903  32.975  1.00  0.00     0.022 A 
BRANCH  95  98
ATOM     98  S   UNL A   1      48.948  33.438  35.047  1.00  0.00     0.127 S 
ATOM     99  O   UNL A   1      47.943  32.931  35.982  1.00  0.00    -0.237 OA
ATOM    100  O   UNL A   1      49.962  32.460  34.651  1.00  0.00    -0.237 OA
ATOM    101  O   UNL A   1      49.466  34.763  35.357  1.00  0.00    -0.744 OA
ENDBRANCH  95  98
ENDBRANCH  68  91
ENDBRANCH  42  43
ENDBRANCH  35  37
ENDBRANCH  34  35
ENDBRANCH  33  34
ENDBRANCH  32  33
ENDBRANCH  31  32
ENDBRANCH  30  31
ENDBRANCH   1  30
TORSDOF 26
ENDMDL
MODEL 2
REMARK VINA RESULT:      -8.7      1.997      2.276
REMARK SMILES CC(C)Cc1cc2c(cc1Cl)C=C(C(=O)OCCOCCOCCOCCOC(=O)c1ccc(-c3c4nc(c(-c5cccc(S(=O)(=O)[O-])c5F)c5ccc([nH]5)c(-c5cccc(S(=O)(=O)[O-])c5F)c5nc(c(-c6cccc(S(=O)(=O)[O-])c6F)c6ccc3[nH]6)C=C5)C=C4)cc1)[C@@H](C(F)(F)F)O2
REMARK SMILES IDX 23 1 22 2 21 3 20 4 19 5 18 6 17 7 16 8 14 9 15 10 13 11
REMARK SMILES IDX 5 12 6 13 10 14 7 15 9 16 11 17 8 18 99 19 12 20 94 21 4 22
REMARK SMILES IDX 2 23 1 24 3 25 95 26 96 27 97 28 98 29 24 30 25 31 26 32
REMARK SMILES IDX 27 33 28 34 29 35 30 36 31 37 32 38 93 39 33 40 92 41 34 42
REMARK SMILES IDX 35 43 36 44 86 45 37 46 91 47 85 48 87 49 38 50 90 51 84 52
REMARK SMILES IDX 83 53 39 55 71 56 51 57 70 58 52 59 55 60 69 61 88 62 53 63
REMARK SMILES IDX 54 64 68 66 89 67 56 68 40 69 41 70 49 71 42 72 44 73 50 74
REMARK SMILES IDX 43 75 45 76 46 77 47 78 48 79 72 80 73 81 81 82 74 83 76 84
REMARK SMILES IDX 82 85 75 86 77 87 78 88 79 89 80 90 57 91 58 92 66 93 59 94
REMARK SMILES IDX 61 95 67 96 60 97 62 98 63 99 64 100 65 101
REMARK H PARENT 87 54 55 65
REMARK Flexibility Score: inf
ROOT
ATOM      1  C   UNL A   1      33.427  22.393  25.673  1.00  0.00     0.188 C 
ENDROOT
BRANCH   1   2
ATOM      2  O   UNL A   1      32.850  23.687  25.853  1.00  0.00    -0.377 OA
BRANCH   2   3
ATOM      3  C   UNL A   1      31.445  23.740  26.040  1.00  0.00     0.188 C 
BRANCH   3   4
ATOM      4  C   UNL A   1      30.674  23.535  24.724  1.00  0.00     0.188 C 
BRANCH   4   5
ATOM      5  O   UNL A   1      30.714  24.676  23.874  1.00  0.00    -0.376 OA
BRANCH   5   6
ATOM      6  C   UNL A   1      29.537  25.466  23.745  1.00  0.00     0.202 C 
BRANCH   6   7
ATOM      7  C   UNL A   1      29.637  26.997  23.865  1.00  0.00     0.261 C 
BRANCH   7   8
ATOM      8  O   UNL A   1      29.654  27.721  22.628  1.00  0.00    -0.460 OA
BRANCH   8   9
ATOM      9  C   UNL A   1      30.479  28.776  22.514  1.00  0.00     0.338 C 
ATOM     10  O   UNL A   1      30.355  29.730  21.766  1.00  0.00    -0.246 OA
BRANCH   9  11
ATOM     11  C   UNL A   1      31.478  28.678  23.604  1.00  0.00     0.087 C 
ATOM     12  C   UNL A   1      34.621  29.551  27.411  1.00  0.00    -0.025 A 
ATOM     13  C   UNL A   1      34.349  28.442  26.596  1.00  0.00     0.052 A 
ATOM     14  C   UNL A   1      33.689  30.606  27.403  1.00  0.00     0.045 A 
ATOM     15  C   UNL A   1      33.308  28.469  25.665  1.00  0.00     0.128 A 
ATOM     16  C   UNL A   1      32.621  30.618  26.499  1.00  0.00     0.032 A 
ATOM     17  Cl  UNL A   1      33.826  31.954  28.479  1.00  0.00    -0.084 Cl
ATOM     18  C   UNL A   1      32.470  29.577  25.581  1.00  0.00     0.019 A 
ATOM     19  O   UNL A   1      33.198  27.371  24.864  1.00  0.00    -0.475 OA
ATOM     20  C   UNL A   1      31.489  29.661  24.514  1.00  0.00     0.027 C 
ATOM     21  C   UNL A   1      32.360  27.453  23.678  1.00  0.00     0.316 C 
BRANCH  12  22
ATOM     22  C   UNL A   1      35.881  29.641  28.252  1.00  0.00     0.040 C 
BRANCH  22  23
ATOM     23  C   UNL A   1      37.045  30.532  27.756  1.00  0.00    -0.013 C 
ATOM     24  C   UNL A   1      37.357  31.700  28.700  1.00  0.00     0.008 C 
ATOM     25  C   UNL A   1      38.310  29.678  27.608  1.00  0.00     0.008 C 
ENDBRANCH  22  23
ENDBRANCH  12  22
BRANCH  21  26
ATOM     26  C   UNL A   1      33.245  27.307  22.435  1.00  0.00     0.430 C 
ATOM     27  F   UNL A   1      33.665  28.513  21.985  1.00  0.00    -0.167 F 
ATOM     28  F   UNL A   1      34.350  26.570  22.685  1.00  0.00    -0.167 F 
ATOM     29  F   UNL A   1      32.581  26.707  21.418  1.00  0.00    -0.167 F 
ENDBRANCH  21  26
ENDBRANCH   9  11
ENDBRANCH   8   9
ENDBRANCH   7   8
ENDBRANCH   6   7
ENDBRANCH   5   6
ENDBRANCH   4   5
ENDBRANCH   3   4
ENDBRANCH   2   3
ENDBRANCH   1   2
BRANCH   1  30
ATOM     30  C   UNL A   1      34.239  21.722  26.806  1.00  0.00     0.188 C 
BRANCH  30  31
ATOM     31  O   UNL A   1      35.553  21.321  26.411  1.00  0.00    -0.376 OA
BRANCH  31  32
ATOM     32  C   UNL A   1      36.008  21.784  25.146  1.00  0.00     0.202 C 
BRANCH  32  33
ATOM     33  C   UNL A   1      37.526  21.983  25.063  1.00  0.00     0.261 C 
BRANCH  33  34
ATOM     34  O   UNL A   1      38.156  22.398  26.284  1.00  0.00    -0.460 OA
BRANCH  34  35
ATOM     35  C   UNL A   1      39.465  22.100  26.450  1.00  0.00     0.338 C 
ATOM     36  O   UNL A   1      40.041  21.095  26.073  1.00  0.00    -0.246 OA
BRANCH  35  37
ATOM     37  C   UNL A   1      40.121  23.308  26.991  1.00  0.00     0.060 A 
ATOM     38  C   UNL A   1      41.113  23.192  27.969  1.00  0.00     0.016 A 
ATOM     39  C   UNL A   1      39.708  24.570  26.545  1.00  0.00     0.016 A 
ATOM     40  C   UNL A   1      41.718  24.341  28.477  1.00  0.00     0.010 A 
ATOM     41  C   UNL A   1      40.309  25.721  27.061  1.00  0.00     0.010 A 
ATOM     42  C   UNL A   1      41.335  25.612  28.011  1.00  0.00    -0.014 A 
BRANCH  42  43
ATOM     43  C   UNL A   1      42.165  26.790  28.359  1.00  0.00     0.031 A 
ATOM     44  C   UNL A   1      41.690  27.867  29.282  1.00  0.00     0.074 A 
ATOM     45  C   UNL A   1      43.387  26.868  27.798  1.00  0.00     0.049 A 
ATOM     46  N   UNL A   1      42.361  28.886  29.753  1.00  0.00    -0.248 NA
ATOM     47  C   UNL A   1      40.291  27.805  29.731  1.00  0.00     0.031 C 
ATOM     48  C   UNL A   1      43.929  25.904  26.838  1.00  0.00     0.029 A 
ATOM     49  N   UNL A   1      44.389  27.790  27.949  1.00  0.00    -0.354 N 
ATOM     50  C   UNL A   1      41.474  29.595  30.550  1.00  0.00     0.074 A 
ATOM     51  C   UNL A   1      40.206  28.894  30.488  1.00  0.00     0.031 C 
ATOM     52  C   UNL A   1      45.171  26.275  26.497  1.00  0.00     0.029 A 
ATOM     53  C   UNL A   1      45.509  27.506  27.208  1.00  0.00     0.049 A 
ATOM     54  H   UNL A   1      44.313  28.580  28.532  1.00  0.00     0.167 HD
ATOM     55  C   UNL A   1      41.707  30.712  31.279  1.00  0.00     0.034 A 
ATOM     56  C   UNL A   1      46.688  28.149  27.116  1.00  0.00     0.034 A 
ATOM     57  C   UNL A   1      42.975  31.391  31.346  1.00  0.00     0.049 A 
ATOM     58  C   UNL A   1      46.925  29.372  27.949  1.00  0.00     0.074 A 
ATOM     59  C   UNL A   1      43.322  32.483  32.125  1.00  0.00     0.029 A 
ATOM     60  N   UNL A   1      44.095  31.062  30.600  1.00  0.00    -0.354 N 
ATOM     61  N   UNL A   1      46.125  29.936  28.820  1.00  0.00    -0.248 NA
ATOM     62  C   UNL A   1      48.233  30.028  27.817  1.00  0.00     0.031 C 
ATOM     63  C   UNL A   1      44.647  32.825  31.836  1.00  0.00     0.029 A 
ATOM     64  C   UNL A   1      45.129  31.938  30.888  1.00  0.00     0.049 A 
ATOM     65  H   UNL A   1      44.149  30.316  29.959  1.00  0.00     0.167 HD
ATOM     66  C   UNL A   1      46.835  31.003  29.353  1.00  0.00     0.074 A 
ATOM     67  C   UNL A   1      48.138  30.999  28.718  1.00  0.00     0.031 C 
ATOM     68  C   UNL A   1      46.434  31.908  30.278  1.00  0.00     0.034 A 
BRANCH  55  69
ATOM     69  C   UNL A   1      40.590  31.253  32.130  1.00  0.00     0.023 A 
ATOM     70  C   UNL A   1      39.503  31.891  31.503  1.00  0.00     0.012 A 
ATOM     71  C   UNL A   1      40.552  31.016  33.518  1.00  0.00     0.148 A 
ATOM     72  C   UNL A   1      38.393  32.293  32.245  1.00  0.00     0.002 A 
ATOM     73  C   UNL A   1      39.430  31.396  34.248  1.00  0.00     0.091 A 
ATOM     74  F   UNL A   1      41.602  30.414  34.092  1.00  0.00    -0.205 F 
ATOM     75  C   UNL A   1      38.353  32.037  33.613  1.00  0.00     0.022 A 
BRANCH  73  76
ATOM     76  S   UNL A   1      39.251  31.064  36.004  1.00  0.00     0.127 S 
ATOM     77  O   UNL A   1      37.857  31.440  36.234  1.00  0.00    -0.237 OA
ATOM     78  O   UNL A   1      39.514  29.626  36.074  1.00  0.00    -0.237 OA
ATOM     79  O   UNL A   1      40.237  31.899  36.676  1.00  0.00    -0.744 OA
ENDBRANCH  73  76
ENDBRANCH  55  69
BRANCH  56  80
ATOM     80  C   UNL A   1      47.754  27.570  26.259  1.00  0.00     0.023 A 
ATOM     81  C   UNL A   1      47.751  27.853  24.881  1.00  0.00     0.012 A 
ATOM     82  C   UNL A   1      48.822  26.842  26.818  1.00  0.00     0.148 A 
ATOM     83  C   UNL A   1      48.798  27.418  24.069  1.00  0.00     0.002 A 
ATOM     84  C   UNL A   1      49.878  26.445  26.010  1.00  0.00     0.091 A 
ATOM     85  F   UNL A   1      48.797  26.596  28.135  1.00  0.00    -0.205 F 
ATOM     86  C   UNL A   1      49.864  26.725  24.634  1.00  0.00     0.022 A 
BRANCH  84  87
ATOM     87  S   UNL A   1      51.349  25.644  26.660  1.00  0.00     0.127 S 
ATOM     88  O   UNL A   1      51.929  26.706  27.478  1.00  0.00    -0.237 OA
ATOM     89  O   UNL A   1      50.772  24.531  27.413  1.00  0.00    -0.237 OA
ATOM     90  O   UNL A   1      52.134  25.251  25.499  1.00  0.00    -0.744 OA
ENDBRANCH  84  87
ENDBRANCH  56  80
BRANCH  68  91
ATOM     91  C   UNL A   1      47.404  32.988  30.675  1.00  0.00     0.023 A 
ATOM     92  C   UNL A   1      48.275  32.765  31.759  1.00  0.00     0.012 A 
ATOM     93  C   UNL A   1      47.532  34.162  29.907  1.00  0.00     0.148 A 
ATOM     94  C   UNL A   1      49.259  33.700  32.077  1.00  0.00     0.002 A 
ATOM     95  C   UNL A   1      48.537  35.072  30.209  1.00  0.00     0.091 A 
ATOM     96  F   UNL A   1      46.683  34.352  28.887  1.00  0.00    -0.205 F 
ATOM     97  C   UNL A   1      49.398  34.846  31.296  1.00  0.00     0.022 A 
BRANCH  95  98
ATOM     98  S   UNL A   1      48.843  36.543  29.222  1.00  0.00     0.127 S 
ATOM     99  O   UNL A   1      47.483  37.014  28.961  1.00  0.00    -0.237 OA
ATOM    100  O   UNL A   1      49.612  37.378  30.145  1.00  0.00    -0.237 OA
ATOM    101  O   UNL A   1      49.578  36.096  28.047  1.00  0.00    -0.744 OA
ENDBRANCH  95  98
ENDBRANCH  68  91
ENDBRANCH  42  43
ENDBRANCH  35  37
ENDBRANCH  34  35
ENDBRANCH  33  34
ENDBRANCH  32  33
ENDBRANCH  31  32
ENDBRANCH  30  31
ENDBRANCH   1  30
TORSDOF 26
ENDMDL
MODEL 3
REMARK VINA RESULT:      -8.2      6.695     10.623
REMARK SMILES CC(C)Cc1cc2c(cc1Cl)C=C(C(=O)OCCOCCOCCOCCOC(=O)c1ccc(-c3c4nc(c(-c5cccc(S(=O)(=O)[O-])c5F)c5ccc([nH]5)c(-c5cccc(S(=O)(=O)[O-])c5F)c5nc(c(-c6cccc(S(=O)(=O)[O-])c6F)c6ccc3[nH]6)C=C5)C=C4)cc1)[C@@H](C(F)(F)F)O2
REMARK SMILES IDX 23 1 22 2 21 3 20 4 19 5 18 6 17 7 16 8 14 9 15 10 13 11
REMARK SMILES IDX 5 12 6 13 10 14 7 15 9 16 11 17 8 18 99 19 12 20 94 21 4 22
REMARK SMILES IDX 2 23 1 24 3 25 95 26 96 27 97 28 98 29 24 30 25 31 26 32
REMARK SMILES IDX 27 33 28 34 29 35 30 36 31 37 32 38 93 39 33 40 92 41 34 42
REMARK SMILES IDX 35 43 36 44 86 45 37 46 91 47 85 48 87 49 38 50 90 51 84 52
REMARK SMILES IDX 83 53 39 55 71 56 51 57 70 58 52 59 55 60 69 61 88 62 53 63
REMARK SMILES IDX 54 64 68 66 89 67 56 68 40 69 41 70 49 71 42 72 44 73 50 74
REMARK SMILES IDX 43 75 45 76 46 77 47 78 48 79 72 80 73 81 81 82 74 83 76 84
REMARK SMILES IDX 82 85 75 86 77 87 78 88 79 89 80 90 57 91 58 92 66 93 59 94
REMARK SMILES IDX 61 95 67 96 60 97 62 98 63 99 64 100 65 101
REMARK H PARENT 87 54 55 65
REMARK Flexibility Score: inf
ROOT
ATOM      1  C   UNL A   1      43.363  24.476  25.828  1.00  0.00     0.188 C 
ENDROOT
BRANCH   1   2
ATOM      2  O   UNL A   1      44.118  23.270  25.716  1.00  0.00    -0.377 OA
BRANCH   2   3
ATOM      3  C   UNL A   1      43.426  22.056  25.960  1.00  0.00     0.188 C 
BRANCH   3   4
ATOM      4  C   UNL A   1      41.900  22.221  25.838  1.00  0.00     0.188 C 
BRANCH   4   5
ATOM      5  O   UNL A   1      41.199  21.753  26.985  1.00  0.00    -0.376 OA
BRANCH   5   6
ATOM      6  C   UNL A   1      40.088  22.508  27.454  1.00  0.00     0.202 C 
BRANCH   6   7
ATOM      7  C   UNL A   1      39.587  23.708  26.630  1.00  0.00     0.261 C 
BRANCH   7   8
ATOM      8  O   UNL A   1      38.181  23.729  26.350  1.00  0.00    -0.460 OA
BRANCH   8   9
ATOM      9  C   UNL A   1      37.677  22.795  25.525  1.00  0.00     0.338 C 
ATOM     10  O   UNL A   1      38.182  21.726  25.229  1.00  0.00    -0.246 OA
BRANCH   9  11
ATOM     11  C   UNL A   1      36.295  23.203  25.183  1.00  0.00     0.087 C 
ATOM     12  C   UNL A   1      31.805  25.419  24.915  1.00  0.00    -0.025 A 
ATOM     13  C   UNL A   1      32.385  24.296  24.306  1.00  0.00     0.052 A 
ATOM     14  C   UNL A   1      32.669  26.326  25.558  1.00  0.00     0.045 A 
ATOM     15  C   UNL A   1      33.732  23.985  24.500  1.00  0.00     0.128 A 
ATOM     16  C   UNL A   1      34.029  26.036  25.720  1.00  0.00     0.032 A 
ATOM     17  Cl  UNL A   1      32.100  27.826  26.207  1.00  0.00    -0.084 Cl
ATOM     18  C   UNL A   1      34.547  24.829  25.249  1.00  0.00     0.019 A 
ATOM     19  O   UNL A   1      34.161  22.820  23.936  1.00  0.00    -0.475 OA
ATOM     20  C   UNL A   1      35.903  24.423  25.573  1.00  0.00     0.027 C 
ATOM     21  C   UNL A   1      35.442  22.272  24.353  1.00  0.00     0.316 C 
BRANCH  12  22
ATOM     22  C   UNL A   1      30.305  25.648  24.918  1.00  0.00     0.040 C 
BRANCH  22  23
ATOM     23  C   UNL A   1      29.732  26.843  24.118  1.00  0.00    -0.013 C 
ATOM     24  C   UNL A   1      30.410  27.039  22.756  1.00  0.00     0.008 C 
ATOM     25  C   UNL A   1      28.232  26.626  23.886  1.00  0.00     0.008 C 
ENDBRANCH  22  23
ENDBRANCH  12  22
BRANCH  21  26
ATOM     26  C   UNL A   1      35.201  20.932  25.059  1.00  0.00     0.430 C 
ATOM     27  F   UNL A   1      36.166  20.032  24.751  1.00  0.00    -0.167 F 
ATOM     28  F   UNL A   1      35.196  21.063  26.403  1.00  0.00    -0.167 F 
ATOM     29  F   UNL A   1      34.014  20.387  24.701  1.00  0.00    -0.167 F 
ENDBRANCH  21  26
ENDBRANCH   9  11
ENDBRANCH   8   9
ENDBRANCH   7   8
ENDBRANCH   6   7
ENDBRANCH   5   6
ENDBRANCH   4   5
ENDBRANCH   3   4
ENDBRANCH   2   3
ENDBRANCH   1   2
BRANCH   1  30
ATOM     30  C   UNL A   1      43.770  25.576  26.837  1.00  0.00     0.188 C 
BRANCH  30  31
ATOM     31  O   UNL A   1      42.659  26.280  27.397  1.00  0.00    -0.376 OA
BRANCH  31  32
ATOM     32  C   UNL A   1      42.611  27.682  27.166  1.00  0.00     0.202 C 
BRANCH  32  33
ATOM     33  C   UNL A   1      43.985  28.324  26.934  1.00  0.00     0.261 C 
BRANCH  33  34
ATOM     34  O   UNL A   1      43.994  29.758  26.908  1.00  0.00    -0.460 OA
BRANCH  34  35
ATOM     35  C   UNL A   1      45.159  30.376  26.604  1.00  0.00     0.338 C 
ATOM     36  O   UNL A   1      46.058  29.940  25.907  1.00  0.00    -0.246 OA
BRANCH  35  37
ATOM     37  C   UNL A   1      45.058  31.764  27.099  1.00  0.00     0.060 A 
ATOM     38  C   UNL A   1      43.900  32.510  26.869  1.00  0.00     0.016 A 
ATOM     39  C   UNL A   1      46.152  32.335  27.762  1.00  0.00     0.016 A 
ATOM     40  C   UNL A   1      43.821  33.823  27.334  1.00  0.00     0.010 A 
ATOM     41  C   UNL A   1      46.075  33.653  28.221  1.00  0.00     0.010 A 
ATOM     42  C   UNL A   1      44.900  34.395  28.032  1.00  0.00    -0.014 A 
BRANCH  42  43
ATOM     43  C   UNL A   1      44.700  35.679  28.745  1.00  0.00     0.031 A 
ATOM     44  C   UNL A   1      44.299  35.749  30.185  1.00  0.00     0.074 A 
ATOM     45  C   UNL A   1      44.886  36.810  28.038  1.00  0.00     0.049 A 
ATOM     46  N   UNL A   1      44.204  36.805  30.950  1.00  0.00    -0.248 NA
ATOM     47  C   UNL A   1      43.956  34.486  30.853  1.00  0.00     0.031 C 
ATOM     48  C   UNL A   1      45.220  36.859  26.612  1.00  0.00     0.029 A 
ATOM     49  N   UNL A   1      44.822  38.127  28.413  1.00  0.00    -0.354 N 
ATOM     50  C   UNL A   1      43.786  36.345  32.190  1.00  0.00     0.074 A 
ATOM     51  C   UNL A   1      43.630  34.908  32.071  1.00  0.00     0.031 C 
ATOM     52  C   UNL A   1      45.348  38.140  26.236  1.00  0.00     0.029 A 
ATOM     53  C   UNL A   1      45.097  39.000  27.389  1.00  0.00     0.049 A 
ATOM     54  H   UNL A   1      44.600  38.418  29.326  1.00  0.00     0.167 HD
ATOM     55  C   UNL A   1      43.573  37.055  33.322  1.00  0.00     0.034 A 
ATOM     56  C   UNL A   1      45.160  40.344  27.375  1.00  0.00     0.034 A 
ATOM     57  C   UNL A   1      43.746  38.481  33.435  1.00  0.00     0.049 A 
ATOM     58  C   UNL A   1      44.940  41.104  28.648  1.00  0.00     0.074 A 
ATOM     59  C   UNL A   1      43.631  39.272  34.566  1.00  0.00     0.029 A 
ATOM     60  N   UNL A   1      44.048  39.332  32.384  1.00  0.00    -0.354 N 
ATOM     61  N   UNL A   1      44.701  40.637  29.849  1.00  0.00    -0.248 NA
ATOM     62  C   UNL A   1      45.029  42.569  28.577  1.00  0.00     0.031 C 
ATOM     63  C   UNL A   1      43.847  40.602  34.196  1.00  0.00     0.029 A 
ATOM     64  C   UNL A   1      44.110  40.639  32.836  1.00  0.00     0.049 A 
ATOM     65  H   UNL A   1      44.197  39.049  31.452  1.00  0.00     0.167 HD
ATOM     66  C   UNL A   1      44.627  41.746  30.680  1.00  0.00     0.074 A 
ATOM     67  C   UNL A   1      44.863  42.910  29.849  1.00  0.00     0.031 C 
ATOM     68  C   UNL A   1      44.378  41.790  32.011  1.00  0.00     0.034 A 
BRANCH  55  69
ATOM     69  C   UNL A   1      43.191  36.308  34.571  1.00  0.00     0.023 A 
ATOM     70  C   UNL A   1      41.829  36.070  34.835  1.00  0.00     0.012 A 
ATOM     71  C   UNL A   1      44.172  35.733  35.405  1.00  0.00     0.148 A 
ATOM     72  C   UNL A   1      41.443  35.276  35.913  1.00  0.00     0.002 A 
ATOM     73  C   UNL A   1      43.780  34.919  36.463  1.00  0.00     0.091 A 
ATOM     74  F   UNL A   1      45.461  35.981  35.138  1.00  0.00    -0.205 F 
ATOM     75  C   UNL A   1      42.417  34.693  36.720  1.00  0.00     0.022 A 
BRANCH  73  76
ATOM     76  S   UNL A   1      44.954  34.076  37.529  1.00  0.00     0.127 S 
ATOM     77  O   UNL A   1      44.077  33.181  38.283  1.00  0.00    -0.237 OA
ATOM     78  O   UNL A   1      45.823  33.406  36.561  1.00  0.00    -0.237 OA
ATOM     79  O   UNL A   1      45.603  35.114  38.317  1.00  0.00    -0.744 OA
ENDBRANCH  73  76
ENDBRANCH  55  69
BRANCH  56  80
ATOM     80  C   UNL A   1      45.539  41.029  26.113  1.00  0.00     0.023 A 
ATOM     81  C   UNL A   1      46.864  40.924  25.651  1.00  0.00     0.012 A 
ATOM     82  C   UNL A   1      44.575  41.682  25.321  1.00  0.00     0.148 A 
ATOM     83  C   UNL A   1      47.225  41.461  24.415  1.00  0.00     0.002 A 
ATOM     84  C   UNL A   1      44.933  42.180  24.076  1.00  0.00     0.091 A 
ATOM     85  F   UNL A   1      43.321  41.758  25.788  1.00  0.00    -0.205 F 
ATOM     86  C   UNL A   1      46.260  42.078  23.625  1.00  0.00     0.022 A 
BRANCH  84  87
ATOM     87  S   UNL A   1      43.742  42.895  22.937  1.00  0.00     0.127 S 
ATOM     88  O   UNL A   1      44.470  42.840  21.672  1.00  0.00    -0.237 OA
ATOM     89  O   UNL A   1      42.626  41.957  23.049  1.00  0.00    -0.237 OA
ATOM     90  O   UNL A   1      43.464  44.233  23.440  1.00  0.00    -0.744 OA
ENDBRANCH  84  87
ENDBRANCH  56  80
BRANCH  68  91
ATOM     91  C   UNL A   1      44.337  43.138  32.677  1.00  0.00     0.023 A 
ATOM     92  C   UNL A   1      43.171  43.921  32.577  1.00  0.00     0.012 A 
ATOM     93  C   UNL A   1      45.401  43.572  33.493  1.00  0.00     0.148 A 
ATOM     94  C   UNL A   1      43.064  45.121  33.278  1.00  0.00     0.002 A 
ATOM     95  C   UNL A   1      45.273  44.752  34.215  1.00  0.00     0.091 A 
ATOM     96  F   UNL A   1      46.503  42.812  33.562  1.00  0.00    -0.205 F 
ATOM     97  C   UNL A   1      44.108  45.531  34.105  1.00  0.00     0.022 A 
BRANCH  95  98
ATOM     98  S   UNL A   1      46.531  45.330  35.361  1.00  0.00     0.127 S 
ATOM     99  O   UNL A   1      47.758  45.094  34.600  1.00  0.00    -0.237 OA
ATOM    100  O   UNL A   1      46.175  46.740  35.523  1.00  0.00    -0.237 OA
ATOM    101  O   UNL A   1      46.385  44.522  36.564  1.00  0.00    -0.744 OA
ENDBRANCH  95  98
ENDBRANCH  68  91
ENDBRANCH  42  43
ENDBRANCH  35  37
ENDBRANCH  34  35
ENDBRANCH  33  34
ENDBRANCH  32  33
ENDBRANCH  31  32
ENDBRANCH  30  31
ENDBRANCH   1  30
TORSDOF 26
ENDMDL
