MODEL 1
REMARK VINA RESULT:      -9.8      0.000      0.000
REMARK SMILES C[C@@H]1[C@@H](C(=O)OCCOCCOCCOCCOC(=O)c2ccc(-c3c4nc(c(-c5cccc(S(=O)(=O)[O-])c5F)c5ccc([nH]5)c(-c5cccc(S(=O)(=O)[O-])c5F)c5nc(c(-c6cccc(S(=O)(=O)[O-])c6F)c6ccc3[nH]6)C=C5)C=C4)cc2)CCN1c1nc2sccn2c1[N+](=O)[O-]
REMARK SMILES IDX 13 1 12 2 11 3 10 4 9 5 8 6 7 7 6 8 4 9 5 10 3 11 1 12 2 13
REMARK SMILES IDX 86 14 84 15 85 16 87 17 88 18 94 19 89 20 93 21 90 22 92 23
REMARK SMILES IDX 91 24 95 25 96 26 97 27 14 28 15 29 16 30 17 31 18 32 19 33
REMARK SMILES IDX 20 34 21 35 22 36 83 37 23 38 82 39 24 40 25 41 26 42 76 43
REMARK SMILES IDX 27 44 81 45 75 46 77 47 28 48 80 49 74 50 73 51 29 53 61 54
REMARK SMILES IDX 41 55 60 56 42 57 45 58 59 59 78 60 43 61 44 62 58 64 79 65
REMARK SMILES IDX 46 66 30 67 31 68 39 69 32 70 34 71 40 72 33 73 35 74 36 75
REMARK SMILES IDX 37 76 38 77 62 78 63 79 71 80 64 81 66 82 72 83 65 84 67 85
REMARK SMILES IDX 68 86 69 87 70 88 47 89 48 90 56 91 49 92 51 93 57 94 50 95
REMARK SMILES IDX 52 96 53 97 54 98 55 99
REMARK H PARENT 77 52 45 63
REMARK Flexibility Score: inf
ROOT
ATOM      1  C   UNL A   1      33.315  27.719  25.845  1.00  0.00     0.188 C 
ENDROOT
BRANCH   1   2
ATOM      2  O   UNL A   1      32.580  27.406  27.020  1.00  0.00    -0.377 OA
BRANCH   2   3
ATOM      3  C   UNL A   1      31.177  27.373  26.898  1.00  0.00     0.188 C 
BRANCH   3   4
ATOM      4  C   UNL A   1      30.697  26.613  25.651  1.00  0.00     0.188 C 
BRANCH   4   5
ATOM      5  O   UNL A   1      30.365  25.237  25.719  1.00  0.00    -0.376 OA
BRANCH   5   6
ATOM      6  C   UNL A   1      30.841  24.335  26.710  1.00  0.00     0.202 C 
BRANCH   6   7
ATOM      7  C   UNL A   1      32.199  23.607  26.729  1.00  0.00     0.261 C 
BRANCH   7   8
ATOM      8  O   UNL A   1      33.310  24.295  26.170  1.00  0.00    -0.463 OA
BRANCH   8   9
ATOM      9  C   UNL A   1      33.551  24.005  24.873  1.00  0.00     0.311 C 
ATOM     10  O   UNL A   1      32.684  23.928  24.012  1.00  0.00    -0.252 OA
BRANCH   9  11
ATOM     11  C   UNL A   1      35.051  23.889  24.649  1.00  0.00     0.123 C 
ATOM     12  C   UNL A   1      36.630  22.616  23.104  1.00  0.00     0.032 C 
ATOM     13  C   UNL A   1      35.324  22.592  23.894  1.00  0.00     0.095 C 
ATOM     14  N   UNL A   1      35.375  21.594  24.984  1.00  0.00    -0.346 N 
ATOM     15  C   UNL A   1      35.810  23.719  25.945  1.00  0.00     0.039 C 
ATOM     16  C   UNL A   1      35.498  22.267  26.282  1.00  0.00     0.119 C 
BRANCH  14  17
ATOM     17  C   UNL A   1      34.775  20.396  24.767  1.00  0.00     0.229 A 
ATOM     18  N   UNL A   1      35.572  19.272  24.940  1.00  0.00    -0.173 NA
ATOM     19  C   UNL A   1      33.493  20.025  24.390  1.00  0.00     0.373 A 
ATOM     20  C   UNL A   1      34.792  18.282  24.632  1.00  0.00     0.286 A 
ATOM     21  N   UNL A   1      33.528  18.660  24.295  1.00  0.00    -0.166 N 
ATOM     22  S   UNL A   1      34.998  16.561  24.567  1.00  0.00    -0.078 S 
ATOM     23  C   UNL A   1      32.688  17.609  23.973  1.00  0.00     0.220 A 
ATOM     24  C   UNL A   1      33.308  16.420  24.074  1.00  0.00     0.114 A 
BRANCH  19  25
ATOM     25  N   UNL A   1      32.301  20.724  24.095  1.00  0.00    -0.023 N 
ATOM     26  O   UNL A   1      31.523  20.988  25.012  1.00  0.00    -0.358 OA
ATOM     27  O   UNL A   1      32.130  21.057  22.915  1.00  0.00    -0.358 OA
ENDBRANCH  19  25
ENDBRANCH  14  17
ENDBRANCH   9  11
ENDBRANCH   8   9
ENDBRANCH   7   8
ENDBRANCH   6   7
ENDBRANCH   5   6
ENDBRANCH   4   5
ENDBRANCH   3   4
ENDBRANCH   2   3
ENDBRANCH   1   2
BRANCH   1  28
ATOM     28  C   UNL A   1      33.613  29.199  25.507  1.00  0.00     0.188 C 
BRANCH  28  29
ATOM     29  O   UNL A   1      32.549  30.107  25.768  1.00  0.00    -0.376 OA
BRANCH  29  30
ATOM     30  C   UNL A   1      32.554  30.836  26.985  1.00  0.00     0.202 C 
BRANCH  30  31
ATOM     31  C   UNL A   1      32.126  32.311  26.931  1.00  0.00     0.261 C 
BRANCH  31  32
ATOM     32  O   UNL A   1      33.187  33.275  26.972  1.00  0.00    -0.460 OA
BRANCH  32  33
ATOM     33  C   UNL A   1      33.269  34.056  28.071  1.00  0.00     0.338 C 
ATOM     34  O   UNL A   1      32.470  34.907  28.423  1.00  0.00    -0.246 OA
BRANCH  33  35
ATOM     35  C   UNL A   1      34.388  33.559  28.897  1.00  0.00     0.060 A 
ATOM     36  C   UNL A   1      35.689  33.992  28.601  1.00  0.00     0.016 A 
ATOM     37  C   UNL A   1      34.158  32.689  29.966  1.00  0.00     0.016 A 
ATOM     38  C   UNL A   1      36.768  33.520  29.345  1.00  0.00     0.010 A 
ATOM     39  C   UNL A   1      35.243  32.198  30.695  1.00  0.00     0.010 A 
ATOM     40  C   UNL A   1      36.556  32.580  30.361  1.00  0.00    -0.014 A 
BRANCH  40  41
ATOM     41  C   UNL A   1      37.710  31.837  30.920  1.00  0.00     0.031 A 
ATOM     42  C   UNL A   1      38.098  32.105  32.350  1.00  0.00     0.074 A 
ATOM     43  C   UNL A   1      38.393  30.942  30.187  1.00  0.00     0.049 A 
ATOM     44  N   UNL A   1      39.087  31.613  33.046  1.00  0.00    -0.248 NA
ATOM     45  C   UNL A   1      37.256  33.060  33.090  1.00  0.00     0.031 C 
ATOM     46  C   UNL A   1      38.103  30.584  28.800  1.00  0.00     0.029 A 
ATOM     47  N   UNL A   1      39.495  30.188  30.508  1.00  0.00    -0.354 N 
ATOM     48  C   UNL A   1      39.007  32.220  34.294  1.00  0.00     0.074 A 
ATOM     49  C   UNL A   1      37.880  33.125  34.256  1.00  0.00     0.031 C 
ATOM     50  C   UNL A   1      39.025  29.700  28.378  1.00  0.00     0.029 A 
ATOM     51  C   UNL A   1      39.985  29.455  29.453  1.00  0.00     0.049 A 
ATOM     52  H   UNL A   1      39.896  30.174  31.408  1.00  0.00     0.167 HD
ATOM     53  C   UNL A   1      39.795  32.034  35.380  1.00  0.00     0.034 A 
ATOM     54  C   UNL A   1      41.097  28.697  29.362  1.00  0.00     0.034 A 
ATOM     55  C   UNL A   1      40.909  31.127  35.417  1.00  0.00     0.049 A 
ATOM     56  C   UNL A   1      41.981  28.538  30.574  1.00  0.00     0.074 A 
ATOM     57  C   UNL A   1      41.743  30.837  36.481  1.00  0.00     0.029 A 
ATOM     58  N   UNL A   1      41.358  30.380  34.339  1.00  0.00    -0.354 N 
ATOM     59  N   UNL A   1      41.834  29.035  31.778  1.00  0.00    -0.248 NA
ATOM     60  C   UNL A   1      43.171  27.687  30.420  1.00  0.00     0.031 C 
ATOM     61  C   UNL A   1      42.723  29.944  36.035  1.00  0.00     0.029 A 
ATOM     62  C   UNL A   1      42.467  29.641  34.707  1.00  0.00     0.049 A 
ATOM     63  H   UNL A   1      40.947  30.375  33.445  1.00  0.00     0.167 HD
ATOM     64  C   UNL A   1      42.884  28.523  32.535  1.00  0.00     0.074 A 
ATOM     65  C   UNL A   1      43.651  27.665  31.656  1.00  0.00     0.031 C 
ATOM     66  C   UNL A   1      43.192  28.750  33.836  1.00  0.00     0.034 A 
BRANCH  53  67
ATOM     67  C   UNL A   1      39.475  32.827  36.618  1.00  0.00     0.023 A 
ATOM     68  C   UNL A   1      40.032  34.110  36.796  1.00  0.00     0.012 A 
ATOM     69  C   UNL A   1      38.582  32.322  37.583  1.00  0.00     0.148 A 
ATOM     70  C   UNL A   1      39.734  34.862  37.932  1.00  0.00     0.002 A 
ATOM     71  C   UNL A   1      38.250  33.096  38.687  1.00  0.00     0.091 A 
ATOM     72  F   UNL A   1      38.082  31.090  37.407  1.00  0.00    -0.205 F 
ATOM     73  C   UNL A   1      38.835  34.360  38.870  1.00  0.00     0.022 A 
BRANCH  71  74
ATOM     74  S   UNL A   1      37.042  32.575  39.909  1.00  0.00     0.127 S 
ATOM     75  O   UNL A   1      37.638  31.333  40.400  1.00  0.00    -0.237 OA
ATOM     76  O   UNL A   1      37.073  33.685  40.862  1.00  0.00    -0.237 OA
ATOM     77  O   UNL A   1      35.785  32.420  39.192  1.00  0.00    -0.744 OA
ENDBRANCH  71  74
ENDBRANCH  53  67
BRANCH  54  78
ATOM     78  C   UNL A   1      41.436  28.015  28.081  1.00  0.00     0.023 A 
ATOM     79  C   UNL A   1      41.898  28.771  26.987  1.00  0.00     0.012 A 
ATOM     80  C   UNL A   1      41.298  26.620  27.942  1.00  0.00     0.148 A 
ATOM     81  C   UNL A   1      42.182  28.156  25.767  1.00  0.00     0.002 A 
ATOM     82  C   UNL A   1      41.637  26.006  26.743  1.00  0.00     0.091 A 
ATOM     83  F   UNL A   1      40.840  25.920  28.990  1.00  0.00    -0.205 F 
ATOM     84  C   UNL A   1      42.060  26.774  25.647  1.00  0.00     0.022 A 
BRANCH  82  85
ATOM     85  S   UNL A   1      41.628  24.222  26.535  1.00  0.00     0.127 S 
ATOM     86  O   UNL A   1      42.366  24.062  25.285  1.00  0.00    -0.237 OA
ATOM     87  O   UNL A   1      42.341  23.780  27.734  1.00  0.00    -0.237 OA
ATOM     88  O   UNL A   1      40.224  23.836  26.493  1.00  0.00    -0.744 OA
ENDBRANCH  82  85
ENDBRANCH  54  78
BRANCH  66  89
ATOM     89  C   UNL A   1      44.377  28.021  34.418  1.00  0.00     0.023 A 
ATOM     90  C   UNL A   1      45.656  28.611  34.393  1.00  0.00     0.012 A 
ATOM     91  C   UNL A   1      44.203  26.776  35.059  1.00  0.00     0.148 A 
ATOM     92  C   UNL A   1      46.750  27.958  34.963  1.00  0.00     0.002 A 
ATOM     93  C   UNL A   1      45.285  26.159  35.672  1.00  0.00     0.091 A 
ATOM     94  F   UNL A   1      42.982  26.224  35.059  1.00  0.00    -0.205 F 
ATOM     95  C   UNL A   1      46.562  26.740  35.613  1.00  0.00     0.022 A 
BRANCH  93  96
ATOM     96  S   UNL A   1      45.121  24.640  36.617  1.00  0.00     0.127 S 
ATOM     97  O   UNL A   1      46.514  24.334  36.935  1.00  0.00    -0.237 OA
ATOM     98  O   UNL A   1      44.314  25.072  37.758  1.00  0.00    -0.237 OA
ATOM     99  O   UNL A   1      44.460  23.686  35.735  1.00  0.00    -0.744 OA
ENDBRANCH  93  96
ENDBRANCH  66  89
ENDBRANCH  40  41
ENDBRANCH  33  35
ENDBRANCH  32  33
ENDBRANCH  31  32
ENDBRANCH  30  31
ENDBRANCH  29  30
ENDBRANCH  28  29
ENDBRANCH   1  28
TORSDOF 25
ENDMDL
MODEL 2
REMARK VINA RESULT:      -9.6      6.572     10.550
REMARK SMILES C[C@@H]1[C@@H](C(=O)OCCOCCOCCOCCOC(=O)c2ccc(-c3c4nc(c(-c5cccc(S(=O)(=O)[O-])c5F)c5ccc([nH]5)c(-c5cccc(S(=O)(=O)[O-])c5F)c5nc(c(-c6cccc(S(=O)(=O)[O-])c6F)c6ccc3[nH]6)C=C5)C=C4)cc2)CCN1c1nc2sccn2c1[N+](=O)[O-]
REMARK SMILES IDX 13 1 12 2 11 3 10 4 9 5 8 6 7 7 6 8 4 9 5 10 3 11 1 12 2 13
REMARK SMILES IDX 86 14 84 15 85 16 87 17 88 18 94 19 89 20 93 21 90 22 92 23
REMARK SMILES IDX 91 24 95 25 96 26 97 27 14 28 15 29 16 30 17 31 18 32 19 33
REMARK SMILES IDX 20 34 21 35 22 36 83 37 23 38 82 39 24 40 25 41 26 42 76 43
REMARK SMILES IDX 27 44 81 45 75 46 77 47 28 48 80 49 74 50 73 51 29 53 61 54
REMARK SMILES IDX 41 55 60 56 42 57 45 58 59 59 78 60 43 61 44 62 58 64 79 65
REMARK SMILES IDX 46 66 30 67 31 68 39 69 32 70 34 71 40 72 33 73 35 74 36 75
REMARK SMILES IDX 37 76 38 77 62 78 63 79 71 80 64 81 66 82 72 83 65 84 67 85
REMARK SMILES IDX 68 86 69 87 70 88 47 89 48 90 56 91 49 92 51 93 57 94 50 95
REMARK SMILES IDX 52 96 53 97 54 98 55 99
REMARK H PARENT 77 52 45 63
REMARK Flexibility Score: inf
ROOT
ATOM      1  C   UNL A   1      41.396  21.268  26.171  1.00  0.00     0.188 C 
ENDROOT
BRANCH   1   2
ATOM      2  O   UNL A   1      41.222  22.667  26.344  1.00  0.00    -0.377 OA
BRANCH   2   3
ATOM      3  C   UNL A   1      40.507  23.080  27.485  1.00  0.00     0.188 C 
BRANCH   3   4
ATOM      4  C   UNL A   1      39.578  24.274  27.215  1.00  0.00     0.188 C 
BRANCH   4   5
ATOM      5  O   UNL A   1      38.191  24.082  26.992  1.00  0.00    -0.376 OA
BRANCH   5   6
ATOM      6  C   UNL A   1      37.613  23.713  25.747  1.00  0.00     0.202 C 
BRANCH   6   7
ATOM      7  C   UNL A   1      36.112  23.633  25.406  1.00  0.00     0.261 C 
BRANCH   7   8
ATOM      8  O   UNL A   1      35.678  22.510  24.652  1.00  0.00    -0.463 OA
BRANCH   8   9
ATOM      9  C   UNL A   1      34.762  21.739  25.278  1.00  0.00     0.311 C 
ATOM     10  O   UNL A   1      34.845  21.380  26.445  1.00  0.00    -0.252 OA
BRANCH   9  11
ATOM     11  C   UNL A   1      33.591  21.479  24.340  1.00  0.00     0.123 C 
ATOM     12  C   UNL A   1      32.639  22.481  22.198  1.00  0.00     0.032 C 
ATOM     13  C   UNL A   1      33.338  22.746  23.529  1.00  0.00     0.095 C 
ATOM     14  N   UNL A   1      32.480  23.539  24.436  1.00  0.00    -0.346 N 
ATOM     15  C   UNL A   1      32.297  21.265  25.090  1.00  0.00     0.039 C 
ATOM     16  C   UNL A   1      31.962  22.689  25.514  1.00  0.00     0.119 C 
BRANCH  14  17
ATOM     17  C   UNL A   1      32.723  24.871  24.525  1.00  0.00     0.229 A 
ATOM     18  N   UNL A   1      32.929  25.370  25.805  1.00  0.00    -0.173 NA
ATOM     19  C   UNL A   1      32.808  25.890  23.589  1.00  0.00     0.373 A 
ATOM     20  C   UNL A   1      33.087  26.645  25.623  1.00  0.00     0.286 A 
ATOM     21  N   UNL A   1      33.029  27.027  24.317  1.00  0.00    -0.166 N 
ATOM     22  S   UNL A   1      33.374  27.987  26.684  1.00  0.00    -0.078 S 
ATOM     23  C   UNL A   1      33.205  28.385  24.116  1.00  0.00     0.220 A 
ATOM     24  C   UNL A   1      33.409  29.044  25.270  1.00  0.00     0.114 A 
BRANCH  19  25
ATOM     25  N   UNL A   1      32.695  25.962  22.182  1.00  0.00    -0.023 N 
ATOM     26  O   UNL A   1      33.721  26.028  21.505  1.00  0.00    -0.358 OA
ATOM     27  O   UNL A   1      31.549  25.922  21.715  1.00  0.00    -0.358 OA
ENDBRANCH  19  25
ENDBRANCH  14  17
ENDBRANCH   9  11
ENDBRANCH   8   9
ENDBRANCH   7   8
ENDBRANCH   6   7
ENDBRANCH   5   6
ENDBRANCH   4   5
ENDBRANCH   3   4
ENDBRANCH   2   3
ENDBRANCH   1   2
BRANCH   1  28
ATOM     28  C   UNL A   1      41.609  20.370  27.413  1.00  0.00     0.188 C 
BRANCH  28  29
ATOM     29  O   UNL A   1      42.417  19.219  27.197  1.00  0.00    -0.376 OA
BRANCH  29  30
ATOM     30  C   UNL A   1      42.634  18.774  25.867  1.00  0.00     0.202 C 
BRANCH  30  31
ATOM     31  C   UNL A   1      44.054  18.320  25.492  1.00  0.00     0.261 C 
BRANCH  31  32
ATOM     32  O   UNL A   1      45.030  19.360  25.349  1.00  0.00    -0.460 OA
BRANCH  32  33
ATOM     33  C   UNL A   1      44.837  20.254  24.355  1.00  0.00     0.338 C 
ATOM     34  O   UNL A   1      44.534  20.007  23.200  1.00  0.00    -0.246 OA
BRANCH  33  35
ATOM     35  C   UNL A   1      44.845  21.605  24.953  1.00  0.00     0.060 A 
ATOM     36  C   UNL A   1      44.559  22.706  24.133  1.00  0.00     0.016 A 
ATOM     37  C   UNL A   1      45.113  21.786  26.312  1.00  0.00     0.016 A 
ATOM     38  C   UNL A   1      44.585  23.996  24.660  1.00  0.00     0.010 A 
ATOM     39  C   UNL A   1      45.163  23.081  26.833  1.00  0.00     0.010 A 
ATOM     40  C   UNL A   1      44.940  24.192  26.000  1.00  0.00    -0.014 A 
BRANCH  40  41
ATOM     41  C   UNL A   1      45.290  25.554  26.470  1.00  0.00     0.031 A 
ATOM     42  C   UNL A   1      44.183  26.425  27.001  1.00  0.00     0.074 A 
ATOM     43  C   UNL A   1      46.554  26.007  26.437  1.00  0.00     0.049 A 
ATOM     44  N   UNL A   1      44.231  27.657  27.430  1.00  0.00    -0.248 NA
ATOM     45  C   UNL A   1      42.840  25.822  27.051  1.00  0.00     0.031 C 
ATOM     46  C   UNL A   1      47.712  25.253  25.963  1.00  0.00     0.029 A 
ATOM     47  N   UNL A   1      47.068  27.231  26.790  1.00  0.00    -0.354 N 
ATOM     48  C   UNL A   1      42.925  27.989  27.770  1.00  0.00     0.074 A 
ATOM     49  C   UNL A   1      42.104  26.833  27.486  1.00  0.00     0.031 C 
ATOM     50  C   UNL A   1      48.800  26.042  26.025  1.00  0.00     0.029 A 
ATOM     51  C   UNL A   1      48.408  27.363  26.514  1.00  0.00     0.049 A 
ATOM     52  H   UNL A   1      46.528  27.944  27.201  1.00  0.00     0.167 HD
ATOM     53  C   UNL A   1      42.450  29.150  28.282  1.00  0.00     0.034 A 
ATOM     54  C   UNL A   1      49.215  28.438  26.619  1.00  0.00     0.034 A 
ATOM     55  C   UNL A   1      43.270  30.295  28.570  1.00  0.00     0.049 A 
ATOM     56  C   UNL A   1      48.654  29.732  27.154  1.00  0.00     0.074 A 
ATOM     57  C   UNL A   1      42.892  31.502  29.128  1.00  0.00     0.029 A 
ATOM     58  N   UNL A   1      44.628  30.382  28.305  1.00  0.00    -0.354 N 
ATOM     59  N   UNL A   1      47.440  29.999  27.571  1.00  0.00    -0.248 NA
ATOM     60  C   UNL A   1      49.585  30.866  27.261  1.00  0.00     0.031 C 
ATOM     61  C   UNL A   1      44.013  32.336  29.163  1.00  0.00     0.029 A 
ATOM     62  C   UNL A   1      45.100  31.629  28.673  1.00  0.00     0.049 A 
ATOM     63  H   UNL A   1      45.175  29.664  27.914  1.00  0.00     0.167 HD
ATOM     64  C   UNL A   1      47.472  31.313  28.029  1.00  0.00     0.074 A 
ATOM     65  C   UNL A   1      48.830  31.782  27.853  1.00  0.00     0.031 C 
ATOM     66  C   UNL A   1      46.467  32.067  28.540  1.00  0.00     0.034 A 
BRANCH  53  67
ATOM     67  C   UNL A   1      40.975  29.236  28.565  1.00  0.00     0.023 A 
ATOM     68  C   UNL A   1      40.063  29.423  27.505  1.00  0.00     0.012 A 
ATOM     69  C   UNL A   1      40.486  29.081  29.877  1.00  0.00     0.148 A 
ATOM     70  C   UNL A   1      38.693  29.491  27.751  1.00  0.00     0.002 A 
ATOM     71  C   UNL A   1      39.117  29.100  30.108  1.00  0.00     0.091 A 
ATOM     72  F   UNL A   1      41.371  28.928  30.874  1.00  0.00    -0.205 F 
ATOM     73  C   UNL A   1      38.220  29.318  29.050  1.00  0.00     0.022 A 
BRANCH  71  74
ATOM     74  S   UNL A   1      38.404  28.805  31.730  1.00  0.00     0.127 S 
ATOM     75  O   UNL A   1      36.976  28.967  31.458  1.00  0.00    -0.237 OA
ATOM     76  O   UNL A   1      38.821  27.430  32.002  1.00  0.00    -0.237 OA
ATOM     77  O   UNL A   1      38.985  29.806  32.614  1.00  0.00    -0.744 OA
ENDBRANCH  71  74
ENDBRANCH  53  67
BRANCH  54  78
ATOM     78  C   UNL A   1      50.649  28.340  26.223  1.00  0.00     0.023 A 
ATOM     79  C   UNL A   1      51.034  28.650  24.905  1.00  0.00     0.012 A 
ATOM     80  C   UNL A   1      51.632  27.937  27.149  1.00  0.00     0.148 A 
ATOM     81  C   UNL A   1      52.365  28.525  24.504  1.00  0.00     0.002 A 
ATOM     82  C   UNL A   1      52.964  27.870  26.759  1.00  0.00     0.091 A 
ATOM     83  F   UNL A   1      51.244  27.631  28.394  1.00  0.00    -0.205 F 
ATOM     84  C   UNL A   1      53.331  28.144  25.432  1.00  0.00     0.022 A 
BRANCH  82  85
ATOM     85  S   UNL A   1      54.291  27.508  27.914  1.00  0.00     0.127 S 
ATOM     86  O   UNL A   1      53.931  26.169  28.372  1.00  0.00    -0.237 OA
ATOM     87  O   UNL A   1      55.467  27.567  27.046  1.00  0.00    -0.237 OA
ATOM     88  O   UNL A   1      54.234  28.557  28.923  1.00  0.00    -0.744 OA
ENDBRANCH  82  85
ENDBRANCH  54  78
BRANCH  66  89
ATOM     89  C   UNL A   1      46.797  33.464  29.002  1.00  0.00     0.023 A 
ATOM     90  C   UNL A   1      47.330  33.679  30.288  1.00  0.00     0.012 A 
ATOM     91  C   UNL A   1      46.648  34.558  28.124  1.00  0.00     0.148 A 
ATOM     92  C   UNL A   1      47.672  34.965  30.708  1.00  0.00     0.002 A 
ATOM     93  C   UNL A   1      47.043  35.827  28.529  1.00  0.00     0.091 A 
ATOM     94  F   UNL A   1      46.126  34.336  26.909  1.00  0.00    -0.205 F 
ATOM     95  C   UNL A   1      47.541  36.035  29.824  1.00  0.00     0.022 A 
BRANCH  93  96
ATOM     96  S   UNL A   1      47.005  37.246  27.429  1.00  0.00     0.127 S 
ATOM     97  O   UNL A   1      45.599  37.278  27.031  1.00  0.00    -0.237 OA
ATOM     98  O   UNL A   1      47.414  38.335  28.316  1.00  0.00    -0.237 OA
ATOM     99  O   UNL A   1      47.948  36.951  26.358  1.00  0.00    -0.744 OA
ENDBRANCH  93  96
ENDBRANCH  66  89
ENDBRANCH  40  41
ENDBRANCH  33  35
ENDBRANCH  32  33
ENDBRANCH  31  32
ENDBRANCH  30  31
ENDBRANCH  29  30
ENDBRANCH  28  29
ENDBRANCH   1  28
TORSDOF 25
ENDMDL
MODEL 3
REMARK VINA RESULT:      -9.3      1.805      2.133
REMARK SMILES C[C@@H]1[C@@H](C(=O)OCCOCCOCCOCCOC(=O)c2ccc(-c3c4nc(c(-c5cccc(S(=O)(=O)[O-])c5F)c5ccc([nH]5)c(-c5cccc(S(=O)(=O)[O-])c5F)c5nc(c(-c6cccc(S(=O)(=O)[O-])c6F)c6ccc3[nH]6)C=C5)C=C4)cc2)CCN1c1nc2sccn2c1[N+](=O)[O-]
REMARK SMILES IDX 13 1 12 2 11 3 10 4 9 5 8 6 7 7 6 8 4 9 5 10 3 11 1 12 2 13
REMARK SMILES IDX 86 14 84 15 85 16 87 17 88 18 94 19 89 20 93 21 90 22 92 23
REMARK SMILES IDX 91 24 95 25 96 26 97 27 14 28 15 29 16 30 17 31 18 32 19 33
REMARK SMILES IDX 20 34 21 35 22 36 83 37 23 38 82 39 24 40 25 41 26 42 76 43
REMARK SMILES IDX 27 44 81 45 75 46 77 47 28 48 80 49 74 50 73 51 29 53 61 54
REMARK SMILES IDX 41 55 60 56 42 57 45 58 59 59 78 60 43 61 44 62 58 64 79 65
REMARK SMILES IDX 46 66 30 67 31 68 39 69 32 70 34 71 40 72 33 73 35 74 36 75
REMARK SMILES IDX 37 76 38 77 62 78 63 79 71 80 64 81 66 82 72 83 65 84 67 85
REMARK SMILES IDX 68 86 69 87 70 88 47 89 48 90 56 91 49 92 51 93 57 94 50 95
REMARK SMILES IDX 52 96 53 97 54 98 55 99
REMARK H PARENT 77 52 45 63
REMARK Flexibility Score: inf
ROOT
ATOM      1  C   UNL A   1      33.066  28.088  25.307  1.00  0.00     0.188 C 
ENDROOT
BRANCH   1   2
ATOM      2  O   UNL A   1      32.741  27.572  26.590  1.00  0.00    -0.377 OA
BRANCH   2   3
ATOM      3  C   UNL A   1      31.371  27.476  26.904  1.00  0.00     0.188 C 
BRANCH   3   4
ATOM      4  C   UNL A   1      30.570  26.666  25.871  1.00  0.00     0.188 C 
BRANCH   4   5
ATOM      5  O   UNL A   1      30.563  25.248  25.904  1.00  0.00    -0.376 OA
BRANCH   5   6
ATOM      6  C   UNL A   1      31.222  24.456  26.883  1.00  0.00     0.202 C 
BRANCH   6   7
ATOM      7  C   UNL A   1      32.395  23.483  26.656  1.00  0.00     0.261 C 
BRANCH   7   8
ATOM      8  O   UNL A   1      33.647  24.050  26.295  1.00  0.00    -0.463 OA
BRANCH   8   9
ATOM      9  C   UNL A   1      33.865  24.119  24.964  1.00  0.00     0.311 C 
ATOM     10  O   UNL A   1      32.999  24.368  24.136  1.00  0.00    -0.252 OA
BRANCH   9  11
ATOM     11  C   UNL A   1      35.350  23.936  24.683  1.00  0.00     0.123 C 
ATOM     12  C   UNL A   1      36.809  22.615  23.064  1.00  0.00     0.032 C 
ATOM     13  C   UNL A   1      35.533  22.640  23.900  1.00  0.00     0.095 C 
ATOM     14  N   UNL A   1      35.575  21.623  24.973  1.00  0.00    -0.346 N 
ATOM     15  C   UNL A   1      36.145  23.710  25.948  1.00  0.00     0.039 C 
ATOM     16  C   UNL A   1      35.777  22.268  26.275  1.00  0.00     0.119 C 
BRANCH  14  17
ATOM     17  C   UNL A   1      34.911  20.458  24.761  1.00  0.00     0.229 A 
ATOM     18  N   UNL A   1      35.649  19.294  24.930  1.00  0.00    -0.173 NA
ATOM     19  C   UNL A   1      33.608  20.156  24.393  1.00  0.00     0.373 A 
ATOM     20  C   UNL A   1      34.815  18.347  24.627  1.00  0.00     0.286 A 
ATOM     21  N   UNL A   1      33.571  18.791  24.298  1.00  0.00    -0.166 N 
ATOM     22  S   UNL A   1      34.928  16.617  24.563  1.00  0.00    -0.078 S 
ATOM     23  C   UNL A   1      32.674  17.786  23.983  1.00  0.00     0.220 A 
ATOM     24  C   UNL A   1      33.230  16.566  24.081  1.00  0.00     0.114 A 
BRANCH  19  25
ATOM     25  N   UNL A   1      32.453  20.917  24.105  1.00  0.00    -0.023 N 
ATOM     26  O   UNL A   1      32.340  21.430  22.992  1.00  0.00    -0.358 OA
ATOM     27  O   UNL A   1      31.600  20.991  25.001  1.00  0.00    -0.358 OA
ENDBRANCH  19  25
ENDBRANCH  14  17
ENDBRANCH   9  11
ENDBRANCH   8   9
ENDBRANCH   7   8
ENDBRANCH   6   7
ENDBRANCH   5   6
ENDBRANCH   4   5
ENDBRANCH   3   4
ENDBRANCH   2   3
ENDBRANCH   1   2
BRANCH   1  28
ATOM     28  C   UNL A   1      33.243  29.615  25.125  1.00  0.00     0.188 C 
BRANCH  28  29
ATOM     29  O   UNL A   1      32.372  30.423  25.907  1.00  0.00    -0.376 OA
BRANCH  29  30
ATOM     30  C   UNL A   1      32.878  31.039  27.081  1.00  0.00     0.202 C 
BRANCH  30  31
ATOM     31  C   UNL A   1      32.462  32.493  27.355  1.00  0.00     0.261 C 
BRANCH  31  32
ATOM     32  O   UNL A   1      33.525  33.454  27.400  1.00  0.00    -0.460 OA
BRANCH  32  33
ATOM     33  C   UNL A   1      33.611  34.228  28.502  1.00  0.00     0.338 C 
ATOM     34  O   UNL A   1      32.838  35.111  28.837  1.00  0.00    -0.246 OA
BRANCH  33  35
ATOM     35  C   UNL A   1      34.688  33.685  29.356  1.00  0.00     0.060 A 
ATOM     36  C   UNL A   1      35.999  34.141  29.159  1.00  0.00     0.016 A 
ATOM     37  C   UNL A   1      34.406  32.748  30.353  1.00  0.00     0.016 A 
ATOM     38  C   UNL A   1      37.040  33.627  29.929  1.00  0.00     0.010 A 
ATOM     39  C   UNL A   1      35.454  32.215  31.107  1.00  0.00     0.010 A 
ATOM     40  C   UNL A   1      36.780  32.623  30.870  1.00  0.00    -0.014 A 
BRANCH  40  41
ATOM     41  C   UNL A   1      37.908  31.851  31.443  1.00  0.00     0.031 A 
ATOM     42  C   UNL A   1      38.414  32.243  32.806  1.00  0.00     0.074 A 
ATOM     43  C   UNL A   1      38.465  30.823  30.782  1.00  0.00     0.049 A 
ATOM     44  N   UNL A   1      39.406  31.749  33.495  1.00  0.00    -0.248 NA
ATOM     45  C   UNL A   1      37.703  33.345  33.477  1.00  0.00     0.031 C 
ATOM     46  C   UNL A   1      38.053  30.338  29.466  1.00  0.00     0.029 A 
ATOM     47  N   UNL A   1      39.524  30.017  31.123  1.00  0.00    -0.354 N 
ATOM     48  C   UNL A   1      39.461  32.497  34.666  1.00  0.00     0.074 A 
ATOM     49  C   UNL A   1      38.410  33.487  34.588  1.00  0.00     0.031 C 
ATOM     50  C   UNL A   1      38.871  29.336  29.097  1.00  0.00     0.029 A 
ATOM     51  C   UNL A   1      39.880  29.131  30.135  1.00  0.00     0.049 A 
ATOM     52  H   UNL A   1      39.984  30.070  31.993  1.00  0.00     0.167 HD
ATOM     53  C   UNL A   1      40.305  32.367  35.716  1.00  0.00     0.034 A 
ATOM     54  C   UNL A   1      40.920  28.274  30.068  1.00  0.00     0.034 A 
ATOM     55  C   UNL A   1      41.344  31.378  35.794  1.00  0.00     0.049 A 
ATOM     56  C   UNL A   1      41.870  28.176  31.235  1.00  0.00     0.074 A 
ATOM     57  C   UNL A   1      42.225  31.138  36.833  1.00  0.00     0.029 A 
ATOM     58  N   UNL A   1      41.657  30.478  34.787  1.00  0.00    -0.354 N 
ATOM     59  N   UNL A   1      41.846  28.816  32.379  1.00  0.00    -0.248 NA
ATOM     60  C   UNL A   1      42.976  27.214  31.112  1.00  0.00     0.031 C 
ATOM     61  C   UNL A   1      43.097  30.119  36.438  1.00  0.00     0.029 A 
ATOM     62  C   UNL A   1      42.727  29.691  35.173  1.00  0.00     0.049 A 
ATOM     63  H   UNL A   1      41.186  30.408  33.925  1.00  0.00     0.167 HD
ATOM     64  C   UNL A   1      42.902  28.305  33.127  1.00  0.00     0.074 A 
ATOM     65  C   UNL A   1      43.537  27.290  32.312  1.00  0.00     0.031 C 
ATOM     66  C   UNL A   1      43.317  28.649  34.372  1.00  0.00     0.034 A 
BRANCH  53  67
ATOM     67  C   UNL A   1      40.135  33.320  36.869  1.00  0.00     0.023 A 
ATOM     68  C   UNL A   1      39.126  33.093  37.828  1.00  0.00     0.012 A 
ATOM     69  C   UNL A   1      41.008  34.413  37.030  1.00  0.00     0.148 A 
ATOM     70  C   UNL A   1      38.967  33.959  38.909  1.00  0.00     0.002 A 
ATOM     71  C   UNL A   1      40.875  35.244  38.136  1.00  0.00     0.091 A 
ATOM     72  F   UNL A   1      41.945  34.626  36.094  1.00  0.00    -0.205 F 
ATOM     73  C   UNL A   1      39.847  35.026  39.068  1.00  0.00     0.022 A 
BRANCH  71  74
ATOM     74  S   UNL A   1      42.008  36.595  38.475  1.00  0.00     0.127 S 
ATOM     75  O   UNL A   1      42.281  37.095  37.127  1.00  0.00    -0.237 OA
ATOM     76  O   UNL A   1      41.187  37.482  39.299  1.00  0.00    -0.237 OA
ATOM     77  O   UNL A   1      43.147  36.004  39.161  1.00  0.00    -0.744 OA
ENDBRANCH  71  74
ENDBRANCH  53  67
BRANCH  54  78
ATOM     78  C   UNL A   1      41.114  27.425  28.858  1.00  0.00     0.023 A 
ATOM     79  C   UNL A   1      40.346  26.256  28.693  1.00  0.00     0.012 A 
ATOM     80  C   UNL A   1      42.060  27.770  27.873  1.00  0.00     0.148 A 
ATOM     81  C   UNL A   1      40.542  25.427  27.589  1.00  0.00     0.002 A 
ATOM     82  C   UNL A   1      42.210  26.970  26.746  1.00  0.00     0.091 A 
ATOM     83  F   UNL A   1      42.792  28.877  28.056  1.00  0.00    -0.205 F 
ATOM     84  C   UNL A   1      41.466  25.787  26.611  1.00  0.00     0.022 A 
BRANCH  82  85
ATOM     85  S   UNL A   1      43.286  27.419  25.381  1.00  0.00     0.127 S 
ATOM     86  O   UNL A   1      44.278  28.259  26.045  1.00  0.00    -0.237 OA
ATOM     87  O   UNL A   1      43.777  26.111  24.947  1.00  0.00    -0.237 OA
ATOM     88  O   UNL A   1      42.435  28.094  24.411  1.00  0.00    -0.744 OA
ENDBRANCH  82  85
ENDBRANCH  54  78
BRANCH  66  89
ATOM     89  C   UNL A   1      44.478  27.890  34.963  1.00  0.00     0.023 A 
ATOM     90  C   UNL A   1      45.781  28.425  34.904  1.00  0.00     0.012 A 
ATOM     91  C   UNL A   1      44.261  26.676  35.648  1.00  0.00     0.148 A 
ATOM     92  C   UNL A   1      46.853  27.746  35.482  1.00  0.00     0.002 A 
ATOM     93  C   UNL A   1      45.324  26.034  36.269  1.00  0.00     0.091 A 
ATOM     94  F   UNL A   1      43.017  26.176  35.682  1.00  0.00    -0.205 F 
ATOM     95  C   UNL A   1      46.623  26.558  36.175  1.00  0.00     0.022 A 
BRANCH  93  96
ATOM     96  S   UNL A   1      45.109  24.556  37.267  1.00  0.00     0.127 S 
ATOM     97  O   UNL A   1      44.249  25.044  38.342  1.00  0.00    -0.237 OA
ATOM     98  O   UNL A   1      44.457  23.642  36.329  1.00  0.00    -0.237 OA
ATOM     99  O   UNL A   1      46.447  24.148  37.677  1.00  0.00    -0.744 OA
ENDBRANCH  93  96
ENDBRANCH  66  89
ENDBRANCH  40  41
ENDBRANCH  33  35
ENDBRANCH  32  33
ENDBRANCH  31  32
ENDBRANCH  30  31
ENDBRANCH  29  30
ENDBRANCH  28  29
ENDBRANCH   1  28
TORSDOF 25
ENDMDL
