MODEL 1
REMARK VINA RESULT:      -9.0      0.000      0.000
REMARK SMILES COc1nc(Cl)nc(N(CC(=O)OCCOCCOCCOCCOC(=O)c2ccc(-c3c4nc(c(-c5cccc(S(=O)(=O)[O-])c5F)c5ccc([nH]5)c(-c5cccc(S(=O)(=O)[O-])c5F)c5nc(c(-c6cccc(S(=O)(=O)[O-])c6F)c6ccc3[nH]6)C=C5)C=C4)cc2)C(C)(C)C)n1
REMARK SMILES IDX 19 1 18 2 17 3 16 4 15 5 14 6 13 7 11 8 12 9 10 10 9 11 8 12
REMARK SMILES IDX 3 13 4 14 95 15 5 16 6 17 7 18 2 19 1 20 91 21 92 22 93 23
REMARK SMILES IDX 94 24 20 25 21 26 22 27 23 28 24 29 25 30 26 31 27 32 28 33
REMARK SMILES IDX 29 34 90 35 30 36 89 37 31 38 32 39 33 40 83 41 34 42 88 43
REMARK SMILES IDX 82 44 84 45 35 46 87 47 81 48 80 49 36 51 68 52 48 53 67 54
REMARK SMILES IDX 49 55 52 56 66 57 85 58 50 59 51 60 65 62 86 63 53 64 37 65
REMARK SMILES IDX 38 66 46 67 39 68 41 69 47 70 40 71 42 72 43 73 44 74 45 75
REMARK SMILES IDX 69 76 70 77 78 78 71 79 73 80 79 81 72 82 74 83 75 84 76 85
REMARK SMILES IDX 77 86 54 87 55 88 63 89 56 90 58 91 64 92 57 93 59 94 60 95
REMARK SMILES IDX 61 96 62 97
REMARK H PARENT 84 50 52 61
REMARK Flexibility Score: inf
ROOT
ATOM      1  O   UNL A   1      30.628  27.169  24.758  1.00  0.00    -0.377 OA
ENDROOT
BRANCH   1   2
ATOM      2  C   UNL A   1      29.962  25.991  24.357  1.00  0.00     0.188 C 
BRANCH   2   3
ATOM      3  C   UNL A   1      30.913  24.925  23.792  1.00  0.00     0.188 C 
BRANCH   3   4
ATOM      4  O   UNL A   1      31.228  23.766  24.557  1.00  0.00    -0.376 OA
BRANCH   4   5
ATOM      5  C   UNL A   1      30.368  23.398  25.625  1.00  0.00     0.202 C 
BRANCH   5   6
ATOM      6  C   UNL A   1      31.006  22.860  26.926  1.00  0.00     0.261 C 
BRANCH   6   7
ATOM      7  O   UNL A   1      32.219  23.500  27.407  1.00  0.00    -0.462 OA
BRANCH   7   8
ATOM      8  C   UNL A   1      33.357  22.761  27.405  1.00  0.00     0.325 C 
ATOM      9  O   UNL A   1      33.502  21.766  28.119  1.00  0.00    -0.250 OA
BRANCH   8  10
ATOM     10  C   UNL A   1      34.477  23.146  26.411  1.00  0.00     0.242 C 
BRANCH  10  11
ATOM     11  N   UNL A   1      35.091  22.147  25.492  1.00  0.00    -0.325 N 
BRANCH  11  12
ATOM     12  C   UNL A   1      34.191  21.253  24.891  1.00  0.00     0.233 A 
ATOM     13  C   UNL A   1      33.604  19.099  24.453  1.00  0.00     0.322 A 
ATOM     14  N   UNL A   1      32.813  19.406  23.449  1.00  0.00    -0.164 NA
ATOM     15  N   UNL A   1      34.282  19.963  25.195  1.00  0.00    -0.158 NA
ATOM     16  C   UNL A   1      32.703  20.717  23.307  1.00  0.00     0.230 A 
ATOM     17  Cl  UNL A   1      31.735  21.240  21.997  1.00  0.00    -0.041 Cl
ATOM     18  N   UNL A   1      33.366  21.680  23.948  1.00  0.00    -0.182 NA
BRANCH  13  19
ATOM     19  O   UNL A   1      33.807  17.779  24.788  1.00  0.00    -0.467 OA
ATOM     20  C   UNL A   1      32.770  17.280  25.623  1.00  0.00     0.282 C 
ENDBRANCH  13  19
ENDBRANCH  11  12
BRANCH  11  21
ATOM     21  C   UNL A   1      36.418  22.357  24.808  1.00  0.00     0.035 C 
ATOM     22  C   UNL A   1      36.204  22.728  23.316  1.00  0.00     0.034 C 
ATOM     23  C   UNL A   1      37.267  23.467  25.480  1.00  0.00     0.034 C 
ATOM     24  C   UNL A   1      37.334  21.112  24.881  1.00  0.00     0.034 C 
ENDBRANCH  11  21
ENDBRANCH  10  11
ENDBRANCH   8  10
ENDBRANCH   7   8
ENDBRANCH   6   7
ENDBRANCH   5   6
ENDBRANCH   4   5
ENDBRANCH   3   4
ENDBRANCH   2   3
ENDBRANCH   1   2
BRANCH   1  25
ATOM     25  C   UNL A   1      30.687  28.195  23.793  1.00  0.00     0.188 C 
BRANCH  25  26
ATOM     26  C   UNL A   1      31.084  29.558  24.379  1.00  0.00     0.188 C 
BRANCH  26  27
ATOM     27  O   UNL A   1      32.471  29.626  24.673  1.00  0.00    -0.376 OA
BRANCH  27  28
ATOM     28  C   UNL A   1      32.934  29.677  26.008  1.00  0.00     0.202 C 
BRANCH  28  29
ATOM     29  C   UNL A   1      32.925  30.952  26.873  1.00  0.00     0.261 C 
BRANCH  29  30
ATOM     30  O   UNL A   1      33.670  30.951  28.089  1.00  0.00    -0.460 OA
BRANCH  30  31
ATOM     31  C   UNL A   1      34.682  31.841  28.191  1.00  0.00     0.338 C 
ATOM     32  O   UNL A   1      34.578  33.058  28.211  1.00  0.00    -0.246 OA
BRANCH  31  33
ATOM     33  C   UNL A   1      35.925  31.099  28.491  1.00  0.00     0.060 A 
ATOM     34  C   UNL A   1      35.814  29.855  29.126  1.00  0.00     0.016 A 
ATOM     35  C   UNL A   1      37.179  31.598  28.130  1.00  0.00     0.016 A 
ATOM     36  C   UNL A   1      36.955  29.105  29.405  1.00  0.00     0.010 A 
ATOM     37  C   UNL A   1      38.327  30.864  28.451  1.00  0.00     0.010 A 
ATOM     38  C   UNL A   1      38.220  29.625  29.109  1.00  0.00    -0.014 A 
BRANCH  38  39
ATOM     39  C   UNL A   1      39.423  28.963  29.666  1.00  0.00     0.031 A 
ATOM     40  C   UNL A   1      40.039  29.544  30.909  1.00  0.00     0.074 A 
ATOM     41  C   UNL A   1      39.956  27.871  29.089  1.00  0.00     0.049 A 
ATOM     42  N   UNL A   1      41.110  29.171  31.555  1.00  0.00    -0.248 NA
ATOM     43  C   UNL A   1      39.350  30.703  31.501  1.00  0.00     0.031 C 
ATOM     44  C   UNL A   1      39.436  27.204  27.899  1.00  0.00     0.029 A 
ATOM     45  N   UNL A   1      41.078  27.151  29.419  1.00  0.00    -0.354 N 
ATOM     46  C   UNL A   1      41.244  30.065  32.610  1.00  0.00     0.074 A 
ATOM     47  C   UNL A   1      40.143  30.999  32.520  1.00  0.00     0.031 C 
ATOM     48  C   UNL A   1      40.264  26.196  27.570  1.00  0.00     0.029 A 
ATOM     49  C   UNL A   1      41.383  26.166  28.509  1.00  0.00     0.049 A 
ATOM     50  H   UNL A   1      41.612  27.324  30.228  1.00  0.00     0.167 HD
ATOM     51  C   UNL A   1      42.196  30.103  33.570  1.00  0.00     0.034 A 
ATOM     52  C   UNL A   1      42.463  25.361  28.427  1.00  0.00     0.034 A 
ATOM     53  C   UNL A   1      43.286  29.172  33.659  1.00  0.00     0.049 A 
ATOM     54  C   UNL A   1      43.536  25.456  29.484  1.00  0.00     0.074 A 
ATOM     55  C   UNL A   1      44.275  29.099  34.624  1.00  0.00     0.029 A 
ATOM     56  N   UNL A   1      43.548  28.171  32.738  1.00  0.00    -0.354 N 
ATOM     57  N   UNL A   1      43.586  26.224  30.546  1.00  0.00    -0.248 NA
ATOM     58  C   UNL A   1      44.690  24.555  29.346  1.00  0.00     0.031 C 
ATOM     59  C   UNL A   1      45.161  28.079  34.263  1.00  0.00     0.029 A 
ATOM     60  C   UNL A   1      44.698  27.489  33.096  1.00  0.00     0.049 A 
ATOM     61  H   UNL A   1      42.998  27.973  31.947  1.00  0.00     0.167 HD
ATOM     62  C   UNL A   1      44.754  25.876  31.217  1.00  0.00     0.074 A 
ATOM     63  C   UNL A   1      45.372  24.813  30.454  1.00  0.00     0.031 C 
ATOM     64  C   UNL A   1      45.276  26.398  32.355  1.00  0.00     0.034 A 
BRANCH  51  65
ATOM     65  C   UNL A   1      42.103  31.191  34.605  1.00  0.00     0.023 A 
ATOM     66  C   UNL A   1      41.438  30.949  35.824  1.00  0.00     0.012 A 
ATOM     67  C   UNL A   1      42.728  32.435  34.391  1.00  0.00     0.148 A 
ATOM     68  C   UNL A   1      41.374  31.938  36.804  1.00  0.00     0.002 A 
ATOM     69  C   UNL A   1      42.700  33.399  35.389  1.00  0.00     0.091 A 
ATOM     70  F   UNL A   1      43.332  32.651  33.214  1.00  0.00    -0.205 F 
ATOM     71  C   UNL A   1      42.014  33.157  36.591  1.00  0.00     0.022 A 
BRANCH  69  72
ATOM     72  S   UNL A   1      43.559  34.970  35.245  1.00  0.00     0.127 S 
ATOM     73  O   UNL A   1      43.001  35.716  36.371  1.00  0.00    -0.237 OA
ATOM     74  O   UNL A   1      44.957  34.570  35.410  1.00  0.00    -0.237 OA
ATOM     75  O   UNL A   1      43.226  35.491  33.927  1.00  0.00    -0.744 OA
ENDBRANCH  69  72
ENDBRANCH  51  65
BRANCH  52  76
ATOM     76  C   UNL A   1      42.592  24.393  27.301  1.00  0.00     0.023 A 
ATOM     77  C   UNL A   1      43.170  24.806  26.084  1.00  0.00     0.012 A 
ATOM     78  C   UNL A   1      42.133  23.067  27.426  1.00  0.00     0.148 A 
ATOM     79  C   UNL A   1      43.258  23.927  25.003  1.00  0.00     0.002 A 
ATOM     80  C   UNL A   1      42.275  22.181  26.366  1.00  0.00     0.091 A 
ATOM     81  F   UNL A   1      41.566  22.700  28.584  1.00  0.00    -0.205 F 
ATOM     82  C   UNL A   1      42.820  22.613  25.147  1.00  0.00     0.022 A 
BRANCH  80  83
ATOM     83  S   UNL A   1      41.849  20.441  26.500  1.00  0.00     0.127 S 
ATOM     84  O   UNL A   1      40.389  20.486  26.433  1.00  0.00    -0.237 OA
ATOM     85  O   UNL A   1      42.502  19.881  25.317  1.00  0.00    -0.237 OA
ATOM     86  O   UNL A   1      42.409  19.994  27.767  1.00  0.00    -0.744 OA
ENDBRANCH  80  83
ENDBRANCH  52  76
BRANCH  64  87
ATOM     87  C   UNL A   1      46.561  25.810  32.879  1.00  0.00     0.023 A 
ATOM     88  C   UNL A   1      47.793  26.416  32.565  1.00  0.00     0.012 A 
ATOM     89  C   UNL A   1      46.537  24.709  33.761  1.00  0.00     0.148 A 
ATOM     90  C   UNL A   1      48.983  25.919  33.096  1.00  0.00     0.002 A 
ATOM     91  C   UNL A   1      47.720  24.253  34.328  1.00  0.00     0.091 A 
ATOM     92  F   UNL A   1      45.355  24.139  34.038  1.00  0.00    -0.205 F 
ATOM     93  C   UNL A   1      48.945  24.847  33.986  1.00  0.00     0.022 A 
BRANCH  91  94
ATOM     94  S   UNL A   1      47.762  22.947  35.560  1.00  0.00     0.127 S 
ATOM     95  O   UNL A   1      47.030  23.559  36.669  1.00  0.00    -0.237 OA
ATOM     96  O   UNL A   1      47.050  21.862  34.885  1.00  0.00    -0.237 OA
ATOM     97  O   UNL A   1      49.170  22.680  35.819  1.00  0.00    -0.744 OA
ENDBRANCH  91  94
ENDBRANCH  64  87
ENDBRANCH  38  39
ENDBRANCH  31  33
ENDBRANCH  30  31
ENDBRANCH  29  30
ENDBRANCH  28  29
ENDBRANCH  27  28
ENDBRANCH  26  27
ENDBRANCH  25  26
ENDBRANCH   1  25
TORSDOF 27
ENDMDL
MODEL 2
REMARK VINA RESULT:      -8.5      4.893      8.472
REMARK SMILES COc1nc(Cl)nc(N(CC(=O)OCCOCCOCCOCCOC(=O)c2ccc(-c3c4nc(c(-c5cccc(S(=O)(=O)[O-])c5F)c5ccc([nH]5)c(-c5cccc(S(=O)(=O)[O-])c5F)c5nc(c(-c6cccc(S(=O)(=O)[O-])c6F)c6ccc3[nH]6)C=C5)C=C4)cc2)C(C)(C)C)n1
REMARK SMILES IDX 19 1 18 2 17 3 16 4 15 5 14 6 13 7 11 8 12 9 10 10 9 11 8 12
REMARK SMILES IDX 3 13 4 14 95 15 5 16 6 17 7 18 2 19 1 20 91 21 92 22 93 23
REMARK SMILES IDX 94 24 20 25 21 26 22 27 23 28 24 29 25 30 26 31 27 32 28 33
REMARK SMILES IDX 29 34 90 35 30 36 89 37 31 38 32 39 33 40 83 41 34 42 88 43
REMARK SMILES IDX 82 44 84 45 35 46 87 47 81 48 80 49 36 51 68 52 48 53 67 54
REMARK SMILES IDX 49 55 52 56 66 57 85 58 50 59 51 60 65 62 86 63 53 64 37 65
REMARK SMILES IDX 38 66 46 67 39 68 41 69 47 70 40 71 42 72 43 73 44 74 45 75
REMARK SMILES IDX 69 76 70 77 78 78 71 79 73 80 79 81 72 82 74 83 75 84 76 85
REMARK SMILES IDX 77 86 54 87 55 88 63 89 56 90 58 91 64 92 57 93 59 94 60 95
REMARK SMILES IDX 61 96 62 97
REMARK H PARENT 84 50 52 61
REMARK Flexibility Score: inf
ROOT
ATOM      1  O   UNL A   1      36.194  24.042  24.797  1.00  0.00    -0.377 OA
ENDROOT
BRANCH   1   2
ATOM      2  C   UNL A   1      35.488  24.467  25.942  1.00  0.00     0.188 C 
BRANCH   2   3
ATOM      3  C   UNL A   1      34.402  25.507  25.628  1.00  0.00     0.188 C 
BRANCH   3   4
ATOM      4  O   UNL A   1      33.317  25.707  26.527  1.00  0.00    -0.376 OA
BRANCH   4   5
ATOM      5  C   UNL A   1      32.095  26.220  26.019  1.00  0.00     0.202 C 
BRANCH   5   6
ATOM      6  C   UNL A   1      30.842  25.316  26.073  1.00  0.00     0.261 C 
BRANCH   6   7
ATOM      7  O   UNL A   1      30.870  24.164  26.959  1.00  0.00    -0.462 OA
BRANCH   7   8
ATOM      8  C   UNL A   1      30.939  22.937  26.385  1.00  0.00     0.325 C 
ATOM      9  O   UNL A   1      29.956  22.201  26.275  1.00  0.00    -0.250 OA
BRANCH   8  10
ATOM     10  C   UNL A   1      32.290  22.487  25.782  1.00  0.00     0.242 C 
BRANCH  10  11
ATOM     11  N   UNL A   1      32.408  22.033  24.369  1.00  0.00    -0.325 N 
BRANCH  11  12
ATOM     12  C   UNL A   1      32.275  20.650  24.171  1.00  0.00     0.233 A 
ATOM     13  C   UNL A   1      32.542  18.544  24.990  1.00  0.00     0.322 A 
ATOM     14  N   UNL A   1      32.491  17.964  23.811  1.00  0.00    -0.164 NA
ATOM     15  N   UNL A   1      32.425  19.845  25.217  1.00  0.00    -0.158 NA
ATOM     16  C   UNL A   1      32.222  18.839  22.856  1.00  0.00     0.230 A 
ATOM     17  Cl  UNL A   1      32.178  18.208  21.266  1.00  0.00    -0.041 Cl
ATOM     18  N   UNL A   1      32.136  20.167  22.947  1.00  0.00    -0.182 NA
BRANCH  13  19
ATOM     19  O   UNL A   1      32.764  17.786  26.118  1.00  0.00    -0.467 OA
ATOM     20  C   UNL A   1      32.933  16.409  25.806  1.00  0.00     0.282 C 
ENDBRANCH  13  19
ENDBRANCH  11  12
BRANCH  11  21
ATOM     21  C   UNL A   1      32.141  22.929  23.185  1.00  0.00     0.035 C 
ATOM     22  C   UNL A   1      33.108  24.143  23.198  1.00  0.00     0.034 C 
ATOM     23  C   UNL A   1      32.288  22.190  21.830  1.00  0.00     0.034 C 
ATOM     24  C   UNL A   1      30.686  23.456  23.149  1.00  0.00     0.034 C 
ENDBRANCH  11  21
ENDBRANCH  10  11
ENDBRANCH   8  10
ENDBRANCH   7   8
ENDBRANCH   6   7
ENDBRANCH   5   6
ENDBRANCH   4   5
ENDBRANCH   3   4
ENDBRANCH   2   3
ENDBRANCH   1   2
BRANCH   1  25
ATOM     25  C   UNL A   1      37.045  22.933  24.981  1.00  0.00     0.188 C 
BRANCH  25  26
ATOM     26  C   UNL A   1      38.089  23.142  26.088  1.00  0.00     0.188 C 
BRANCH  26  27
ATOM     27  O   UNL A   1      39.052  22.100  26.113  1.00  0.00    -0.376 OA
BRANCH  27  28
ATOM     28  C   UNL A   1      38.675  20.751  25.921  1.00  0.00     0.202 C 
BRANCH  28  29
ATOM     29  C   UNL A   1      39.638  19.650  25.434  1.00  0.00     0.261 C 
BRANCH  29  30
ATOM     30  O   UNL A   1      40.670  19.213  26.316  1.00  0.00    -0.460 OA
BRANCH  30  31
ATOM     31  C   UNL A   1      41.939  19.543  25.988  1.00  0.00     0.338 C 
ATOM     32  O   UNL A   1      42.711  18.875  25.317  1.00  0.00    -0.246 OA
BRANCH  31  33
ATOM     33  C   UNL A   1      42.175  20.945  26.392  1.00  0.00     0.060 A 
ATOM     34  C   UNL A   1      42.385  21.896  25.385  1.00  0.00     0.016 A 
ATOM     35  C   UNL A   1      42.161  21.331  27.735  1.00  0.00     0.016 A 
ATOM     36  C   UNL A   1      42.583  23.236  25.714  1.00  0.00     0.010 A 
ATOM     37  C   UNL A   1      42.406  22.670  28.066  1.00  0.00     0.010 A 
ATOM     38  C   UNL A   1      42.639  23.622  27.057  1.00  0.00    -0.014 A 
BRANCH  38  39
ATOM     39  C   UNL A   1      43.135  24.975  27.401  1.00  0.00     0.031 A 
ATOM     40  C   UNL A   1      42.161  25.954  27.997  1.00  0.00     0.074 A 
ATOM     41  C   UNL A   1      44.416  25.329  27.197  1.00  0.00     0.049 A 
ATOM     42  N   UNL A   1      42.344  27.201  28.340  1.00  0.00    -0.248 NA
ATOM     43  C   UNL A   1      40.796  25.457  28.239  1.00  0.00     0.031 C 
ATOM     44  C   UNL A   1      45.456  24.462  26.649  1.00  0.00     0.029 A 
ATOM     45  N   UNL A   1      45.049  26.530  27.401  1.00  0.00    -0.354 N 
ATOM     46  C   UNL A   1      41.115  27.647  28.806  1.00  0.00     0.074 A 
ATOM     47  C   UNL A   1      40.192  26.538  28.707  1.00  0.00     0.031 C 
ATOM     48  C   UNL A   1      46.591  25.174  26.519  1.00  0.00     0.029 A 
ATOM     49  C   UNL A   1      46.347  26.549  26.948  1.00  0.00     0.049 A 
ATOM     50  H   UNL A   1      44.615  27.303  27.832  1.00  0.00     0.167 HD
ATOM     51  C   UNL A   1      40.784  28.871  29.280  1.00  0.00     0.034 A 
ATOM     52  C   UNL A   1      47.221  27.573  26.856  1.00  0.00     0.034 A 
ATOM     53  C   UNL A   1      41.703  29.969  29.382  1.00  0.00     0.049 A 
ATOM     54  C   UNL A   1      46.812  28.940  27.346  1.00  0.00     0.074 A 
ATOM     55  C   UNL A   1      41.476  31.234  29.894  1.00  0.00     0.029 A 
ATOM     56  N   UNL A   1      43.017  29.945  28.940  1.00  0.00    -0.354 N 
ATOM     57  N   UNL A   1      45.685  29.316  27.901  1.00  0.00    -0.248 NA
ATOM     58  C   UNL A   1      47.806  30.018  27.223  1.00  0.00     0.031 C 
ATOM     59  C   UNL A   1      42.640  31.989  29.722  1.00  0.00     0.029 A 
ATOM     60  C   UNL A   1      43.606  31.181  29.143  1.00  0.00     0.049 A 
ATOM     61  H   UNL A   1      43.464  29.165  28.541  1.00  0.00     0.167 HD
ATOM     62  C   UNL A   1      45.846  30.661  28.221  1.00  0.00     0.074 A 
ATOM     63  C   UNL A   1      47.187  31.028  27.819  1.00  0.00     0.031 C 
ATOM     64  C   UNL A   1      44.959  31.519  28.785  1.00  0.00     0.034 A 
BRANCH  51  65
ATOM     65  C   UNL A   1      39.363  29.088  29.725  1.00  0.00     0.023 A 
ATOM     66  C   UNL A   1      38.969  28.723  31.027  1.00  0.00     0.012 A 
ATOM     67  C   UNL A   1      38.435  29.711  28.868  1.00  0.00     0.148 A 
ATOM     68  C   UNL A   1      37.664  28.951  31.462  1.00  0.00     0.002 A 
ATOM     69  C   UNL A   1      37.150  29.977  29.323  1.00  0.00     0.091 A 
ATOM     70  F   UNL A   1      38.825  30.027  27.625  1.00  0.00    -0.205 F 
ATOM     71  C   UNL A   1      36.760  29.587  30.615  1.00  0.00     0.022 A 
BRANCH  69  72
ATOM     72  S   UNL A   1      35.936  30.860  28.338  1.00  0.00     0.127 S 
ATOM     73  O   UNL A   1      36.706  32.020  27.891  1.00  0.00    -0.237 OA
ATOM     74  O   UNL A   1      35.631  29.889  27.287  1.00  0.00    -0.237 OA
ATOM     75  O   UNL A   1      34.829  31.156  29.234  1.00  0.00    -0.744 OA
ENDBRANCH  69  72
ENDBRANCH  51  65
BRANCH  52  76
ATOM     76  C   UNL A   1      48.576  27.351  26.271  1.00  0.00     0.023 A 
ATOM     77  C   UNL A   1      49.641  26.952  27.102  1.00  0.00     0.012 A 
ATOM     78  C   UNL A   1      48.814  27.547  24.897  1.00  0.00     0.148 A 
ATOM     79  C   UNL A   1      50.925  26.784  26.581  1.00  0.00     0.002 A 
ATOM     80  C   UNL A   1      50.082  27.323  24.375  1.00  0.00     0.091 A 
ATOM     81  F   UNL A   1      47.792  27.948  24.127  1.00  0.00    -0.205 F 
ATOM     82  C   UNL A   1      51.143  26.961  25.217  1.00  0.00     0.022 A 
BRANCH  80  83
ATOM     83  S   UNL A   1      50.428  27.410  22.614  1.00  0.00     0.127 S 
ATOM     84  O   UNL A   1      50.445  28.854  22.384  1.00  0.00    -0.237 OA
ATOM     85  O   UNL A   1      51.734  26.758  22.534  1.00  0.00    -0.237 OA
ATOM     86  O   UNL A   1      49.349  26.681  21.963  1.00  0.00    -0.744 OA
ENDBRANCH  80  83
ENDBRANCH  52  76
BRANCH  64  87
ATOM     87  C   UNL A   1      45.410  32.934  29.043  1.00  0.00     0.023 A 
ATOM     88  C   UNL A   1      46.027  33.265  30.265  1.00  0.00     0.012 A 
ATOM     89  C   UNL A   1      45.305  33.914  28.034  1.00  0.00     0.148 A 
ATOM     90  C   UNL A   1      46.506  34.555  30.491  1.00  0.00     0.002 A 
ATOM     91  C   UNL A   1      45.832  35.181  28.245  1.00  0.00     0.091 A 
ATOM     92  F   UNL A   1      44.704  33.582  26.882  1.00  0.00    -0.205 F 
ATOM     93  C   UNL A   1      46.421  35.508  29.478  1.00  0.00     0.022 A 
BRANCH  91  94
ATOM     94  S   UNL A   1      45.860  36.443  26.967  1.00  0.00     0.127 S 
ATOM     95  O   UNL A   1      46.364  35.692  25.817  1.00  0.00    -0.237 OA
ATOM     96  O   UNL A   1      44.450  36.823  26.877  1.00  0.00    -0.237 OA
ATOM     97  O   UNL A   1      46.743  37.494  27.455  1.00  0.00    -0.744 OA
ENDBRANCH  91  94
ENDBRANCH  64  87
ENDBRANCH  38  39
ENDBRANCH  31  33
ENDBRANCH  30  31
ENDBRANCH  29  30
ENDBRANCH  28  29
ENDBRANCH  27  28
ENDBRANCH  26  27
ENDBRANCH  25  26
ENDBRANCH   1  25
TORSDOF 27
ENDMDL
MODEL 3
REMARK VINA RESULT:      -8.4      1.855      7.593
REMARK SMILES COc1nc(Cl)nc(N(CC(=O)OCCOCCOCCOCCOC(=O)c2ccc(-c3c4nc(c(-c5cccc(S(=O)(=O)[O-])c5F)c5ccc([nH]5)c(-c5cccc(S(=O)(=O)[O-])c5F)c5nc(c(-c6cccc(S(=O)(=O)[O-])c6F)c6ccc3[nH]6)C=C5)C=C4)cc2)C(C)(C)C)n1
REMARK SMILES IDX 19 1 18 2 17 3 16 4 15 5 14 6 13 7 11 8 12 9 10 10 9 11 8 12
REMARK SMILES IDX 3 13 4 14 95 15 5 16 6 17 7 18 2 19 1 20 91 21 92 22 93 23
REMARK SMILES IDX 94 24 20 25 21 26 22 27 23 28 24 29 25 30 26 31 27 32 28 33
REMARK SMILES IDX 29 34 90 35 30 36 89 37 31 38 32 39 33 40 83 41 34 42 88 43
REMARK SMILES IDX 82 44 84 45 35 46 87 47 81 48 80 49 36 51 68 52 48 53 67 54
REMARK SMILES IDX 49 55 52 56 66 57 85 58 50 59 51 60 65 62 86 63 53 64 37 65
REMARK SMILES IDX 38 66 46 67 39 68 41 69 47 70 40 71 42 72 43 73 44 74 45 75
REMARK SMILES IDX 69 76 70 77 78 78 71 79 73 80 79 81 72 82 74 83 75 84 76 85
REMARK SMILES IDX 77 86 54 87 55 88 63 89 56 90 58 91 64 92 57 93 59 94 60 95
REMARK SMILES IDX 61 96 62 97
REMARK H PARENT 84 50 52 61
REMARK Flexibility Score: inf
ROOT
ATOM      1  O   UNL A   1      30.738  27.176  25.141  1.00  0.00    -0.377 OA
ENDROOT
BRANCH   1   2
ATOM      2  C   UNL A   1      29.874  26.106  24.825  1.00  0.00     0.188 C 
BRANCH   2   3
ATOM      3  C   UNL A   1      30.596  24.929  24.153  1.00  0.00     0.188 C 
BRANCH   3   4
ATOM      4  O   UNL A   1      30.976  23.789  24.916  1.00  0.00    -0.376 OA
BRANCH   4   5
ATOM      5  C   UNL A   1      30.286  23.518  26.126  1.00  0.00     0.202 C 
BRANCH   5   6
ATOM      6  C   UNL A   1      31.088  22.927  27.310  1.00  0.00     0.261 C 
BRANCH   6   7
ATOM      7  O   UNL A   1      32.415  23.460  27.568  1.00  0.00    -0.462 OA
BRANCH   7   8
ATOM      8  C   UNL A   1      33.468  22.620  27.402  1.00  0.00     0.325 C 
ATOM      9  O   UNL A   1      33.478  21.474  27.856  1.00  0.00    -0.250 OA
BRANCH   8  10
ATOM     10  C   UNL A   1      34.660  23.104  26.545  1.00  0.00     0.242 C 
BRANCH  10  11
ATOM     11  N   UNL A   1      35.319  22.220  25.544  1.00  0.00    -0.325 N 
BRANCH  11  12
ATOM     12  C   UNL A   1      34.447  21.455  24.753  1.00  0.00     0.233 A 
ATOM     13  C   UNL A   1      32.759  21.405  23.229  1.00  0.00     0.322 A 
ATOM     14  N   UNL A   1      32.417  20.163  23.490  1.00  0.00    -0.164 NA
ATOM     15  N   UNL A   1      33.749  22.072  23.806  1.00  0.00    -0.158 NA
ATOM     16  C   UNL A   1      33.246  19.608  24.359  1.00  0.00     0.230 A 
ATOM     17  Cl  UNL A   1      32.874  18.001  24.815  1.00  0.00    -0.041 Cl
ATOM     18  N   UNL A   1      34.238  20.181  25.042  1.00  0.00    -0.182 NA
BRANCH  13  19
ATOM     19  O   UNL A   1      32.040  22.135  22.309  1.00  0.00    -0.467 OA
ATOM     20  C   UNL A   1      32.864  23.055  21.604  1.00  0.00     0.282 C 
ENDBRANCH  13  19
ENDBRANCH  11  12
BRANCH  11  21
ATOM     21  C   UNL A   1      36.704  22.471  25.002  1.00  0.00     0.035 C 
ATOM     22  C   UNL A   1      36.643  22.754  23.476  1.00  0.00     0.034 C 
ATOM     23  C   UNL A   1      37.412  23.660  25.701  1.00  0.00     0.034 C 
ATOM     24  C   UNL A   1      37.668  21.286  25.246  1.00  0.00     0.034 C 
ENDBRANCH  11  21
ENDBRANCH  10  11
ENDBRANCH   8  10
ENDBRANCH   7   8
ENDBRANCH   6   7
ENDBRANCH   5   6
ENDBRANCH   4   5
ENDBRANCH   3   4
ENDBRANCH   2   3
ENDBRANCH   1   2
BRANCH   1  25
ATOM     25  C   UNL A   1      30.775  28.229  24.205  1.00  0.00     0.188 C 
BRANCH  25  26
ATOM     26  C   UNL A   1      31.264  29.557  24.801  1.00  0.00     0.188 C 
BRANCH  26  27
ATOM     27  O   UNL A   1      32.648  29.768  24.565  1.00  0.00    -0.376 OA
BRANCH  27  28
ATOM     28  C   UNL A   1      33.613  29.454  25.549  1.00  0.00     0.202 C 
BRANCH  28  29
ATOM     29  C   UNL A   1      33.827  30.274  26.837  1.00  0.00     0.261 C 
BRANCH  29  30
ATOM     30  O   UNL A   1      34.642  29.717  27.867  1.00  0.00    -0.460 OA
BRANCH  30  31
ATOM     31  C   UNL A   1      35.341  30.583  28.633  1.00  0.00     0.338 C 
ATOM     32  O   UNL A   1      34.884  31.525  29.263  1.00  0.00    -0.246 OA
BRANCH  31  33
ATOM     33  C   UNL A   1      36.724  30.080  28.761  1.00  0.00     0.060 A 
ATOM     34  C   UNL A   1      37.026  29.248  29.847  1.00  0.00     0.016 A 
ATOM     35  C   UNL A   1      37.706  30.391  27.817  1.00  0.00     0.016 A 
ATOM     36  C   UNL A   1      38.309  28.725  29.996  1.00  0.00     0.010 A 
ATOM     37  C   UNL A   1      39.006  29.902  27.993  1.00  0.00     0.010 A 
ATOM     38  C   UNL A   1      39.317  29.085  29.095  1.00  0.00    -0.014 A 
BRANCH  38  39
ATOM     39  C   UNL A   1      40.727  28.766  29.420  1.00  0.00     0.031 A 
ATOM     40  C   UNL A   1      41.380  27.625  28.689  1.00  0.00     0.074 A 
ATOM     41  C   UNL A   1      41.416  29.470  30.336  1.00  0.00     0.049 A 
ATOM     42  N   UNL A   1      42.581  27.131  28.828  1.00  0.00    -0.248 NA
ATOM     43  C   UNL A   1      40.566  26.952  27.662  1.00  0.00     0.031 C 
ATOM     44  C   UNL A   1      40.899  30.608  31.090  1.00  0.00     0.029 A 
ATOM     45  N   UNL A   1      42.695  29.303  30.806  1.00  0.00    -0.354 N 
ATOM     46  C   UNL A   1      42.658  26.073  27.932  1.00  0.00     0.074 A 
ATOM     47  C   UNL A   1      41.384  25.995  27.252  1.00  0.00     0.031 C 
ATOM     48  C   UNL A   1      41.840  31.013  31.963  1.00  0.00     0.029 A 
ATOM     49  C   UNL A   1      43.009  30.145  31.847  1.00  0.00     0.049 A 
ATOM     50  H   UNL A   1      43.326  28.646  30.433  1.00  0.00     0.167 HD
ATOM     51  C   UNL A   1      43.699  25.241  27.694  1.00  0.00     0.034 A 
ATOM     52  C   UNL A   1      44.102  30.181  32.637  1.00  0.00     0.034 A 
ATOM     53  C   UNL A   1      44.964  25.322  28.369  1.00  0.00     0.049 A 
ATOM     54  C   UNL A   1      45.230  29.210  32.382  1.00  0.00     0.074 A 
ATOM     55  C   UNL A   1      46.096  24.555  28.163  1.00  0.00     0.029 A 
ATOM     56  N   UNL A   1      45.257  26.204  29.396  1.00  0.00    -0.354 N 
ATOM     57  N   UNL A   1      45.338  28.295  31.450  1.00  0.00    -0.248 NA
ATOM     58  C   UNL A   1      46.397  29.295  33.273  1.00  0.00     0.031 C 
ATOM     59  C   UNL A   1      47.061  24.944  29.097  1.00  0.00     0.029 A 
ATOM     60  C   UNL A   1      46.544  25.984  29.854  1.00  0.00     0.049 A 
ATOM     61  H   UNL A   1      44.641  26.886  29.749  1.00  0.00     0.167 HD
ATOM     62  C   UNL A   1      46.594  27.721  31.621  1.00  0.00     0.074 A 
ATOM     63  C   UNL A   1      47.218  28.405  32.732  1.00  0.00     0.031 C 
ATOM     64  C   UNL A   1      47.173  26.707  30.929  1.00  0.00     0.034 A 
BRANCH  51  65
ATOM     65  C   UNL A   1      43.511  24.164  26.660  1.00  0.00     0.023 A 
ATOM     66  C   UNL A   1      44.020  24.343  25.358  1.00  0.00     0.012 A 
ATOM     67  C   UNL A   1      42.883  22.950  26.999  1.00  0.00     0.148 A 
ATOM     68  C   UNL A   1      43.882  23.339  24.400  1.00  0.00     0.002 A 
ATOM     69  C   UNL A   1      42.790  21.937  26.054  1.00  0.00     0.091 A 
ATOM     70  F   UNL A   1      42.384  22.813  28.235  1.00  0.00    -0.205 F 
ATOM     71  C   UNL A   1      43.278  22.134  24.751  1.00  0.00     0.022 A 
BRANCH  69  72
ATOM     72  S   UNL A   1      42.101  20.322  26.429  1.00  0.00     0.127 S 
ATOM     73  O   UNL A   1      40.666  20.599  26.401  1.00  0.00    -0.237 OA
ATOM     74  O   UNL A   1      42.588  19.515  25.309  1.00  0.00    -0.237 OA
ATOM     75  O   UNL A   1      42.637  19.947  27.729  1.00  0.00    -0.744 OA
ENDBRANCH  69  72
ENDBRANCH  51  65
BRANCH  52  76
ATOM     76  C   UNL A   1      44.190  31.169  33.751  1.00  0.00     0.023 A 
ATOM     77  C   UNL A   1      44.653  32.475  33.495  1.00  0.00     0.012 A 
ATOM     78  C   UNL A   1      43.827  30.815  35.065  1.00  0.00     0.148 A 
ATOM     79  C   UNL A   1      44.785  33.399  34.534  1.00  0.00     0.002 A 
ATOM     80  C   UNL A   1      43.908  31.756  36.084  1.00  0.00     0.091 A 
ATOM     81  F   UNL A   1      43.411  29.561  35.292  1.00  0.00    -0.205 F 
ATOM     82  C   UNL A   1      44.404  33.042  35.825  1.00  0.00     0.022 A 
BRANCH  80  83
ATOM     83  S   UNL A   1      43.327  31.424  37.751  1.00  0.00     0.127 S 
ATOM     84  O   UNL A   1      44.204  30.328  38.159  1.00  0.00    -0.237 OA
ATOM     85  O   UNL A   1      43.586  32.700  38.418  1.00  0.00    -0.237 OA
ATOM     86  O   UNL A   1      41.917  31.088  37.618  1.00  0.00    -0.744 OA
ENDBRANCH  80  83
ENDBRANCH  52  76
BRANCH  64  87
ATOM     87  C   UNL A   1      48.569  26.294  31.317  1.00  0.00     0.023 A 
ATOM     88  C   UNL A   1      49.681  26.893  30.693  1.00  0.00     0.012 A 
ATOM     89  C   UNL A   1      48.777  25.377  32.369  1.00  0.00     0.148 A 
ATOM     90  C   UNL A   1      50.978  26.565  31.090  1.00  0.00     0.002 A 
ATOM     91  C   UNL A   1      50.070  25.096  32.794  1.00  0.00     0.091 A 
ATOM     92  F   UNL A   1      47.707  24.809  32.941  1.00  0.00    -0.205 F 
ATOM     93  C   UNL A   1      51.172  25.678  32.147  1.00  0.00     0.022 A 
BRANCH  91  94
ATOM     94  S   UNL A   1      50.415  24.046  34.210  1.00  0.00     0.127 S 
ATOM     95  O   UNL A   1      49.595  24.667  35.249  1.00  0.00    -0.237 OA
ATOM     96  O   UNL A   1      49.936  22.742  33.752  1.00  0.00    -0.237 OA
ATOM     97  O   UNL A   1      51.854  24.122  34.428  1.00  0.00    -0.744 OA
ENDBRANCH  91  94
ENDBRANCH  64  87
ENDBRANCH  38  39
ENDBRANCH  31  33
ENDBRANCH  30  31
ENDBRANCH  29  30
ENDBRANCH  28  29
ENDBRANCH  27  28
ENDBRANCH  26  27
ENDBRANCH  25  26
ENDBRANCH   1  25
TORSDOF 27
ENDMDL
