MODEL 1
REMARK VINA RESULT:      -8.0      0.000      0.000
REMARK SMILES CCOc1c(CNC(=O)[C@H]2CCCC[C@@H]2C(=O)OCCOCCOCCOCCOC(=O)c2ccc(-c3c4nc(c(-c5cccc(S(=O)(=O)[O-])c5F)c5ccc([nH]5)c(-c5cccc(S(=O)(=O)[O-])c5F)c5nc(c(-c6cccc(S(=O)(=O)[O-])c6F)c6ccc3[nH]6)C=C5)C=C4)cc2)cccc1OC
REMARK SMILES IDX 23 1 22 2 21 3 20 4 19 5 18 6 16 7 17 8 15 9 10 10 11 11
REMARK SMILES IDX 12 12 14 13 13 14 8 15 7 16 9 18 6 19 5 20 4 21 99 22 96 23
REMARK SMILES IDX 98 24 97 25 3 26 2 27 1 28 100 29 101 30 24 31 25 32 26 33
REMARK SMILES IDX 27 34 28 35 29 36 30 37 31 38 32 39 33 40 34 41 95 42 35 43
REMARK SMILES IDX 94 44 36 45 37 46 38 47 88 48 39 49 93 50 87 51 89 52 40 53
REMARK SMILES IDX 92 54 86 55 85 56 41 58 73 59 53 60 72 61 54 62 57 63 71 64
REMARK SMILES IDX 90 65 55 66 56 67 70 69 91 70 58 71 42 72 43 73 51 74 44 75
REMARK SMILES IDX 46 76 52 77 45 78 47 79 48 80 49 81 50 82 74 83 75 84 83 85
REMARK SMILES IDX 76 86 78 87 84 88 77 89 79 90 80 91 81 92 82 93 59 94 60 95
REMARK SMILES IDX 68 96 61 97 63 98 69 99 62 100 64 101 65 102 66 103 67 104
REMARK H PARENT 7 17 89 57 57 68
REMARK Flexibility Score: inf
ROOT
ATOM      1  C   UNL A   1      41.451  24.699  27.379  1.00  0.00     0.188 C 
ENDROOT
BRANCH   1   2
ATOM      2  C   UNL A   1      40.319  23.682  27.653  1.00  0.00     0.188 C 
BRANCH   2   3
ATOM      3  O   UNL A   1      39.273  23.452  26.722  1.00  0.00    -0.376 OA
BRANCH   3   4
ATOM      4  C   UNL A   1      39.096  22.164  26.163  1.00  0.00     0.202 C 
BRANCH   4   5
ATOM      5  C   UNL A   1      37.833  21.847  25.338  1.00  0.00     0.261 C 
BRANCH   5   6
ATOM      6  O   UNL A   1      36.773  22.825  25.316  1.00  0.00    -0.463 OA
BRANCH   6   7
ATOM      7  C   UNL A   1      36.049  22.893  24.168  1.00  0.00     0.309 C 
ATOM      8  O   UNL A   1      36.535  22.726  23.058  1.00  0.00    -0.252 OA
BRANCH   7   9
ATOM      9  C   UNL A   1      34.560  23.200  24.445  1.00  0.00     0.111 C 
ATOM     10  C   UNL A   1      34.196  23.436  25.938  1.00  0.00     0.092 C 
ATOM     11  C   UNL A   1      34.347  22.121  26.740  1.00  0.00     0.014 C 
ATOM     12  C   UNL A   1      33.642  20.908  26.127  1.00  0.00     0.001 C 
ATOM     13  C   UNL A   1      33.742  22.049  23.839  1.00  0.00     0.016 C 
ATOM     14  C   UNL A   1      33.858  20.743  24.628  1.00  0.00     0.001 C 
BRANCH  10  15
ATOM     15  C   UNL A   1      32.771  23.992  26.154  1.00  0.00     0.224 C 
ATOM     16  N   UNL A   1      32.489  25.310  26.344  1.00  0.00    -0.352 N 
ATOM     17  H   UNL A   1      31.563  25.454  26.647  1.00  0.00     0.163 HD
ATOM     18  O   UNL A   1      31.797  23.234  26.203  1.00  0.00    -0.275 OA
BRANCH  16  19
ATOM     19  C   UNL A   1      33.234  26.567  26.208  1.00  0.00     0.155 C 
BRANCH  19  20
ATOM     20  C   UNL A   1      32.460  27.583  25.381  1.00  0.00     0.017 A 
ATOM     21  C   UNL A   1      31.744  27.308  24.178  1.00  0.00     0.166 A 
ATOM     22  C   UNL A   1      30.885  28.298  23.645  1.00  0.00     0.161 A 
ATOM     23  C   UNL A   1      32.350  28.872  25.946  1.00  0.00     0.010 A 
ATOM     24  C   UNL A   1      30.815  29.559  24.255  1.00  0.00     0.050 A 
ATOM     25  C   UNL A   1      31.552  29.855  25.387  1.00  0.00     0.004 A 
BRANCH  21  26
ATOM     26  O   UNL A   1      31.751  26.057  23.610  1.00  0.00    -0.490 OA
BRANCH  26  27
ATOM     27  C   UNL A   1      32.868  25.794  22.747  1.00  0.00     0.226 C 
ATOM     28  C   UNL A   1      33.403  27.086  22.139  1.00  0.00     0.049 C 
ENDBRANCH  26  27
ENDBRANCH  21  26
BRANCH  22  29
ATOM     29  O   UNL A   1      29.988  28.238  22.615  1.00  0.00    -0.493 OA
ATOM     30  C   UNL A   1      29.104  29.300  22.345  1.00  0.00     0.278 C 
ENDBRANCH  22  29
ENDBRANCH  19  20
ENDBRANCH  16  19
ENDBRANCH  10  15
ENDBRANCH   7   9
ENDBRANCH   6   7
ENDBRANCH   5   6
ENDBRANCH   4   5
ENDBRANCH   3   4
ENDBRANCH   2   3
ENDBRANCH   1   2
BRANCH   1  31
ATOM     31  O   UNL A   1      41.871  25.404  28.532  1.00  0.00    -0.377 OA
BRANCH  31  32
ATOM     32  C   UNL A   1      41.314  26.702  28.656  1.00  0.00     0.188 C 
BRANCH  32  33
ATOM     33  C   UNL A   1      40.061  26.947  27.799  1.00  0.00     0.188 C 
BRANCH  33  34
ATOM     34  O   UNL A   1      40.112  28.218  27.155  1.00  0.00    -0.376 OA
BRANCH  34  35
ATOM     35  C   UNL A   1      39.361  29.300  27.666  1.00  0.00     0.202 C 
BRANCH  35  36
ATOM     36  C   UNL A   1      38.020  28.962  28.332  1.00  0.00     0.261 C 
BRANCH  36  37
ATOM     37  O   UNL A   1      37.270  30.063  28.846  1.00  0.00    -0.460 OA
BRANCH  37  38
ATOM     38  C   UNL A   1      36.973  30.067  30.170  1.00  0.00     0.338 C 
ATOM     39  O   UNL A   1      36.222  29.317  30.747  1.00  0.00    -0.246 OA
BRANCH  38  40
ATOM     40  C   UNL A   1      37.932  31.001  30.811  1.00  0.00     0.060 A 
ATOM     41  C   UNL A   1      37.657  32.376  30.779  1.00  0.00     0.016 A 
ATOM     42  C   UNL A   1      39.036  30.518  31.520  1.00  0.00     0.016 A 
ATOM     43  C   UNL A   1      38.487  33.270  31.457  1.00  0.00     0.010 A 
ATOM     44  C   UNL A   1      39.886  31.415  32.168  1.00  0.00     0.010 A 
ATOM     45  C   UNL A   1      39.627  32.796  32.118  1.00  0.00    -0.014 A 
BRANCH  45  46
ATOM     46  C   UNL A   1      40.679  33.747  32.541  1.00  0.00     0.031 A 
ATOM     47  C   UNL A   1      40.670  34.190  33.978  1.00  0.00     0.074 A 
ATOM     48  C   UNL A   1      41.597  34.221  31.683  1.00  0.00     0.049 A 
ATOM     49  N   UNL A   1      41.443  35.046  34.588  1.00  0.00    -0.248 NA
ATOM     50  C   UNL A   1      39.641  33.582  34.842  1.00  0.00     0.031 C 
ATOM     51  C   UNL A   1      41.715  33.852  30.274  1.00  0.00     0.029 A 
ATOM     52  N   UNL A   1      42.596  35.144  31.876  1.00  0.00    -0.354 N 
ATOM     53  C   UNL A   1      40.985  35.095  35.899  1.00  0.00     0.074 A 
ATOM     54  C   UNL A   1      39.858  34.194  35.993  1.00  0.00     0.031 C 
ATOM     55  C   UNL A   1      42.714  34.564  29.720  1.00  0.00     0.029 A 
ATOM     56  C   UNL A   1      43.286  35.455  30.728  1.00  0.00     0.049 A 
ATOM     57  H   UNL A   1      42.798  35.544  32.752  1.00  0.00     0.167 HD
ATOM     58  C   UNL A   1      41.466  35.814  36.937  1.00  0.00     0.034 A 
ATOM     59  C   UNL A   1      44.252  36.373  30.519  1.00  0.00     0.034 A 
ATOM     60  C   UNL A   1      42.580  36.715  36.838  1.00  0.00     0.049 A 
ATOM     61  C   UNL A   1      44.730  37.213  31.680  1.00  0.00     0.074 A 
ATOM     62  C   UNL A   1      43.162  37.475  37.834  1.00  0.00     0.029 A 
ATOM     63  N   UNL A   1      43.266  36.992  35.666  1.00  0.00    -0.354 N 
ATOM     64  N   UNL A   1      44.365  37.169  32.940  1.00  0.00    -0.248 NA
ATOM     65  C   UNL A   1      45.770  38.213  31.395  1.00  0.00     0.031 C 
ATOM     66  C   UNL A   1      44.184  38.236  37.257  1.00  0.00     0.029 A 
ATOM     67  C   UNL A   1      44.258  37.924  35.908  1.00  0.00     0.049 A 
ATOM     68  H   UNL A   1      43.075  36.584  34.790  1.00  0.00     0.167 HD
ATOM     69  C   UNL A   1      45.158  38.101  33.602  1.00  0.00     0.074 A 
ATOM     70  C   UNL A   1      46.032  38.685  32.606  1.00  0.00     0.031 C 
ATOM     71  C   UNL A   1      45.156  38.452  34.913  1.00  0.00     0.034 A 
BRANCH  58  72
ATOM     72  C   UNL A   1      40.788  35.639  38.269  1.00  0.00     0.023 A 
ATOM     73  C   UNL A   1      39.779  36.544  38.661  1.00  0.00     0.012 A 
ATOM     74  C   UNL A   1      41.137  34.579  39.125  1.00  0.00     0.148 A 
ATOM     75  C   UNL A   1      39.154  36.418  39.899  1.00  0.00     0.002 A 
ATOM     76  C   UNL A   1      40.477  34.432  40.339  1.00  0.00     0.091 A 
ATOM     77  F   UNL A   1      42.119  33.749  38.750  1.00  0.00    -0.205 F 
ATOM     78  C   UNL A   1      39.496  35.357  40.734  1.00  0.00     0.022 A 
BRANCH  76  79
ATOM     79  S   UNL A   1      40.797  33.058  41.451  1.00  0.00     0.127 S 
ATOM     80  O   UNL A   1      41.853  33.606  42.301  1.00  0.00    -0.237 OA
ATOM     81  O   UNL A   1      39.504  32.895  42.116  1.00  0.00    -0.237 OA
ATOM     82  O   UNL A   1      41.189  31.941  40.604  1.00  0.00    -0.744 OA
ENDBRANCH  76  79
ENDBRANCH  58  72
BRANCH  59  83
ATOM     83  C   UNL A   1      44.864  36.530  29.168  1.00  0.00     0.023 A 
ATOM     84  C   UNL A   1      44.377  37.525  28.298  1.00  0.00     0.012 A 
ATOM     85  C   UNL A   1      45.923  35.704  28.740  1.00  0.00     0.148 A 
ATOM     86  C   UNL A   1      44.909  37.676  27.018  1.00  0.00     0.002 A 
ATOM     87  C   UNL A   1      46.485  35.894  27.482  1.00  0.00     0.091 A 
ATOM     88  F   UNL A   1      46.360  34.750  29.573  1.00  0.00    -0.205 F 
ATOM     89  C   UNL A   1      45.968  36.867  26.612  1.00  0.00     0.022 A 
BRANCH  87  90
ATOM     90  S   UNL A   1      47.923  34.979  26.914  1.00  0.00     0.127 S 
ATOM     91  O   UNL A   1      47.402  33.616  26.840  1.00  0.00    -0.237 OA
ATOM     92  O   UNL A   1      48.188  35.609  25.621  1.00  0.00    -0.237 OA
ATOM     93  O   UNL A   1      48.955  35.204  27.917  1.00  0.00    -0.744 OA
ENDBRANCH  87  90
ENDBRANCH  59  83
BRANCH  71  94
ATOM     94  C   UNL A   1      46.154  39.486  35.367  1.00  0.00     0.023 A 
ATOM     95  C   UNL A   1      47.420  39.085  35.834  1.00  0.00     0.012 A 
ATOM     96  C   UNL A   1      45.869  40.861  35.236  1.00  0.00     0.148 A 
ATOM     97  C   UNL A   1      48.377  40.034  36.192  1.00  0.00     0.002 A 
ATOM     98  C   UNL A   1      46.845  41.801  35.547  1.00  0.00     0.091 A 
ATOM     99  F   UNL A   1      44.652  41.223  34.803  1.00  0.00    -0.205 F 
ATOM    100  C   UNL A   1      48.095  41.389  36.037  1.00  0.00     0.022 A 
BRANCH  98 101
ATOM    101  S   UNL A   1      46.608  43.561  35.283  1.00  0.00     0.127 S 
ATOM    102  O   UNL A   1      47.852  44.113  35.819  1.00  0.00    -0.237 OA
ATOM    103  O   UNL A   1      46.483  43.642  33.827  1.00  0.00    -0.237 OA
ATOM    104  O   UNL A   1      45.401  43.920  36.014  1.00  0.00    -0.744 OA
ENDBRANCH  98 101
ENDBRANCH  71  94
ENDBRANCH  45  46
ENDBRANCH  38  40
ENDBRANCH  37  38
ENDBRANCH  36  37
ENDBRANCH  35  36
ENDBRANCH  34  35
ENDBRANCH  33  34
ENDBRANCH  32  33
ENDBRANCH  31  32
ENDBRANCH   1  31
TORSDOF 29
ENDMDL
MODEL 2
REMARK VINA RESULT:      -7.8      8.861     11.078
REMARK SMILES CCOc1c(CNC(=O)[C@H]2CCCC[C@@H]2C(=O)OCCOCCOCCOCCOC(=O)c2ccc(-c3c4nc(c(-c5cccc(S(=O)(=O)[O-])c5F)c5ccc([nH]5)c(-c5cccc(S(=O)(=O)[O-])c5F)c5nc(c(-c6cccc(S(=O)(=O)[O-])c6F)c6ccc3[nH]6)C=C5)C=C4)cc2)cccc1OC
REMARK SMILES IDX 23 1 22 2 21 3 20 4 19 5 18 6 16 7 17 8 15 9 10 10 11 11
REMARK SMILES IDX 12 12 14 13 13 14 8 15 7 16 9 18 6 19 5 20 4 21 99 22 96 23
REMARK SMILES IDX 98 24 97 25 3 26 2 27 1 28 100 29 101 30 24 31 25 32 26 33
REMARK SMILES IDX 27 34 28 35 29 36 30 37 31 38 32 39 33 40 34 41 95 42 35 43
REMARK SMILES IDX 94 44 36 45 37 46 38 47 88 48 39 49 93 50 87 51 89 52 40 53
REMARK SMILES IDX 92 54 86 55 85 56 41 58 73 59 53 60 72 61 54 62 57 63 71 64
REMARK SMILES IDX 90 65 55 66 56 67 70 69 91 70 58 71 42 72 43 73 51 74 44 75
REMARK SMILES IDX 46 76 52 77 45 78 47 79 48 80 49 81 50 82 74 83 75 84 83 85
REMARK SMILES IDX 76 86 78 87 84 88 77 89 79 90 80 91 81 92 82 93 59 94 60 95
REMARK SMILES IDX 68 96 61 97 63 98 69 99 62 100 64 101 65 102 66 103 67 104
REMARK H PARENT 7 17 89 57 57 68
REMARK Flexibility Score: inf
ROOT
ATOM      1  C   UNL A   1      41.515  22.734  27.591  1.00  0.00     0.188 C 
ENDROOT
BRANCH   1   2
ATOM      2  C   UNL A   1      40.157  23.411  27.295  1.00  0.00     0.188 C 
BRANCH   2   3
ATOM      3  O   UNL A   1      39.274  22.921  26.299  1.00  0.00    -0.376 OA
BRANCH   3   4
ATOM      4  C   UNL A   1      39.161  21.527  26.079  1.00  0.00     0.202 C 
BRANCH   4   5
ATOM      5  C   UNL A   1      38.118  20.985  25.081  1.00  0.00     0.261 C 
BRANCH   5   6
ATOM      6  O   UNL A   1      37.284  21.934  24.388  1.00  0.00    -0.463 OA
BRANCH   6   7
ATOM      7  C   UNL A   1      36.036  22.112  24.894  1.00  0.00     0.309 C 
ATOM      8  O   UNL A   1      35.581  21.438  25.808  1.00  0.00    -0.252 OA
BRANCH   7   9
ATOM      9  C   UNL A   1      35.284  23.259  24.183  1.00  0.00     0.111 C 
ATOM     10  C   UNL A   1      34.492  24.217  25.119  1.00  0.00     0.092 C 
ATOM     11  C   UNL A   1      33.294  23.472  25.756  1.00  0.00     0.014 C 
ATOM     12  C   UNL A   1      32.404  22.717  24.765  1.00  0.00     0.001 C 
ATOM     13  C   UNL A   1      34.369  22.615  23.130  1.00  0.00     0.016 C 
ATOM     14  C   UNL A   1      33.165  21.891  23.735  1.00  0.00     0.001 C 
BRANCH  10  15
ATOM     15  C   UNL A   1      33.972  25.489  24.415  1.00  0.00     0.224 C 
ATOM     16  N   UNL A   1      33.394  26.536  25.066  1.00  0.00    -0.352 N 
ATOM     17  H   UNL A   1      32.961  27.168  24.448  1.00  0.00     0.163 HD
ATOM     18  O   UNL A   1      34.024  25.599  23.186  1.00  0.00    -0.275 OA
BRANCH  16  19
ATOM     19  C   UNL A   1      33.262  26.949  26.468  1.00  0.00     0.155 C 
BRANCH  19  20
ATOM     20  C   UNL A   1      33.265  28.464  26.603  1.00  0.00     0.017 A 
ATOM     21  C   UNL A   1      32.250  29.346  26.126  1.00  0.00     0.166 A 
ATOM     22  C   UNL A   1      32.274  30.704  26.523  1.00  0.00     0.161 A 
ATOM     23  C   UNL A   1      34.310  29.005  27.384  1.00  0.00     0.010 A 
ATOM     24  C   UNL A   1      33.337  31.181  27.305  1.00  0.00     0.050 A 
ATOM     25  C   UNL A   1      34.358  30.346  27.721  1.00  0.00     0.004 A 
BRANCH  21  26
ATOM     26  O   UNL A   1      31.169  28.879  25.418  1.00  0.00    -0.490 OA
BRANCH  26  27
ATOM     27  C   UNL A   1      31.220  29.134  24.006  1.00  0.00     0.226 C 
ATOM     28  C   UNL A   1      29.828  29.059  23.387  1.00  0.00     0.049 C 
ENDBRANCH  26  27
ENDBRANCH  21  26
BRANCH  22  29
ATOM     29  O   UNL A   1      31.358  31.702  26.340  1.00  0.00    -0.493 OA
ATOM     30  C   UNL A   1      31.649  33.039  26.670  1.00  0.00     0.278 C 
ENDBRANCH  22  29
ENDBRANCH  19  20
ENDBRANCH  16  19
ENDBRANCH  10  15
ENDBRANCH   7   9
ENDBRANCH   6   7
ENDBRANCH   5   6
ENDBRANCH   4   5
ENDBRANCH   3   4
ENDBRANCH   2   3
ENDBRANCH   1   2
BRANCH   1  31
ATOM     31  O   UNL A   1      42.630  23.572  27.350  1.00  0.00    -0.377 OA
BRANCH  31  32
ATOM     32  C   UNL A   1      43.537  23.072  26.381  1.00  0.00     0.188 C 
BRANCH  32  33
ATOM     33  C   UNL A   1      43.366  23.669  24.975  1.00  0.00     0.188 C 
BRANCH  33  34
ATOM     34  O   UNL A   1      44.115  24.872  24.826  1.00  0.00    -0.376 OA
BRANCH  34  35
ATOM     35  C   UNL A   1      43.474  26.124  24.963  1.00  0.00     0.202 C 
BRANCH  35  36
ATOM     36  C   UNL A   1      44.284  27.252  25.616  1.00  0.00     0.261 C 
BRANCH  36  37
ATOM     37  O   UNL A   1      45.206  27.943  24.774  1.00  0.00    -0.460 OA
BRANCH  37  38
ATOM     38  C   UNL A   1      46.457  27.431  24.644  1.00  0.00     0.338 C 
ATOM     39  O   UNL A   1      47.148  27.447  23.653  1.00  0.00    -0.246 OA
BRANCH  38  40
ATOM     40  C   UNL A   1      46.906  27.076  26.013  1.00  0.00     0.060 A 
ATOM     41  C   UNL A   1      47.010  28.093  26.973  1.00  0.00     0.016 A 
ATOM     42  C   UNL A   1      47.125  25.742  26.371  1.00  0.00     0.016 A 
ATOM     43  C   UNL A   1      47.333  27.776  28.293  1.00  0.00     0.010 A 
ATOM     44  C   UNL A   1      47.485  25.430  27.683  1.00  0.00     0.010 A 
ATOM     45  C   UNL A   1      47.613  26.449  28.642  1.00  0.00    -0.014 A 
BRANCH  45  46
ATOM     46  C   UNL A   1      48.277  26.153  29.931  1.00  0.00     0.031 A 
ATOM     47  C   UNL A   1      47.395  25.796  31.095  1.00  0.00     0.074 A 
ATOM     48  C   UNL A   1      49.612  26.218  30.076  1.00  0.00     0.049 A 
ATOM     49  N   UNL A   1      47.716  25.543  32.334  1.00  0.00    -0.248 NA
ATOM     50  C   UNL A   1      45.949  25.720  30.818  1.00  0.00     0.031 C 
ATOM     51  C   UNL A   1      50.567  26.536  29.018  1.00  0.00     0.029 A 
ATOM     52  N   UNL A   1      50.390  26.041  31.193  1.00  0.00    -0.354 N 
ATOM     53  C   UNL A   1      46.517  25.295  32.989  1.00  0.00     0.074 A 
ATOM     54  C   UNL A   1      45.458  25.444  32.015  1.00  0.00     0.031 C 
ATOM     55  C   UNL A   1      51.806  26.559  29.543  1.00  0.00     0.029 A 
ATOM     56  C   UNL A   1      51.726  26.284  30.976  1.00  0.00     0.049 A 
ATOM     57  H   UNL A   1      50.026  25.766  32.065  1.00  0.00     0.167 HD
ATOM     58  C   UNL A   1      46.311  24.961  34.282  1.00  0.00     0.034 A 
ATOM     59  C   UNL A   1      52.756  26.303  31.847  1.00  0.00     0.034 A 
ATOM     60  C   UNL A   1      47.364  24.824  35.249  1.00  0.00     0.049 A 
ATOM     61  C   UNL A   1      52.494  25.990  33.301  1.00  0.00     0.074 A 
ATOM     62  C   UNL A   1      47.267  24.468  36.581  1.00  0.00     0.029 A 
ATOM     63  N   UNL A   1      48.705  25.060  34.991  1.00  0.00    -0.354 N 
ATOM     64  N   UNL A   1      51.370  25.648  33.885  1.00  0.00    -0.248 NA
ATOM     65  C   UNL A   1      53.648  26.044  34.212  1.00  0.00     0.031 C 
ATOM     66  C   UNL A   1      48.549  24.516  37.136  1.00  0.00     0.029 A 
ATOM     67  C   UNL A   1      49.447  24.871  36.142  1.00  0.00     0.049 A 
ATOM     68  H   UNL A   1      49.074  25.322  34.117  1.00  0.00     0.167 HD
ATOM     69  C   UNL A   1      51.688  25.405  35.218  1.00  0.00     0.074 A 
ATOM     70  C   UNL A   1      53.113  25.627  35.352  1.00  0.00     0.031 C 
ATOM     71  C   UNL A   1      50.874  25.043  36.242  1.00  0.00     0.034 A 
BRANCH  58  72
ATOM     72  C   UNL A   1      44.891  24.713  34.712  1.00  0.00     0.023 A 
ATOM     73  C   UNL A   1      44.325  23.432  34.542  1.00  0.00     0.012 A 
ATOM     74  C   UNL A   1      44.122  25.737  35.294  1.00  0.00     0.148 A 
ATOM     75  C   UNL A   1      43.004  23.185  34.910  1.00  0.00     0.002 A 
ATOM     76  C   UNL A   1      42.820  25.472  35.700  1.00  0.00     0.091 A 
ATOM     77  F   UNL A   1      44.666  26.955  35.418  1.00  0.00    -0.205 F 
ATOM     78  C   UNL A   1      42.255  24.201  35.497  1.00  0.00     0.022 A 
BRANCH  76  79
ATOM     79  S   UNL A   1      41.800  26.694  36.531  1.00  0.00     0.127 S 
ATOM     80  O   UNL A   1      42.723  27.211  37.541  1.00  0.00    -0.237 OA
ATOM     81  O   UNL A   1      41.497  27.629  35.447  1.00  0.00    -0.237 OA
ATOM     82  O   UNL A   1      40.647  25.970  37.047  1.00  0.00    -0.744 OA
ENDBRANCH  76  79
ENDBRANCH  58  72
BRANCH  59  83
ATOM     83  C   UNL A   1      54.140  26.592  31.371  1.00  0.00     0.023 A 
ATOM     84  C   UNL A   1      54.548  27.929  31.199  1.00  0.00     0.012 A 
ATOM     85  C   UNL A   1      55.053  25.556  31.091  1.00  0.00     0.148 A 
ATOM     86  C   UNL A   1      55.826  28.230  30.728  1.00  0.00     0.002 A 
ATOM     87  C   UNL A   1      56.343  25.863  30.671  1.00  0.00     0.091 A 
ATOM     88  F   UNL A   1      54.641  24.289  31.241  1.00  0.00    -0.205 F 
ATOM     89  C   UNL A   1      56.726  27.199  30.472  1.00  0.00     0.022 A 
BRANCH  87  90
ATOM     90  S   UNL A   1      57.607  24.610  30.426  1.00  0.00     0.127 S 
ATOM     91  O   UNL A   1      57.547  23.873  31.685  1.00  0.00    -0.237 OA
ATOM     92  O   UNL A   1      57.092  23.888  29.263  1.00  0.00    -0.237 OA
ATOM     93  O   UNL A   1      58.844  25.340  30.182  1.00  0.00    -0.744 OA
ENDBRANCH  87  90
ENDBRANCH  59  83
BRANCH  71  94
ATOM     94  C   UNL A   1      51.502  24.819  37.595  1.00  0.00     0.023 A 
ATOM     95  C   UNL A   1      52.015  23.552  37.931  1.00  0.00     0.012 A 
ATOM     96  C   UNL A   1      51.667  25.894  38.492  1.00  0.00     0.148 A 
ATOM     97  C   UNL A   1      52.658  23.350  39.151  1.00  0.00     0.002 A 
ATOM     98  C   UNL A   1      52.354  25.697  39.684  1.00  0.00     0.091 A 
ATOM     99  F   UNL A   1      51.159  27.089  38.159  1.00  0.00    -0.205 F 
ATOM    100  C   UNL A   1      52.839  24.422  40.021  1.00  0.00     0.022 A 
BRANCH  98 101
ATOM    101  S   UNL A   1      52.724  27.040  40.818  1.00  0.00     0.127 S 
ATOM    102  O   UNL A   1      51.385  27.449  41.242  1.00  0.00    -0.237 OA
ATOM    103  O   UNL A   1      53.510  26.366  41.851  1.00  0.00    -0.237 OA
ATOM    104  O   UNL A   1      53.462  28.029  40.045  1.00  0.00    -0.744 OA
ENDBRANCH  98 101
ENDBRANCH  71  94
ENDBRANCH  45  46
ENDBRANCH  38  40
ENDBRANCH  37  38
ENDBRANCH  36  37
ENDBRANCH  35  36
ENDBRANCH  34  35
ENDBRANCH  33  34
ENDBRANCH  32  33
ENDBRANCH  31  32
ENDBRANCH   1  31
TORSDOF 29
ENDMDL
MODEL 3
REMARK VINA RESULT:      -7.6      4.244      8.807
REMARK SMILES CCOc1c(CNC(=O)[C@H]2CCCC[C@@H]2C(=O)OCCOCCOCCOCCOC(=O)c2ccc(-c3c4nc(c(-c5cccc(S(=O)(=O)[O-])c5F)c5ccc([nH]5)c(-c5cccc(S(=O)(=O)[O-])c5F)c5nc(c(-c6cccc(S(=O)(=O)[O-])c6F)c6ccc3[nH]6)C=C5)C=C4)cc2)cccc1OC
REMARK SMILES IDX 23 1 22 2 21 3 20 4 19 5 18 6 16 7 17 8 15 9 10 10 11 11
REMARK SMILES IDX 12 12 14 13 13 14 8 15 7 16 9 18 6 19 5 20 4 21 99 22 96 23
REMARK SMILES IDX 98 24 97 25 3 26 2 27 1 28 100 29 101 30 24 31 25 32 26 33
REMARK SMILES IDX 27 34 28 35 29 36 30 37 31 38 32 39 33 40 34 41 95 42 35 43
REMARK SMILES IDX 94 44 36 45 37 46 38 47 88 48 39 49 93 50 87 51 89 52 40 53
REMARK SMILES IDX 92 54 86 55 85 56 41 58 73 59 53 60 72 61 54 62 57 63 71 64
REMARK SMILES IDX 90 65 55 66 56 67 70 69 91 70 58 71 42 72 43 73 51 74 44 75
REMARK SMILES IDX 46 76 52 77 45 78 47 79 48 80 49 81 50 82 74 83 75 84 83 85
REMARK SMILES IDX 76 86 78 87 84 88 77 89 79 90 80 91 81 92 82 93 59 94 60 95
REMARK SMILES IDX 68 96 61 97 63 98 69 99 62 100 64 101 65 102 66 103 67 104
REMARK H PARENT 7 17 89 57 57 68
REMARK Flexibility Score: inf
ROOT
ATOM      1  C   UNL A   1      40.749  23.631  26.411  1.00  0.00     0.188 C 
ENDROOT
BRANCH   1   2
ATOM      2  C   UNL A   1      39.515  22.858  26.930  1.00  0.00     0.188 C 
BRANCH   2   3
ATOM      3  O   UNL A   1      38.351  22.678  26.138  1.00  0.00    -0.376 OA
BRANCH   3   4
ATOM      4  C   UNL A   1      38.182  21.487  25.393  1.00  0.00     0.202 C 
BRANCH   4   5
ATOM      5  C   UNL A   1      36.765  20.951  25.104  1.00  0.00     0.261 C 
BRANCH   5   6
ATOM      6  O   UNL A   1      35.825  21.833  24.458  1.00  0.00    -0.463 OA
BRANCH   6   7
ATOM      7  C   UNL A   1      34.548  21.379  24.366  1.00  0.00     0.309 C 
ATOM      8  O   UNL A   1      34.248  20.197  24.465  1.00  0.00    -0.252 OA
BRANCH   7   9
ATOM      9  C   UNL A   1      33.544  22.529  24.131  1.00  0.00     0.111 C 
ATOM     10  C   UNL A   1      33.662  23.727  25.116  1.00  0.00     0.092 C 
ATOM     11  C   UNL A   1      33.236  23.294  26.539  1.00  0.00     0.014 C 
ATOM     12  C   UNL A   1      31.887  22.574  26.617  1.00  0.00     0.001 C 
ATOM     13  C   UNL A   1      32.137  21.913  24.157  1.00  0.00     0.016 C 
ATOM     14  C   UNL A   1      31.684  21.496  25.559  1.00  0.00     0.001 C 
BRANCH  10  15
ATOM     15  C   UNL A   1      32.832  24.962  24.701  1.00  0.00     0.224 C 
ATOM     16  N   UNL A   1      33.022  26.212  25.206  1.00  0.00    -0.352 N 
ATOM     17  H   UNL A   1      32.290  26.826  24.969  1.00  0.00     0.163 HD
ATOM     18  O   UNL A   1      31.902  24.857  23.894  1.00  0.00    -0.275 OA
BRANCH  16  19
ATOM     19  C   UNL A   1      34.056  26.863  26.019  1.00  0.00     0.155 C 
BRANCH  19  20
ATOM     20  C   UNL A   1      33.753  28.339  26.223  1.00  0.00     0.017 A 
ATOM     21  C   UNL A   1      32.591  29.024  25.758  1.00  0.00     0.166 A 
ATOM     22  C   UNL A   1      32.335  30.338  26.217  1.00  0.00     0.161 A 
ATOM     23  C   UNL A   1      34.653  29.037  27.058  1.00  0.00     0.010 A 
ATOM     24  C   UNL A   1      33.265  30.977  27.050  1.00  0.00     0.050 A 
ATOM     25  C   UNL A   1      34.425  30.342  27.458  1.00  0.00     0.004 A 
BRANCH  21  26
ATOM     26  O   UNL A   1      31.640  28.388  24.998  1.00  0.00    -0.490 OA
BRANCH  26  27
ATOM     27  C   UNL A   1      31.578  28.817  23.629  1.00  0.00     0.226 C 
ATOM     28  C   UNL A   1      30.264  28.392  22.983  1.00  0.00     0.049 C 
ENDBRANCH  26  27
ENDBRANCH  21  26
BRANCH  22  29
ATOM     29  O   UNL A   1      31.242  31.142  26.053  1.00  0.00    -0.493 OA
ATOM     30  C   UNL A   1      31.252  32.491  26.455  1.00  0.00     0.278 C 
ENDBRANCH  22  29
ENDBRANCH  19  20
ENDBRANCH  16  19
ENDBRANCH  10  15
ENDBRANCH   7   9
ENDBRANCH   6   7
ENDBRANCH   5   6
ENDBRANCH   4   5
ENDBRANCH   3   4
ENDBRANCH   2   3
ENDBRANCH   1   2
BRANCH   1  31
ATOM     31  O   UNL A   1      41.039  24.799  27.155  1.00  0.00    -0.377 OA
BRANCH  31  32
ATOM     32  C   UNL A   1      42.018  24.619  28.165  1.00  0.00     0.188 C 
BRANCH  32  33
ATOM     33  C   UNL A   1      42.801  23.299  28.071  1.00  0.00     0.188 C 
BRANCH  33  34
ATOM     34  O   UNL A   1      43.875  23.263  29.008  1.00  0.00    -0.376 OA
BRANCH  34  35
ATOM     35  C   UNL A   1      45.196  23.527  28.580  1.00  0.00     0.202 C 
BRANCH  35  36
ATOM     36  C   UNL A   1      45.497  23.321  27.090  1.00  0.00     0.261 C 
BRANCH  36  37
ATOM     37  O   UNL A   1      46.566  24.096  26.545  1.00  0.00    -0.460 OA
BRANCH  37  38
ATOM     38  C   UNL A   1      46.290  24.911  25.495  1.00  0.00     0.338 C 
ATOM     39  O   UNL A   1      46.031  24.574  24.364  1.00  0.00    -0.246 OA
BRANCH  38  40
ATOM     40  C   UNL A   1      46.120  26.273  26.058  1.00  0.00     0.060 A 
ATOM     41  C   UNL A   1      46.645  26.547  27.328  1.00  0.00     0.016 A 
ATOM     42  C   UNL A   1      45.538  27.294  25.299  1.00  0.00     0.016 A 
ATOM     43  C   UNL A   1      46.589  27.844  27.842  1.00  0.00     0.010 A 
ATOM     44  C   UNL A   1      45.449  28.582  25.828  1.00  0.00     0.010 A 
ATOM     45  C   UNL A   1      45.953  28.855  27.111  1.00  0.00    -0.014 A 
BRANCH  45  46
ATOM     46  C   UNL A   1      45.591  30.126  27.778  1.00  0.00     0.031 A 
ATOM     47  C   UNL A   1      46.641  31.200  27.830  1.00  0.00     0.074 A 
ATOM     48  C   UNL A   1      44.384  30.317  28.338  1.00  0.00     0.049 A 
ATOM     49  N   UNL A   1      46.598  32.377  28.392  1.00  0.00    -0.248 NA
ATOM     50  C   UNL A   1      47.916  30.900  27.154  1.00  0.00     0.031 C 
ATOM     51  C   UNL A   1      43.284  29.357  28.336  1.00  0.00     0.029 A 
ATOM     52  N   UNL A   1      43.897  31.390  29.043  1.00  0.00    -0.354 N 
ATOM     53  C   UNL A   1      47.842  32.950  28.157  1.00  0.00     0.074 A 
ATOM     54  C   UNL A   1      48.623  31.987  27.414  1.00  0.00     0.031 C 
ATOM     55  C   UNL A   1      42.255  29.873  29.033  1.00  0.00     0.029 A 
ATOM     56  C   UNL A   1      42.636  31.185  29.552  1.00  0.00     0.049 A 
ATOM     57  H   UNL A   1      44.402  32.224  29.173  1.00  0.00     0.167 HD
ATOM     58  C   UNL A   1      48.292  34.173  28.514  1.00  0.00     0.034 A 
ATOM     59  C   UNL A   1      41.891  31.965  30.362  1.00  0.00     0.034 A 
ATOM     60  C   UNL A   1      47.517  35.124  29.260  1.00  0.00     0.049 A 
ATOM     61  C   UNL A   1      42.440  33.302  30.803  1.00  0.00     0.074 A 
ATOM     62  C   UNL A   1      47.869  36.400  29.655  1.00  0.00     0.029 A 
ATOM     63  N   UNL A   1      46.238  34.891  29.742  1.00  0.00    -0.354 N 
ATOM     64  N   UNL A   1      43.573  33.878  30.480  1.00  0.00    -0.248 NA
ATOM     65  C   UNL A   1      41.596  34.104  31.702  1.00  0.00     0.031 C 
ATOM     66  C   UNL A   1      46.813  36.929  30.403  1.00  0.00     0.029 A 
ATOM     67  C   UNL A   1      45.791  35.994  30.445  1.00  0.00     0.049 A 
ATOM     68  H   UNL A   1      45.724  34.062  29.604  1.00  0.00     0.167 HD
ATOM     69  C   UNL A   1      43.560  35.124  31.099  1.00  0.00     0.074 A 
ATOM     70  C   UNL A   1      42.299  35.224  31.806  1.00  0.00     0.031 C 
ATOM     71  C   UNL A   1      44.509  36.095  31.095  1.00  0.00     0.034 A 
BRANCH  58  72
ATOM     72  C   UNL A   1      49.686  34.546  28.087  1.00  0.00     0.023 A 
ATOM     73  C   UNL A   1      50.706  34.652  29.056  1.00  0.00     0.012 A 
ATOM     74  C   UNL A   1      49.991  34.778  26.734  1.00  0.00     0.148 A 
ATOM     75  C   UNL A   1      51.998  35.020  28.688  1.00  0.00     0.002 A 
ATOM     76  C   UNL A   1      51.292  35.100  26.369  1.00  0.00     0.091 A 
ATOM     77  F   UNL A   1      49.002  34.704  25.833  1.00  0.00    -0.205 F 
ATOM     78  C   UNL A   1      52.294  35.234  27.345  1.00  0.00     0.022 A 
BRANCH  76  79
ATOM     79  S   UNL A   1      51.787  35.325  24.657  1.00  0.00     0.127 S 
ATOM     80  O   UNL A   1      51.476  34.015  24.086  1.00  0.00    -0.237 OA
ATOM     81  O   UNL A   1      50.901  36.404  24.221  1.00  0.00    -0.237 OA
ATOM     82  O   UNL A   1      53.199  35.675  24.691  1.00  0.00    -0.744 OA
ENDBRANCH  76  79
ENDBRANCH  58  72
BRANCH  59  83
ATOM     83  C   UNL A   1      40.528  31.529  30.785  1.00  0.00     0.023 A 
ATOM     84  C   UNL A   1      40.396  30.553  31.791  1.00  0.00     0.012 A 
ATOM     85  C   UNL A   1      39.367  32.073  30.201  1.00  0.00     0.148 A 
ATOM     86  C   UNL A   1      39.136  30.103  32.187  1.00  0.00     0.002 A 
ATOM     87  C   UNL A   1      38.113  31.659  30.636  1.00  0.00     0.091 A 
ATOM     88  F   UNL A   1      39.513  32.987  29.231  1.00  0.00    -0.205 F 
ATOM     89  C   UNL A   1      37.995  30.662  31.617  1.00  0.00     0.022 A 
BRANCH  87  90
ATOM     90  S   UNL A   1      36.587  32.400  30.043  1.00  0.00     0.127 S 
ATOM     91  O   UNL A   1      35.586  31.454  30.528  1.00  0.00    -0.237 OA
ATOM     92  O   UNL A   1      36.596  33.693  30.727  1.00  0.00    -0.237 OA
ATOM     93  O   UNL A   1      36.725  32.483  28.596  1.00  0.00    -0.744 OA
ENDBRANCH  87  90
ENDBRANCH  59  83
BRANCH  71  94
ATOM     94  C   UNL A   1      44.213  37.372  31.840  1.00  0.00     0.023 A 
ATOM     95  C   UNL A   1      44.510  37.470  33.213  1.00  0.00     0.012 A 
ATOM     96  C   UNL A   1      43.731  38.505  31.153  1.00  0.00     0.148 A 
ATOM     97  C   UNL A   1      44.305  38.667  33.898  1.00  0.00     0.002 A 
ATOM     98  C   UNL A   1      43.577  39.709  31.831  1.00  0.00     0.091 A 
ATOM     99  F   UNL A   1      43.441  38.387  29.849  1.00  0.00    -0.205 F 
ATOM    100  C   UNL A   1      43.852  39.788  33.207  1.00  0.00     0.022 A 
BRANCH  98 101
ATOM    101  S   UNL A   1      43.097  41.228  31.003  1.00  0.00     0.127 S 
ATOM    102  O   UNL A   1      42.661  42.056  32.127  1.00  0.00    -0.237 OA
ATOM    103  O   UNL A   1      44.352  41.653  30.383  1.00  0.00    -0.237 OA
ATOM    104  O   UNL A   1      42.051  40.860  30.058  1.00  0.00    -0.744 OA
ENDBRANCH  98 101
ENDBRANCH  71  94
ENDBRANCH  45  46
ENDBRANCH  38  40
ENDBRANCH  37  38
ENDBRANCH  36  37
ENDBRANCH  35  36
ENDBRANCH  34  35
ENDBRANCH  33  34
ENDBRANCH  32  33
ENDBRANCH  31  32
ENDBRANCH   1  31
TORSDOF 29
ENDMDL
