MODEL 1
REMARK VINA RESULT:      -9.4      0.000      0.000
REMARK SMILES O=C(C[C@@H]1CSCC[NH2+]1)NC[C@@H](C(=O)OCCOCCOCCOCCOC(=O)c1ccc(-c2c3nc(c(-c4cccc(S(=O)(=O)[O-])c4F)c4ccc([nH]4)c(-c4cccc(S(=O)(=O)[O-])c4F)c4nc(c(-c5cccc(S(=O)(=O)[O-])c5F)c5ccc2[nH]5)C=C4)C=C3)cc1)c1ccccc1
REMARK SMILES IDX 20 1 19 2 18 3 17 4 16 5 15 6 13 7 14 8 12 9 11 10 10 11
REMARK SMILES IDX 1 12 2 13 3 15 4 16 5 17 9 18 6 19 8 20 7 23 93 24 94 25
REMARK SMILES IDX 98 26 95 27 97 28 96 29 21 30 22 31 23 32 24 33 25 34 26 35
REMARK SMILES IDX 27 36 28 37 29 38 30 39 31 40 92 41 32 42 91 43 33 44 34 45
REMARK SMILES IDX 35 46 85 47 36 48 90 49 84 50 86 51 37 52 89 53 83 54 82 55
REMARK SMILES IDX 38 57 70 58 50 59 69 60 51 61 54 62 68 63 87 64 52 65 53 66
REMARK SMILES IDX 67 68 88 69 55 70 39 71 40 72 48 73 41 74 43 75 49 76 42 77
REMARK SMILES IDX 44 78 45 79 46 80 47 81 71 82 72 83 80 84 73 85 75 86 81 87
REMARK SMILES IDX 74 88 76 89 77 90 78 91 79 92 56 93 57 94 65 95 58 96 60 97
REMARK SMILES IDX 66 98 59 99 61 100 62 101 63 102 64 103
REMARK H PARENT 10 14 9 21 9 22 86 56 54 67
REMARK Flexibility Score: inf
ROOT
ATOM      1  C   UNL A   1      37.098  23.520  25.974  1.00  0.00     0.188 C 
ENDROOT
BRANCH   1   2
ATOM      2  C   UNL A   1      35.571  23.342  25.915  1.00  0.00     0.188 C 
BRANCH   2   3
ATOM      3  O   UNL A   1      34.703  24.457  25.748  1.00  0.00    -0.376 OA
BRANCH   3   4
ATOM      4  C   UNL A   1      33.334  24.372  26.114  1.00  0.00     0.202 C 
BRANCH   4   5
ATOM      5  C   UNL A   1      32.814  23.227  27.009  1.00  0.00     0.261 C 
BRANCH   5   6
ATOM      6  O   UNL A   1      32.975  21.880  26.511  1.00  0.00    -0.463 OA
BRANCH   6   7
ATOM      7  C   UNL A   1      32.222  21.557  25.433  1.00  0.00     0.315 C 
ATOM      8  O   UNL A   1      30.994  21.475  25.479  1.00  0.00    -0.251 OA
BRANCH   7   9
ATOM      9  C   UNL A   1      33.003  21.331  24.122  1.00  0.00     0.148 C 
BRANCH   9  10
ATOM     10  C   UNL A   1      32.655  22.136  22.843  1.00  0.00     0.136 C 
BRANCH  10  11
ATOM     11  N   UNL A   1      31.983  23.419  22.943  1.00  0.00    -0.355 N 
ATOM     12  O   UNL A   1      33.636  24.477  21.741  1.00  0.00    -0.275 OA
ATOM     13  C   UNL A   1      32.524  24.510  22.269  1.00  0.00     0.226 C 
ATOM     14  H   UNL A   1      31.161  23.515  23.476  1.00  0.00     0.163 HD
BRANCH  13  15
ATOM     15  C   UNL A   1      31.676  25.770  22.250  1.00  0.00     0.165 C 
BRANCH  15  16
ATOM     16  C   UNL A   1      31.177  26.341  23.600  1.00  0.00     0.201 C 
ATOM     17  C   UNL A   1      29.730  26.861  23.627  1.00  0.00     0.135 C 
ATOM     18  N   UNL A   1      32.133  27.229  24.299  1.00  0.00    -0.342 N 
ATOM     19  S   UNL A   1      29.536  28.538  22.938  1.00  0.00    -0.150 SA
ATOM     20  C   UNL A   1      32.137  28.626  23.863  1.00  0.00     0.271 C 
ATOM     21  H   UNL A   1      33.071  26.854  24.156  1.00  0.00     0.346 HD
ATOM     22  H   UNL A   1      31.837  27.244  25.275  1.00  0.00     0.346 HD
ATOM     23  C   UNL A   1      30.786  29.332  23.982  1.00  0.00     0.131 C 
ENDBRANCH  15  16
ENDBRANCH  13  15
ENDBRANCH  10  11
ENDBRANCH   9  10
BRANCH   9  24
ATOM     24  C   UNL A   1      33.145  19.810  23.852  1.00  0.00    -0.032 A 
ATOM     25  C   UNL A   1      34.070  19.067  24.610  1.00  0.00     0.004 A 
ATOM     26  C   UNL A   1      32.373  19.102  22.911  1.00  0.00     0.004 A 
ATOM     27  C   UNL A   1      34.212  17.686  24.447  1.00  0.00     0.000 A 
ATOM     28  C   UNL A   1      32.524  17.720  22.738  1.00  0.00     0.000 A 
ATOM     29  C   UNL A   1      33.442  17.012  23.505  1.00  0.00     0.000 A 
ENDBRANCH   9  24
ENDBRANCH   7   9
ENDBRANCH   6   7
ENDBRANCH   5   6
ENDBRANCH   4   5
ENDBRANCH   3   4
ENDBRANCH   2   3
ENDBRANCH   1   2
BRANCH   1  30
ATOM     30  O   UNL A   1      37.837  22.320  25.894  1.00  0.00    -0.377 OA
BRANCH  30  31
ATOM     31  C   UNL A   1      39.210  22.393  26.246  1.00  0.00     0.188 C 
BRANCH  31  32
ATOM     32  C   UNL A   1      40.032  21.102  26.126  1.00  0.00     0.188 C 
BRANCH  32  33
ATOM     33  O   UNL A   1      40.688  20.736  27.335  1.00  0.00    -0.376 OA
BRANCH  33  34
ATOM     34  C   UNL A   1      41.928  20.048  27.249  1.00  0.00     0.202 C 
BRANCH  34  35
ATOM     35  C   UNL A   1      42.378  19.514  25.877  1.00  0.00     0.261 C 
BRANCH  35  36
ATOM     36  O   UNL A   1      43.790  19.374  25.654  1.00  0.00    -0.460 OA
BRANCH  36  37
ATOM     37  C   UNL A   1      44.351  19.914  24.557  1.00  0.00     0.338 C 
ATOM     38  O   UNL A   1      44.404  19.424  23.440  1.00  0.00    -0.246 OA
BRANCH  37  39
ATOM     39  C   UNL A   1      44.721  21.306  24.894  1.00  0.00     0.060 A 
ATOM     40  C   UNL A   1      45.312  21.581  26.133  1.00  0.00     0.016 A 
ATOM     41  C   UNL A   1      44.503  22.337  23.979  1.00  0.00     0.016 A 
ATOM     42  C   UNL A   1      45.651  22.893  26.474  1.00  0.00     0.010 A 
ATOM     43  C   UNL A   1      44.848  23.650  24.318  1.00  0.00     0.010 A 
ATOM     44  C   UNL A   1      45.380  23.944  25.586  1.00  0.00    -0.014 A 
BRANCH  44  45
ATOM     45  C   UNL A   1      45.441  25.352  26.062  1.00  0.00     0.031 A 
ATOM     46  C   UNL A   1      46.785  26.038  26.087  1.00  0.00     0.074 A 
ATOM     47  C   UNL A   1      44.339  26.027  26.442  1.00  0.00     0.049 A 
ATOM     48  N   UNL A   1      47.098  27.241  26.493  1.00  0.00    -0.248 NA
ATOM     49  C   UNL A   1      47.932  25.255  25.596  1.00  0.00     0.031 C 
ATOM     50  C   UNL A   1      42.979  25.490  26.462  1.00  0.00     0.029 A 
ATOM     51  N   UNL A   1      44.199  27.313  26.908  1.00  0.00    -0.354 N 
ATOM     52  C   UNL A   1      48.475  27.347  26.334  1.00  0.00     0.074 A 
ATOM     53  C   UNL A   1      48.943  26.077  25.827  1.00  0.00     0.031 C 
ATOM     54  C   UNL A   1      42.146  26.433  26.936  1.00  0.00     0.029 A 
ATOM     55  C   UNL A   1      42.913  27.629  27.281  1.00  0.00     0.049 A 
ATOM     56  H   UNL A   1      44.949  27.948  26.968  1.00  0.00     0.167 HD
ATOM     57  C   UNL A   1      49.282  28.411  26.563  1.00  0.00     0.034 A 
ATOM     58  C   UNL A   1      42.419  28.745  27.856  1.00  0.00     0.034 A 
ATOM     59  C   UNL A   1      48.821  29.682  27.045  1.00  0.00     0.049 A 
ATOM     60  C   UNL A   1      43.345  29.906  28.137  1.00  0.00     0.074 A 
ATOM     61  C   UNL A   1      49.556  30.831  27.279  1.00  0.00     0.029 A 
ATOM     62  N   UNL A   1      47.507  29.972  27.377  1.00  0.00    -0.354 N 
ATOM     63  N   UNL A   1      44.626  30.022  27.887  1.00  0.00    -0.248 NA
ATOM     64  C   UNL A   1      42.746  31.103  28.749  1.00  0.00     0.031 C 
ATOM     65  C   UNL A   1      48.690  31.806  27.784  1.00  0.00     0.029 A 
ATOM     66  C   UNL A   1      47.410  31.279  27.821  1.00  0.00     0.049 A 
ATOM     67  H   UNL A   1      46.754  29.342  27.307  1.00  0.00     0.167 HD
ATOM     68  C   UNL A   1      44.976  31.314  28.269  1.00  0.00     0.074 A 
ATOM     69  C   UNL A   1      43.766  31.950  28.747  1.00  0.00     0.031 C 
ATOM     70  C   UNL A   1      46.189  31.919  28.238  1.00  0.00     0.034 A 
BRANCH  57  71
ATOM     71  C   UNL A   1      50.750  28.247  26.263  1.00  0.00     0.023 A 
ATOM     72  C   UNL A   1      51.236  28.529  24.970  1.00  0.00     0.012 A 
ATOM     73  C   UNL A   1      51.653  27.858  27.272  1.00  0.00     0.148 A 
ATOM     74  C   UNL A   1      52.591  28.387  24.673  1.00  0.00     0.002 A 
ATOM     75  C   UNL A   1      53.009  27.769  26.981  1.00  0.00     0.091 A 
ATOM     76  F   UNL A   1      51.170  27.575  28.489  1.00  0.00    -0.205 F 
ATOM     77  C   UNL A   1      53.477  28.019  25.682  1.00  0.00     0.022 A 
BRANCH  75  78
ATOM     78  S   UNL A   1      54.244  27.380  28.227  1.00  0.00     0.127 S 
ATOM     79  O   UNL A   1      53.684  26.171  28.828  1.00  0.00    -0.237 OA
ATOM     80  O   UNL A   1      55.439  27.160  27.411  1.00  0.00    -0.237 OA
ATOM     81  O   UNL A   1      54.310  28.538  29.106  1.00  0.00    -0.744 OA
ENDBRANCH  75  78
ENDBRANCH  57  71
BRANCH  58  82
ATOM     82  C   UNL A   1      40.970  28.841  28.203  1.00  0.00     0.023 A 
ATOM     83  C   UNL A   1      40.023  29.121  27.198  1.00  0.00     0.012 A 
ATOM     84  C   UNL A   1      40.529  28.683  29.531  1.00  0.00     0.148 A 
ATOM     85  C   UNL A   1      38.674  29.287  27.515  1.00  0.00     0.002 A 
ATOM     86  C   UNL A   1      39.176  28.785  29.831  1.00  0.00     0.091 A 
ATOM     87  F   UNL A   1      41.445  28.435  30.479  1.00  0.00    -0.205 F 
ATOM     88  C   UNL A   1      38.249  29.111  28.829  1.00  0.00     0.022 A 
BRANCH  86  89
ATOM     89  S   UNL A   1      38.526  28.441  31.469  1.00  0.00     0.127 S 
ATOM     90  O   UNL A   1      38.996  27.077  31.699  1.00  0.00    -0.237 OA
ATOM     91  O   UNL A   1      39.185  29.468  32.275  1.00  0.00    -0.237 OA
ATOM     92  O   UNL A   1      37.082  28.603  31.360  1.00  0.00    -0.744 OA
ENDBRANCH  86  89
ENDBRANCH  58  82
BRANCH  70  93
ATOM     93  C   UNL A   1      46.271  33.361  28.673  1.00  0.00     0.023 A 
ATOM     94  C   UNL A   1      46.813  33.695  29.930  1.00  0.00     0.012 A 
ATOM     95  C   UNL A   1      45.873  34.392  27.798  1.00  0.00     0.148 A 
ATOM     96  C   UNL A   1      46.919  35.028  30.325  1.00  0.00     0.002 A 
ATOM     97  C   UNL A   1      46.032  35.719  28.176  1.00  0.00     0.091 A 
ATOM     98  F   UNL A   1      45.347  34.056  26.611  1.00  0.00    -0.205 F 
ATOM     99  C   UNL A   1      46.541  36.040  29.446  1.00  0.00     0.022 A 
BRANCH  97 100
ATOM    100  S   UNL A   1      45.668  37.089  27.072  1.00  0.00     0.127 S 
ATOM    101  O   UNL A   1      45.715  38.228  27.986  1.00  0.00    -0.237 OA
ATOM    102  O   UNL A   1      46.777  37.023  26.120  1.00  0.00    -0.237 OA
ATOM    103  O   UNL A   1      44.359  36.805  26.497  1.00  0.00    -0.744 OA
ENDBRANCH  97 100
ENDBRANCH  70  93
ENDBRANCH  44  45
ENDBRANCH  37  39
ENDBRANCH  36  37
ENDBRANCH  35  36
ENDBRANCH  34  35
ENDBRANCH  33  34
ENDBRANCH  32  33
ENDBRANCH  31  32
ENDBRANCH  30  31
ENDBRANCH   1  30
TORSDOF 28
ENDMDL
MODEL 2
REMARK VINA RESULT:      -9.1      3.029      4.115
REMARK SMILES O=C(C[C@@H]1CSCC[NH2+]1)NC[C@@H](C(=O)OCCOCCOCCOCCOC(=O)c1ccc(-c2c3nc(c(-c4cccc(S(=O)(=O)[O-])c4F)c4ccc([nH]4)c(-c4cccc(S(=O)(=O)[O-])c4F)c4nc(c(-c5cccc(S(=O)(=O)[O-])c5F)c5ccc2[nH]5)C=C4)C=C3)cc1)c1ccccc1
REMARK SMILES IDX 20 1 19 2 18 3 17 4 16 5 15 6 13 7 14 8 12 9 11 10 10 11
REMARK SMILES IDX 1 12 2 13 3 15 4 16 5 17 9 18 6 19 8 20 7 23 93 24 94 25
REMARK SMILES IDX 98 26 95 27 97 28 96 29 21 30 22 31 23 32 24 33 25 34 26 35
REMARK SMILES IDX 27 36 28 37 29 38 30 39 31 40 92 41 32 42 91 43 33 44 34 45
REMARK SMILES IDX 35 46 85 47 36 48 90 49 84 50 86 51 37 52 89 53 83 54 82 55
REMARK SMILES IDX 38 57 70 58 50 59 69 60 51 61 54 62 68 63 87 64 52 65 53 66
REMARK SMILES IDX 67 68 88 69 55 70 39 71 40 72 48 73 41 74 43 75 49 76 42 77
REMARK SMILES IDX 44 78 45 79 46 80 47 81 71 82 72 83 80 84 73 85 75 86 81 87
REMARK SMILES IDX 74 88 76 89 77 90 78 91 79 92 56 93 57 94 65 95 58 96 60 97
REMARK SMILES IDX 66 98 59 99 61 100 62 101 63 102 64 103
REMARK H PARENT 10 14 9 21 9 22 86 56 54 67
REMARK Flexibility Score: inf
ROOT
ATOM      1  C   UNL A   1      37.027  22.848  25.215  1.00  0.00     0.188 C 
ENDROOT
BRANCH   1   2
ATOM      2  C   UNL A   1      35.565  22.535  24.854  1.00  0.00     0.188 C 
BRANCH   2   3
ATOM      3  O   UNL A   1      34.769  23.463  24.126  1.00  0.00    -0.376 OA
BRANCH   3   4
ATOM      4  C   UNL A   1      34.673  23.383  22.712  1.00  0.00     0.202 C 
BRANCH   4   5
ATOM      5  C   UNL A   1      33.305  23.301  22.004  1.00  0.00     0.261 C 
BRANCH   5   6
ATOM      6  O   UNL A   1      32.200  22.772  22.772  1.00  0.00    -0.463 OA
BRANCH   6   7
ATOM      7  C   UNL A   1      32.024  21.431  22.703  1.00  0.00     0.315 C 
ATOM      8  O   UNL A   1      31.933  20.825  21.635  1.00  0.00    -0.251 OA
BRANCH   7   9
ATOM      9  C   UNL A   1      31.980  20.698  24.059  1.00  0.00     0.148 C 
BRANCH   9  10
ATOM     10  C   UNL A   1      32.170  21.476  25.388  1.00  0.00     0.136 C 
BRANCH  10  11
ATOM     11  N   UNL A   1      32.012  22.919  25.422  1.00  0.00    -0.355 N 
ATOM     12  O   UNL A   1      31.593  22.908  27.685  1.00  0.00    -0.275 OA
ATOM     13  C   UNL A   1      31.815  23.540  26.653  1.00  0.00     0.226 C 
ATOM     14  H   UNL A   1      32.044  23.448  24.593  1.00  0.00     0.163 HD
BRANCH  13  15
ATOM     15  C   UNL A   1      31.854  25.058  26.648  1.00  0.00     0.165 C 
BRANCH  15  16
ATOM     16  C   UNL A   1      32.502  25.773  25.437  1.00  0.00     0.201 C 
ATOM     17  C   UNL A   1      33.839  26.486  25.701  1.00  0.00     0.135 C 
ATOM     18  N   UNL A   1      31.571  26.563  24.600  1.00  0.00    -0.342 N 
ATOM     19  S   UNL A   1      33.660  28.128  26.471  1.00  0.00    -0.150 SA
ATOM     20  C   UNL A   1      31.285  27.918  25.075  1.00  0.00     0.271 C 
ATOM     21  H   UNL A   1      30.688  26.056  24.550  1.00  0.00     0.346 HD
ATOM     22  H   UNL A   1      32.035  26.677  23.699  1.00  0.00     0.346 HD
ATOM     23  C   UNL A   1      32.519  28.806  25.238  1.00  0.00     0.131 C 
ENDBRANCH  15  16
ENDBRANCH  13  15
ENDBRANCH  10  11
ENDBRANCH   9  10
BRANCH   9  24
ATOM     24  C   UNL A   1      32.846  19.413  23.990  1.00  0.00    -0.032 A 
ATOM     25  C   UNL A   1      34.120  19.417  24.590  1.00  0.00     0.004 A 
ATOM     26  C   UNL A   1      32.425  18.212  23.389  1.00  0.00     0.004 A 
ATOM     27  C   UNL A   1      34.928  18.277  24.602  1.00  0.00     0.000 A 
ATOM     28  C   UNL A   1      33.241  17.073  23.389  1.00  0.00     0.000 A 
ATOM     29  C   UNL A   1      34.492  17.105  23.996  1.00  0.00     0.000 A 
ENDBRANCH   9  24
ENDBRANCH   7   9
ENDBRANCH   6   7
ENDBRANCH   5   6
ENDBRANCH   4   5
ENDBRANCH   3   4
ENDBRANCH   2   3
ENDBRANCH   1   2
BRANCH   1  30
ATOM     30  O   UNL A   1      37.745  21.765  25.768  1.00  0.00    -0.377 OA
BRANCH  30  31
ATOM     31  C   UNL A   1      39.090  22.018  26.143  1.00  0.00     0.188 C 
BRANCH  31  32
ATOM     32  C   UNL A   1      39.986  20.798  26.399  1.00  0.00     0.188 C 
BRANCH  32  33
ATOM     33  O   UNL A   1      40.644  20.837  27.661  1.00  0.00    -0.376 OA
BRANCH  33  34
ATOM     34  C   UNL A   1      42.001  21.256  27.702  1.00  0.00     0.202 C 
BRANCH  34  35
ATOM     35  C   UNL A   1      42.826  21.201  26.403  1.00  0.00     0.261 C 
BRANCH  35  36
ATOM     36  O   UNL A   1      43.822  22.218  26.210  1.00  0.00    -0.460 OA
BRANCH  36  37
ATOM     37  C   UNL A   1      43.677  23.118  25.220  1.00  0.00     0.338 C 
ATOM     38  O   UNL A   1      43.290  22.905  24.083  1.00  0.00    -0.246 OA
BRANCH  37  39
ATOM     39  C   UNL A   1      43.880  24.458  25.814  1.00  0.00     0.060 A 
ATOM     40  C   UNL A   1      44.289  24.564  27.150  1.00  0.00     0.016 A 
ATOM     41  C   UNL A   1      43.688  25.607  25.048  1.00  0.00     0.016 A 
ATOM     42  C   UNL A   1      44.468  25.823  27.730  1.00  0.00     0.010 A 
ATOM     43  C   UNL A   1      43.873  26.867  25.627  1.00  0.00     0.010 A 
ATOM     44  C   UNL A   1      44.217  26.984  26.986  1.00  0.00    -0.014 A 
BRANCH  44  45
ATOM     45  C   UNL A   1      44.096  28.297  27.676  1.00  0.00     0.031 A 
ATOM     46  C   UNL A   1      45.334  29.151  27.803  1.00  0.00     0.074 A 
ATOM     47  C   UNL A   1      42.923  28.744  28.162  1.00  0.00     0.049 A 
ATOM     48  N   UNL A   1      45.489  30.309  28.391  1.00  0.00    -0.248 NA
ATOM     49  C   UNL A   1      46.564  28.621  27.191  1.00  0.00     0.031 C 
ATOM     50  C   UNL A   1      41.651  28.026  28.103  1.00  0.00     0.029 A 
ATOM     51  N   UNL A   1      42.619  29.910  28.823  1.00  0.00    -0.354 N 
ATOM     52  C   UNL A   1      46.834  30.630  28.245  1.00  0.00     0.074 A 
ATOM     53  C   UNL A   1      47.458  29.531  27.544  1.00  0.00     0.031 C 
ATOM     54  C   UNL A   1      40.708  28.759  28.722  1.00  0.00     0.029 A 
ATOM     55  C   UNL A   1      41.313  29.982  29.247  1.00  0.00     0.049 A 
ATOM     56  H   UNL A   1      43.277  30.627  28.980  1.00  0.00     0.167 HD
ATOM     57  C   UNL A   1      47.493  31.747  28.634  1.00  0.00     0.034 A 
ATOM     58  C   UNL A   1      40.685  30.916  29.992  1.00  0.00     0.034 A 
ATOM     59  C   UNL A   1      46.875  32.852  29.312  1.00  0.00     0.049 A 
ATOM     60  C   UNL A   1      41.450  32.137  30.447  1.00  0.00     0.074 A 
ATOM     61  C   UNL A   1      47.451  34.041  29.720  1.00  0.00     0.029 A 
ATOM     62  N   UNL A   1      45.543  32.901  29.690  1.00  0.00    -0.354 N 
ATOM     63  N   UNL A   1      42.696  32.469  30.213  1.00  0.00    -0.248 NA
ATOM     64  C   UNL A   1      40.708  33.130  31.241  1.00  0.00     0.031 C 
ATOM     65  C   UNL A   1      46.473  34.797  30.374  1.00  0.00     0.029 A 
ATOM     66  C   UNL A   1      45.278  34.097  30.334  1.00  0.00     0.049 A 
ATOM     67  H   UNL A   1      44.882  32.190  29.525  1.00  0.00     0.167 HD
ATOM     68  C   UNL A   1      42.874  33.722  30.791  1.00  0.00     0.074 A 
ATOM     69  C   UNL A   1      41.602  34.101  31.367  1.00  0.00     0.031 C 
ATOM     70  C   UNL A   1      43.992  34.488  30.850  1.00  0.00     0.034 A 
BRANCH  57  71
ATOM     71  C   UNL A   1      48.962  31.838  28.307  1.00  0.00     0.023 A 
ATOM     72  C   UNL A   1      49.910  31.276  29.186  1.00  0.00     0.012 A 
ATOM     73  C   UNL A   1      49.398  32.439  27.110  1.00  0.00     0.148 A 
ATOM     74  C   UNL A   1      51.273  31.346  28.900  1.00  0.00     0.002 A 
ATOM     75  C   UNL A   1      50.755  32.459  26.808  1.00  0.00     0.091 A 
ATOM     76  F   UNL A   1      48.484  32.985  26.298  1.00  0.00    -0.205 F 
ATOM     77  C   UNL A   1      51.693  31.927  27.706  1.00  0.00     0.022 A 
BRANCH  75  78
ATOM     78  S   UNL A   1      51.393  33.111  25.261  1.00  0.00     0.127 S 
ATOM     79  O   UNL A   1      52.698  33.626  25.675  1.00  0.00    -0.237 OA
ATOM     80  O   UNL A   1      51.448  31.911  24.424  1.00  0.00    -0.237 OA
ATOM     81  O   UNL A   1      50.439  34.118  24.822  1.00  0.00    -0.744 OA
ENDBRANCH  75  78
ENDBRANCH  57  71
BRANCH  58  82
ATOM     82  C   UNL A   1      39.246  30.755  30.355  1.00  0.00     0.023 A 
ATOM     83  C   UNL A   1      38.873  29.846  31.364  1.00  0.00     0.012 A 
ATOM     84  C   UNL A   1      38.242  31.480  29.685  1.00  0.00     0.148 A 
ATOM     85  C   UNL A   1      37.527  29.628  31.667  1.00  0.00     0.002 A 
ATOM     86  C   UNL A   1      36.908  31.307  30.034  1.00  0.00     0.091 A 
ATOM     87  F   UNL A   1      38.612  32.329  28.714  1.00  0.00    -0.205 F 
ATOM     88  C   UNL A   1      36.546  30.364  31.009  1.00  0.00     0.022 A 
BRANCH  86  89
ATOM     89  S   UNL A   1      35.592  32.309  29.335  1.00  0.00     0.127 S 
ATOM     90  O   UNL A   1      34.581  32.253  30.386  1.00  0.00    -0.237 OA
ATOM     91  O   UNL A   1      36.254  33.605  29.179  1.00  0.00    -0.237 OA
ATOM     92  O   UNL A   1      35.236  31.666  28.077  1.00  0.00    -0.744 OA
ENDBRANCH  86  89
ENDBRANCH  58  82
BRANCH  70  93
ATOM     93  C   UNL A   1      43.887  35.842  31.506  1.00  0.00     0.023 A 
ATOM     94  C   UNL A   1      43.904  35.957  32.910  1.00  0.00     0.012 A 
ATOM     95  C   UNL A   1      43.842  37.012  30.720  1.00  0.00     0.148 A 
ATOM     96  C   UNL A   1      43.838  37.208  33.521  1.00  0.00     0.002 A 
ATOM     97  C   UNL A   1      43.831  38.258  31.334  1.00  0.00     0.091 A 
ATOM     98  F   UNL A   1      43.812  36.884  29.385  1.00  0.00    -0.205 F 
ATOM     99  C   UNL A   1      43.814  38.358  32.735  1.00  0.00     0.022 A 
BRANCH  97 100
ATOM    100  S   UNL A   1      43.901  39.794  30.405  1.00  0.00     0.127 S 
ATOM    101  O   UNL A   1      42.746  39.658  29.519  1.00  0.00    -0.237 OA
ATOM    102  O   UNL A   1      43.749  40.799  31.457  1.00  0.00    -0.237 OA
ATOM    103  O   UNL A   1      45.198  39.804  29.741  1.00  0.00    -0.744 OA
ENDBRANCH  97 100
ENDBRANCH  70  93
ENDBRANCH  44  45
ENDBRANCH  37  39
ENDBRANCH  36  37
ENDBRANCH  35  36
ENDBRANCH  34  35
ENDBRANCH  33  34
ENDBRANCH  32  33
ENDBRANCH  31  32
ENDBRANCH  30  31
ENDBRANCH   1  30
TORSDOF 28
ENDMDL
MODEL 3
REMARK VINA RESULT:      -8.2      3.286      4.363
REMARK SMILES O=C(C[C@@H]1CSCC[NH2+]1)NC[C@@H](C(=O)OCCOCCOCCOCCOC(=O)c1ccc(-c2c3nc(c(-c4cccc(S(=O)(=O)[O-])c4F)c4ccc([nH]4)c(-c4cccc(S(=O)(=O)[O-])c4F)c4nc(c(-c5cccc(S(=O)(=O)[O-])c5F)c5ccc2[nH]5)C=C4)C=C3)cc1)c1ccccc1
REMARK SMILES IDX 20 1 19 2 18 3 17 4 16 5 15 6 13 7 14 8 12 9 11 10 10 11
REMARK SMILES IDX 1 12 2 13 3 15 4 16 5 17 9 18 6 19 8 20 7 23 93 24 94 25
REMARK SMILES IDX 98 26 95 27 97 28 96 29 21 30 22 31 23 32 24 33 25 34 26 35
REMARK SMILES IDX 27 36 28 37 29 38 30 39 31 40 92 41 32 42 91 43 33 44 34 45
REMARK SMILES IDX 35 46 85 47 36 48 90 49 84 50 86 51 37 52 89 53 83 54 82 55
REMARK SMILES IDX 38 57 70 58 50 59 69 60 51 61 54 62 68 63 87 64 52 65 53 66
REMARK SMILES IDX 67 68 88 69 55 70 39 71 40 72 48 73 41 74 43 75 49 76 42 77
REMARK SMILES IDX 44 78 45 79 46 80 47 81 71 82 72 83 80 84 73 85 75 86 81 87
REMARK SMILES IDX 74 88 76 89 77 90 78 91 79 92 56 93 57 94 65 95 58 96 60 97
REMARK SMILES IDX 66 98 59 99 61 100 62 101 63 102 64 103
REMARK H PARENT 10 14 9 21 9 22 86 56 54 67
REMARK Flexibility Score: inf
ROOT
ATOM      1  C   UNL A   1      37.130  22.742  25.418  1.00  0.00     0.188 C 
ENDROOT
BRANCH   1   2
ATOM      2  C   UNL A   1      35.641  22.465  25.146  1.00  0.00     0.188 C 
BRANCH   2   3
ATOM      3  O   UNL A   1      34.807  23.447  24.541  1.00  0.00    -0.376 OA
BRANCH   3   4
ATOM      4  C   UNL A   1      34.825  23.648  23.136  1.00  0.00     0.202 C 
BRANCH   4   5
ATOM      5  C   UNL A   1      33.759  23.009  22.222  1.00  0.00     0.261 C 
BRANCH   5   6
ATOM      6  O   UNL A   1      32.473  22.720  22.816  1.00  0.00    -0.463 OA
BRANCH   6   7
ATOM      7  C   UNL A   1      32.160  21.408  22.931  1.00  0.00     0.315 C 
ATOM      8  O   UNL A   1      32.053  20.660  21.960  1.00  0.00    -0.251 OA
BRANCH   7   9
ATOM      9  C   UNL A   1      31.980  20.894  24.375  1.00  0.00     0.148 C 
BRANCH   9  10
ATOM     10  C   UNL A   1      32.064  21.869  25.579  1.00  0.00     0.136 C 
BRANCH  10  11
ATOM     11  N   UNL A   1      31.644  23.251  25.436  1.00  0.00    -0.355 N 
ATOM     12  O   UNL A   1      31.583  23.561  27.716  1.00  0.00    -0.275 OA
ATOM     13  C   UNL A   1      31.522  24.034  26.581  1.00  0.00     0.226 C 
ATOM     14  H   UNL A   1      31.449  23.627  24.548  1.00  0.00     0.163 HD
BRANCH  13  15
ATOM     15  C   UNL A   1      31.272  25.515  26.353  1.00  0.00     0.165 C 
BRANCH  15  16
ATOM     16  C   UNL A   1      32.000  26.210  25.177  1.00  0.00     0.201 C 
ATOM     17  C   UNL A   1      33.503  26.478  25.368  1.00  0.00     0.135 C 
ATOM     18  N   UNL A   1      31.273  27.350  24.573  1.00  0.00    -0.342 N 
ATOM     19  S   UNL A   1      33.867  27.960  26.365  1.00  0.00    -0.150 SA
ATOM     20  C   UNL A   1      31.430  28.636  25.254  1.00  0.00     0.271 C 
ATOM     21  H   UNL A   1      30.280  27.118  24.564  1.00  0.00     0.346 HD
ATOM     22  H   UNL A   1      31.678  27.477  23.645  1.00  0.00     0.346 HD
ATOM     23  C   UNL A   1      32.876  29.114  25.381  1.00  0.00     0.131 C 
ENDBRANCH  15  16
ENDBRANCH  13  15
ENDBRANCH  10  11
ENDBRANCH   9  10
BRANCH   9  24
ATOM     24  C   UNL A   1      32.825  19.610  24.585  1.00  0.00    -0.032 A 
ATOM     25  C   UNL A   1      32.181  18.433  25.010  1.00  0.00     0.004 A 
ATOM     26  C   UNL A   1      34.209  19.530  24.339  1.00  0.00     0.004 A 
ATOM     27  C   UNL A   1      32.878  17.232  25.172  1.00  0.00     0.000 A 
ATOM     28  C   UNL A   1      34.911  18.330  24.514  1.00  0.00     0.000 A 
ATOM     29  C   UNL A   1      34.246  17.181  24.929  1.00  0.00     0.000 A 
ENDBRANCH   9  24
ENDBRANCH   7   9
ENDBRANCH   6   7
ENDBRANCH   5   6
ENDBRANCH   4   5
ENDBRANCH   3   4
ENDBRANCH   2   3
ENDBRANCH   1   2
BRANCH   1  30
ATOM     30  O   UNL A   1      37.859  21.632  25.901  1.00  0.00    -0.377 OA
BRANCH  30  31
ATOM     31  C   UNL A   1      39.240  21.838  26.154  1.00  0.00     0.188 C 
BRANCH  31  32
ATOM     32  C   UNL A   1      40.092  20.594  26.438  1.00  0.00     0.188 C 
BRANCH  32  33
ATOM     33  O   UNL A   1      40.799  20.665  27.672  1.00  0.00    -0.376 OA
BRANCH  33  34
ATOM     34  C   UNL A   1      42.182  20.993  27.640  1.00  0.00     0.202 C 
BRANCH  34  35
ATOM     35  C   UNL A   1      42.919  20.937  26.289  1.00  0.00     0.261 C 
BRANCH  35  36
ATOM     36  O   UNL A   1      43.933  21.925  26.049  1.00  0.00    -0.460 OA
BRANCH  36  37
ATOM     37  C   UNL A   1      43.727  22.887  25.131  1.00  0.00     0.338 C 
ATOM     38  O   UNL A   1      43.278  22.746  24.005  1.00  0.00    -0.246 OA
BRANCH  37  39
ATOM     39  C   UNL A   1      43.954  24.186  25.800  1.00  0.00     0.060 A 
ATOM     40  C   UNL A   1      44.342  24.210  27.146  1.00  0.00     0.016 A 
ATOM     41  C   UNL A   1      43.806  25.381  25.095  1.00  0.00     0.016 A 
ATOM     42  C   UNL A   1      44.544  25.430  27.797  1.00  0.00     0.010 A 
ATOM     43  C   UNL A   1      44.013  26.602  25.745  1.00  0.00     0.010 A 
ATOM     44  C   UNL A   1      44.336  26.636  27.113  1.00  0.00    -0.014 A 
BRANCH  44  45
ATOM     45  C   UNL A   1      44.237  27.912  27.872  1.00  0.00     0.031 A 
ATOM     46  C   UNL A   1      45.497  28.717  28.080  1.00  0.00     0.074 A 
ATOM     47  C   UNL A   1      43.065  28.371  28.350  1.00  0.00     0.049 A 
ATOM     48  N   UNL A   1      45.672  29.834  28.736  1.00  0.00    -0.248 NA
ATOM     49  C   UNL A   1      46.727  28.180  27.472  1.00  0.00     0.031 C 
ATOM     50  C   UNL A   1      41.773  27.700  28.217  1.00  0.00     0.029 A 
ATOM     51  N   UNL A   1      42.780  29.508  29.068  1.00  0.00    -0.354 N 
ATOM     52  C   UNL A   1      47.030  30.118  28.644  1.00  0.00     0.074 A 
ATOM     53  C   UNL A   1      47.639  29.039  27.899  1.00  0.00     0.031 C 
ATOM     54  C   UNL A   1      40.836  28.429  28.850  1.00  0.00     0.029 A 
ATOM     55  C   UNL A   1      41.465  29.601  29.459  1.00  0.00     0.049 A 
ATOM     56  H   UNL A   1      43.455  30.193  29.281  1.00  0.00     0.167 HD
ATOM     57  C   UNL A   1      47.713  31.190  29.112  1.00  0.00     0.034 A 
ATOM     58  C   UNL A   1      40.846  30.513  30.238  1.00  0.00     0.034 A 
ATOM     59  C   UNL A   1      47.111  32.275  29.833  1.00  0.00     0.049 A 
ATOM     60  C   UNL A   1      41.635  31.681  30.781  1.00  0.00     0.074 A 
ATOM     61  C   UNL A   1      47.712  33.421  30.323  1.00  0.00     0.029 A 
ATOM     62  N   UNL A   1      45.771  32.348  30.178  1.00  0.00    -0.354 N 
ATOM     63  N   UNL A   1      42.898  31.983  30.599  1.00  0.00    -0.248 NA
ATOM     64  C   UNL A   1      40.903  32.652  31.609  1.00  0.00     0.031 C 
ATOM     65  C   UNL A   1      46.741  34.172  30.992  1.00  0.00     0.029 A 
ATOM     66  C   UNL A   1      45.526  33.515  30.880  1.00  0.00     0.049 A 
ATOM     67  H   UNL A   1      45.092  31.670  29.956  1.00  0.00     0.167 HD
ATOM     68  C   UNL A   1      43.099  33.196  31.251  1.00  0.00     0.074 A 
ATOM     69  C   UNL A   1      41.823  33.585  31.813  1.00  0.00     0.031 C 
ATOM     70  C   UNL A   1      44.239  33.920  31.383  1.00  0.00     0.034 A 
BRANCH  57  71
ATOM     71  C   UNL A   1      49.192  31.249  28.830  1.00  0.00     0.023 A 
ATOM     72  C   UNL A   1      50.086  30.497  29.620  1.00  0.00     0.012 A 
ATOM     73  C   UNL A   1      49.692  32.013  27.758  1.00  0.00     0.148 A 
ATOM     74  C   UNL A   1      51.458  30.535  29.373  1.00  0.00     0.002 A 
ATOM     75  C   UNL A   1      51.055  32.006  27.486  1.00  0.00     0.091 A 
ATOM     76  F   UNL A   1      48.830  32.737  27.031  1.00  0.00    -0.205 F 
ATOM     77  C   UNL A   1      51.940  31.280  28.300  1.00  0.00     0.022 A 
BRANCH  75  78
ATOM     78  S   UNL A   1      51.769  32.867  26.081  1.00  0.00     0.127 S 
ATOM     79  O   UNL A   1      50.993  32.313  24.972  1.00  0.00    -0.237 OA
ATOM     80  O   UNL A   1      51.470  34.264  26.397  1.00  0.00    -0.237 OA
ATOM     81  O   UNL A   1      53.184  32.531  26.077  1.00  0.00    -0.744 OA
ENDBRANCH  75  78
ENDBRANCH  57  71
BRANCH  58  82
ATOM     82  C   UNL A   1      39.392  30.379  30.553  1.00  0.00     0.023 A 
ATOM     83  C   UNL A   1      38.953  29.373  31.435  1.00  0.00     0.012 A 
ATOM     84  C   UNL A   1      38.440  31.231  29.960  1.00  0.00     0.148 A 
ATOM     85  C   UNL A   1      37.592  29.186  31.684  1.00  0.00     0.002 A 
ATOM     86  C   UNL A   1      37.092  31.082  30.262  1.00  0.00     0.091 A 
ATOM     87  F   UNL A   1      38.872  32.173  29.109  1.00  0.00    -0.205 F 
ATOM     88  C   UNL A   1      36.662  30.046  31.105  1.00  0.00     0.022 A 
BRANCH  86  89
ATOM     89  S   UNL A   1      35.842  32.227  29.668  1.00  0.00     0.127 S 
ATOM     90  O   UNL A   1      34.796  32.079  30.677  1.00  0.00    -0.237 OA
ATOM     91  O   UNL A   1      36.561  33.500  29.703  1.00  0.00    -0.237 OA
ATOM     92  O   UNL A   1      35.498  31.772  28.327  1.00  0.00    -0.744 OA
ENDBRANCH  86  89
ENDBRANCH  58  82
BRANCH  70  93
ATOM     93  C   UNL A   1      44.157  35.239  32.110  1.00  0.00     0.023 A 
ATOM     94  C   UNL A   1      43.948  36.434  31.394  1.00  0.00     0.012 A 
ATOM     95  C   UNL A   1      44.218  35.280  33.518  1.00  0.00     0.148 A 
ATOM     96  C   UNL A   1      43.841  37.652  32.064  1.00  0.00     0.002 A 
ATOM     97  C   UNL A   1      44.056  36.490  34.182  1.00  0.00     0.091 A 
ATOM     98  F   UNL A   1      44.431  34.135  34.183  1.00  0.00    -0.205 F 
ATOM     99  C   UNL A   1      43.882  37.680  33.456  1.00  0.00     0.022 A 
BRANCH  97 100
ATOM    100  S   UNL A   1      43.994  36.608  35.973  1.00  0.00     0.127 S 
ATOM    101  O   UNL A   1      42.902  35.690  36.294  1.00  0.00    -0.237 OA
ATOM    102  O   UNL A   1      45.323  36.135  36.360  1.00  0.00    -0.237 OA
ATOM    103  O   UNL A   1      43.738  38.010  36.275  1.00  0.00    -0.744 OA
ENDBRANCH  97 100
ENDBRANCH  70  93
ENDBRANCH  44  45
ENDBRANCH  37  39
ENDBRANCH  36  37
ENDBRANCH  35  36
ENDBRANCH  34  35
ENDBRANCH  33  34
ENDBRANCH  32  33
ENDBRANCH  31  32
ENDBRANCH  30  31
ENDBRANCH   1  30
TORSDOF 28
ENDMDL
