MODEL 1
REMARK VINA RESULT:      -9.5      0.000      0.000
REMARK SMILES O=C(CNC(=O)N1CC(OCCOCCOCCOCCOC(=O)c2ccc(-c3c4nc(c(-c5cccc(S(=O)(=O)[O-])c5F)c5ccc([nH]5)c(-c5cccc(S(=O)(=O)[O-])c5F)c5nc(c(-c6cccc(S(=O)(=O)[O-])c6F)c6ccc3[nH]6)C=C5)C=C4)cc2)=Nc2ccccc21)N[C@H](C(=O)[O-])c1ccccc1
REMARK SMILES IDX 15 1 14 2 13 3 12 4 11 5 10 6 9 7 7 8 8 9 94 10 89 11 93 12
REMARK SMILES IDX 88 13 90 14 92 15 91 16 5 17 4 18 6 20 3 21 2 22 1 23 95 24
REMARK SMILES IDX 96 26 100 27 101 28 105 29 102 30 104 31 103 32 97 33 98 34
REMARK SMILES IDX 99 35 16 36 17 37 18 38 19 39 20 40 21 41 22 42 23 43 24 44
REMARK SMILES IDX 25 45 26 46 87 47 27 48 86 49 28 50 29 51 30 52 80 53 31 54
REMARK SMILES IDX 85 55 79 56 81 57 32 58 84 59 78 60 77 61 33 63 65 64 45 65
REMARK SMILES IDX 64 66 46 67 49 68 63 69 82 70 47 71 48 72 62 74 83 75 50 76
REMARK SMILES IDX 34 77 35 78 43 79 36 80 38 81 44 82 37 83 39 84 40 85 41 86
REMARK SMILES IDX 42 87 66 88 67 89 75 90 68 91 70 92 76 93 69 94 71 95 72 96
REMARK SMILES IDX 73 97 74 98 51 99 52 100 60 101 53 102 55 103 61 104 54 105
REMARK SMILES IDX 56 106 57 107 58 108 59 109
REMARK H PARENT 4 19 95 25 81 62 49 73
REMARK Flexibility Score: inf
ROOT
ATOM      1  C   UNL A   1      39.713  22.818  26.797  1.00  0.00     0.188 C 
ENDROOT
BRANCH   1   2
ATOM      2  C   UNL A   1      38.530  23.733  26.471  1.00  0.00     0.188 C 
BRANCH   2   3
ATOM      3  O   UNL A   1      37.337  23.221  25.883  1.00  0.00    -0.376 OA
BRANCH   3   4
ATOM      4  C   UNL A   1      36.405  24.060  25.230  1.00  0.00     0.201 C 
BRANCH   4   5
ATOM      5  C   UNL A   1      34.982  23.574  24.882  1.00  0.00     0.259 C 
BRANCH   5   6
ATOM      6  O   UNL A   1      33.881  24.189  25.566  1.00  0.00    -0.477 OA
BRANCH   6   7
ATOM      7  C   UNL A   1      33.514  25.418  25.133  1.00  0.00     0.209 C 
ATOM      8  N   UNL A   1      32.762  27.505  26.174  1.00  0.00    -0.283 N 
ATOM      9  C   UNL A   1      33.841  26.514  26.117  1.00  0.00     0.224 C 
ATOM     10  C   UNL A   1      32.134  27.788  24.919  1.00  0.00     0.072 A 
ATOM     11  C   UNL A   1      32.241  26.837  23.869  1.00  0.00     0.091 A 
ATOM     12  C   UNL A   1      31.419  28.963  24.681  1.00  0.00     0.029 A 
ATOM     13  N   UNL A   1      32.891  25.599  24.015  1.00  0.00    -0.214 NA
ATOM     14  C   UNL A   1      31.519  27.019  22.686  1.00  0.00     0.030 A 
ATOM     15  C   UNL A   1      30.699  29.130  23.492  1.00  0.00     0.002 A 
ATOM     16  C   UNL A   1      30.730  28.148  22.505  1.00  0.00     0.002 A 
BRANCH   8  17
ATOM     17  C   UNL A   1      32.614  28.155  27.373  1.00  0.00     0.322 C 
ATOM     18  N   UNL A   1      33.379  29.211  27.725  1.00  0.00    -0.329 N 
ATOM     19  H   UNL A   1      33.378  29.397  28.692  1.00  0.00     0.165 HD
ATOM     20  O   UNL A   1      31.701  27.858  28.152  1.00  0.00    -0.248 OA
BRANCH  18  21
ATOM     21  C   UNL A   1      34.206  30.129  26.945  1.00  0.00     0.218 C 
BRANCH  21  22
ATOM     22  C   UNL A   1      35.572  30.284  27.631  1.00  0.00     0.240 C 
ATOM     23  O   UNL A   1      36.082  31.388  27.794  1.00  0.00    -0.273 OA
ATOM     24  N   UNL A   1      36.193  29.083  27.887  1.00  0.00    -0.342 N 
ATOM     25  H   UNL A   1      35.907  28.291  27.377  1.00  0.00     0.164 HD
BRANCH  24  26
ATOM     26  C   UNL A   1      37.270  28.923  28.892  1.00  0.00     0.158 C 
BRANCH  26  27
ATOM     27  C   UNL A   1      38.634  28.550  28.330  1.00  0.00    -0.020 A 
ATOM     28  C   UNL A   1      39.316  29.350  27.404  1.00  0.00     0.006 A 
ATOM     29  C   UNL A   1      39.139  27.258  28.582  1.00  0.00     0.006 A 
ATOM     30  C   UNL A   1      40.438  28.859  26.725  1.00  0.00     0.000 A 
ATOM     31  C   UNL A   1      40.259  26.768  27.909  1.00  0.00     0.000 A 
ATOM     32  C   UNL A   1      40.901  27.566  26.969  1.00  0.00     0.000 A 
ENDBRANCH  26  27
BRANCH  26  33
ATOM     33  C   UNL A   1      37.129  29.747  30.216  1.00  0.00     0.068 C 
ATOM     34  O   UNL A   1      38.091  30.491  30.560  1.00  0.00    -0.548 OA
ATOM     35  O   UNL A   1      36.057  29.496  30.863  1.00  0.00    -0.548 OA
ENDBRANCH  26  33
ENDBRANCH  24  26
ENDBRANCH  21  22
ENDBRANCH  18  21
ENDBRANCH   8  17
ENDBRANCH   6   7
ENDBRANCH   5   6
ENDBRANCH   4   5
ENDBRANCH   3   4
ENDBRANCH   2   3
ENDBRANCH   1   2
BRANCH   1  36
ATOM     36  O   UNL A   1      39.705  21.570  26.116  1.00  0.00    -0.377 OA
BRANCH  36  37
ATOM     37  C   UNL A   1      40.749  20.681  26.479  1.00  0.00     0.188 C 
BRANCH  37  38
ATOM     38  C   UNL A   1      42.160  21.293  26.462  1.00  0.00     0.188 C 
BRANCH  38  39
ATOM     39  O   UNL A   1      42.947  20.989  25.320  1.00  0.00    -0.376 OA
BRANCH  39  40
ATOM     40  C   UNL A   1      43.907  19.940  25.493  1.00  0.00     0.202 C 
BRANCH  40  41
ATOM     41  C   UNL A   1      45.363  20.337  25.264  1.00  0.00     0.261 C 
BRANCH  41  42
ATOM     42  O   UNL A   1      45.747  21.549  25.933  1.00  0.00    -0.460 OA
BRANCH  42  43
ATOM     43  C   UNL A   1      45.938  22.631  25.163  1.00  0.00     0.338 C 
ATOM     44  O   UNL A   1      46.056  22.682  23.945  1.00  0.00    -0.246 OA
BRANCH  43  45
ATOM     45  C   UNL A   1      45.661  23.798  26.009  1.00  0.00     0.060 A 
ATOM     46  C   UNL A   1      46.754  24.356  26.679  1.00  0.00     0.016 A 
ATOM     47  C   UNL A   1      44.387  24.368  26.107  1.00  0.00     0.016 A 
ATOM     48  C   UNL A   1      46.577  25.483  27.467  1.00  0.00     0.010 A 
ATOM     49  C   UNL A   1      44.205  25.489  26.925  1.00  0.00     0.010 A 
ATOM     50  C   UNL A   1      45.297  26.030  27.626  1.00  0.00    -0.014 A 
BRANCH  50  51
ATOM     51  C   UNL A   1      45.127  27.055  28.676  1.00  0.00     0.031 A 
ATOM     52  C   UNL A   1      45.129  28.498  28.261  1.00  0.00     0.074 A 
ATOM     53  C   UNL A   1      44.858  26.697  29.943  1.00  0.00     0.049 A 
ATOM     54  N   UNL A   1      44.778  29.554  28.942  1.00  0.00    -0.248 NA
ATOM     55  C   UNL A   1      45.569  28.784  26.884  1.00  0.00     0.031 C 
ATOM     56  C   UNL A   1      44.845  25.326  30.448  1.00  0.00     0.029 A 
ATOM     57  N   UNL A   1      44.532  27.463  31.034  1.00  0.00    -0.354 N 
ATOM     58  C   UNL A   1      44.950  30.631  28.080  1.00  0.00     0.074 A 
ATOM     59  C   UNL A   1      45.461  30.104  26.835  1.00  0.00     0.031 C 
ATOM     60  C   UNL A   1      44.528  25.346  31.755  1.00  0.00     0.029 A 
ATOM     61  C   UNL A   1      44.312  26.729  32.174  1.00  0.00     0.049 A 
ATOM     62  H   UNL A   1      44.463  28.444  31.002  1.00  0.00     0.167 HD
ATOM     63  C   UNL A   1      44.682  31.938  28.301  1.00  0.00     0.034 A 
ATOM     64  C   UNL A   1      43.958  27.135  33.410  1.00  0.00     0.034 A 
ATOM     65  C   UNL A   1      44.175  32.445  29.547  1.00  0.00     0.049 A 
ATOM     66  C   UNL A   1      43.669  28.597  33.633  1.00  0.00     0.074 A 
ATOM     67  C   UNL A   1      43.837  33.744  29.877  1.00  0.00     0.029 A 
ATOM     68  N   UNL A   1      43.950  31.671  30.677  1.00  0.00    -0.354 N 
ATOM     69  N   UNL A   1      43.688  29.584  32.769  1.00  0.00    -0.248 NA
ATOM     70  C   UNL A   1      43.268  28.996  34.990  1.00  0.00     0.031 C 
ATOM     71  C   UNL A   1      43.432  33.760  31.216  1.00  0.00     0.029 A 
ATOM     72  C   UNL A   1      43.496  32.467  31.714  1.00  0.00     0.049 A 
ATOM     73  H   UNL A   1      44.094  30.699  30.733  1.00  0.00     0.167 HD
ATOM     74  C   UNL A   1      43.285  30.716  33.468  1.00  0.00     0.074 A 
ATOM     75  C   UNL A   1      42.996  30.284  34.822  1.00  0.00     0.031 C 
ATOM     76  C   UNL A   1      43.182  32.001  33.041  1.00  0.00     0.034 A 
BRANCH  63  77
ATOM     77  C   UNL A   1      44.910  32.894  27.161  1.00  0.00     0.023 A 
ATOM     78  C   UNL A   1      43.905  33.065  26.186  1.00  0.00     0.012 A 
ATOM     79  C   UNL A   1      46.102  33.636  27.062  1.00  0.00     0.148 A 
ATOM     80  C   UNL A   1      44.096  33.936  25.113  1.00  0.00     0.002 A 
ATOM     81  C   UNL A   1      46.269  34.532  26.012  1.00  0.00     0.091 A 
ATOM     82  F   UNL A   1      47.056  33.441  27.983  1.00  0.00    -0.205 F 
ATOM     83  C   UNL A   1      45.273  34.675  25.031  1.00  0.00     0.022 A 
BRANCH  81  84
ATOM     84  S   UNL A   1      47.717  35.585  25.858  1.00  0.00     0.127 S 
ATOM     85  O   UNL A   1      48.326  35.452  27.180  1.00  0.00    -0.237 OA
ATOM     86  O   UNL A   1      48.459  34.934  24.777  1.00  0.00    -0.237 OA
ATOM     87  O   UNL A   1      47.215  36.913  25.531  1.00  0.00    -0.744 OA
ENDBRANCH  81  84
ENDBRANCH  63  77
BRANCH  64  88
ATOM     88  C   UNL A   1      43.793  26.134  34.503  1.00  0.00     0.023 A 
ATOM     89  C   UNL A   1      42.515  25.625  34.800  1.00  0.00     0.012 A 
ATOM     90  C   UNL A   1      44.905  25.654  35.225  1.00  0.00     0.148 A 
ATOM     91  C   UNL A   1      42.342  24.673  35.808  1.00  0.00     0.002 A 
ATOM     92  C   UNL A   1      44.734  24.670  36.192  1.00  0.00     0.091 A 
ATOM     93  F   UNL A   1      46.112  26.168  34.947  1.00  0.00    -0.205 F 
ATOM     94  C   UNL A   1      43.452  24.188  36.495  1.00  0.00     0.022 A 
BRANCH  92  95
ATOM     95  S   UNL A   1      46.121  23.901  37.037  1.00  0.00     0.127 S 
ATOM     96  O   UNL A   1      46.811  23.234  35.936  1.00  0.00    -0.237 OA
ATOM     97  O   UNL A   1      46.822  25.060  37.589  1.00  0.00    -0.237 OA
ATOM     98  O   UNL A   1      45.529  23.026  38.040  1.00  0.00    -0.744 OA
ENDBRANCH  92  95
ENDBRANCH  64  88
BRANCH  76  99
ATOM     99  C   UNL A   1      42.750  33.031  34.051  1.00  0.00     0.023 A 
ATOM    100  C   UNL A   1      43.727  33.720  34.796  1.00  0.00     0.012 A 
ATOM    101  C   UNL A   1      41.391  33.368  34.211  1.00  0.00     0.148 A 
ATOM    102  C   UNL A   1      43.358  34.707  35.710  1.00  0.00     0.002 A 
ATOM    103  C   UNL A   1      41.034  34.384  35.091  1.00  0.00     0.091 A 
ATOM    104  F   UNL A   1      40.473  32.689  33.508  1.00  0.00    -0.205 F 
ATOM    105  C   UNL A   1      42.014  35.045  35.849  1.00  0.00     0.022 A 
BRANCH 103 106
ATOM    106  S   UNL A   1      39.337  34.948  35.262  1.00  0.00     0.127 S 
ATOM    107  O   UNL A   1      39.511  36.216  35.966  1.00  0.00    -0.237 OA
ATOM    108  O   UNL A   1      38.906  35.080  33.869  1.00  0.00    -0.237 OA
ATOM    109  O   UNL A   1      38.645  33.903  36.006  1.00  0.00    -0.744 OA
ENDBRANCH 103 106
ENDBRANCH  76  99
ENDBRANCH  50  51
ENDBRANCH  43  45
ENDBRANCH  42  43
ENDBRANCH  41  42
ENDBRANCH  40  41
ENDBRANCH  39  40
ENDBRANCH  38  39
ENDBRANCH  37  38
ENDBRANCH  36  37
ENDBRANCH   1  36
TORSDOF 28
ENDMDL
MODEL 2
REMARK VINA RESULT:      -9.0      1.199      4.146
REMARK SMILES O=C(CNC(=O)N1CC(OCCOCCOCCOCCOC(=O)c2ccc(-c3c4nc(c(-c5cccc(S(=O)(=O)[O-])c5F)c5ccc([nH]5)c(-c5cccc(S(=O)(=O)[O-])c5F)c5nc(c(-c6cccc(S(=O)(=O)[O-])c6F)c6ccc3[nH]6)C=C5)C=C4)cc2)=Nc2ccccc21)N[C@H](C(=O)[O-])c1ccccc1
REMARK SMILES IDX 15 1 14 2 13 3 12 4 11 5 10 6 9 7 7 8 8 9 94 10 89 11 93 12
REMARK SMILES IDX 88 13 90 14 92 15 91 16 5 17 4 18 6 20 3 21 2 22 1 23 95 24
REMARK SMILES IDX 96 26 100 27 101 28 105 29 102 30 104 31 103 32 97 33 98 34
REMARK SMILES IDX 99 35 16 36 17 37 18 38 19 39 20 40 21 41 22 42 23 43 24 44
REMARK SMILES IDX 25 45 26 46 87 47 27 48 86 49 28 50 29 51 30 52 80 53 31 54
REMARK SMILES IDX 85 55 79 56 81 57 32 58 84 59 78 60 77 61 33 63 65 64 45 65
REMARK SMILES IDX 64 66 46 67 49 68 63 69 82 70 47 71 48 72 62 74 83 75 50 76
REMARK SMILES IDX 34 77 35 78 43 79 36 80 38 81 44 82 37 83 39 84 40 85 41 86
REMARK SMILES IDX 42 87 66 88 67 89 75 90 68 91 70 92 76 93 69 94 71 95 72 96
REMARK SMILES IDX 73 97 74 98 51 99 52 100 60 101 53 102 55 103 61 104 54 105
REMARK SMILES IDX 56 106 57 107 58 108 59 109
REMARK H PARENT 4 19 95 25 81 62 49 73
REMARK Flexibility Score: inf
ROOT
ATOM      1  C   UNL A   1      40.587  22.641  27.466  1.00  0.00     0.188 C 
ENDROOT
BRANCH   1   2
ATOM      2  C   UNL A   1      39.905  24.007  27.579  1.00  0.00     0.188 C 
BRANCH   2   3
ATOM      3  O   UNL A   1      40.646  25.218  27.454  1.00  0.00    -0.376 OA
BRANCH   3   4
ATOM      4  C   UNL A   1      40.014  26.483  27.425  1.00  0.00     0.201 C 
BRANCH   4   5
ATOM      5  C   UNL A   1      40.824  27.791  27.303  1.00  0.00     0.259 C 
BRANCH   5   6
ATOM      6  O   UNL A   1      40.106  29.030  27.386  1.00  0.00    -0.477 OA
BRANCH   6   7
ATOM      7  C   UNL A   1      39.135  29.102  28.327  1.00  0.00     0.209 C 
ATOM      8  N   UNL A   1      36.997  30.273  28.572  1.00  0.00    -0.283 N 
ATOM      9  C   UNL A   1      37.763  29.336  27.746  1.00  0.00     0.224 C 
ATOM     10  C   UNL A   1      37.200  30.140  29.984  1.00  0.00     0.072 A 
ATOM     11  C   UNL A   1      38.381  29.502  30.449  1.00  0.00     0.091 A 
ATOM     12  C   UNL A   1      36.284  30.610  30.926  1.00  0.00     0.029 A 
ATOM     13  N   UNL A   1      39.394  29.038  29.592  1.00  0.00    -0.214 NA
ATOM     14  C   UNL A   1      38.675  29.486  31.816  1.00  0.00     0.030 A 
ATOM     15  C   UNL A   1      36.593  30.591  32.291  1.00  0.00     0.002 A 
ATOM     16  C   UNL A   1      37.797  30.051  32.734  1.00  0.00     0.002 A 
BRANCH   8  17
ATOM     17  C   UNL A   1      36.063  31.027  27.908  1.00  0.00     0.322 C 
ATOM     18  N   UNL A   1      34.953  30.489  27.360  1.00  0.00    -0.329 N 
ATOM     19  H   UNL A   1      34.527  31.062  26.683  1.00  0.00     0.165 HD
ATOM     20  O   UNL A   1      36.153  32.260  27.863  1.00  0.00    -0.248 OA
BRANCH  18  21
ATOM     21  C   UNL A   1      34.263  29.221  27.582  1.00  0.00     0.218 C 
BRANCH  21  22
ATOM     22  C   UNL A   1      33.462  28.854  26.323  1.00  0.00     0.240 C 
ATOM     23  O   UNL A   1      33.307  29.658  25.409  1.00  0.00    -0.273 OA
ATOM     24  N   UNL A   1      32.842  27.629  26.409  1.00  0.00    -0.342 N 
ATOM     25  H   UNL A   1      32.692  27.243  27.303  1.00  0.00     0.164 HD
BRANCH  24  26
ATOM     26  C   UNL A   1      32.388  26.862  25.225  1.00  0.00     0.158 C 
BRANCH  26  27
ATOM     27  C   UNL A   1      33.257  25.670  24.850  1.00  0.00    -0.020 A 
ATOM     28  C   UNL A   1      34.277  25.186  25.679  1.00  0.00     0.006 A 
ATOM     29  C   UNL A   1      33.181  25.164  23.536  1.00  0.00     0.006 A 
ATOM     30  C   UNL A   1      35.210  24.260  25.198  1.00  0.00     0.000 A 
ATOM     31  C   UNL A   1      34.108  24.239  23.056  1.00  0.00     0.000 A 
ATOM     32  C   UNL A   1      35.133  23.796  23.885  1.00  0.00     0.000 A 
ENDBRANCH  26  27
BRANCH  26  33
ATOM     33  C   UNL A   1      30.854  26.885  24.914  1.00  0.00     0.068 C 
ATOM     34  O   UNL A   1      30.106  26.091  25.551  1.00  0.00    -0.548 OA
ATOM     35  O   UNL A   1      30.537  27.669  23.958  1.00  0.00    -0.548 OA
ENDBRANCH  26  33
ENDBRANCH  24  26
ENDBRANCH  21  22
ENDBRANCH  18  21
ENDBRANCH   8  17
ENDBRANCH   6   7
ENDBRANCH   5   6
ENDBRANCH   4   5
ENDBRANCH   3   4
ENDBRANCH   2   3
ENDBRANCH   1   2
BRANCH   1  36
ATOM     36  O   UNL A   1      40.091  21.814  26.422  1.00  0.00    -0.377 OA
BRANCH  36  37
ATOM     37  C   UNL A   1      40.820  20.616  26.208  1.00  0.00     0.188 C 
BRANCH  37  38
ATOM     38  C   UNL A   1      42.320  20.698  26.536  1.00  0.00     0.188 C 
BRANCH  38  39
ATOM     39  O   UNL A   1      43.193  20.698  25.416  1.00  0.00    -0.376 OA
BRANCH  39  40
ATOM     40  C   UNL A   1      44.222  19.702  25.435  1.00  0.00     0.202 C 
BRANCH  40  41
ATOM     41  C   UNL A   1      45.620  20.193  25.070  1.00  0.00     0.261 C 
BRANCH  41  42
ATOM     42  O   UNL A   1      45.988  21.428  25.707  1.00  0.00    -0.460 OA
BRANCH  42  43
ATOM     43  C   UNL A   1      46.037  22.519  24.928  1.00  0.00     0.338 C 
ATOM     44  O   UNL A   1      46.051  22.577  23.705  1.00  0.00    -0.246 OA
BRANCH  43  45
ATOM     45  C   UNL A   1      45.745  23.665  25.799  1.00  0.00     0.060 A 
ATOM     46  C   UNL A   1      46.836  24.242  26.456  1.00  0.00     0.016 A 
ATOM     47  C   UNL A   1      44.458  24.198  25.933  1.00  0.00     0.016 A 
ATOM     48  C   UNL A   1      46.645  25.351  27.266  1.00  0.00     0.010 A 
ATOM     49  C   UNL A   1      44.263  25.299  26.773  1.00  0.00     0.010 A 
ATOM     50  C   UNL A   1      45.354  25.859  27.459  1.00  0.00    -0.014 A 
BRANCH  50  51
ATOM     51  C   UNL A   1      45.178  26.863  28.530  1.00  0.00     0.031 A 
ATOM     52  C   UNL A   1      45.162  28.313  28.142  1.00  0.00     0.074 A 
ATOM     53  C   UNL A   1      44.919  26.478  29.791  1.00  0.00     0.049 A 
ATOM     54  N   UNL A   1      44.803  29.352  28.845  1.00  0.00    -0.248 NA
ATOM     55  C   UNL A   1      45.592  28.630  26.769  1.00  0.00     0.031 C 
ATOM     56  C   UNL A   1      44.924  25.097  30.270  1.00  0.00     0.029 A 
ATOM     57  N   UNL A   1      44.590  27.219  30.897  1.00  0.00    -0.354 N 
ATOM     58  C   UNL A   1      44.958  30.447  28.002  1.00  0.00     0.074 A 
ATOM     59  C   UNL A   1      45.469  29.949  26.745  1.00  0.00     0.031 C 
ATOM     60  C   UNL A   1      44.614  25.089  31.579  1.00  0.00     0.029 A 
ATOM     61  C   UNL A   1      44.384  26.462  32.025  1.00  0.00     0.049 A 
ATOM     62  H   UNL A   1      44.510  28.200  30.885  1.00  0.00     0.167 HD
ATOM     63  C   UNL A   1      44.677  31.747  28.249  1.00  0.00     0.034 A 
ATOM     64  C   UNL A   1      44.032  26.840  33.270  1.00  0.00     0.034 A 
ATOM     65  C   UNL A   1      44.171  32.225  29.507  1.00  0.00     0.049 A 
ATOM     66  C   UNL A   1      43.728  28.295  33.522  1.00  0.00     0.074 A 
ATOM     67  C   UNL A   1      43.821  33.513  29.863  1.00  0.00     0.029 A 
ATOM     68  N   UNL A   1      43.961  31.427  30.623  1.00  0.00    -0.354 N 
ATOM     69  N   UNL A   1      43.732  29.298  32.677  1.00  0.00    -0.248 NA
ATOM     70  C   UNL A   1      43.330  28.664  34.888  1.00  0.00     0.031 C 
ATOM     71  C   UNL A   1      43.422  33.499  31.204  1.00  0.00     0.029 A 
ATOM     72  C   UNL A   1      43.503  32.198  31.677  1.00  0.00     0.049 A 
ATOM     73  H   UNL A   1      44.115  30.456  30.660  1.00  0.00     0.167 HD
ATOM     74  C   UNL A   1      43.320  30.412  33.399  1.00  0.00     0.074 A 
ATOM     75  C   UNL A   1      43.043  29.952  34.746  1.00  0.00     0.031 C 
ATOM     76  C   UNL A   1      43.201  31.704  32.997  1.00  0.00     0.034 A 
BRANCH  63  77
ATOM     77  C   UNL A   1      44.889  32.726  27.126  1.00  0.00     0.023 A 
ATOM     78  C   UNL A   1      43.884  32.893  26.151  1.00  0.00     0.012 A 
ATOM     79  C   UNL A   1      46.065  33.495  27.044  1.00  0.00     0.148 A 
ATOM     80  C   UNL A   1      44.060  33.785  25.094  1.00  0.00     0.002 A 
ATOM     81  C   UNL A   1      46.217  34.412  26.010  1.00  0.00     0.091 A 
ATOM     82  F   UNL A   1      47.020  33.304  27.965  1.00  0.00    -0.205 F 
ATOM     83  C   UNL A   1      45.221  34.550  25.028  1.00  0.00     0.022 A 
BRANCH  81  84
ATOM     84  S   UNL A   1      47.643  35.497  25.879  1.00  0.00     0.127 S 
ATOM     85  O   UNL A   1      47.014  36.787  25.600  1.00  0.00    -0.237 OA
ATOM     86  O   UNL A   1      48.240  35.387  27.211  1.00  0.00    -0.237 OA
ATOM     87  O   UNL A   1      48.462  34.955  24.803  1.00  0.00    -0.744 OA
ENDBRANCH  81  84
ENDBRANCH  63  77
BRANCH  64  88
ATOM     88  C   UNL A   1      43.884  25.817  34.344  1.00  0.00     0.023 A 
ATOM     89  C   UNL A   1      42.616  25.272  34.622  1.00  0.00     0.012 A 
ATOM     90  C   UNL A   1      45.002  25.353  35.068  1.00  0.00     0.148 A 
ATOM     91  C   UNL A   1      42.460  24.299  35.613  1.00  0.00     0.002 A 
ATOM     92  C   UNL A   1      44.848  24.349  36.016  1.00  0.00     0.091 A 
ATOM     93  F   UNL A   1      46.198  25.901  34.809  1.00  0.00    -0.205 F 
ATOM     94  C   UNL A   1      43.576  23.830  36.301  1.00  0.00     0.022 A 
BRANCH  92  95
ATOM     95  S   UNL A   1      46.247  23.600  36.860  1.00  0.00     0.127 S 
ATOM     96  O   UNL A   1      46.783  24.731  37.613  1.00  0.00    -0.237 OA
ATOM     97  O   UNL A   1      45.597  22.572  37.673  1.00  0.00    -0.237 OA
ATOM     98  O   UNL A   1      47.103  23.076  35.805  1.00  0.00    -0.744 OA
ENDBRANCH  92  95
ENDBRANCH  64  88
BRANCH  76  99
ATOM     99  C   UNL A   1      42.762  32.710  34.029  1.00  0.00     0.023 A 
ATOM    100  C   UNL A   1      43.736  33.437  34.741  1.00  0.00     0.012 A 
ATOM    101  C   UNL A   1      41.397  32.987  34.240  1.00  0.00     0.148 A 
ATOM    102  C   UNL A   1      43.358  34.403  35.673  1.00  0.00     0.002 A 
ATOM    103  C   UNL A   1      41.029  33.982  35.139  1.00  0.00     0.091 A 
ATOM    104  F   UNL A   1      40.484  32.272  33.568  1.00  0.00    -0.205 F 
ATOM    105  C   UNL A   1      42.008  34.682  35.864  1.00  0.00     0.022 A 
BRANCH 103 106
ATOM    106  S   UNL A   1      39.317  34.471  35.375  1.00  0.00     0.127 S 
ATOM    107  O   UNL A   1      38.687  33.199  35.722  1.00  0.00    -0.237 OA
ATOM    108  O   UNL A   1      39.411  35.424  36.483  1.00  0.00    -0.237 OA
ATOM    109  O   UNL A   1      38.894  35.061  34.112  1.00  0.00    -0.744 OA
ENDBRANCH 103 106
ENDBRANCH  76  99
ENDBRANCH  50  51
ENDBRANCH  43  45
ENDBRANCH  42  43
ENDBRANCH  41  42
ENDBRANCH  40  41
ENDBRANCH  39  40
ENDBRANCH  38  39
ENDBRANCH  37  38
ENDBRANCH  36  37
ENDBRANCH   1  36
TORSDOF 28
ENDMDL
MODEL 3
REMARK VINA RESULT:      -8.9      4.118      7.239
REMARK SMILES O=C(CNC(=O)N1CC(OCCOCCOCCOCCOC(=O)c2ccc(-c3c4nc(c(-c5cccc(S(=O)(=O)[O-])c5F)c5ccc([nH]5)c(-c5cccc(S(=O)(=O)[O-])c5F)c5nc(c(-c6cccc(S(=O)(=O)[O-])c6F)c6ccc3[nH]6)C=C5)C=C4)cc2)=Nc2ccccc21)N[C@H](C(=O)[O-])c1ccccc1
REMARK SMILES IDX 15 1 14 2 13 3 12 4 11 5 10 6 9 7 7 8 8 9 94 10 89 11 93 12
REMARK SMILES IDX 88 13 90 14 92 15 91 16 5 17 4 18 6 20 3 21 2 22 1 23 95 24
REMARK SMILES IDX 96 26 100 27 101 28 105 29 102 30 104 31 103 32 97 33 98 34
REMARK SMILES IDX 99 35 16 36 17 37 18 38 19 39 20 40 21 41 22 42 23 43 24 44
REMARK SMILES IDX 25 45 26 46 87 47 27 48 86 49 28 50 29 51 30 52 80 53 31 54
REMARK SMILES IDX 85 55 79 56 81 57 32 58 84 59 78 60 77 61 33 63 65 64 45 65
REMARK SMILES IDX 64 66 46 67 49 68 63 69 82 70 47 71 48 72 62 74 83 75 50 76
REMARK SMILES IDX 34 77 35 78 43 79 36 80 38 81 44 82 37 83 39 84 40 85 41 86
REMARK SMILES IDX 42 87 66 88 67 89 75 90 68 91 70 92 76 93 69 94 71 95 72 96
REMARK SMILES IDX 73 97 74 98 51 99 52 100 60 101 53 102 55 103 61 104 54 105
REMARK SMILES IDX 56 106 57 107 58 108 59 109
REMARK H PARENT 4 19 95 25 81 62 49 73
REMARK Flexibility Score: inf
ROOT
ATOM      1  C   UNL A   1      36.128  22.391  24.790  1.00  0.00     0.188 C 
ENDROOT
BRANCH   1   2
ATOM      2  C   UNL A   1      34.788  21.652  24.751  1.00  0.00     0.188 C 
BRANCH   2   3
ATOM      3  O   UNL A   1      33.803  21.954  23.766  1.00  0.00    -0.376 OA
BRANCH   3   4
ATOM      4  C   UNL A   1      34.023  22.922  22.760  1.00  0.00     0.201 C 
BRANCH   4   5
ATOM      5  C   UNL A   1      32.863  23.492  21.916  1.00  0.00     0.259 C 
BRANCH   5   6
ATOM      6  O   UNL A   1      32.409  24.820  22.216  1.00  0.00    -0.477 OA
BRANCH   6   7
ATOM      7  C   UNL A   1      32.528  25.220  23.504  1.00  0.00     0.209 C 
ATOM      8  N   UNL A   1      30.998  25.621  25.376  1.00  0.00    -0.283 N 
ATOM      9  C   UNL A   1      31.473  24.629  24.407  1.00  0.00     0.224 C 
ATOM     10  C   UNL A   1      32.006  26.506  25.879  1.00  0.00     0.072 A 
ATOM     11  C   UNL A   1      33.199  26.682  25.129  1.00  0.00     0.091 A 
ATOM     12  C   UNL A   1      31.867  27.203  27.080  1.00  0.00     0.029 A 
ATOM     13  N   UNL A   1      33.422  26.072  23.883  1.00  0.00    -0.214 NA
ATOM     14  C   UNL A   1      34.134  27.645  25.520  1.00  0.00     0.030 A 
ATOM     15  C   UNL A   1      32.809  28.166  27.458  1.00  0.00     0.002 A 
ATOM     16  C   UNL A   1      33.930  28.404  26.667  1.00  0.00     0.002 A 
BRANCH   8  17
ATOM     17  C   UNL A   1      29.704  25.464  25.804  1.00  0.00     0.322 C 
ATOM     18  N   UNL A   1      28.643  25.834  25.056  1.00  0.00    -0.329 N 
ATOM     19  H   UNL A   1      27.811  25.941  25.572  1.00  0.00     0.165 HD
ATOM     20  O   UNL A   1      29.449  24.885  26.866  1.00  0.00    -0.248 OA
BRANCH  18  21
ATOM     21  C   UNL A   1      28.493  26.106  23.629  1.00  0.00     0.218 C 
BRANCH  21  22
ATOM     22  C   UNL A   1      28.611  27.618  23.386  1.00  0.00     0.240 C 
ATOM     23  O   UNL A   1      27.671  28.375  23.604  1.00  0.00    -0.273 OA
ATOM     24  N   UNL A   1      29.791  27.982  22.779  1.00  0.00    -0.342 N 
ATOM     25  H   UNL A   1      30.297  27.293  22.289  1.00  0.00     0.164 HD
BRANCH  24  26
ATOM     26  C   UNL A   1      30.339  29.358  22.825  1.00  0.00     0.158 C 
BRANCH  26  27
ATOM     27  C   UNL A   1      29.365  30.459  22.434  1.00  0.00    -0.020 A 
ATOM     28  C   UNL A   1      28.788  30.543  21.160  1.00  0.00     0.006 A 
ATOM     29  C   UNL A   1      29.195  31.554  23.307  1.00  0.00     0.006 A 
ATOM     30  C   UNL A   1      28.101  31.697  20.761  1.00  0.00     0.000 A 
ATOM     31  C   UNL A   1      28.508  32.702  22.912  1.00  0.00     0.000 A 
ATOM     32  C   UNL A   1      27.973  32.779  21.631  1.00  0.00     0.000 A 
ENDBRANCH  26  27
BRANCH  26  33
ATOM     33  C   UNL A   1      31.506  29.620  23.835  1.00  0.00     0.068 C 
ATOM     34  O   UNL A   1      31.207  29.968  25.013  1.00  0.00    -0.548 OA
ATOM     35  O   UNL A   1      32.667  29.534  23.311  1.00  0.00    -0.548 OA
ENDBRANCH  26  33
ENDBRANCH  24  26
ENDBRANCH  21  22
ENDBRANCH  18  21
ENDBRANCH   8  17
ENDBRANCH   6   7
ENDBRANCH   5   6
ENDBRANCH   4   5
ENDBRANCH   3   4
ENDBRANCH   2   3
ENDBRANCH   1   2
BRANCH   1  36
ATOM     36  O   UNL A   1      36.717  22.487  26.080  1.00  0.00    -0.377 OA
BRANCH  36  37
ATOM     37  C   UNL A   1      38.099  22.807  26.086  1.00  0.00     0.188 C 
BRANCH  37  38
ATOM     38  C   UNL A   1      39.045  21.615  25.864  1.00  0.00     0.188 C 
BRANCH  38  39
ATOM     39  O   UNL A   1      40.058  21.445  26.845  1.00  0.00    -0.376 OA
BRANCH  39  40
ATOM     40  C   UNL A   1      40.821  20.238  26.741  1.00  0.00     0.202 C 
BRANCH  40  41
ATOM     41  C   UNL A   1      42.295  20.420  26.386  1.00  0.00     0.261 C 
BRANCH  41  42
ATOM     42  O   UNL A   1      42.863  21.647  26.872  1.00  0.00    -0.460 OA
BRANCH  42  43
ATOM     43  C   UNL A   1      42.996  22.645  25.986  1.00  0.00     0.338 C 
ATOM     44  O   UNL A   1      42.931  22.588  24.765  1.00  0.00    -0.246 OA
BRANCH  43  45
ATOM     45  C   UNL A   1      42.916  23.895  26.753  1.00  0.00     0.060 A 
ATOM     46  C   UNL A   1      42.756  25.071  26.013  1.00  0.00     0.016 A 
ATOM     47  C   UNL A   1      42.939  23.921  28.151  1.00  0.00     0.016 A 
ATOM     48  C   UNL A   1      42.635  26.286  26.668  1.00  0.00     0.010 A 
ATOM     49  C   UNL A   1      42.845  25.152  28.810  1.00  0.00     0.010 A 
ATOM     50  C   UNL A   1      42.719  26.337  28.066  1.00  0.00    -0.014 A 
BRANCH  50  51
ATOM     51  C   UNL A   1      42.850  27.672  28.685  1.00  0.00     0.031 A 
ATOM     52  C   UNL A   1      44.204  28.321  28.686  1.00  0.00     0.074 A 
ATOM     53  C   UNL A   1      41.764  28.332  29.122  1.00  0.00     0.049 A 
ATOM     54  N   UNL A   1      44.529  29.556  28.956  1.00  0.00    -0.248 NA
ATOM     55  C   UNL A   1      45.342  27.463  28.314  1.00  0.00     0.031 C 
ATOM     56  C   UNL A   1      40.409  27.786  29.174  1.00  0.00     0.029 A 
ATOM     57  N   UNL A   1      41.631  29.612  29.596  1.00  0.00    -0.354 N 
ATOM     58  C   UNL A   1      45.906  29.627  28.784  1.00  0.00     0.074 A 
ATOM     59  C   UNL A   1      46.360  28.306  28.412  1.00  0.00     0.031 C 
ATOM     60  C   UNL A   1      39.578  28.727  29.657  1.00  0.00     0.029 A 
ATOM     61  C   UNL A   1      40.342  29.940  29.941  1.00  0.00     0.049 A 
ATOM     62  H   UNL A   1      42.387  30.237  29.681  1.00  0.00     0.167 HD
ATOM     63  C   UNL A   1      46.715  30.705  28.902  1.00  0.00     0.034 A 
ATOM     64  C   UNL A   1      39.841  31.098  30.415  1.00  0.00     0.034 A 
ATOM     65  C   UNL A   1      46.247  32.012  29.275  1.00  0.00     0.049 A 
ATOM     66  C   UNL A   1      40.762  32.284  30.543  1.00  0.00     0.074 A 
ATOM     67  C   UNL A   1      46.968  33.185  29.397  1.00  0.00     0.029 A 
ATOM     68  N   UNL A   1      44.932  32.311  29.604  1.00  0.00    -0.354 N 
ATOM     69  N   UNL A   1      42.033  32.380  30.231  1.00  0.00    -0.248 NA
ATOM     70  C   UNL A   1      40.173  33.533  31.046  1.00  0.00     0.031 C 
ATOM     71  C   UNL A   1      46.092  34.189  29.825  1.00  0.00     0.029 A 
ATOM     72  C   UNL A   1      44.822  33.647  29.948  1.00  0.00     0.049 A 
ATOM     73  H   UNL A   1      44.187  31.668  29.595  1.00  0.00     0.167 HD
ATOM     74  C   UNL A   1      42.393  33.699  30.482  1.00  0.00     0.074 A 
ATOM     75  C   UNL A   1      41.193  34.374  30.940  1.00  0.00     0.031 C 
ATOM     76  C   UNL A   1      43.606  34.299  30.365  1.00  0.00     0.034 A 
BRANCH  63  77
ATOM     77  C   UNL A   1      48.176  30.510  28.600  1.00  0.00     0.023 A 
ATOM     78  C   UNL A   1      48.636  30.649  27.274  1.00  0.00     0.012 A 
ATOM     79  C   UNL A   1      49.097  30.212  29.622  1.00  0.00     0.148 A 
ATOM     80  C   UNL A   1      49.983  30.462  26.965  1.00  0.00     0.002 A 
ATOM     81  C   UNL A   1      50.445  30.067  29.314  1.00  0.00     0.091 A 
ATOM     82  F   UNL A   1      48.638  30.058  30.872  1.00  0.00    -0.205 F 
ATOM     83  C   UNL A   1      50.888  30.180  27.985  1.00  0.00     0.022 A 
BRANCH  81  84
ATOM     84  S   UNL A   1      51.700  29.777  30.566  1.00  0.00     0.127 S 
ATOM     85  O   UNL A   1      52.760  29.140  29.786  1.00  0.00    -0.237 OA
ATOM     86  O   UNL A   1      52.008  31.135  31.016  1.00  0.00    -0.237 OA
ATOM     87  O   UNL A   1      51.073  28.934  31.574  1.00  0.00    -0.744 OA
ENDBRANCH  81  84
ENDBRANCH  63  77
BRANCH  64  88
ATOM     88  C   UNL A   1      38.388  31.204  30.735  1.00  0.00     0.023 A 
ATOM     89  C   UNL A   1      37.925  30.845  32.015  1.00  0.00     0.012 A 
ATOM     90  C   UNL A   1      37.468  31.695  29.787  1.00  0.00     0.148 A 
ATOM     91  C   UNL A   1      36.571  30.954  32.340  1.00  0.00     0.002 A 
ATOM     92  C   UNL A   1      36.130  31.850  30.133  1.00  0.00     0.091 A 
ATOM     93  F   UNL A   1      37.921  32.008  28.565  1.00  0.00    -0.205 F 
ATOM     94  C   UNL A   1      35.676  31.467  31.404  1.00  0.00     0.022 A 
BRANCH  92  95
ATOM     95  S   UNL A   1      34.935  32.617  29.032  1.00  0.00     0.127 S 
ATOM     96  O   UNL A   1      35.802  33.305  28.080  1.00  0.00    -0.237 OA
ATOM     97  O   UNL A   1      34.229  31.455  28.491  1.00  0.00    -0.237 OA
ATOM     98  O   UNL A   1      34.117  33.472  29.880  1.00  0.00    -0.744 OA
ENDBRANCH  92  95
ENDBRANCH  64  88
BRANCH  76  99
ATOM     99  C   UNL A   1      43.697  35.752  30.750  1.00  0.00     0.023 A 
ATOM    100  C   UNL A   1      44.013  36.095  32.079  1.00  0.00     0.012 A 
ATOM    101  C   UNL A   1      43.544  36.770  29.788  1.00  0.00     0.148 A 
ATOM    102  C   UNL A   1      44.142  37.432  32.455  1.00  0.00     0.002 A 
ATOM    103  C   UNL A   1      43.719  38.098  30.160  1.00  0.00     0.091 A 
ATOM    104  F   UNL A   1      43.225  36.426  28.533  1.00  0.00    -0.205 F 
ATOM    105  C   UNL A   1      44.006  38.431  31.494  1.00  0.00     0.022 A 
BRANCH 103 106
ATOM    106  S   UNL A   1      43.655  39.441  28.969  1.00  0.00     0.127 S 
ATOM    107  O   UNL A   1      44.922  39.275  28.260  1.00  0.00    -0.237 OA
ATOM    108  O   UNL A   1      42.469  39.106  28.179  1.00  0.00    -0.237 OA
ATOM    109  O   UNL A   1      43.527  40.662  29.753  1.00  0.00    -0.744 OA
ENDBRANCH 103 106
ENDBRANCH  76  99
ENDBRANCH  50  51
ENDBRANCH  43  45
ENDBRANCH  42  43
ENDBRANCH  41  42
ENDBRANCH  40  41
ENDBRANCH  39  40
ENDBRANCH  38  39
ENDBRANCH  37  38
ENDBRANCH  36  37
ENDBRANCH   1  36
TORSDOF 28
ENDMDL
