MODEL 1
REMARK VINA RESULT:      -8.7      0.000      0.000
REMARK SMILES Cc1nc(CNC(=O)[C@H]2CCO[C@H]2C)sc1C(=O)OCCOCCOCCOCCOC(=O)c1ccc(-c2c3nc(c(-c4cccc(S(=O)(=O)[O-])c4F)c4ccc([nH]4)c(-c4cccc(S(=O)(=O)[O-])c4F)c4nc(c(-c5cccc(S(=O)(=O)[O-])c5F)c5ccc2[nH]5)C=C4)C=C3)cc1
REMARK SMILES IDX 25 1 24 2 23 3 22 4 21 5 20 6 19 7 17 8 18 9 16 10 1 11 2 12
REMARK SMILES IDX 3 13 4 14 15 15 5 16 6 17 7 18 8 20 9 21 10 22 13 23 11 24
REMARK SMILES IDX 12 25 14 26 26 27 27 28 28 29 29 30 30 31 31 32 32 33 33 34
REMARK SMILES IDX 34 35 35 36 96 37 36 38 95 39 37 40 38 41 39 42 89 43 40 44
REMARK SMILES IDX 94 45 88 46 90 47 41 48 93 49 87 50 86 51 42 53 74 54 54 55
REMARK SMILES IDX 73 56 55 57 58 58 72 59 91 60 56 61 57 62 71 64 92 65 59 66
REMARK SMILES IDX 43 67 44 68 52 69 45 70 47 71 53 72 46 73 48 74 49 75 50 76
REMARK SMILES IDX 51 77 75 78 76 79 84 80 77 81 79 82 85 83 78 84 80 85 81 86
REMARK SMILES IDX 82 87 83 88 60 89 61 90 69 91 62 92 64 93 70 94 63 95 65 96
REMARK SMILES IDX 66 97 67 98 68 99
REMARK H PARENT 6 19 90 52 58 63
REMARK Flexibility Score: inf
ROOT
ATOM      1  O   UNL A   1      35.144  31.862  27.356  1.00  0.00    -0.377 OA
ENDROOT
BRANCH   1   2
ATOM      2  C   UNL A   1      33.874  31.804  27.979  1.00  0.00     0.188 C 
BRANCH   2   3
ATOM      3  C   UNL A   1      32.854  30.933  27.225  1.00  0.00     0.188 C 
BRANCH   3   4
ATOM      4  O   UNL A   1      33.216  30.154  26.094  1.00  0.00    -0.376 OA
BRANCH   4   5
ATOM      5  C   UNL A   1      32.667  28.868  25.853  1.00  0.00     0.202 C 
BRANCH   5   6
ATOM      6  C   UNL A   1      31.393  28.641  25.014  1.00  0.00     0.261 C 
BRANCH   6   7
ATOM      7  O   UNL A   1      31.451  29.052  23.650  1.00  0.00    -0.459 OA
BRANCH   7   8
ATOM      8  C   UNL A   1      31.018  28.168  22.713  1.00  0.00     0.350 C 
ATOM      9  O   UNL A   1      30.025  28.334  22.010  1.00  0.00    -0.245 OA
BRANCH   8  10
ATOM     10  C   UNL A   1      31.993  27.111  22.571  1.00  0.00     0.135 A 
ATOM     11  C   UNL A   1      34.248  28.293  22.061  1.00  0.00     0.068 C 
ATOM     12  C   UNL A   1      33.341  27.121  22.239  1.00  0.00     0.063 A 
ATOM     13  N   UNL A   1      33.892  25.858  22.031  1.00  0.00    -0.244 NA
ATOM     14  C   UNL A   1      32.991  24.921  22.225  1.00  0.00     0.113 A 
ATOM     15  S   UNL A   1      31.456  25.485  22.741  1.00  0.00    -0.110 S 
BRANCH  14  16
ATOM     16  C   UNL A   1      33.201  23.446  22.062  1.00  0.00     0.183 C 
BRANCH  16  17
ATOM     17  N   UNL A   1      32.619  22.695  23.160  1.00  0.00    -0.349 N 
ATOM     18  C   UNL A   1      33.231  22.125  24.235  1.00  0.00     0.226 C 
ATOM     19  H   UNL A   1      31.642  22.582  23.123  1.00  0.00     0.163 HD
ATOM     20  O   UNL A   1      32.530  21.647  25.126  1.00  0.00    -0.275 OA
BRANCH  18  21
ATOM     21  C   UNL A   1      34.743  22.130  24.305  1.00  0.00     0.109 C 
ATOM     22  C   UNL A   1      35.364  23.505  24.444  1.00  0.00     0.044 C 
ATOM     23  C   UNL A   1      35.317  21.408  25.520  1.00  0.00     0.127 C 
ATOM     24  C   UNL A   1      36.749  23.171  24.953  1.00  0.00     0.161 C 
ATOM     25  O   UNL A   1      36.653  21.937  25.675  1.00  0.00    -0.378 OA
ATOM     26  C   UNL A   1      34.577  21.635  26.835  1.00  0.00     0.039 C 
ENDBRANCH  18  21
ENDBRANCH  16  17
ENDBRANCH  14  16
ENDBRANCH   8  10
ENDBRANCH   7   8
ENDBRANCH   6   7
ENDBRANCH   5   6
ENDBRANCH   4   5
ENDBRANCH   3   4
ENDBRANCH   2   3
ENDBRANCH   1   2
BRANCH   1  27
ATOM     27  C   UNL A   1      36.154  31.086  27.991  1.00  0.00     0.188 C 
BRANCH  27  28
ATOM     28  C   UNL A   1      36.043  31.017  29.523  1.00  0.00     0.188 C 
BRANCH  28  29
ATOM     29  O   UNL A   1      36.658  32.135  30.174  1.00  0.00    -0.376 OA
BRANCH  29  30
ATOM     30  C   UNL A   1      35.764  33.067  30.779  1.00  0.00     0.202 C 
BRANCH  30  31
ATOM     31  C   UNL A   1      35.189  32.597  32.123  1.00  0.00     0.261 C 
BRANCH  31  32
ATOM     32  O   UNL A   1      35.935  31.552  32.766  1.00  0.00    -0.460 OA
BRANCH  32  33
ATOM     33  C   UNL A   1      36.891  31.928  33.642  1.00  0.00     0.338 C 
ATOM     34  O   UNL A   1      36.736  32.557  34.672  1.00  0.00    -0.246 OA
BRANCH  33  35
ATOM     35  C   UNL A   1      38.155  31.281  33.243  1.00  0.00     0.060 A 
ATOM     36  C   UNL A   1      38.350  29.935  33.574  1.00  0.00     0.016 A 
ATOM     37  C   UNL A   1      39.144  31.998  32.563  1.00  0.00     0.016 A 
ATOM     38  C   UNL A   1      39.561  29.314  33.269  1.00  0.00     0.010 A 
ATOM     39  C   UNL A   1      40.360  31.378  32.269  1.00  0.00     0.010 A 
ATOM     40  C   UNL A   1      40.586  30.046  32.655  1.00  0.00    -0.014 A 
BRANCH  40  41
ATOM     41  C   UNL A   1      41.955  29.486  32.580  1.00  0.00     0.031 A 
ATOM     42  C   UNL A   1      42.318  28.642  31.389  1.00  0.00     0.074 A 
ATOM     43  C   UNL A   1      42.849  29.698  33.561  1.00  0.00     0.049 A 
ATOM     44  N   UNL A   1      43.441  28.032  31.119  1.00  0.00    -0.248 NA
ATOM     45  C   UNL A   1      41.271  28.460  30.369  1.00  0.00     0.031 C 
ATOM     46  C   UNL A   1      42.610  30.484  34.769  1.00  0.00     0.029 A 
ATOM     47  N   UNL A   1      44.134  29.240  33.705  1.00  0.00    -0.354 N 
ATOM     48  C   UNL A   1      43.232  27.379  29.910  1.00  0.00     0.074 A 
ATOM     49  C   UNL A   1      41.871  27.655  29.506  1.00  0.00     0.031 C 
ATOM     50  C   UNL A   1      43.703  30.426  35.550  1.00  0.00     0.029 A 
ATOM     51  C   UNL A   1      44.713  29.588  34.902  1.00  0.00     0.049 A 
ATOM     52  H   UNL A   1      44.598  28.710  33.016  1.00  0.00     0.167 HD
ATOM     53  C   UNL A   1      44.101  26.635  29.188  1.00  0.00     0.034 A 
ATOM     54  C   UNL A   1      45.912  29.256  35.418  1.00  0.00     0.034 A 
ATOM     55  C   UNL A   1      45.456  26.368  29.584  1.00  0.00     0.049 A 
ATOM     56  C   UNL A   1      46.856  28.407  34.604  1.00  0.00     0.074 A 
ATOM     57  C   UNL A   1      46.428  25.660  28.900  1.00  0.00     0.029 A 
ATOM     58  N   UNL A   1      46.026  26.785  30.775  1.00  0.00    -0.354 N 
ATOM     59  N   UNL A   1      46.697  27.919  33.397  1.00  0.00    -0.248 NA
ATOM     60  C   UNL A   1      48.159  28.091  35.209  1.00  0.00     0.031 C 
ATOM     61  C   UNL A   1      47.584  25.638  29.687  1.00  0.00     0.029 A 
ATOM     62  C   UNL A   1      47.335  26.344  30.853  1.00  0.00     0.049 A 
ATOM     63  H   UNL A   1      45.567  27.318  31.464  1.00  0.00     0.167 HD
ATOM     64  C   UNL A   1      47.887  27.271  33.085  1.00  0.00     0.074 A 
ATOM     65  C   UNL A   1      48.767  27.444  34.222  1.00  0.00     0.031 C 
ATOM     66  C   UNL A   1      48.219  26.579  31.966  1.00  0.00     0.034 A 
BRANCH  53  67
ATOM     67  C   UNL A   1      43.619  26.092  27.871  1.00  0.00     0.023 A 
ATOM     68  C   UNL A   1      43.728  26.891  26.715  1.00  0.00     0.012 A 
ATOM     69  C   UNL A   1      43.100  24.788  27.767  1.00  0.00     0.148 A 
ATOM     70  C   UNL A   1      43.303  26.412  25.478  1.00  0.00     0.002 A 
ATOM     71  C   UNL A   1      42.713  24.302  26.523  1.00  0.00     0.091 A 
ATOM     72  F   UNL A   1      42.977  24.055  28.882  1.00  0.00    -0.205 F 
ATOM     73  C   UNL A   1      42.806  25.114  25.380  1.00  0.00     0.022 A 
BRANCH  71  74
ATOM     74  S   UNL A   1      42.119  22.623  26.286  1.00  0.00     0.127 S 
ATOM     75  O   UNL A   1      42.646  22.309  24.959  1.00  0.00    -0.237 OA
ATOM     76  O   UNL A   1      42.768  21.907  27.384  1.00  0.00    -0.237 OA
ATOM     77  O   UNL A   1      40.669  22.696  26.385  1.00  0.00    -0.744 OA
ENDBRANCH  71  74
ENDBRANCH  53  67
BRANCH  54  78
ATOM     78  C   UNL A   1      46.314  29.766  36.760  1.00  0.00     0.023 A 
ATOM     79  C   UNL A   1      46.823  31.072  36.880  1.00  0.00     0.012 A 
ATOM     80  C   UNL A   1      46.181  28.971  37.916  1.00  0.00     0.148 A 
ATOM     81  C   UNL A   1      47.220  31.571  38.122  1.00  0.00     0.002 A 
ATOM     82  C   UNL A   1      46.528  29.492  39.157  1.00  0.00     0.091 A 
ATOM     83  F   UNL A   1      45.715  27.722  37.778  1.00  0.00    -0.205 F 
ATOM     84  C   UNL A   1      47.063  30.785  39.261  1.00  0.00     0.022 A 
BRANCH  82  85
ATOM     85  S   UNL A   1      46.239  28.595  40.687  1.00  0.00     0.127 S 
ATOM     86  O   UNL A   1      46.888  29.461  41.668  1.00  0.00    -0.237 OA
ATOM     87  O   UNL A   1      44.776  28.574  40.753  1.00  0.00    -0.237 OA
ATOM     88  O   UNL A   1      46.846  27.287  40.490  1.00  0.00    -0.744 OA
ENDBRANCH  82  85
ENDBRANCH  54  78
BRANCH  66  89
ATOM     89  C   UNL A   1      49.598  25.979  31.892  1.00  0.00     0.023 A 
ATOM     90  C   UNL A   1      50.630  26.685  31.243  1.00  0.00     0.012 A 
ATOM     91  C   UNL A   1      49.892  24.765  32.543  1.00  0.00     0.148 A 
ATOM     92  C   UNL A   1      51.929  26.177  31.221  1.00  0.00     0.002 A 
ATOM     93  C   UNL A   1      51.198  24.288  32.555  1.00  0.00     0.091 A 
ATOM     94  F   UNL A   1      48.892  24.098  33.139  1.00  0.00    -0.205 F 
ATOM     95  C   UNL A   1      52.215  24.988  31.886  1.00  0.00     0.022 A 
BRANCH  93  96
ATOM     96  S   UNL A   1      51.671  22.814  33.467  1.00  0.00     0.127 S 
ATOM     97  O   UNL A   1      50.772  21.810  32.902  1.00  0.00    -0.237 OA
ATOM     98  O   UNL A   1      53.078  22.651  33.094  1.00  0.00    -0.237 OA
ATOM     99  O   UNL A   1      51.456  23.131  34.873  1.00  0.00    -0.744 OA
ENDBRANCH  93  96
ENDBRANCH  66  89
ENDBRANCH  40  41
ENDBRANCH  33  35
ENDBRANCH  32  33
ENDBRANCH  31  32
ENDBRANCH  30  31
ENDBRANCH  29  30
ENDBRANCH  28  29
ENDBRANCH  27  28
ENDBRANCH   1  27
TORSDOF 26
ENDMDL
MODEL 2
REMARK VINA RESULT:      -8.3      8.117      9.538
REMARK SMILES Cc1nc(CNC(=O)[C@H]2CCO[C@H]2C)sc1C(=O)OCCOCCOCCOCCOC(=O)c1ccc(-c2c3nc(c(-c4cccc(S(=O)(=O)[O-])c4F)c4ccc([nH]4)c(-c4cccc(S(=O)(=O)[O-])c4F)c4nc(c(-c5cccc(S(=O)(=O)[O-])c5F)c5ccc2[nH]5)C=C4)C=C3)cc1
REMARK SMILES IDX 25 1 24 2 23 3 22 4 21 5 20 6 19 7 17 8 18 9 16 10 1 11 2 12
REMARK SMILES IDX 3 13 4 14 15 15 5 16 6 17 7 18 8 20 9 21 10 22 13 23 11 24
REMARK SMILES IDX 12 25 14 26 26 27 27 28 28 29 29 30 30 31 31 32 32 33 33 34
REMARK SMILES IDX 34 35 35 36 96 37 36 38 95 39 37 40 38 41 39 42 89 43 40 44
REMARK SMILES IDX 94 45 88 46 90 47 41 48 93 49 87 50 86 51 42 53 74 54 54 55
REMARK SMILES IDX 73 56 55 57 58 58 72 59 91 60 56 61 57 62 71 64 92 65 59 66
REMARK SMILES IDX 43 67 44 68 52 69 45 70 47 71 53 72 46 73 48 74 49 75 50 76
REMARK SMILES IDX 51 77 75 78 76 79 84 80 77 81 79 82 85 83 78 84 80 85 81 86
REMARK SMILES IDX 82 87 83 88 60 89 61 90 69 91 62 92 64 93 70 94 63 95 65 96
REMARK SMILES IDX 66 97 67 98 68 99
REMARK H PARENT 6 19 90 52 58 63
REMARK Flexibility Score: inf
ROOT
ATOM      1  O   UNL A   1      35.894  29.837  27.388  1.00  0.00    -0.377 OA
ENDROOT
BRANCH   1   2
ATOM      2  C   UNL A   1      34.676  29.327  26.878  1.00  0.00     0.188 C 
BRANCH   2   3
ATOM      3  C   UNL A   1      33.489  30.295  27.026  1.00  0.00     0.188 C 
BRANCH   3   4
ATOM      4  O   UNL A   1      32.143  29.841  27.053  1.00  0.00    -0.376 OA
BRANCH   4   5
ATOM      5  C   UNL A   1      31.599  29.024  26.028  1.00  0.00     0.202 C 
BRANCH   5   6
ATOM      6  C   UNL A   1      31.119  29.582  24.673  1.00  0.00     0.261 C 
BRANCH   6   7
ATOM      7  O   UNL A   1      31.037  28.652  23.596  1.00  0.00    -0.459 OA
BRANCH   7   8
ATOM      8  C   UNL A   1      30.079  27.691  23.674  1.00  0.00     0.350 C 
ATOM      9  O   UNL A   1      28.880  27.895  23.512  1.00  0.00    -0.245 OA
BRANCH   8  10
ATOM     10  C   UNL A   1      30.711  26.398  23.806  1.00  0.00     0.135 A 
ATOM     11  C   UNL A   1      31.834  25.923  21.513  1.00  0.00     0.068 C 
ATOM     12  C   UNL A   1      31.403  25.599  22.906  1.00  0.00     0.063 A 
ATOM     13  N   UNL A   1      31.707  24.326  23.382  1.00  0.00    -0.244 NA
ATOM     14  C   UNL A   1      31.278  24.177  24.615  1.00  0.00     0.113 A 
ATOM     15  S   UNL A   1      30.556  25.570  25.306  1.00  0.00    -0.110 S 
BRANCH  14  16
ATOM     16  C   UNL A   1      31.391  22.934  25.446  1.00  0.00     0.183 C 
BRANCH  16  17
ATOM     17  N   UNL A   1      31.908  21.817  24.674  1.00  0.00    -0.349 N 
ATOM     18  C   UNL A   1      33.171  21.309  24.634  1.00  0.00     0.226 C 
ATOM     19  H   UNL A   1      31.252  21.363  24.097  1.00  0.00     0.163 HD
ATOM     20  O   UNL A   1      33.366  20.266  24.010  1.00  0.00    -0.275 OA
BRANCH  18  21
ATOM     21  C   UNL A   1      34.274  22.027  25.380  1.00  0.00     0.109 C 
ATOM     22  C   UNL A   1      35.527  21.203  25.599  1.00  0.00     0.044 C 
ATOM     23  C   UNL A   1      34.830  23.249  24.657  1.00  0.00     0.127 C 
ATOM     24  C   UNL A   1      36.553  22.273  25.907  1.00  0.00     0.161 C 
ATOM     25  O   UNL A   1      36.133  23.471  25.240  1.00  0.00    -0.378 OA
ATOM     26  C   UNL A   1      35.020  23.097  23.151  1.00  0.00     0.039 C 
ENDBRANCH  18  21
ENDBRANCH  16  17
ENDBRANCH  14  16
ENDBRANCH   8  10
ENDBRANCH   7   8
ENDBRANCH   6   7
ENDBRANCH   5   6
ENDBRANCH   4   5
ENDBRANCH   3   4
ENDBRANCH   2   3
ENDBRANCH   1   2
BRANCH   1  27
ATOM     27  C   UNL A   1      35.758  30.667  28.536  1.00  0.00     0.188 C 
BRANCH  27  28
ATOM     28  C   UNL A   1      37.075  31.263  29.057  1.00  0.00     0.188 C 
BRANCH  28  29
ATOM     29  O   UNL A   1      37.000  31.656  30.433  1.00  0.00    -0.376 OA
BRANCH  29  30
ATOM     30  C   UNL A   1      35.721  32.100  30.879  1.00  0.00     0.202 C 
BRANCH  30  31
ATOM     31  C   UNL A   1      35.611  33.623  31.043  1.00  0.00     0.261 C 
BRANCH  31  32
ATOM     32  O   UNL A   1      36.787  34.356  30.667  1.00  0.00    -0.460 OA
BRANCH  32  33
ATOM     33  C   UNL A   1      37.757  34.483  31.600  1.00  0.00     0.338 C 
ATOM     34  O   UNL A   1      37.615  34.486  32.808  1.00  0.00    -0.246 OA
BRANCH  33  35
ATOM     35  C   UNL A   1      39.060  34.426  30.912  1.00  0.00     0.060 A 
ATOM     36  C   UNL A   1      40.212  34.220  31.681  1.00  0.00     0.016 A 
ATOM     37  C   UNL A   1      39.148  34.588  29.527  1.00  0.00     0.016 A 
ATOM     38  C   UNL A   1      41.465  34.227  31.069  1.00  0.00     0.010 A 
ATOM     39  C   UNL A   1      40.403  34.607  28.917  1.00  0.00     0.010 A 
ATOM     40  C   UNL A   1      41.568  34.464  29.691  1.00  0.00    -0.014 A 
BRANCH  40  41
ATOM     41  C   UNL A   1      42.888  34.748  29.084  1.00  0.00     0.031 A 
ATOM     42  C   UNL A   1      43.821  33.596  28.829  1.00  0.00     0.074 A 
ATOM     43  C   UNL A   1      43.264  36.005  28.791  1.00  0.00     0.049 A 
ATOM     44  N   UNL A   1      45.028  33.604  28.330  1.00  0.00    -0.248 NA
ATOM     45  C   UNL A   1      43.325  32.256  29.189  1.00  0.00     0.031 C 
ATOM     46  C   UNL A   1      42.455  37.203  29.007  1.00  0.00     0.029 A 
ATOM     47  N   UNL A   1      44.442  36.482  28.274  1.00  0.00    -0.354 N 
ATOM     48  C   UNL A   1      45.444  32.278  28.332  1.00  0.00     0.074 A 
ATOM     49  C   UNL A   1      44.367  31.494  28.895  1.00  0.00     0.031 C 
ATOM     50  C   UNL A   1      43.175  38.283  28.656  1.00  0.00     0.029 A 
ATOM     51  C   UNL A   1      44.498  37.853  28.204  1.00  0.00     0.049 A 
ATOM     52  H   UNL A   1      45.179  35.897  27.982  1.00  0.00     0.167 HD
ATOM     53  C   UNL A   1      46.609  31.755  27.886  1.00  0.00     0.034 A 
ATOM     54  C   UNL A   1      45.508  38.665  27.832  1.00  0.00     0.034 A 
ATOM     55  C   UNL A   1      47.676  32.531  27.318  1.00  0.00     0.049 A 
ATOM     56  C   UNL A   1      46.805  38.059  27.358  1.00  0.00     0.074 A 
ATOM     57  C   UNL A   1      48.878  32.089  26.797  1.00  0.00     0.029 A 
ATOM     58  N   UNL A   1      47.674  33.912  27.209  1.00  0.00    -0.354 N 
ATOM     59  N   UNL A   1      47.129  36.795  27.229  1.00  0.00    -0.248 NA
ATOM     60  C   UNL A   1      47.866  38.992  26.946  1.00  0.00     0.031 C 
ATOM     61  C   UNL A   1      49.612  33.207  26.386  1.00  0.00     0.029 A 
ATOM     62  C   UNL A   1      48.859  34.343  26.637  1.00  0.00     0.049 A 
ATOM     63  H   UNL A   1      46.939  34.500  27.496  1.00  0.00     0.167 HD
ATOM     64  C   UNL A   1      48.411  36.780  26.690  1.00  0.00     0.074 A 
ATOM     65  C   UNL A   1      48.799  38.162  26.499  1.00  0.00     0.031 C 
ATOM     66  C   UNL A   1      49.204  35.720  26.395  1.00  0.00     0.034 A 
BRANCH  53  67
ATOM     67  C   UNL A   1      46.768  30.262  27.956  1.00  0.00     0.023 A 
ATOM     68  C   UNL A   1      46.342  29.471  26.870  1.00  0.00     0.012 A 
ATOM     69  C   UNL A   1      47.371  29.645  29.069  1.00  0.00     0.148 A 
ATOM     70  C   UNL A   1      46.489  28.086  26.899  1.00  0.00     0.002 A 
ATOM     71  C   UNL A   1      47.549  28.266  29.075  1.00  0.00     0.091 A 
ATOM     72  F   UNL A   1      47.743  30.411  30.103  1.00  0.00    -0.205 F 
ATOM     73  C   UNL A   1      47.102  27.484  27.996  1.00  0.00     0.022 A 
BRANCH  71  74
ATOM     74  S   UNL A   1      48.383  27.408  30.414  1.00  0.00     0.127 S 
ATOM     75  O   UNL A   1      47.476  27.656  31.533  1.00  0.00    -0.237 OA
ATOM     76  O   UNL A   1      48.397  26.025  29.936  1.00  0.00    -0.237 OA
ATOM     77  O   UNL A   1      49.698  28.023  30.524  1.00  0.00    -0.744 OA
ENDBRANCH  71  74
ENDBRANCH  53  67
BRANCH  54  78
ATOM     78  C   UNL A   1      45.320  40.144  27.846  1.00  0.00     0.023 A 
ATOM     79  C   UNL A   1      45.433  40.845  29.060  1.00  0.00     0.012 A 
ATOM     80  C   UNL A   1      45.046  40.858  26.662  1.00  0.00     0.148 A 
ATOM     81  C   UNL A   1      45.248  42.228  29.104  1.00  0.00     0.002 A 
ATOM     82  C   UNL A   1      44.916  42.241  26.703  1.00  0.00     0.091 A 
ATOM     83  F   UNL A   1      44.921  40.169  25.519  1.00  0.00    -0.205 F 
ATOM     84  C   UNL A   1      45.000  42.927  27.925  1.00  0.00     0.022 A 
BRANCH  82  85
ATOM     85  S   UNL A   1      44.723  43.229  25.216  1.00  0.00     0.127 S 
ATOM     86  O   UNL A   1      45.827  42.747  24.390  1.00  0.00    -0.237 OA
ATOM     87  O   UNL A   1      43.390  42.831  24.759  1.00  0.00    -0.237 OA
ATOM     88  O   UNL A   1      44.814  44.615  25.655  1.00  0.00    -0.744 OA
ENDBRANCH  82  85
ENDBRANCH  54  78
BRANCH  66  89
ATOM     89  C   UNL A   1      50.562  35.998  25.806  1.00  0.00     0.023 A 
ATOM     90  C   UNL A   1      50.692  36.184  24.416  1.00  0.00     0.012 A 
ATOM     91  C   UNL A   1      51.687  36.168  26.636  1.00  0.00     0.148 A 
ATOM     92  C   UNL A   1      51.929  36.509  23.858  1.00  0.00     0.002 A 
ATOM     93  C   UNL A   1      52.906  36.536  26.077  1.00  0.00     0.091 A 
ATOM     94  F   UNL A   1      51.547  35.969  27.955  1.00  0.00    -0.205 F 
ATOM     95  C   UNL A   1      53.030  36.697  24.688  1.00  0.00     0.022 A 
BRANCH  93  96
ATOM     96  S   UNL A   1      54.353  36.890  27.083  1.00  0.00     0.127 S 
ATOM     97  O   UNL A   1      54.558  35.617  27.771  1.00  0.00    -0.237 OA
ATOM     98  O   UNL A   1      55.366  37.210  26.076  1.00  0.00    -0.237 OA
ATOM     99  O   UNL A   1      53.978  38.012  27.935  1.00  0.00    -0.744 OA
ENDBRANCH  93  96
ENDBRANCH  66  89
ENDBRANCH  40  41
ENDBRANCH  33  35
ENDBRANCH  32  33
ENDBRANCH  31  32
ENDBRANCH  30  31
ENDBRANCH  29  30
ENDBRANCH  28  29
ENDBRANCH  27  28
ENDBRANCH   1  27
TORSDOF 26
ENDMDL
MODEL 3
REMARK VINA RESULT:      -7.9      6.684     12.732
REMARK SMILES Cc1nc(CNC(=O)[C@H]2CCO[C@H]2C)sc1C(=O)OCCOCCOCCOCCOC(=O)c1ccc(-c2c3nc(c(-c4cccc(S(=O)(=O)[O-])c4F)c4ccc([nH]4)c(-c4cccc(S(=O)(=O)[O-])c4F)c4nc(c(-c5cccc(S(=O)(=O)[O-])c5F)c5ccc2[nH]5)C=C4)C=C3)cc1
REMARK SMILES IDX 25 1 24 2 23 3 22 4 21 5 20 6 19 7 17 8 18 9 16 10 1 11 2 12
REMARK SMILES IDX 3 13 4 14 15 15 5 16 6 17 7 18 8 20 9 21 10 22 13 23 11 24
REMARK SMILES IDX 12 25 14 26 26 27 27 28 28 29 29 30 30 31 31 32 32 33 33 34
REMARK SMILES IDX 34 35 35 36 96 37 36 38 95 39 37 40 38 41 39 42 89 43 40 44
REMARK SMILES IDX 94 45 88 46 90 47 41 48 93 49 87 50 86 51 42 53 74 54 54 55
REMARK SMILES IDX 73 56 55 57 58 58 72 59 91 60 56 61 57 62 71 64 92 65 59 66
REMARK SMILES IDX 43 67 44 68 52 69 45 70 47 71 53 72 46 73 48 74 49 75 50 76
REMARK SMILES IDX 51 77 75 78 76 79 84 80 77 81 79 82 85 83 78 84 80 85 81 86
REMARK SMILES IDX 82 87 83 88 60 89 61 90 69 91 62 92 64 93 70 94 63 95 65 96
REMARK SMILES IDX 66 97 67 98 68 99
REMARK H PARENT 6 19 90 52 58 63
REMARK Flexibility Score: inf
ROOT
ATOM      1  O   UNL A   1      43.718  19.897  25.065  1.00  0.00    -0.377 OA
ENDROOT
BRANCH   1   2
ATOM      2  C   UNL A   1      45.121  19.776  24.916  1.00  0.00     0.188 C 
BRANCH   2   3
ATOM      3  C   UNL A   1      45.901  21.021  25.373  1.00  0.00     0.188 C 
BRANCH   3   4
ATOM      4  O   UNL A   1      46.677  21.798  24.471  1.00  0.00    -0.376 OA
BRANCH   4   5
ATOM      5  C   UNL A   1      46.361  23.150  24.172  1.00  0.00     0.202 C 
BRANCH   5   6
ATOM      6  C   UNL A   1      45.564  24.059  25.129  1.00  0.00     0.261 C 
BRANCH   6   7
ATOM      7  O   UNL A   1      46.286  24.613  26.226  1.00  0.00    -0.459 OA
BRANCH   7   8
ATOM      8  C   UNL A   1      46.738  25.888  26.093  1.00  0.00     0.350 C 
ATOM      9  O   UNL A   1      46.036  26.888  26.212  1.00  0.00    -0.245 OA
BRANCH   8  10
ATOM     10  C   UNL A   1      48.178  25.871  25.963  1.00  0.00     0.135 A 
ATOM     11  C   UNL A   1      49.091  25.212  28.303  1.00  0.00     0.068 C 
ATOM     12  C   UNL A   1      49.197  25.652  26.880  1.00  0.00     0.063 A 
ATOM     13  N   UNL A   1      50.477  25.900  26.389  1.00  0.00    -0.244 NA
ATOM     14  C   UNL A   1      50.426  26.273  25.130  1.00  0.00     0.113 A 
ATOM     15  S   UNL A   1      48.858  26.275  24.436  1.00  0.00    -0.110 S 
BRANCH  14  16
ATOM     16  C   UNL A   1      51.596  26.657  24.275  1.00  0.00     0.183 C 
BRANCH  16  17
ATOM     17  N   UNL A   1      51.434  27.985  23.709  1.00  0.00    -0.349 N 
ATOM     18  C   UNL A   1      51.280  28.355  22.407  1.00  0.00     0.226 C 
ATOM     19  H   UNL A   1      51.437  28.724  24.360  1.00  0.00     0.163 HD
ATOM     20  O   UNL A   1      51.022  29.532  22.157  1.00  0.00    -0.275 OA
BRANCH  18  21
ATOM     21  C   UNL A   1      51.400  27.302  21.327  1.00  0.00     0.109 C 
ATOM     22  C   UNL A   1      50.819  27.704  19.987  1.00  0.00     0.044 C 
ATOM     23  C   UNL A   1      52.835  26.951  20.948  1.00  0.00     0.127 C 
ATOM     24  C   UNL A   1      51.484  26.719  19.051  1.00  0.00     0.161 C 
ATOM     25  O   UNL A   1      52.744  26.360  19.633  1.00  0.00    -0.378 OA
ATOM     26  C   UNL A   1      53.802  28.129  20.857  1.00  0.00     0.039 C 
ENDBRANCH  18  21
ENDBRANCH  16  17
ENDBRANCH  14  16
ENDBRANCH   8  10
ENDBRANCH   7   8
ENDBRANCH   6   7
ENDBRANCH   5   6
ENDBRANCH   4   5
ENDBRANCH   3   4
ENDBRANCH   2   3
ENDBRANCH   1   2
BRANCH   1  27
ATOM     27  C   UNL A   1      43.252  21.229  25.249  1.00  0.00     0.188 C 
BRANCH  27  28
ATOM     28  C   UNL A   1      42.575  21.491  26.604  1.00  0.00     0.188 C 
BRANCH  28  29
ATOM     29  O   UNL A   1      41.158  21.284  26.565  1.00  0.00    -0.376 OA
BRANCH  29  30
ATOM     30  C   UNL A   1      40.365  22.461  26.427  1.00  0.00     0.202 C 
BRANCH  30  31
ATOM     31  C   UNL A   1      40.674  23.547  27.468  1.00  0.00     0.261 C 
BRANCH  31  32
ATOM     32  O   UNL A   1      40.019  24.805  27.241  1.00  0.00    -0.460 OA
BRANCH  32  33
ATOM     33  C   UNL A   1      40.706  25.738  26.546  1.00  0.00     0.338 C 
ATOM     34  O   UNL A   1      41.031  25.689  25.375  1.00  0.00    -0.246 OA
BRANCH  33  35
ATOM     35  C   UNL A   1      40.836  26.936  27.398  1.00  0.00     0.060 A 
ATOM     36  C   UNL A   1      40.476  28.179  26.863  1.00  0.00     0.016 A 
ATOM     37  C   UNL A   1      41.322  26.837  28.705  1.00  0.00     0.016 A 
ATOM     38  C   UNL A   1      40.650  29.337  27.620  1.00  0.00     0.010 A 
ATOM     39  C   UNL A   1      41.507  27.998  29.457  1.00  0.00     0.010 A 
ATOM     40  C   UNL A   1      41.207  29.254  28.903  1.00  0.00    -0.014 A 
BRANCH  40  41
ATOM     41  C   UNL A   1      41.652  30.484  29.599  1.00  0.00     0.031 A 
ATOM     42  C   UNL A   1      43.003  31.050  29.257  1.00  0.00     0.074 A 
ATOM     43  C   UNL A   1      40.886  31.070  30.536  1.00  0.00     0.049 A 
ATOM     44  N   UNL A   1      43.610  32.097  29.749  1.00  0.00    -0.248 NA
ATOM     45  C   UNL A   1      43.773  30.335  28.224  1.00  0.00     0.031 C 
ATOM     46  C   UNL A   1      39.568  30.607  30.963  1.00  0.00     0.029 A 
ATOM     47  N   UNL A   1      41.128  32.171  31.318  1.00  0.00    -0.354 N 
ATOM     48  C   UNL A   1      44.837  32.158  29.101  1.00  0.00     0.074 A 
ATOM     49  C   UNL A   1      44.896  31.034  28.192  1.00  0.00     0.031 C 
ATOM     50  C   UNL A   1      39.130  31.400  31.957  1.00  0.00     0.029 A 
ATOM     51  C   UNL A   1      40.142  32.417  32.243  1.00  0.00     0.049 A 
ATOM     52  H   UNL A   1      41.932  32.732  31.226  1.00  0.00     0.167 HD
ATOM     53  C   UNL A   1      45.820  33.078  29.233  1.00  0.00     0.034 A 
ATOM     54  C   UNL A   1      40.074  33.346  33.217  1.00  0.00     0.034 A 
ATOM     55  C   UNL A   1      45.760  34.199  30.129  1.00  0.00     0.049 A 
ATOM     56  C   UNL A   1      41.192  34.349  33.359  1.00  0.00     0.074 A 
ATOM     57  C   UNL A   1      46.686  35.211  30.304  1.00  0.00     0.029 A 
ATOM     58  N   UNL A   1      44.720  34.449  31.010  1.00  0.00    -0.354 N 
ATOM     59  N   UNL A   1      42.280  34.480  32.640  1.00  0.00    -0.248 NA
ATOM     60  C   UNL A   1      41.056  35.352  34.426  1.00  0.00     0.031 C 
ATOM     61  C   UNL A   1      46.211  36.067  31.305  1.00  0.00     0.029 A 
ATOM     62  C   UNL A   1      44.983  35.595  31.740  1.00  0.00     0.049 A 
ATOM     63  H   UNL A   1      43.912  33.893  31.102  1.00  0.00     0.167 HD
ATOM     64  C   UNL A   1      42.939  35.597  33.142  1.00  0.00     0.074 A 
ATOM     65  C   UNL A   1      42.118  36.118  34.215  1.00  0.00     0.031 C 
ATOM     66  C   UNL A   1      44.125  36.135  32.762  1.00  0.00     0.034 A 
BRANCH  53  67
ATOM     67  C   UNL A   1      47.030  32.929  28.352  1.00  0.00     0.023 A 
ATOM     68  C   UNL A   1      47.102  33.663  27.151  1.00  0.00     0.012 A 
ATOM     69  C   UNL A   1      48.106  32.104  28.727  1.00  0.00     0.148 A 
ATOM     70  C   UNL A   1      48.215  33.558  26.320  1.00  0.00     0.002 A 
ATOM     71  C   UNL A   1      49.231  32.032  27.912  1.00  0.00     0.091 A 
ATOM     72  F   UNL A   1      48.006  31.392  29.858  1.00  0.00    -0.205 F 
ATOM     73  C   UNL A   1      49.284  32.751  26.706  1.00  0.00     0.022 A 
BRANCH  71  74
ATOM     74  S   UNL A   1      50.682  31.070  28.354  1.00  0.00     0.127 S 
ATOM     75  O   UNL A   1      51.689  31.624  27.450  1.00  0.00    -0.237 OA
ATOM     76  O   UNL A   1      50.869  31.421  29.762  1.00  0.00    -0.237 OA
ATOM     77  O   UNL A   1      50.325  29.679  28.119  1.00  0.00    -0.744 OA
ENDBRANCH  71  74
ENDBRANCH  53  67
BRANCH  54  78
ATOM     78  C   UNL A   1      38.881  33.407  34.108  1.00  0.00     0.023 A 
ATOM     79  C   UNL A   1      37.718  34.064  33.665  1.00  0.00     0.012 A 
ATOM     80  C   UNL A   1      38.887  32.805  35.382  1.00  0.00     0.148 A 
ATOM     81  C   UNL A   1      36.591  34.147  34.484  1.00  0.00     0.002 A 
ATOM     82  C   UNL A   1      37.743  32.846  36.172  1.00  0.00     0.091 A 
ATOM     83  F   UNL A   1      40.011  32.203  35.796  1.00  0.00    -0.205 F 
ATOM     84  C   UNL A   1      36.600  33.530  35.732  1.00  0.00     0.022 A 
BRANCH  82  85
ATOM     85  S   UNL A   1      37.628  31.970  37.736  1.00  0.00     0.127 S 
ATOM     86  O   UNL A   1      37.694  30.576  37.304  1.00  0.00    -0.237 OA
ATOM     87  O   UNL A   1      38.815  32.455  38.443  1.00  0.00    -0.237 OA
ATOM     88  O   UNL A   1      36.367  32.395  38.327  1.00  0.00    -0.744 OA
ENDBRANCH  82  85
ENDBRANCH  54  78
BRANCH  66  89
ATOM     89  C   UNL A   1      44.602  37.368  33.484  1.00  0.00     0.023 A 
ATOM     90  C   UNL A   1      45.464  37.235  34.591  1.00  0.00     0.012 A 
ATOM     91  C   UNL A   1      44.275  38.653  33.011  1.00  0.00     0.148 A 
ATOM     92  C   UNL A   1      45.972  38.366  35.232  1.00  0.00     0.002 A 
ATOM     93  C   UNL A   1      44.820  39.774  33.627  1.00  0.00     0.091 A 
ATOM     94  F   UNL A   1      43.438  38.759  31.968  1.00  0.00    -0.205 F 
ATOM     95  C   UNL A   1      45.660  39.632  34.743  1.00  0.00     0.022 A 
BRANCH  93  96
ATOM     96  S   UNL A   1      44.547  41.438  33.005  1.00  0.00     0.127 S 
ATOM     97  O   UNL A   1      45.274  42.246  33.981  1.00  0.00    -0.237 OA
ATOM     98  O   UNL A   1      45.164  41.383  31.678  1.00  0.00    -0.237 OA
ATOM     99  O   UNL A   1      43.101  41.622  32.986  1.00  0.00    -0.744 OA
ENDBRANCH  93  96
ENDBRANCH  66  89
ENDBRANCH  40  41
ENDBRANCH  33  35
ENDBRANCH  32  33
ENDBRANCH  31  32
ENDBRANCH  30  31
ENDBRANCH  29  30
ENDBRANCH  28  29
ENDBRANCH  27  28
ENDBRANCH   1  27
TORSDOF 26
ENDMDL
