MODEL 1
REMARK VINA RESULT:      -7.9      0.000      0.000
REMARK SMILES O=C(N/N=C/c1ccc(C(=O)OCCOCCOCCOCCOC(=O)c2ccc(-c3c4nc(c(-c5cccc(S(=O)(=O)[O-])c5F)c5ccc([nH]5)c(-c5cccc(S(=O)(=O)[O-])c5F)c5nc(c(-c6cccc(S(=O)(=O)[O-])c6F)c6ccc3[nH]6)C=C5)C=C4)cc2)cc1)C(=O)Nc1ccc2c(c1)OCO2
REMARK SMILES IDX 17 1 16 2 15 3 14 4 13 5 12 6 10 7 11 8 9 9 6 10 7 11 91 12
REMARK SMILES IDX 8 13 90 14 5 15 4 16 3 17 1 18 2 19 92 21 93 22 94 23 95 25
REMARK SMILES IDX 96 26 100 27 97 28 99 29 98 30 101 31 103 32 102 33 18 34
REMARK SMILES IDX 19 35 20 36 21 37 22 38 23 39 24 40 25 41 26 42 27 43 28 44
REMARK SMILES IDX 89 45 29 46 88 47 30 48 31 49 32 50 82 51 33 52 87 53 81 54
REMARK SMILES IDX 83 55 34 56 86 57 80 58 79 59 35 61 67 62 47 63 66 64 48 65
REMARK SMILES IDX 51 66 65 67 84 68 49 69 50 70 64 72 85 73 52 74 36 75 37 76
REMARK SMILES IDX 45 77 38 78 40 79 46 80 39 81 41 82 42 83 43 84 44 85 68 86
REMARK SMILES IDX 69 87 77 88 70 89 72 90 78 91 71 92 73 93 74 94 75 95 76 96
REMARK SMILES IDX 53 97 54 98 62 99 55 100 57 101 63 102 56 103 58 104 59 105
REMARK SMILES IDX 60 106 61 107
REMARK H PARENT 3 20 94 24 83 60 51 71
REMARK Flexibility Score: inf
ROOT
ATOM      1  C   UNL A   1      42.215  19.325  26.828  1.00  0.00     0.188 C 
ENDROOT
BRANCH   1   2
ATOM      2  C   UNL A   1      40.929  19.798  26.123  1.00  0.00     0.188 C 
BRANCH   2   3
ATOM      3  O   UNL A   1      40.249  20.819  26.830  1.00  0.00    -0.376 OA
BRANCH   3   4
ATOM      4  C   UNL A   1      40.910  21.583  27.822  1.00  0.00     0.202 C 
BRANCH   4   5
ATOM      5  C   UNL A   1      41.582  22.934  27.525  1.00  0.00     0.261 C 
BRANCH   5   6
ATOM      6  O   UNL A   1      41.013  24.083  28.146  1.00  0.00    -0.460 OA
BRANCH   6   7
ATOM      7  C   UNL A   1      40.702  25.119  27.346  1.00  0.00     0.338 C 
ATOM      8  O   UNL A   1      40.229  25.070  26.224  1.00  0.00    -0.246 OA
BRANCH   7   9
ATOM      9  C   UNL A   1      40.821  26.360  28.139  1.00  0.00     0.060 A 
ATOM     10  C   UNL A   1      40.989  28.658  30.133  1.00  0.00    -0.005 A 
ATOM     11  C   UNL A   1      42.091  27.739  29.681  1.00  0.00     0.010 A 
ATOM     12  C   UNL A   1      39.993  28.456  29.013  1.00  0.00     0.010 A 
ATOM     13  C   UNL A   1      41.988  26.612  28.827  1.00  0.00     0.016 A 
ATOM     14  C   UNL A   1      39.881  27.361  28.117  1.00  0.00     0.016 A 
BRANCH  10  15
ATOM     15  C   UNL A   1      40.819  29.740  31.978  1.00  0.00     0.141 C 
ATOM     16  N   UNL A   1      40.034  30.746  32.494  1.00  0.00    -0.180 NA
BRANCH  16  17
ATOM     17  N   UNL A   1      40.658  31.458  33.458  1.00  0.00    -0.239 N 
ATOM     18  O   UNL A   1      40.636  32.493  35.479  1.00  0.00    -0.262 OA
ATOM     19  C   UNL A   1      40.061  31.760  34.675  1.00  0.00     0.329 C 
ATOM     20  H   UNL A   1      41.574  31.777  33.290  1.00  0.00     0.194 HD
BRANCH  19  21
ATOM     21  C   UNL A   1      38.720  31.098  35.099  1.00  0.00     0.315 C 
ATOM     22  O   UNL A   1      38.777  30.041  35.731  1.00  0.00    -0.263 OA
ATOM     23  N   UNL A   1      37.466  31.695  34.924  1.00  0.00    -0.318 N 
ATOM     24  H   UNL A   1      36.803  31.611  35.647  1.00  0.00     0.170 HD
BRANCH  23  25
ATOM     25  C   UNL A   1      37.108  32.410  33.768  1.00  0.00     0.045 A 
ATOM     26  C   UNL A   1      36.147  31.476  32.499  1.00  0.00     0.030 A 
ATOM     27  C   UNL A   1      36.860  34.212  33.984  1.00  0.00     0.076 A 
ATOM     28  C   UNL A   1      34.893  32.364  31.490  1.00  0.00     0.053 A 
ATOM     29  C   UNL A   1      35.495  35.001  33.086  1.00  0.00     0.167 A 
ATOM     30  C   UNL A   1      34.534  34.085  31.875  1.00  0.00     0.165 A 
ATOM     31  O   UNL A   1      34.864  36.188  33.257  1.00  0.00    -0.454 OA
ATOM     32  O   UNL A   1      33.528  34.899  31.488  1.00  0.00    -0.454 OA
ATOM     33  C   UNL A   1      33.616  35.989  32.487  1.00  0.00     0.468 C 
ENDBRANCH  23  25
ENDBRANCH  19  21
ENDBRANCH  16  17
ENDBRANCH  10  15
ENDBRANCH   7   9
ENDBRANCH   6   7
ENDBRANCH   5   6
ENDBRANCH   4   5
ENDBRANCH   3   4
ENDBRANCH   2   3
ENDBRANCH   1   2
BRANCH   1  34
ATOM     34  O   UNL A   1      43.419  19.592  26.135  1.00  0.00    -0.377 OA
BRANCH  34  35
ATOM     35  C   UNL A   1      44.276  18.504  25.787  1.00  0.00     0.188 C 
BRANCH  35  36
ATOM     36  C   UNL A   1      45.800  18.669  25.555  1.00  0.00     0.188 C 
BRANCH  36  37
ATOM     37  O   UNL A   1      46.171  19.657  24.602  1.00  0.00    -0.376 OA
BRANCH  37  38
ATOM     38  C   UNL A   1      45.495  19.649  23.356  1.00  0.00     0.202 C 
BRANCH  38  39
ATOM     39  C   UNL A   1      44.603  20.865  23.082  1.00  0.00     0.261 C 
BRANCH  39  40
ATOM     40  O   UNL A   1      45.025  22.089  23.700  1.00  0.00    -0.460 OA
BRANCH  40  41
ATOM     41  C   UNL A   1      44.096  22.778  24.400  1.00  0.00     0.338 C 
ATOM     42  O   UNL A   1      42.892  22.601  24.401  1.00  0.00    -0.246 OA
BRANCH  41  43
ATOM     43  C   UNL A   1      44.818  23.669  25.328  1.00  0.00     0.060 A 
ATOM     44  C   UNL A   1      46.014  23.227  25.907  1.00  0.00     0.016 A 
ATOM     45  C   UNL A   1      44.317  24.942  25.608  1.00  0.00     0.016 A 
ATOM     46  C   UNL A   1      46.696  24.047  26.804  1.00  0.00     0.010 A 
ATOM     47  C   UNL A   1      44.988  25.753  26.521  1.00  0.00     0.010 A 
ATOM     48  C   UNL A   1      46.158  25.295  27.151  1.00  0.00    -0.014 A 
BRANCH  48  49
ATOM     49  C   UNL A   1      46.683  26.024  28.327  1.00  0.00     0.031 A 
ATOM     50  C   UNL A   1      47.819  26.986  28.108  1.00  0.00     0.074 A 
ATOM     51  C   UNL A   1      46.183  25.828  29.558  1.00  0.00     0.049 A 
ATOM     52  N   UNL A   1      48.486  27.696  28.978  1.00  0.00    -0.248 NA
ATOM     53  C   UNL A   1      48.264  27.166  26.715  1.00  0.00     0.031 C 
ATOM     54  C   UNL A   1      45.074  24.938  29.891  1.00  0.00     0.029 A 
ATOM     55  N   UNL A   1      46.566  26.358  30.765  1.00  0.00    -0.354 N 
ATOM     56  C   UNL A   1      49.444  28.386  28.245  1.00  0.00     0.074 A 
ATOM     57  C   UNL A   1      49.285  27.995  26.862  1.00  0.00     0.031 C 
ATOM     58  C   UNL A   1      44.881  24.963  31.222  1.00  0.00     0.029 A 
ATOM     59  C   UNL A   1      45.869  25.849  31.835  1.00  0.00     0.049 A 
ATOM     60  H   UNL A   1      47.272  27.038  30.855  1.00  0.00     0.167 HD
ATOM     61  C   UNL A   1      50.365  29.277  28.679  1.00  0.00     0.034 A 
ATOM     62  C   UNL A   1      46.032  26.060  33.156  1.00  0.00     0.034 A 
ATOM     63  C   UNL A   1      50.520  29.663  30.054  1.00  0.00     0.049 A 
ATOM     64  C   UNL A   1      47.104  27.015  33.622  1.00  0.00     0.074 A 
ATOM     65  C   UNL A   1      51.404  30.578  30.597  1.00  0.00     0.029 A 
ATOM     66  N   UNL A   1      49.782  29.144  31.107  1.00  0.00    -0.354 N 
ATOM     67  N   UNL A   1      47.935  27.738  32.911  1.00  0.00    -0.248 NA
ATOM     68  C   UNL A   1      47.237  27.206  35.075  1.00  0.00     0.031 C 
ATOM     69  C   UNL A   1      51.222  30.586  31.984  1.00  0.00     0.029 A 
ATOM     70  C   UNL A   1      50.198  29.708  32.301  1.00  0.00     0.049 A 
ATOM     71  H   UNL A   1      49.068  28.473  31.019  1.00  0.00     0.167 HD
ATOM     72  C   UNL A   1      48.657  28.502  33.824  1.00  0.00     0.074 A 
ATOM     73  C   UNL A   1      48.155  28.160  35.140  1.00  0.00     0.031 C 
ATOM     74  C   UNL A   1      49.650  29.398  33.596  1.00  0.00     0.034 A 
BRANCH  61  75
ATOM     75  C   UNL A   1      51.266  29.899  27.645  1.00  0.00     0.023 A 
ATOM     76  C   UNL A   1      52.450  29.235  27.258  1.00  0.00     0.012 A 
ATOM     77  C   UNL A   1      50.937  31.127  27.043  1.00  0.00     0.148 A 
ATOM     78  C   UNL A   1      53.311  29.806  26.322  1.00  0.00     0.002 A 
ATOM     79  C   UNL A   1      51.776  31.667  26.076  1.00  0.00     0.091 A 
ATOM     80  F   UNL A   1      49.821  31.756  27.442  1.00  0.00    -0.205 F 
ATOM     81  C   UNL A   1      52.969  31.016  25.725  1.00  0.00     0.022 A 
BRANCH  79  82
ATOM     82  S   UNL A   1      51.384  33.181  25.193  1.00  0.00     0.127 S 
ATOM     83  O   UNL A   1      51.763  32.830  23.825  1.00  0.00    -0.237 OA
ATOM     84  O   UNL A   1      49.942  33.301  25.414  1.00  0.00    -0.237 OA
ATOM     85  O   UNL A   1      52.181  34.227  25.815  1.00  0.00    -0.744 OA
ENDBRANCH  79  82
ENDBRANCH  61  75
BRANCH  62  86
ATOM     86  C   UNL A   1      45.134  25.389  34.139  1.00  0.00     0.023 A 
ATOM     87  C   UNL A   1      45.481  24.117  34.635  1.00  0.00     0.012 A 
ATOM     88  C   UNL A   1      43.947  25.999  34.588  1.00  0.00     0.148 A 
ATOM     89  C   UNL A   1      44.647  23.451  35.535  1.00  0.00     0.002 A 
ATOM     90  C   UNL A   1      43.148  25.355  35.526  1.00  0.00     0.091 A 
ATOM     91  F   UNL A   1      43.626  27.204  34.093  1.00  0.00    -0.205 F 
ATOM     92  C   UNL A   1      43.487  24.073  35.986  1.00  0.00     0.022 A 
BRANCH  90  93
ATOM     93  S   UNL A   1      41.699  26.125  36.256  1.00  0.00     0.127 S 
ATOM     94  O   UNL A   1      41.155  25.036  37.064  1.00  0.00    -0.237 OA
ATOM     95  O   UNL A   1      42.297  27.222  37.020  1.00  0.00    -0.237 OA
ATOM     96  O   UNL A   1      40.871  26.553  35.138  1.00  0.00    -0.744 OA
ENDBRANCH  90  93
ENDBRANCH  62  86
BRANCH  74  97
ATOM     97  C   UNL A   1      50.230  30.123  34.785  1.00  0.00     0.023 A 
ATOM     98  C   UNL A   1      51.366  29.611  35.442  1.00  0.00     0.012 A 
ATOM     99  C   UNL A   1      49.694  31.361  35.195  1.00  0.00     0.148 A 
ATOM    100  C   UNL A   1      51.938  30.301  36.509  1.00  0.00     0.002 A 
ATOM    101  C   UNL A   1      50.301  32.069  36.225  1.00  0.00     0.091 A 
ATOM    102  F   UNL A   1      48.604  31.825  34.568  1.00  0.00    -0.205 F 
ATOM    103  C   UNL A   1      51.415  31.535  36.893  1.00  0.00     0.022 A 
BRANCH 101 104
ATOM    104  S   UNL A   1      49.759  33.709  36.719  1.00  0.00     0.127 S 
ATOM    105  O   UNL A   1      48.417  33.437  37.231  1.00  0.00    -0.237 OA
ATOM    106  O   UNL A   1      50.742  34.064  37.743  1.00  0.00    -0.237 OA
ATOM    107  O   UNL A   1      49.814  34.531  35.517  1.00  0.00    -0.744 OA
ENDBRANCH 101 104
ENDBRANCH  74  97
ENDBRANCH  48  49
ENDBRANCH  41  43
ENDBRANCH  40  41
ENDBRANCH  39  40
ENDBRANCH  38  39
ENDBRANCH  37  38
ENDBRANCH  36  37
ENDBRANCH  35  36
ENDBRANCH  34  35
ENDBRANCH   1  34
TORSDOF 27
ENDMDL
MODEL 2
REMARK VINA RESULT:      -7.6     11.825     17.806
REMARK SMILES O=C(N/N=C/c1ccc(C(=O)OCCOCCOCCOCCOC(=O)c2ccc(-c3c4nc(c(-c5cccc(S(=O)(=O)[O-])c5F)c5ccc([nH]5)c(-c5cccc(S(=O)(=O)[O-])c5F)c5nc(c(-c6cccc(S(=O)(=O)[O-])c6F)c6ccc3[nH]6)C=C5)C=C4)cc2)cc1)C(=O)Nc1ccc2c(c1)OCO2
REMARK SMILES IDX 17 1 16 2 15 3 14 4 13 5 12 6 10 7 11 8 9 9 6 10 7 11 91 12
REMARK SMILES IDX 8 13 90 14 5 15 4 16 3 17 1 18 2 19 92 21 93 22 94 23 95 25
REMARK SMILES IDX 96 26 100 27 97 28 99 29 98 30 101 31 103 32 102 33 18 34
REMARK SMILES IDX 19 35 20 36 21 37 22 38 23 39 24 40 25 41 26 42 27 43 28 44
REMARK SMILES IDX 89 45 29 46 88 47 30 48 31 49 32 50 82 51 33 52 87 53 81 54
REMARK SMILES IDX 83 55 34 56 86 57 80 58 79 59 35 61 67 62 47 63 66 64 48 65
REMARK SMILES IDX 51 66 65 67 84 68 49 69 50 70 64 72 85 73 52 74 36 75 37 76
REMARK SMILES IDX 45 77 38 78 40 79 46 80 39 81 41 82 42 83 43 84 44 85 68 86
REMARK SMILES IDX 69 87 77 88 70 89 72 90 78 91 71 92 73 93 74 94 75 95 76 96
REMARK SMILES IDX 53 97 54 98 62 99 55 100 57 101 63 102 56 103 58 104 59 105
REMARK SMILES IDX 60 106 61 107
REMARK H PARENT 3 20 94 24 83 60 51 71
REMARK Flexibility Score: inf
ROOT
ATOM      1  C   UNL A   1      43.029  43.914  22.893  1.00  0.00     0.188 C 
ENDROOT
BRANCH   1   2
ATOM      2  C   UNL A   1      44.296  43.394  22.186  1.00  0.00     0.188 C 
BRANCH   2   3
ATOM      3  O   UNL A   1      44.018  42.450  21.167  1.00  0.00    -0.376 OA
BRANCH   3   4
ATOM      4  C   UNL A   1      42.709  42.303  20.648  1.00  0.00     0.202 C 
BRANCH   4   5
ATOM      5  C   UNL A   1      42.290  42.850  19.272  1.00  0.00     0.261 C 
BRANCH   5   6
ATOM      6  O   UNL A   1      41.532  44.055  19.266  1.00  0.00    -0.460 OA
BRANCH   6   7
ATOM      7  C   UNL A   1      41.164  44.540  18.066  1.00  0.00     0.338 C 
ATOM      8  O   UNL A   1      40.166  44.254  17.429  1.00  0.00    -0.246 OA
BRANCH   7   9
ATOM      9  C   UNL A   1      42.068  45.660  17.728  1.00  0.00     0.060 A 
ATOM     10  C   UNL A   1      43.732  48.187  17.375  1.00  0.00    -0.005 A 
ATOM     11  C   UNL A   1      44.013  47.008  18.265  1.00  0.00     0.010 A 
ATOM     12  C   UNL A   1      42.748  47.566  16.408  1.00  0.00     0.010 A 
ATOM     13  C   UNL A   1      43.189  45.878  18.499  1.00  0.00     0.016 A 
ATOM     14  C   UNL A   1      41.933  46.419  16.592  1.00  0.00     0.016 A 
BRANCH  10  15
ATOM     15  C   UNL A   1      44.379  50.220  17.600  1.00  0.00     0.141 C 
ATOM     16  N   UNL A   1      45.112  51.136  16.880  1.00  0.00    -0.180 NA
BRANCH  16  17
ATOM     17  N   UNL A   1      45.714  52.060  17.661  1.00  0.00    -0.239 N 
ATOM     18  O   UNL A   1      47.587  52.953  18.583  1.00  0.00    -0.262 OA
ATOM     19  C   UNL A   1      47.093  52.157  17.785  1.00  0.00     0.329 C 
ATOM     20  H   UNL A   1      45.150  52.691  18.164  1.00  0.00     0.194 HD
BRANCH  19  21
ATOM     21  C   UNL A   1      48.042  51.356  16.849  1.00  0.00     0.315 C 
ATOM     22  O   UNL A   1      48.525  51.947  15.880  1.00  0.00    -0.263 OA
ATOM     23  N   UNL A   1      48.485  50.055  17.115  1.00  0.00    -0.318 N 
ATOM     24  H   UNL A   1      49.424  49.831  16.921  1.00  0.00     0.170 HD
BRANCH  23  25
ATOM     25  C   UNL A   1      47.654  49.053  17.647  1.00  0.00     0.045 A 
ATOM     26  C   UNL A   1      47.522  47.498  16.660  1.00  0.00     0.030 A 
ATOM     27  C   UNL A   1      47.513  49.012  19.472  1.00  0.00     0.076 A 
ATOM     28  C   UNL A   1      47.305  45.896  17.535  1.00  0.00     0.053 A 
ATOM     29  C   UNL A   1      47.472  47.393  20.290  1.00  0.00     0.167 A 
ATOM     30  C   UNL A   1      47.379  45.876  19.333  1.00  0.00     0.165 A 
ATOM     31  O   UNL A   1      47.685  47.022  21.576  1.00  0.00    -0.454 OA
ATOM     32  O   UNL A   1      47.496  44.858  20.213  1.00  0.00    -0.454 OA
ATOM     33  C   UNL A   1      47.918  45.567  21.444  1.00  0.00     0.468 C 
ENDBRANCH  23  25
ENDBRANCH  19  21
ENDBRANCH  16  17
ENDBRANCH  10  15
ENDBRANCH   7   9
ENDBRANCH   6   7
ENDBRANCH   5   6
ENDBRANCH   4   5
ENDBRANCH   3   4
ENDBRANCH   2   3
ENDBRANCH   1   2
BRANCH   1  34
ATOM     34  O   UNL A   1      42.828  43.432  24.208  1.00  0.00    -0.377 OA
BRANCH  34  35
ATOM     35  C   UNL A   1      43.610  42.330  24.669  1.00  0.00     0.188 C 
BRANCH  35  36
ATOM     36  C   UNL A   1      43.287  41.552  25.971  1.00  0.00     0.188 C 
BRANCH  36  37
ATOM     37  O   UNL A   1      43.819  40.236  26.046  1.00  0.00    -0.376 OA
BRANCH  37  38
ATOM     38  C   UNL A   1      45.128  40.088  26.570  1.00  0.00     0.202 C 
BRANCH  38  39
ATOM     39  C   UNL A   1      45.688  38.661  26.553  1.00  0.00     0.261 C 
BRANCH  39  40
ATOM     40  O   UNL A   1      45.721  37.998  27.824  1.00  0.00    -0.460 OA
BRANCH  40  41
ATOM     41  C   UNL A   1      45.068  36.818  27.921  1.00  0.00     0.338 C 
ATOM     42  O   UNL A   1      44.894  35.997  27.039  1.00  0.00    -0.246 OA
BRANCH  41  43
ATOM     43  C   UNL A   1      44.767  36.598  29.348  1.00  0.00     0.060 A 
ATOM     44  C   UNL A   1      44.978  35.329  29.903  1.00  0.00     0.016 A 
ATOM     45  C   UNL A   1      44.292  37.651  30.132  1.00  0.00     0.016 A 
ATOM     46  C   UNL A   1      44.676  35.099  31.244  1.00  0.00     0.010 A 
ATOM     47  C   UNL A   1      43.971  37.414  31.468  1.00  0.00     0.010 A 
ATOM     48  C   UNL A   1      44.125  36.130  32.018  1.00  0.00    -0.014 A 
BRANCH  48  49
ATOM     49  C   UNL A   1      43.502  35.819  33.324  1.00  0.00     0.031 A 
ATOM     50  C   UNL A   1      42.206  35.054  33.321  1.00  0.00     0.074 A 
ATOM     51  C   UNL A   1      44.056  36.217  34.481  1.00  0.00     0.049 A 
ATOM     52  N   UNL A   1      41.441  34.712  34.322  1.00  0.00    -0.248 NA
ATOM     53  C   UNL A   1      41.707  34.621  32.004  1.00  0.00     0.031 C 
ATOM     54  C   UNL A   1      45.315  36.946  34.612  1.00  0.00     0.029 A 
ATOM     55  N   UNL A   1      43.610  36.078  35.772  1.00  0.00    -0.354 N 
ATOM     56  C   UNL A   1      40.358  34.049  33.758  1.00  0.00     0.074 A 
ATOM     57  C   UNL A   1      40.556  34.053  32.325  1.00  0.00     0.031 C 
ATOM     58  C   UNL A   1      45.529  37.214  35.914  1.00  0.00     0.029 A 
ATOM     59  C   UNL A   1      44.410  36.700  36.701  1.00  0.00     0.049 A 
ATOM     60  H   UNL A   1      42.793  35.580  36.009  1.00  0.00     0.167 HD
ATOM     61  C   UNL A   1      39.300  33.474  34.375  1.00  0.00     0.034 A 
ATOM     62  C   UNL A   1      44.240  36.852  38.029  1.00  0.00     0.034 A 
ATOM     63  C   UNL A   1      39.107  33.471  35.798  1.00  0.00     0.049 A 
ATOM     64  C   UNL A   1      43.023  36.251  38.689  1.00  0.00     0.074 A 
ATOM     65  C   UNL A   1      38.084  32.894  36.528  1.00  0.00     0.029 A 
ATOM     66  N   UNL A   1      39.949  34.091  36.709  1.00  0.00    -0.354 N 
ATOM     67  N   UNL A   1      42.059  35.538  38.158  1.00  0.00    -0.248 NA
ATOM     68  C   UNL A   1      42.888  36.450  40.141  1.00  0.00     0.031 C 
ATOM     69  C   UNL A   1      38.291  33.193  37.878  1.00  0.00     0.029 A 
ATOM     70  C   UNL A   1      39.464  33.922  37.994  1.00  0.00     0.049 A 
ATOM     71  H   UNL A   1      40.772  34.579  36.476  1.00  0.00     0.167 HD
ATOM     72  C   UNL A   1      41.231  35.166  39.212  1.00  0.00     0.074 A 
ATOM     73  C   UNL A   1      41.814  35.723  40.415  1.00  0.00     0.031 C 
ATOM     74  C   UNL A   1      40.087  34.436  39.187  1.00  0.00     0.034 A 
BRANCH  61  75
ATOM     75  C   UNL A   1      38.279  32.791  33.503  1.00  0.00     0.023 A 
ATOM     76  C   UNL A   1      37.194  33.530  32.986  1.00  0.00     0.012 A 
ATOM     77  C   UNL A   1      38.400  31.426  33.181  1.00  0.00     0.148 A 
ATOM     78  C   UNL A   1      36.223  32.910  32.200  1.00  0.00     0.002 A 
ATOM     79  C   UNL A   1      37.455  30.827  32.357  1.00  0.00     0.091 A 
ATOM     80  F   UNL A   1      39.423  30.734  33.703  1.00  0.00    -0.205 F 
ATOM     81  C   UNL A   1      36.360  31.563  31.877  1.00  0.00     0.022 A 
BRANCH  79  82
ATOM     82  S   UNL A   1      37.585  29.118  31.821  1.00  0.00     0.127 S 
ATOM     83  O   UNL A   1      37.283  28.398  33.057  1.00  0.00    -0.237 OA
ATOM     84  O   UNL A   1      36.542  29.037  30.797  1.00  0.00    -0.237 OA
ATOM     85  O   UNL A   1      38.942  28.957  31.318  1.00  0.00    -0.744 OA
ENDBRANCH  79  82
ENDBRANCH  61  75
BRANCH  62  86
ATOM     86  C   UNL A   1      45.265  37.570  38.839  1.00  0.00     0.023 A 
ATOM     87  C   UNL A   1      45.082  38.936  39.132  1.00  0.00     0.012 A 
ATOM     88  C   UNL A   1      46.413  36.913  39.323  1.00  0.00     0.148 A 
ATOM     89  C   UNL A   1      46.037  39.642  39.864  1.00  0.00     0.002 A 
ATOM     90  C   UNL A   1      47.335  37.609  40.098  1.00  0.00     0.091 A 
ATOM     91  F   UNL A   1      46.577  35.617  39.021  1.00  0.00    -0.205 F 
ATOM     92  C   UNL A   1      47.158  38.977  40.353  1.00  0.00     0.022 A 
BRANCH  90  93
ATOM     93  S   UNL A   1      48.746  36.812  40.871  1.00  0.00     0.127 S 
ATOM     94  O   UNL A   1      48.116  35.689  41.561  1.00  0.00    -0.237 OA
ATOM     95  O   UNL A   1      49.556  36.445  39.708  1.00  0.00    -0.237 OA
ATOM     96  O   UNL A   1      49.349  37.820  41.731  1.00  0.00    -0.744 OA
ENDBRANCH  90  93
ENDBRANCH  62  86
BRANCH  74  97
ATOM     97  C   UNL A   1      39.410  34.142  40.503  1.00  0.00     0.023 A 
ATOM     98  C   UNL A   1      38.433  35.021  41.008  1.00  0.00     0.012 A 
ATOM     99  C   UNL A   1      39.689  32.946  41.195  1.00  0.00     0.148 A 
ATOM    100  C   UNL A   1      37.767  34.731  42.199  1.00  0.00     0.002 A 
ATOM    101  C   UNL A   1      38.983  32.637  42.352  1.00  0.00     0.091 A 
ATOM    102  F   UNL A   1      40.633  32.129  40.706  1.00  0.00    -0.205 F 
ATOM    103  C   UNL A   1      38.032  33.535  42.863  1.00  0.00     0.022 A 
BRANCH 101 104
ATOM    104  S   UNL A   1      39.186  31.076  43.218  1.00  0.00     0.127 S 
ATOM    105  O   UNL A   1      38.734  30.117  42.212  1.00  0.00    -0.237 OA
ATOM    106  O   UNL A   1      40.625  31.053  43.480  1.00  0.00    -0.237 OA
ATOM    107  O   UNL A   1      38.356  31.167  44.412  1.00  0.00    -0.744 OA
ENDBRANCH 101 104
ENDBRANCH  74  97
ENDBRANCH  48  49
ENDBRANCH  41  43
ENDBRANCH  40  41
ENDBRANCH  39  40
ENDBRANCH  38  39
ENDBRANCH  37  38
ENDBRANCH  36  37
ENDBRANCH  35  36
ENDBRANCH  34  35
ENDBRANCH   1  34
TORSDOF 27
ENDMDL
MODEL 3
REMARK VINA RESULT:      -7.2      5.603     12.093
REMARK SMILES O=C(N/N=C/c1ccc(C(=O)OCCOCCOCCOCCOC(=O)c2ccc(-c3c4nc(c(-c5cccc(S(=O)(=O)[O-])c5F)c5ccc([nH]5)c(-c5cccc(S(=O)(=O)[O-])c5F)c5nc(c(-c6cccc(S(=O)(=O)[O-])c6F)c6ccc3[nH]6)C=C5)C=C4)cc2)cc1)C(=O)Nc1ccc2c(c1)OCO2
REMARK SMILES IDX 17 1 16 2 15 3 14 4 13 5 12 6 10 7 11 8 9 9 6 10 7 11 91 12
REMARK SMILES IDX 8 13 90 14 5 15 4 16 3 17 1 18 2 19 92 21 93 22 94 23 95 25
REMARK SMILES IDX 96 26 100 27 97 28 99 29 98 30 101 31 103 32 102 33 18 34
REMARK SMILES IDX 19 35 20 36 21 37 22 38 23 39 24 40 25 41 26 42 27 43 28 44
REMARK SMILES IDX 89 45 29 46 88 47 30 48 31 49 32 50 82 51 33 52 87 53 81 54
REMARK SMILES IDX 83 55 34 56 86 57 80 58 79 59 35 61 67 62 47 63 66 64 48 65
REMARK SMILES IDX 51 66 65 67 84 68 49 69 50 70 64 72 85 73 52 74 36 75 37 76
REMARK SMILES IDX 45 77 38 78 40 79 46 80 39 81 41 82 42 83 43 84 44 85 68 86
REMARK SMILES IDX 69 87 77 88 70 89 72 90 78 91 71 92 73 93 74 94 75 95 76 96
REMARK SMILES IDX 53 97 54 98 62 99 55 100 57 101 63 102 56 103 58 104 59 105
REMARK SMILES IDX 60 106 61 107
REMARK H PARENT 3 20 94 24 83 60 51 71
REMARK Flexibility Score: inf
ROOT
ATOM      1  C   UNL A   1      51.537  27.964  27.204  1.00  0.00     0.188 C 
ENDROOT
BRANCH   1   2
ATOM      2  C   UNL A   1      52.215  29.347  27.262  1.00  0.00     0.188 C 
BRANCH   2   3
ATOM      3  O   UNL A   1      51.295  30.421  27.201  1.00  0.00    -0.376 OA
BRANCH   3   4
ATOM      4  C   UNL A   1      50.854  31.071  28.378  1.00  0.00     0.202 C 
BRANCH   4   5
ATOM      5  C   UNL A   1      50.649  30.332  29.712  1.00  0.00     0.261 C 
BRANCH   5   6
ATOM      6  O   UNL A   1      49.558  29.419  29.777  1.00  0.00    -0.460 OA
BRANCH   6   7
ATOM      7  C   UNL A   1      49.632  28.443  30.701  1.00  0.00     0.338 C 
ATOM      8  O   UNL A   1      50.189  28.491  31.783  1.00  0.00    -0.246 OA
BRANCH   7   9
ATOM      9  C   UNL A   1      48.729  27.350  30.283  1.00  0.00     0.060 A 
ATOM     10  C   UNL A   1      46.801  25.340  29.049  1.00  0.00    -0.005 A 
ATOM     11  C   UNL A   1      48.291  25.427  28.868  1.00  0.00     0.010 A 
ATOM     12  C   UNL A   1      46.635  26.143  30.320  1.00  0.00     0.010 A 
ATOM     13  C   UNL A   1      49.171  26.421  29.366  1.00  0.00     0.016 A 
ATOM     14  C   UNL A   1      47.509  27.118  30.869  1.00  0.00     0.016 A 
BRANCH  10  15
ATOM     15  C   UNL A   1      45.336  24.509  27.719  1.00  0.00     0.141 C 
ATOM     16  N   UNL A   1      45.241  23.441  26.856  1.00  0.00    -0.180 NA
BRANCH  16  17
ATOM     17  N   UNL A   1      44.366  23.654  25.848  1.00  0.00    -0.239 N 
ATOM     18  O   UNL A   1      42.943  22.865  24.265  1.00  0.00    -0.262 OA
ATOM     19  C   UNL A   1      43.654  22.629  25.241  1.00  0.00     0.329 C 
ATOM     20  H   UNL A   1      44.229  24.576  25.531  1.00  0.00     0.194 HD
BRANCH  19  21
ATOM     21  C   UNL A   1      43.643  21.194  25.840  1.00  0.00     0.315 C 
ATOM     22  O   UNL A   1      44.340  20.338  25.289  1.00  0.00    -0.263 OA
ATOM     23  N   UNL A   1      43.001  20.852  27.035  1.00  0.00    -0.318 N 
ATOM     24  H   UNL A   1      43.456  20.233  27.651  1.00  0.00     0.170 HD
BRANCH  23  25
ATOM     25  C   UNL A   1      41.738  21.351  27.401  1.00  0.00     0.045 A 
ATOM     26  C   UNL A   1      41.696  23.098  27.998  1.00  0.00     0.030 A 
ATOM     27  C   UNL A   1      40.304  20.634  26.516  1.00  0.00     0.076 A 
ATOM     28  C   UNL A   1      40.218  24.132  27.642  1.00  0.00     0.053 A 
ATOM     29  C   UNL A   1      38.949  21.744  26.044  1.00  0.00     0.167 A 
ATOM     30  C   UNL A   1      38.921  23.455  26.593  1.00  0.00     0.165 A 
ATOM     31  O   UNL A   1      37.941  21.614  25.147  1.00  0.00    -0.454 OA
ATOM     32  O   UNL A   1      37.872  24.039  25.976  1.00  0.00    -0.454 OA
ATOM     33  C   UNL A   1      37.498  23.015  24.974  1.00  0.00     0.468 C 
ENDBRANCH  23  25
ENDBRANCH  19  21
ENDBRANCH  16  17
ENDBRANCH  10  15
ENDBRANCH   7   9
ENDBRANCH   6   7
ENDBRANCH   5   6
ENDBRANCH   4   5
ENDBRANCH   3   4
ENDBRANCH   2   3
ENDBRANCH   1   2
BRANCH   1  34
ATOM     34  O   UNL A   1      50.404  27.879  26.361  1.00  0.00    -0.377 OA
BRANCH  34  35
ATOM     35  C   UNL A   1      50.386  26.903  25.320  1.00  0.00     0.188 C 
BRANCH  35  36
ATOM     36  C   UNL A   1      49.690  27.137  23.954  1.00  0.00     0.188 C 
BRANCH  36  37
ATOM     37  O   UNL A   1      48.450  26.465  23.775  1.00  0.00    -0.376 OA
BRANCH  37  38
ATOM     38  C   UNL A   1      47.691  26.174  24.936  1.00  0.00     0.202 C 
BRANCH  38  39
ATOM     39  C   UNL A   1      46.217  26.592  24.880  1.00  0.00     0.261 C 
BRANCH  39  40
ATOM     40  O   UNL A   1      45.842  27.646  25.777  1.00  0.00    -0.460 OA
BRANCH  40  41
ATOM     41  C   UNL A   1      44.553  27.680  26.184  1.00  0.00     0.338 C 
ATOM     42  O   UNL A   1      43.690  26.850  25.968  1.00  0.00    -0.246 OA
BRANCH  41  43
ATOM     43  C   UNL A   1      44.416  28.816  27.116  1.00  0.00     0.060 A 
ATOM     44  C   UNL A   1      43.601  29.898  26.758  1.00  0.00     0.016 A 
ATOM     45  C   UNL A   1      45.082  28.798  28.343  1.00  0.00     0.016 A 
ATOM     46  C   UNL A   1      43.480  30.989  27.617  1.00  0.00     0.010 A 
ATOM     47  C   UNL A   1      44.976  29.899  29.191  1.00  0.00     0.010 A 
ATOM     48  C   UNL A   1      44.206  31.014  28.815  1.00  0.00    -0.014 A 
BRANCH  48  49
ATOM     49  C   UNL A   1      44.347  32.281  29.567  1.00  0.00     0.031 A 
ATOM     50  C   UNL A   1      43.400  32.530  30.709  1.00  0.00     0.074 A 
ATOM     51  C   UNL A   1      45.275  33.195  29.239  1.00  0.00     0.049 A 
ATOM     52  N   UNL A   1      43.283  33.579  31.478  1.00  0.00    -0.248 NA
ATOM     53  C   UNL A   1      42.451  31.445  31.019  1.00  0.00     0.031 C 
ATOM     54  C   UNL A   1      46.258  33.059  28.168  1.00  0.00     0.029 A 
ATOM     55  N   UNL A   1      45.523  34.436  29.770  1.00  0.00    -0.354 N 
ATOM     56  C   UNL A   1      42.235  33.294  32.345  1.00  0.00     0.074 A 
ATOM     57  C   UNL A   1      41.736  31.983  31.995  1.00  0.00     0.031 C 
ATOM     58  C   UNL A   1      46.990  34.187  28.103  1.00  0.00     0.029 A 
ATOM     59  C   UNL A   1      46.507  35.131  29.109  1.00  0.00     0.049 A 
ATOM     60  H   UNL A   1      45.041  34.794  30.551  1.00  0.00     0.167 HD
ATOM     61  C   UNL A   1      41.739  34.048  33.353  1.00  0.00     0.034 A 
ATOM     62  C   UNL A   1      46.947  36.393  29.285  1.00  0.00     0.034 A 
ATOM     63  C   UNL A   1      42.236  35.350  33.698  1.00  0.00     0.049 A 
ATOM     64  C   UNL A   1      46.340  37.238  30.380  1.00  0.00     0.074 A 
ATOM     65  C   UNL A   1      41.824  36.188  34.719  1.00  0.00     0.029 A 
ATOM     66  N   UNL A   1      43.249  36.013  33.021  1.00  0.00    -0.354 N 
ATOM     67  N   UNL A   1      45.420  36.919  31.258  1.00  0.00    -0.248 NA
ATOM     68  C   UNL A   1      46.857  38.607  30.525  1.00  0.00     0.031 C 
ATOM     69  C   UNL A   1      42.565  37.371  34.637  1.00  0.00     0.029 A 
ATOM     70  C   UNL A   1      43.468  37.255  33.592  1.00  0.00     0.049 A 
ATOM     71  H   UNL A   1      43.741  35.653  32.248  1.00  0.00     0.167 HD
ATOM     72  C   UNL A   1      45.281  38.028  32.087  1.00  0.00     0.074 A 
ATOM     73  C   UNL A   1      46.221  39.023  31.611  1.00  0.00     0.031 C 
ATOM     74  C   UNL A   1      44.446  38.211  33.141  1.00  0.00     0.034 A 
BRANCH  61  75
ATOM     75  C   UNL A   1      40.605  33.468  34.157  1.00  0.00     0.023 A 
ATOM     76  C   UNL A   1      40.883  32.598  35.233  1.00  0.00     0.012 A 
ATOM     77  C   UNL A   1      39.268  33.794  33.862  1.00  0.00     0.148 A 
ATOM     78  C   UNL A   1      39.847  32.030  35.973  1.00  0.00     0.002 A 
ATOM     79  C   UNL A   1      38.243  33.261  34.634  1.00  0.00     0.091 A 
ATOM     80  F   UNL A   1      39.021  34.601  32.819  1.00  0.00    -0.205 F 
ATOM     81  C   UNL A   1      38.530  32.369  35.680  1.00  0.00     0.022 A 
BRANCH  79  82
ATOM     82  S   UNL A   1      36.519  33.698  34.386  1.00  0.00     0.127 S 
ATOM     83  O   UNL A   1      36.084  32.661  33.451  1.00  0.00    -0.237 OA
ATOM     84  O   UNL A   1      35.972  33.569  35.737  1.00  0.00    -0.237 OA
ATOM     85  O   UNL A   1      36.520  35.055  33.859  1.00  0.00    -0.744 OA
ENDBRANCH  79  82
ENDBRANCH  61  75
BRANCH  62  86
ATOM     86  C   UNL A   1      48.048  36.929  28.436  1.00  0.00     0.023 A 
ATOM     87  C   UNL A   1      47.739  37.519  27.195  1.00  0.00     0.012 A 
ATOM     88  C   UNL A   1      49.394  36.865  28.847  1.00  0.00     0.148 A 
ATOM     89  C   UNL A   1      48.750  38.005  26.364  1.00  0.00     0.002 A 
ATOM     90  C   UNL A   1      50.392  37.399  28.040  1.00  0.00     0.091 A 
ATOM     91  F   UNL A   1      49.670  36.286  30.025  1.00  0.00    -0.205 F 
ATOM     92  C   UNL A   1      50.074  37.953  26.791  1.00  0.00     0.022 A 
BRANCH  90  93
ATOM     93  S   UNL A   1      52.110  37.486  28.555  1.00  0.00     0.127 S 
ATOM     94  O   UNL A   1      51.986  37.947  29.936  1.00  0.00    -0.237 OA
ATOM     95  O   UNL A   1      52.537  36.094  28.405  1.00  0.00    -0.237 OA
ATOM     96  O   UNL A   1      52.753  38.415  27.638  1.00  0.00    -0.744 OA
ENDBRANCH  90  93
ENDBRANCH  62  86
BRANCH  74  97
ATOM     97  C   UNL A   1      44.542  39.513  33.897  1.00  0.00     0.023 A 
ATOM     98  C   UNL A   1      45.315  39.594  35.072  1.00  0.00     0.012 A 
ATOM     99  C   UNL A   1      43.929  40.677  33.391  1.00  0.00     0.148 A 
ATOM    100  C   UNL A   1      45.449  40.806  35.748  1.00  0.00     0.002 A 
ATOM    101  C   UNL A   1      44.110  41.892  34.041  1.00  0.00     0.091 A 
ATOM    102  F   UNL A   1      43.185  40.576  32.280  1.00  0.00    -0.205 F 
ATOM    103  C   UNL A   1      44.859  41.956  35.227  1.00  0.00     0.022 A 
BRANCH 101 104
ATOM    104  S   UNL A   1      43.473  43.440  33.389  1.00  0.00     0.127 S 
ATOM    105  O   UNL A   1      44.139  43.513  32.090  1.00  0.00    -0.237 OA
ATOM    106  O   UNL A   1      42.035  43.177  33.322  1.00  0.00    -0.237 OA
ATOM    107  O   UNL A   1      43.856  44.469  34.346  1.00  0.00    -0.744 OA
ENDBRANCH 101 104
ENDBRANCH  74  97
ENDBRANCH  48  49
ENDBRANCH  41  43
ENDBRANCH  40  41
ENDBRANCH  39  40
ENDBRANCH  38  39
ENDBRANCH  37  38
ENDBRANCH  36  37
ENDBRANCH  35  36
ENDBRANCH  34  35
ENDBRANCH   1  34
TORSDOF 27
ENDMDL
