MODEL 1
REMARK VINA RESULT:      -7.2      0.000      0.000
REMARK SMILES NS(=O)(=O)c1ccc(N2N=C(C(=O)OCCOCCOCCOCCOC(=O)c3ccc(-c4c5nc(c(-c6cccc(S(=O)(=O)[O-])c6F)c6ccc([nH]6)c(-c6cccc(S(=O)(=O)[O-])c6F)c6nc(c(-c7cccc(S(=O)(=O)[O-])c7F)c7ccc4[nH]7)C=C6)C=C5)cc3)C[C@H]2c2ccco2)cc1
REMARK SMILES IDX 20 1 19 2 18 3 17 4 16 5 15 6 14 7 12 8 13 9 11 10 9 11
REMARK SMILES IDX 10 12 93 13 92 14 8 15 5 16 6 17 100 18 7 19 99 20 2 21 3 22
REMARK SMILES IDX 4 23 1 24 94 27 95 28 98 29 96 30 97 31 21 32 22 33 23 34
REMARK SMILES IDX 24 35 25 36 26 37 27 38 28 39 29 40 30 41 91 42 31 43 90 44
REMARK SMILES IDX 32 45 33 46 34 47 84 48 35 49 89 50 83 51 85 52 36 53 88 54
REMARK SMILES IDX 82 55 81 56 37 58 69 59 49 60 68 61 50 62 53 63 67 64 86 65
REMARK SMILES IDX 51 66 52 67 66 69 87 70 54 71 38 72 39 73 47 74 40 75 42 76
REMARK SMILES IDX 48 77 41 78 43 79 44 80 45 81 46 82 70 83 71 84 79 85 72 86
REMARK SMILES IDX 74 87 80 88 73 89 75 90 76 91 77 92 78 93 55 94 56 95 64 96
REMARK SMILES IDX 57 97 59 98 65 99 58 100 60 101 61 102 62 103 63 104
REMARK H PARENT 1 25 1 26 85 57 53 68
REMARK Flexibility Score: inf
ROOT
ATOM      1  O   UNL A   1      53.351  28.316  23.382  1.00  0.00    -0.377 OA
ENDROOT
BRANCH   1   2
ATOM      2  C   UNL A   1      52.110  28.226  24.064  1.00  0.00     0.188 C 
BRANCH   2   3
ATOM      3  C   UNL A   1      51.390  26.883  23.853  1.00  0.00     0.188 C 
BRANCH   3   4
ATOM      4  O   UNL A   1      50.953  26.256  25.043  1.00  0.00    -0.376 OA
BRANCH   4   5
ATOM      5  C   UNL A   1      50.270  26.965  26.067  1.00  0.00     0.202 C 
BRANCH   5   6
ATOM      6  C   UNL A   1      48.753  27.229  26.141  1.00  0.00     0.261 C 
BRANCH   6   7
ATOM      7  O   UNL A   1      48.011  27.089  24.936  1.00  0.00    -0.459 OA
BRANCH   7   8
ATOM      8  C   UNL A   1      46.850  27.751  24.832  1.00  0.00     0.354 C 
ATOM      9  O   UNL A   1      46.552  28.641  24.062  1.00  0.00    -0.245 OA
BRANCH   8  10
ATOM     10  C   UNL A   1      45.873  27.054  25.744  1.00  0.00     0.148 C 
ATOM     11  N   UNL A   1      44.594  25.585  26.566  1.00  0.00    -0.254 N 
ATOM     12  N   UNL A   1      45.446  25.843  25.530  1.00  0.00    -0.169 NA
ATOM     13  C   UNL A   1      44.229  26.811  27.305  1.00  0.00     0.180 C 
ATOM     14  C   UNL A   1      45.465  27.680  27.043  1.00  0.00     0.101 C 
BRANCH  11  15
ATOM     15  C   UNL A   1      43.855  24.412  26.557  1.00  0.00     0.060 A 
ATOM     16  C   UNL A   1      42.270  22.085  26.599  1.00  0.00     0.082 A 
ATOM     17  C   UNL A   1      42.945  22.482  27.754  1.00  0.00     0.024 A 
ATOM     18  C   UNL A   1      42.424  22.802  25.413  1.00  0.00     0.024 A 
ATOM     19  C   UNL A   1      43.735  23.641  27.723  1.00  0.00     0.029 A 
ATOM     20  C   UNL A   1      43.222  23.947  25.398  1.00  0.00     0.029 A 
BRANCH  16  21
ATOM     21  S   UNL A   1      41.221  20.665  26.589  1.00  0.00     0.238 S 
ATOM     22  O   UNL A   1      41.970  19.535  26.067  1.00  0.00    -0.207 OA
ATOM     23  O   UNL A   1      39.937  21.045  26.069  1.00  0.00    -0.207 OA
BRANCH  21  24
ATOM     24  N   UNL A   1      40.978  20.300  28.211  1.00  0.00    -0.225 NA
ATOM     25  H   UNL A   1      41.738  20.693  28.766  1.00  0.00     0.137 HD
ATOM     26  H   UNL A   1      40.958  19.287  28.332  1.00  0.00     0.137 HD
ENDBRANCH  21  24
ENDBRANCH  16  21
ENDBRANCH  11  15
BRANCH  13  27
ATOM     27  C   UNL A   1      42.979  27.525  26.868  1.00  0.00     0.128 A 
ATOM     28  C   UNL A   1      41.635  27.323  27.115  1.00  0.00     0.048 A 
ATOM     29  O   UNL A   1      43.133  28.611  26.053  1.00  0.00    -0.467 OA
ATOM     30  C   UNL A   1      40.940  28.328  26.399  1.00  0.00     0.042 A 
ATOM     31  C   UNL A   1      41.898  29.100  25.789  1.00  0.00     0.195 A 
ENDBRANCH  13  27
ENDBRANCH   8  10
ENDBRANCH   7   8
ENDBRANCH   6   7
ENDBRANCH   5   6
ENDBRANCH   4   5
ENDBRANCH   3   4
ENDBRANCH   2   3
ENDBRANCH   1   2
BRANCH   1  32
ATOM     32  C   UNL A   1      54.495  27.711  23.984  1.00  0.00     0.188 C 
BRANCH  32  33
ATOM     33  C   UNL A   1      54.750  27.808  25.506  1.00  0.00     0.188 C 
BRANCH  33  34
ATOM     34  O   UNL A   1      55.498  28.949  25.915  1.00  0.00    -0.376 OA
BRANCH  34  35
ATOM     35  C   UNL A   1      55.071  29.646  27.076  1.00  0.00     0.202 C 
BRANCH  35  36
ATOM     36  C   UNL A   1      53.558  29.660  27.330  1.00  0.00     0.261 C 
BRANCH  36  37
ATOM     37  O   UNL A   1      52.827  30.667  26.615  1.00  0.00    -0.460 OA
BRANCH  37  38
ATOM     38  C   UNL A   1      52.445  31.752  27.323  1.00  0.00     0.338 C 
ATOM     39  O   UNL A   1      53.007  32.831  27.369  1.00  0.00    -0.246 OA
BRANCH  38  40
ATOM     40  C   UNL A   1      51.110  31.486  27.892  1.00  0.00     0.060 A 
ATOM     41  C   UNL A   1      50.122  30.971  27.046  1.00  0.00     0.016 A 
ATOM     42  C   UNL A   1      50.828  31.767  29.231  1.00  0.00     0.016 A 
ATOM     43  C   UNL A   1      48.825  30.799  27.523  1.00  0.00     0.010 A 
ATOM     44  C   UNL A   1      49.522  31.601  29.705  1.00  0.00     0.010 A 
ATOM     45  C   UNL A   1      48.507  31.166  28.837  1.00  0.00    -0.014 A 
BRANCH  45  46
ATOM     46  C   UNL A   1      47.078  31.257  29.222  1.00  0.00     0.031 A 
ATOM     47  C   UNL A   1      46.427  30.076  29.888  1.00  0.00     0.074 A 
ATOM     48  C   UNL A   1      46.381  32.391  29.033  1.00  0.00     0.049 A 
ATOM     49  N   UNL A   1      45.229  29.971  30.400  1.00  0.00    -0.248 NA
ATOM     50  C   UNL A   1      47.235  28.850  29.989  1.00  0.00     0.031 C 
ATOM     51  C   UNL A   1      46.889  33.593  28.377  1.00  0.00     0.029 A 
ATOM     52  N   UNL A   1      45.088  32.704  29.367  1.00  0.00    -0.354 N 
ATOM     53  C   UNL A   1      45.128  28.664  30.862  1.00  0.00     0.074 A 
ATOM     54  C   UNL A   1      46.380  28.008  30.549  1.00  0.00     0.031 C 
ATOM     55  C   UNL A   1      45.909  34.510  28.335  1.00  0.00     0.029 A 
ATOM     56  C   UNL A   1      44.703  33.955  28.950  1.00  0.00     0.049 A 
ATOM     57  H   UNL A   1      44.493  32.092  29.856  1.00  0.00     0.167 HD
ATOM     58  C   UNL A   1      44.097  28.065  31.505  1.00  0.00     0.034 A 
ATOM     59  C   UNL A   1      43.511  34.577  29.044  1.00  0.00     0.034 A 
ATOM     60  C   UNL A   1      42.856  28.720  31.820  1.00  0.00     0.049 A 
ATOM     61  C   UNL A   1      42.379  33.904  29.771  1.00  0.00     0.074 A 
ATOM     62  C   UNL A   1      41.774  28.223  32.525  1.00  0.00     0.029 A 
ATOM     63  N   UNL A   1      42.517  30.006  31.425  1.00  0.00    -0.354 N 
ATOM     64  N   UNL A   1      42.349  32.719  30.335  1.00  0.00    -0.248 NA
ATOM     65  C   UNL A   1      41.133  34.670  29.920  1.00  0.00     0.031 C 
ATOM     66  C   UNL A   1      40.765  29.192  32.518  1.00  0.00     0.029 A 
ATOM     67  C   UNL A   1      41.237  30.313  31.854  1.00  0.00     0.049 A 
ATOM     68  H   UNL A   1      43.102  30.612  30.915  1.00  0.00     0.167 HD
ATOM     69  C   UNL A   1      41.097  32.610  30.931  1.00  0.00     0.074 A 
ATOM     70  C   UNL A   1      40.407  33.858  30.675  1.00  0.00     0.031 C 
ATOM     71  C   UNL A   1      40.567  31.569  31.623  1.00  0.00     0.034 A 
BRANCH  58  72
ATOM     72  C   UNL A   1      44.279  26.624  31.909  1.00  0.00     0.023 A 
ATOM     73  C   UNL A   1      44.109  25.596  30.958  1.00  0.00     0.012 A 
ATOM     74  C   UNL A   1      44.630  26.289  33.230  1.00  0.00     0.148 A 
ATOM     75  C   UNL A   1      44.236  24.258  31.328  1.00  0.00     0.002 A 
ATOM     76  C   UNL A   1      44.805  24.955  33.580  1.00  0.00     0.091 A 
ATOM     77  F   UNL A   1      44.761  27.276  34.129  1.00  0.00    -0.205 F 
ATOM     78  C   UNL A   1      44.591  23.938  32.635  1.00  0.00     0.022 A 
BRANCH  76  79
ATOM     79  S   UNL A   1      45.344  24.453  35.217  1.00  0.00     0.127 S 
ATOM     80  O   UNL A   1      44.134  24.674  36.007  1.00  0.00    -0.237 OA
ATOM     81  O   UNL A   1      45.689  23.046  35.010  1.00  0.00    -0.237 OA
ATOM     82  O   UNL A   1      46.474  25.309  35.545  1.00  0.00    -0.744 OA
ENDBRANCH  76  79
ENDBRANCH  58  72
BRANCH  59  83
ATOM     83  C   UNL A   1      43.353  35.934  28.451  1.00  0.00     0.023 A 
ATOM     84  C   UNL A   1      42.724  36.092  27.201  1.00  0.00     0.012 A 
ATOM     85  C   UNL A   1      43.771  37.075  29.161  1.00  0.00     0.148 A 
ATOM     86  C   UNL A   1      42.531  37.365  26.661  1.00  0.00     0.002 A 
ATOM     87  C   UNL A   1      43.522  38.341  28.647  1.00  0.00     0.091 A 
ATOM     88  F   UNL A   1      44.379  36.898  30.343  1.00  0.00    -0.205 F 
ATOM     89  C   UNL A   1      42.916  38.488  27.390  1.00  0.00     0.022 A 
BRANCH  87  90
ATOM     90  S   UNL A   1      43.851  39.841  29.578  1.00  0.00     0.127 S 
ATOM     91  O   UNL A   1      43.019  40.817  28.878  1.00  0.00    -0.237 OA
ATOM     92  O   UNL A   1      43.380  39.471  30.912  1.00  0.00    -0.237 OA
ATOM     93  O   UNL A   1      45.288  40.059  29.485  1.00  0.00    -0.744 OA
ENDBRANCH  87  90
ENDBRANCH  59  83
BRANCH  71  94
ATOM     94  C   UNL A   1      39.182  31.742  32.194  1.00  0.00     0.023 A 
ATOM     95  C   UNL A   1      38.053  31.326  31.458  1.00  0.00     0.012 A 
ATOM     96  C   UNL A   1      39.003  32.265  33.490  1.00  0.00     0.148 A 
ATOM     97  C   UNL A   1      36.769  31.472  31.985  1.00  0.00     0.002 A 
ATOM     98  C   UNL A   1      37.725  32.357  34.030  1.00  0.00     0.091 A 
ATOM     99  F   UNL A   1      40.085  32.673  34.171  1.00  0.00    -0.205 F 
ATOM    100  C   UNL A   1      36.607  31.976  33.273  1.00  0.00     0.022 A 
BRANCH  98 101
ATOM    101  S   UNL A   1      37.433  32.900  35.718  1.00  0.00     0.127 S 
ATOM    102  O   UNL A   1      38.389  33.999  35.846  1.00  0.00    -0.237 OA
ATOM    103  O   UNL A   1      36.031  33.315  35.673  1.00  0.00    -0.237 OA
ATOM    104  O   UNL A   1      37.692  31.742  36.561  1.00  0.00    -0.744 OA
ENDBRANCH  98 101
ENDBRANCH  71  94
ENDBRANCH  45  46
ENDBRANCH  38  40
ENDBRANCH  37  38
ENDBRANCH  36  37
ENDBRANCH  35  36
ENDBRANCH  34  35
ENDBRANCH  33  34
ENDBRANCH  32  33
ENDBRANCH   1  32
TORSDOF 27
ENDMDL
MODEL 2
REMARK VINA RESULT:      -6.8      4.015     10.241
REMARK SMILES NS(=O)(=O)c1ccc(N2N=C(C(=O)OCCOCCOCCOCCOC(=O)c3ccc(-c4c5nc(c(-c6cccc(S(=O)(=O)[O-])c6F)c6ccc([nH]6)c(-c6cccc(S(=O)(=O)[O-])c6F)c6nc(c(-c7cccc(S(=O)(=O)[O-])c7F)c7ccc4[nH]7)C=C6)C=C5)cc3)C[C@H]2c2ccco2)cc1
REMARK SMILES IDX 20 1 19 2 18 3 17 4 16 5 15 6 14 7 12 8 13 9 11 10 9 11
REMARK SMILES IDX 10 12 93 13 92 14 8 15 5 16 6 17 100 18 7 19 99 20 2 21 3 22
REMARK SMILES IDX 4 23 1 24 94 27 95 28 98 29 96 30 97 31 21 32 22 33 23 34
REMARK SMILES IDX 24 35 25 36 26 37 27 38 28 39 29 40 30 41 91 42 31 43 90 44
REMARK SMILES IDX 32 45 33 46 34 47 84 48 35 49 89 50 83 51 85 52 36 53 88 54
REMARK SMILES IDX 82 55 81 56 37 58 69 59 49 60 68 61 50 62 53 63 67 64 86 65
REMARK SMILES IDX 51 66 52 67 66 69 87 70 54 71 38 72 39 73 47 74 40 75 42 76
REMARK SMILES IDX 48 77 41 78 43 79 44 80 45 81 46 82 70 83 71 84 79 85 72 86
REMARK SMILES IDX 74 87 80 88 73 89 75 90 76 91 77 92 78 93 55 94 56 95 64 96
REMARK SMILES IDX 57 97 59 98 65 99 58 100 60 101 61 102 62 103 63 104
REMARK H PARENT 1 25 1 26 85 57 53 68
REMARK Flexibility Score: inf
ROOT
ATOM      1  O   UNL A   1      48.316  26.313  26.390  1.00  0.00    -0.377 OA
ENDROOT
BRANCH   1   2
ATOM      2  C   UNL A   1      47.750  27.610  26.487  1.00  0.00     0.188 C 
BRANCH   2   3
ATOM      3  C   UNL A   1      46.878  27.991  25.278  1.00  0.00     0.188 C 
BRANCH   3   4
ATOM      4  O   UNL A   1      46.561  29.367  25.192  1.00  0.00    -0.376 OA
BRANCH   4   5
ATOM      5  C   UNL A   1      46.334  30.166  26.345  1.00  0.00     0.202 C 
BRANCH   5   6
ATOM      6  C   UNL A   1      45.414  31.400  26.436  1.00  0.00     0.261 C 
BRANCH   6   7
ATOM      7  O   UNL A   1      45.878  32.500  27.208  1.00  0.00    -0.459 OA
BRANCH   7   8
ATOM      8  C   UNL A   1      46.128  33.653  26.574  1.00  0.00     0.354 C 
ATOM      9  O   UNL A   1      46.947  33.879  25.706  1.00  0.00    -0.245 OA
BRANCH   8  10
ATOM     10  C   UNL A   1      45.057  34.623  27.004  1.00  0.00     0.148 C 
ATOM     11  N   UNL A   1      44.098  36.302  27.859  1.00  0.00    -0.254 N 
ATOM     12  N   UNL A   1      45.315  35.711  27.671  1.00  0.00    -0.169 NA
ATOM     13  C   UNL A   1      42.980  35.383  27.560  1.00  0.00     0.180 C 
ATOM     14  C   UNL A   1      43.643  34.452  26.537  1.00  0.00     0.101 C 
BRANCH  11  15
ATOM     15  C   UNL A   1      44.010  37.424  28.668  1.00  0.00     0.060 A 
ATOM     16  C   UNL A   1      43.934  39.743  30.264  1.00  0.00     0.082 A 
ATOM     17  C   UNL A   1      44.799  38.701  30.600  1.00  0.00     0.024 A 
ATOM     18  C   UNL A   1      43.067  39.615  29.178  1.00  0.00     0.024 A 
ATOM     19  C   UNL A   1      44.828  37.548  29.801  1.00  0.00     0.029 A 
ATOM     20  C   UNL A   1      43.103  38.456  28.400  1.00  0.00     0.029 A 
BRANCH  16  21
ATOM     21  S   UNL A   1      43.886  41.238  31.200  1.00  0.00     0.238 S 
ATOM     22  O   UNL A   1      45.248  41.678  31.449  1.00  0.00    -0.207 OA
ATOM     23  O   UNL A   1      42.919  41.092  32.252  1.00  0.00    -0.207 OA
BRANCH  21  24
ATOM     24  N   UNL A   1      43.258  42.385  30.145  1.00  0.00    -0.225 NA
ATOM     25  H   UNL A   1      43.859  43.210  30.142  1.00  0.00     0.137 HD
ATOM     26  H   UNL A   1      42.320  42.649  30.449  1.00  0.00     0.137 HD
ENDBRANCH  21  24
ENDBRANCH  16  21
ENDBRANCH  11  15
BRANCH  13  27
ATOM     27  C   UNL A   1      42.422  34.591  28.710  1.00  0.00     0.128 A 
ATOM     28  C   UNL A   1      41.340  34.771  29.551  1.00  0.00     0.048 A 
ATOM     29  O   UNL A   1      43.072  33.437  29.048  1.00  0.00    -0.467 OA
ATOM     30  C   UNL A   1      41.348  33.681  30.454  1.00  0.00     0.042 A 
ATOM     31  C   UNL A   1      42.407  32.886  30.091  1.00  0.00     0.195 A 
ENDBRANCH  13  27
ENDBRANCH   8  10
ENDBRANCH   7   8
ENDBRANCH   6   7
ENDBRANCH   5   6
ENDBRANCH   4   5
ENDBRANCH   3   4
ENDBRANCH   2   3
ENDBRANCH   1   2
BRANCH   1  32
ATOM     32  C   UNL A   1      47.985  25.357  27.398  1.00  0.00     0.188 C 
BRANCH  32  33
ATOM     33  C   UNL A   1      46.525  24.899  27.623  1.00  0.00     0.188 C 
BRANCH  33  34
ATOM     34  O   UNL A   1      46.310  23.499  27.481  1.00  0.00    -0.376 OA
BRANCH  34  35
ATOM     35  C   UNL A   1      46.315  22.952  26.171  1.00  0.00     0.202 C 
BRANCH  35  36
ATOM     36  C   UNL A   1      45.016  22.265  25.726  1.00  0.00     0.261 C 
BRANCH  36  37
ATOM     37  O   UNL A   1      43.811  22.979  26.036  1.00  0.00    -0.460 OA
BRANCH  37  38
ATOM     38  C   UNL A   1      43.643  24.172  25.425  1.00  0.00     0.338 C 
ATOM     39  O   UNL A   1      43.887  24.439  24.262  1.00  0.00    -0.246 OA
BRANCH  38  40
ATOM     40  C   UNL A   1      42.921  25.068  26.349  1.00  0.00     0.060 A 
ATOM     41  C   UNL A   1      43.175  26.442  26.269  1.00  0.00     0.016 A 
ATOM     42  C   UNL A   1      42.032  24.560  27.299  1.00  0.00     0.016 A 
ATOM     43  C   UNL A   1      42.588  27.308  27.188  1.00  0.00     0.010 A 
ATOM     44  C   UNL A   1      41.451  25.431  28.226  1.00  0.00     0.010 A 
ATOM     45  C   UNL A   1      41.768  26.800  28.205  1.00  0.00    -0.014 A 
BRANCH  45  46
ATOM     46  C   UNL A   1      41.405  27.689  29.334  1.00  0.00     0.031 A 
ATOM     47  C   UNL A   1      40.092  28.421  29.291  1.00  0.00     0.074 A 
ATOM     48  C   UNL A   1      42.204  27.804  30.409  1.00  0.00     0.049 A 
ATOM     49  N   UNL A   1      39.528  29.164  30.207  1.00  0.00    -0.248 NA
ATOM     50  C   UNL A   1      39.313  28.301  28.048  1.00  0.00     0.031 C 
ATOM     51  C   UNL A   1      43.510  27.168  30.560  1.00  0.00     0.029 A 
ATOM     52  N   UNL A   1      42.032  28.512  31.571  1.00  0.00    -0.354 N 
ATOM     53  C   UNL A   1      38.341  29.619  29.646  1.00  0.00     0.074 A 
ATOM     54  C   UNL A   1      38.278  29.087  28.301  1.00  0.00     0.031 C 
ATOM     55  C   UNL A   1      44.035  27.533  31.741  1.00  0.00     0.029 A 
ATOM     56  C   UNL A   1      43.107  28.436  32.422  1.00  0.00     0.049 A 
ATOM     57  H   UNL A   1      41.218  29.026  31.775  1.00  0.00     0.167 HD
ATOM     58  C   UNL A   1      37.379  30.394  30.201  1.00  0.00     0.034 A 
ATOM     59  C   UNL A   1      43.324  29.036  33.610  1.00  0.00     0.034 A 
ATOM     60  C   UNL A   1      37.440  30.917  31.540  1.00  0.00     0.049 A 
ATOM     61  C   UNL A   1      42.241  29.884  34.219  1.00  0.00     0.074 A 
ATOM     62  C   UNL A   1      36.490  31.658  32.219  1.00  0.00     0.029 A 
ATOM     63  N   UNL A   1      38.525  30.781  32.394  1.00  0.00    -0.354 N 
ATOM     64  N   UNL A   1      41.058  30.185  33.737  1.00  0.00    -0.248 NA
ATOM     65  C   UNL A   1      42.500  30.436  35.557  1.00  0.00     0.031 C 
ATOM     66  C   UNL A   1      37.017  32.006  33.468  1.00  0.00     0.029 A 
ATOM     67  C   UNL A   1      38.276  31.439  33.587  1.00  0.00     0.049 A 
ATOM     68  H   UNL A   1      39.350  30.286  32.183  1.00  0.00     0.167 HD
ATOM     69  C   UNL A   1      40.421  30.932  34.722  1.00  0.00     0.074 A 
ATOM     70  C   UNL A   1      41.343  31.021  35.836  1.00  0.00     0.031 C 
ATOM     71  C   UNL A   1      39.187  31.497  34.703  1.00  0.00     0.034 A 
BRANCH  58  72
ATOM     72  C   UNL A   1      36.176  30.718  29.352  1.00  0.00     0.023 A 
ATOM     73  C   UNL A   1      35.544  29.702  28.605  1.00  0.00     0.012 A 
ATOM     74  C   UNL A   1      35.665  32.029  29.303  1.00  0.00     0.148 A 
ATOM     75  C   UNL A   1      34.454  29.996  27.785  1.00  0.00     0.002 A 
ATOM     76  C   UNL A   1      34.548  32.304  28.523  1.00  0.00     0.091 A 
ATOM     77  F   UNL A   1      36.293  32.988  29.997  1.00  0.00    -0.205 F 
ATOM     78  C   UNL A   1      33.952  31.293  27.751  1.00  0.00     0.022 A 
BRANCH  76  79
ATOM     79  S   UNL A   1      33.780  33.926  28.482  1.00  0.00     0.127 S 
ATOM     80  O   UNL A   1      33.579  34.194  29.904  1.00  0.00    -0.237 OA
ATOM     81  O   UNL A   1      34.816  34.742  27.848  1.00  0.00    -0.237 OA
ATOM     82  O   UNL A   1      32.566  33.773  27.693  1.00  0.00    -0.744 OA
ENDBRANCH  76  79
ENDBRANCH  58  72
BRANCH  59  83
ATOM     83  C   UNL A   1      44.621  28.817  34.307  1.00  0.00     0.023 A 
ATOM     84  C   UNL A   1      44.775  27.735  35.195  1.00  0.00     0.012 A 
ATOM     85  C   UNL A   1      45.724  29.650  34.037  1.00  0.00     0.148 A 
ATOM     86  C   UNL A   1      46.003  27.497  35.816  1.00  0.00     0.002 A 
ATOM     87  C   UNL A   1      46.958  29.372  34.610  1.00  0.00     0.091 A 
ATOM     88  F   UNL A   1      45.548  30.681  33.199  1.00  0.00    -0.205 F 
ATOM     89  C   UNL A   1      47.096  28.306  35.513  1.00  0.00     0.022 A 
BRANCH  87  90
ATOM     90  S   UNL A   1      48.450  30.269  34.168  1.00  0.00     0.127 S 
ATOM     91  O   UNL A   1      48.008  31.030  33.003  1.00  0.00    -0.237 OA
ATOM     92  O   UNL A   1      48.684  31.064  35.373  1.00  0.00    -0.237 OA
ATOM     93  O   UNL A   1      49.462  29.254  33.910  1.00  0.00    -0.744 OA
ENDBRANCH  87  90
ENDBRANCH  59  83
BRANCH  71  94
ATOM     94  C   UNL A   1      38.735  32.232  35.940  1.00  0.00     0.023 A 
ATOM     95  C   UNL A   1      38.979  33.614  36.074  1.00  0.00     0.012 A 
ATOM     96  C   UNL A   1      38.013  31.561  36.948  1.00  0.00     0.148 A 
ATOM     97  C   UNL A   1      38.554  34.304  37.211  1.00  0.00     0.002 A 
ATOM     98  C   UNL A   1      37.545  32.265  38.051  1.00  0.00     0.091 A 
ATOM     99  F   UNL A   1      37.804  30.242  36.815  1.00  0.00    -0.205 F 
ATOM    100  C   UNL A   1      37.828  33.632  38.192  1.00  0.00     0.022 A 
BRANCH  98 101
ATOM    101  S   UNL A   1      36.517  31.501  39.312  1.00  0.00     0.127 S 
ATOM    102  O   UNL A   1      37.340  31.671  40.509  1.00  0.00    -0.237 OA
ATOM    103  O   UNL A   1      35.314  32.332  39.277  1.00  0.00    -0.237 OA
ATOM    104  O   UNL A   1      36.313  30.125  38.881  1.00  0.00    -0.744 OA
ENDBRANCH  98 101
ENDBRANCH  71  94
ENDBRANCH  45  46
ENDBRANCH  38  40
ENDBRANCH  37  38
ENDBRANCH  36  37
ENDBRANCH  35  36
ENDBRANCH  34  35
ENDBRANCH  33  34
ENDBRANCH  32  33
ENDBRANCH   1  32
TORSDOF 27
ENDMDL
MODEL 3
REMARK VINA RESULT:      -6.6      3.903      9.529
REMARK SMILES NS(=O)(=O)c1ccc(N2N=C(C(=O)OCCOCCOCCOCCOC(=O)c3ccc(-c4c5nc(c(-c6cccc(S(=O)(=O)[O-])c6F)c6ccc([nH]6)c(-c6cccc(S(=O)(=O)[O-])c6F)c6nc(c(-c7cccc(S(=O)(=O)[O-])c7F)c7ccc4[nH]7)C=C6)C=C5)cc3)C[C@H]2c2ccco2)cc1
REMARK SMILES IDX 20 1 19 2 18 3 17 4 16 5 15 6 14 7 12 8 13 9 11 10 9 11
REMARK SMILES IDX 10 12 93 13 92 14 8 15 5 16 6 17 100 18 7 19 99 20 2 21 3 22
REMARK SMILES IDX 4 23 1 24 94 27 95 28 98 29 96 30 97 31 21 32 22 33 23 34
REMARK SMILES IDX 24 35 25 36 26 37 27 38 28 39 29 40 30 41 91 42 31 43 90 44
REMARK SMILES IDX 32 45 33 46 34 47 84 48 35 49 89 50 83 51 85 52 36 53 88 54
REMARK SMILES IDX 82 55 81 56 37 58 69 59 49 60 68 61 50 62 53 63 67 64 86 65
REMARK SMILES IDX 51 66 52 67 66 69 87 70 54 71 38 72 39 73 47 74 40 75 42 76
REMARK SMILES IDX 48 77 41 78 43 79 44 80 45 81 46 82 70 83 71 84 79 85 72 86
REMARK SMILES IDX 74 87 80 88 73 89 75 90 76 91 77 92 78 93 55 94 56 95 64 96
REMARK SMILES IDX 57 97 59 98 65 99 58 100 60 101 61 102 62 103 63 104
REMARK H PARENT 1 25 1 26 85 57 53 68
REMARK Flexibility Score: inf
ROOT
ATOM      1  O   UNL A   1      50.183  27.144  25.229  1.00  0.00    -0.377 OA
ENDROOT
BRANCH   1   2
ATOM      2  C   UNL A   1      49.377  25.979  25.204  1.00  0.00     0.188 C 
BRANCH   2   3
ATOM      3  C   UNL A   1      48.191  26.072  24.229  1.00  0.00     0.188 C 
BRANCH   3   4
ATOM      4  O   UNL A   1      47.299  24.975  24.279  1.00  0.00    -0.376 OA
BRANCH   4   5
ATOM      5  C   UNL A   1      46.211  24.924  25.191  1.00  0.00     0.202 C 
BRANCH   5   6
ATOM      6  C   UNL A   1      46.230  24.307  26.604  1.00  0.00     0.261 C 
BRANCH   6   7
ATOM      7  O   UNL A   1      45.798  25.133  27.678  1.00  0.00    -0.459 OA
BRANCH   7   8
ATOM      8  C   UNL A   1      44.486  25.173  27.952  1.00  0.00     0.354 C 
ATOM      9  O   UNL A   1      43.787  24.306  28.437  1.00  0.00    -0.245 OA
BRANCH   8  10
ATOM     10  C   UNL A   1      44.040  26.593  27.718  1.00  0.00     0.148 C 
ATOM     11  N   UNL A   1      44.076  28.657  27.259  1.00  0.00    -0.254 N 
ATOM     12  N   UNL A   1      44.859  27.544  27.372  1.00  0.00    -0.169 NA
ATOM     13  C   UNL A   1      42.741  28.462  27.863  1.00  0.00     0.180 C 
ATOM     14  C   UNL A   1      42.582  26.943  27.719  1.00  0.00     0.101 C 
BRANCH  11  15
ATOM     15  C   UNL A   1      44.676  29.886  27.036  1.00  0.00     0.060 A 
ATOM     16  C   UNL A   1      45.898  32.358  26.468  1.00  0.00     0.082 A 
ATOM     17  C   UNL A   1      46.660  31.190  26.446  1.00  0.00     0.024 A 
ATOM     18  C   UNL A   1      44.551  32.313  26.827  1.00  0.00     0.024 A 
ATOM     19  C   UNL A   1      46.044  29.963  26.733  1.00  0.00     0.029 A 
ATOM     20  C   UNL A   1      43.956  31.084  27.120  1.00  0.00     0.029 A 
BRANCH  16  21
ATOM     21  S   UNL A   1      46.604  33.925  26.067  1.00  0.00     0.238 S 
ATOM     22  O   UNL A   1      45.805  34.546  25.024  1.00  0.00    -0.207 OA
ATOM     23  O   UNL A   1      48.028  33.775  25.959  1.00  0.00    -0.207 OA
BRANCH  21  24
ATOM     24  N   UNL A   1      46.338  34.876  27.426  1.00  0.00    -0.225 NA
ATOM     25  H   UNL A   1      47.196  34.932  27.976  1.00  0.00     0.137 HD
ATOM     26  H   UNL A   1      45.598  34.461  27.992  1.00  0.00     0.137 HD
ENDBRANCH  21  24
ENDBRANCH  16  21
ENDBRANCH  11  15
BRANCH  13  27
ATOM     27  C   UNL A   1      42.576  28.875  29.299  1.00  0.00     0.128 A 
ATOM     28  C   UNL A   1      42.277  30.077  29.913  1.00  0.00     0.048 A 
ATOM     29  O   UNL A   1      42.741  27.909  30.252  1.00  0.00    -0.467 OA
ATOM     30  C   UNL A   1      42.280  29.828  31.307  1.00  0.00     0.042 A 
ATOM     31  C   UNL A   1      42.543  28.489  31.459  1.00  0.00     0.195 A 
ENDBRANCH  13  27
ENDBRANCH   8  10
ENDBRANCH   7   8
ENDBRANCH   6   7
ENDBRANCH   5   6
ENDBRANCH   4   5
ENDBRANCH   3   4
ENDBRANCH   2   3
ENDBRANCH   1   2
BRANCH   1  32
ATOM     32  C   UNL A   1      51.379  27.120  26.008  1.00  0.00     0.188 C 
BRANCH  32  33
ATOM     33  C   UNL A   1      51.333  27.117  27.553  1.00  0.00     0.188 C 
BRANCH  33  34
ATOM     34  O   UNL A   1      51.455  25.832  28.153  1.00  0.00    -0.376 OA
BRANCH  34  35
ATOM     35  C   UNL A   1      50.305  25.270  28.769  1.00  0.00     0.202 C 
BRANCH  35  36
ATOM     36  C   UNL A   1      50.384  25.083  30.290  1.00  0.00     0.261 C 
BRANCH  36  37
ATOM     37  O   UNL A   1      50.220  26.281  31.062  1.00  0.00    -0.460 OA
BRANCH  37  38
ATOM     38  C   UNL A   1      48.952  26.713  31.242  1.00  0.00     0.338 C 
ATOM     39  O   UNL A   1      48.041  26.105  31.772  1.00  0.00    -0.246 OA
BRANCH  38  40
ATOM     40  C   UNL A   1      48.891  28.138  30.862  1.00  0.00     0.060 A 
ATOM     41  C   UNL A   1      49.186  29.095  31.839  1.00  0.00     0.016 A 
ATOM     42  C   UNL A   1      48.519  28.525  29.572  1.00  0.00     0.016 A 
ATOM     43  C   UNL A   1      49.043  30.449  31.545  1.00  0.00     0.010 A 
ATOM     44  C   UNL A   1      48.369  29.885  29.283  1.00  0.00     0.010 A 
ATOM     45  C   UNL A   1      48.581  30.848  30.284  1.00  0.00    -0.014 A 
BRANCH  45  46
ATOM     46  C   UNL A   1      48.155  32.255  30.097  1.00  0.00     0.031 A 
ATOM     47  C   UNL A   1      49.118  33.231  29.481  1.00  0.00     0.074 A 
ATOM     48  C   UNL A   1      46.911  32.650  30.420  1.00  0.00     0.049 A 
ATOM     49  N   UNL A   1      48.925  34.476  29.131  1.00  0.00    -0.248 NA
ATOM     50  C   UNL A   1      50.482  32.738  29.227  1.00  0.00     0.031 C 
ATOM     51  C   UNL A   1      45.895  31.808  31.046  1.00  0.00     0.029 A 
ATOM     52  N   UNL A   1      46.301  33.871  30.274  1.00  0.00    -0.354 N 
ATOM     53  C   UNL A   1      50.145  34.923  28.638  1.00  0.00     0.074 A 
ATOM     54  C   UNL A   1      51.078  33.823  28.756  1.00  0.00     0.031 C 
ATOM     55  C   UNL A   1      44.791  32.544  31.253  1.00  0.00     0.029 A 
ATOM     56  C   UNL A   1      45.027  33.910  30.785  1.00  0.00     0.049 A 
ATOM     57  H   UNL A   1      46.736  34.643  29.846  1.00  0.00     0.167 HD
ATOM     58  C   UNL A   1      50.461  36.133  28.117  1.00  0.00     0.034 A 
ATOM     59  C   UNL A   1      44.155  34.934  30.874  1.00  0.00     0.034 A 
ATOM     60  C   UNL A   1      49.531  37.224  27.995  1.00  0.00     0.049 A 
ATOM     61  C   UNL A   1      44.515  36.268  30.280  1.00  0.00     0.074 A 
ATOM     62  C   UNL A   1      49.733  38.468  27.423  1.00  0.00     0.029 A 
ATOM     63  N   UNL A   1      48.232  37.214  28.479  1.00  0.00    -0.354 N 
ATOM     64  N   UNL A   1      45.625  36.633  29.682  1.00  0.00    -0.248 NA
ATOM     65  C   UNL A   1      43.488  37.318  30.328  1.00  0.00     0.031 C 
ATOM     66  C   UNL A   1      48.569  39.224  27.600  1.00  0.00     0.029 A 
ATOM     67  C   UNL A   1      47.624  38.435  28.237  1.00  0.00     0.049 A 
ATOM     68  H   UNL A   1      47.803  36.450  28.928  1.00  0.00     0.167 HD
ATOM     69  C   UNL A   1      45.419  37.940  29.255  1.00  0.00     0.074 A 
ATOM     70  C   UNL A   1      44.070  38.296  29.647  1.00  0.00     0.031 C 
ATOM     71  C   UNL A   1      46.271  38.771  28.602  1.00  0.00     0.034 A 
BRANCH  58  72
ATOM     72  C   UNL A   1      51.877  36.332  27.638  1.00  0.00     0.023 A 
ATOM     73  C   UNL A   1      52.860  36.822  28.523  1.00  0.00     0.012 A 
ATOM     74  C   UNL A   1      52.236  36.021  26.313  1.00  0.00     0.148 A 
ATOM     75  C   UNL A   1      54.164  37.046  28.083  1.00  0.00     0.002 A 
ATOM     76  C   UNL A   1      53.549  36.199  25.895  1.00  0.00     0.091 A 
ATOM     77  F   UNL A   1      51.284  35.582  25.477  1.00  0.00    -0.205 F 
ATOM     78  C   UNL A   1      54.510  36.727  26.774  1.00  0.00     0.022 A 
BRANCH  76  79
ATOM     79  S   UNL A   1      54.107  35.738  24.252  1.00  0.00     0.127 S 
ATOM     80  O   UNL A   1      53.614  34.366  24.148  1.00  0.00    -0.237 OA
ATOM     81  O   UNL A   1      53.405  36.704  23.406  1.00  0.00    -0.237 OA
ATOM     82  O   UNL A   1      55.555  35.887  24.266  1.00  0.00    -0.744 OA
ENDBRANCH  76  79
ENDBRANCH  58  72
BRANCH  59  83
ATOM     83  C   UNL A   1      42.839  34.709  31.533  1.00  0.00     0.023 A 
ATOM     84  C   UNL A   1      42.665  35.026  32.894  1.00  0.00     0.012 A 
ATOM     85  C   UNL A   1      41.740  34.239  30.789  1.00  0.00     0.148 A 
ATOM     86  C   UNL A   1      41.420  34.861  33.506  1.00  0.00     0.002 A 
ATOM     87  C   UNL A   1      40.491  34.135  31.387  1.00  0.00     0.091 A 
ATOM     88  F   UNL A   1      41.935  33.932  29.498  1.00  0.00    -0.205 F 
ATOM     89  C   UNL A   1      40.332  34.430  32.750  1.00  0.00     0.022 A 
BRANCH  87  90
ATOM     90  S   UNL A   1      39.008  33.729  30.458  1.00  0.00     0.127 S 
ATOM     91  O   UNL A   1      38.968  34.805  29.472  1.00  0.00    -0.237 OA
ATOM     92  O   UNL A   1      39.348  32.411  29.922  1.00  0.00    -0.237 OA
ATOM     93  O   UNL A   1      37.922  33.722  31.428  1.00  0.00    -0.744 OA
ENDBRANCH  87  90
ENDBRANCH  59  83
BRANCH  71  94
ATOM     94  C   UNL A   1      45.762  40.142  28.228  1.00  0.00     0.023 A 
ATOM     95  C   UNL A   1      45.881  41.215  29.134  1.00  0.00     0.012 A 
ATOM     96  C   UNL A   1      45.217  40.378  26.950  1.00  0.00     0.148 A 
ATOM     97  C   UNL A   1      45.423  42.488  28.791  1.00  0.00     0.002 A 
ATOM     98  C   UNL A   1      44.814  41.660  26.595  1.00  0.00     0.091 A 
ATOM     99  F   UNL A   1      45.093  39.343  26.106  1.00  0.00    -0.205 F 
ATOM    100  C   UNL A   1      44.901  42.712  27.519  1.00  0.00     0.022 A 
BRANCH  98 101
ATOM    101  S   UNL A   1      44.223  42.058  24.945  1.00  0.00     0.127 S 
ATOM    102  O   UNL A   1      45.346  41.626  24.114  1.00  0.00    -0.237 OA
ATOM    103  O   UNL A   1      43.027  41.223  24.834  1.00  0.00    -0.237 OA
ATOM    104  O   UNL A   1      43.960  43.490  24.950  1.00  0.00    -0.744 OA
ENDBRANCH  98 101
ENDBRANCH  71  94
ENDBRANCH  45  46
ENDBRANCH  38  40
ENDBRANCH  37  38
ENDBRANCH  36  37
ENDBRANCH  35  36
ENDBRANCH  34  35
ENDBRANCH  33  34
ENDBRANCH  32  33
ENDBRANCH   1  32
TORSDOF 27
ENDMDL
