MODEL 1
REMARK VINA RESULT:      -8.6      0.000      0.000
REMARK SMILES C#CCN(CC(=O)OCCOCCOCCOCCOC(=O)c1ccc(-c2c3nc(c(-c4cccc(S(=O)(=O)[O-])c4F)c4ccc([nH]4)c(-c4cccc(S(=O)(=O)[O-])c4F)c4nc(c(-c5cccc(S(=O)(=O)[O-])c5F)c5ccc2[nH]5)C=C4)C=C3)cc1)C(=O)N[C@@H](C)CCCC
REMARK SMILES IDX 12 1 11 2 10 3 9 4 8 5 6 6 7 7 5 8 4 9 3 10 2 11 1 12 86 13
REMARK SMILES IDX 87 14 88 15 89 17 90 18 91 19 92 20 93 21 94 22 13 23 14 24
REMARK SMILES IDX 15 25 16 26 17 27 18 28 19 29 20 30 21 31 22 32 23 33 24 34
REMARK SMILES IDX 85 35 25 36 84 37 26 38 27 39 28 40 78 41 29 42 83 43 77 44
REMARK SMILES IDX 79 45 30 46 82 47 76 48 75 49 31 51 63 52 43 53 62 54 44 55
REMARK SMILES IDX 47 56 61 57 80 58 45 59 46 60 60 62 81 63 48 64 32 65 33 66
REMARK SMILES IDX 41 67 34 68 36 69 42 70 35 71 37 72 38 73 39 74 40 75 64 76
REMARK SMILES IDX 65 77 73 78 66 79 68 80 74 81 67 82 69 83 70 84 71 85 72 86
REMARK SMILES IDX 49 87 50 88 58 89 51 90 53 91 59 92 52 93 54 94 55 95 56 96
REMARK SMILES IDX 57 97
REMARK H PARENT 88 16 79 50 47 61
REMARK Flexibility Score: inf
ROOT
ATOM      1  C   UNL A   1      40.546  20.882  26.388  1.00  0.00     0.188 C 
ENDROOT
BRANCH   1   2
ATOM      2  O   UNL A   1      39.584  21.871  26.673  1.00  0.00    -0.376 OA
BRANCH   2   3
ATOM      3  C   UNL A   1      38.519  22.021  25.736  1.00  0.00     0.202 C 
BRANCH   3   4
ATOM      4  C   UNL A   1      37.407  23.073  26.003  1.00  0.00     0.261 C 
BRANCH   4   5
ATOM      5  O   UNL A   1      36.046  22.579  26.201  1.00  0.00    -0.462 OA
BRANCH   5   6
ATOM      6  C   UNL A   1      35.010  23.407  25.932  1.00  0.00     0.325 C 
ATOM      7  O   UNL A   1      35.148  24.441  25.281  1.00  0.00    -0.250 OA
BRANCH   6   8
ATOM      8  C   UNL A   1      33.647  23.007  26.605  1.00  0.00     0.245 C 
BRANCH   8   9
ATOM      9  N   UNL A   1      32.243  23.257  26.128  1.00  0.00    -0.303 N 
BRANCH   9  10
ATOM     10  C   UNL A   1      31.394  22.045  25.741  1.00  0.00     0.211 C 
BRANCH  10  11
ATOM     11  C   UNL A   1      31.977  21.361  24.515  1.00  0.00    -0.085 C 
ATOM     12  C   UNL A   1      32.478  20.775  23.464  1.00  0.00     0.006 C 
ENDBRANCH  10  11
ENDBRANCH   9  10
BRANCH   9  13
ATOM     13  C   UNL A   1      31.565  24.456  26.093  1.00  0.00     0.318 C 
ATOM     14  O   UNL A   1      30.754  24.763  26.978  1.00  0.00    -0.249 OA
ATOM     15  N   UNL A   1      31.638  25.415  25.156  1.00  0.00    -0.336 N 
ATOM     16  H   UNL A   1      31.069  26.166  25.440  1.00  0.00     0.165 HD
BRANCH  15  17
ATOM     17  C   UNL A   1      32.246  25.764  23.867  1.00  0.00     0.080 C 
ATOM     18  C   UNL A   1      31.520  25.037  22.712  1.00  0.00     0.031 C 
BRANCH  17  19
ATOM     19  C   UNL A   1      32.086  27.271  23.551  1.00  0.00     0.024 C 
BRANCH  19  20
ATOM     20  C   UNL A   1      30.992  28.048  24.277  1.00  0.00     0.002 C 
BRANCH  20  21
ATOM     21  C   UNL A   1      31.430  29.293  25.032  1.00  0.00    -0.003 C 
ATOM     22  C   UNL A   1      32.919  29.585  24.950  1.00  0.00     0.004 C 
ENDBRANCH  20  21
ENDBRANCH  19  20
ENDBRANCH  17  19
ENDBRANCH  15  17
ENDBRANCH   9  13
ENDBRANCH   8   9
ENDBRANCH   6   8
ENDBRANCH   5   6
ENDBRANCH   4   5
ENDBRANCH   3   4
ENDBRANCH   2   3
ENDBRANCH   1   2
BRANCH   1  23
ATOM     23  C   UNL A   1      41.685  20.631  27.360  1.00  0.00     0.188 C 
BRANCH  23  24
ATOM     24  O   UNL A   1      42.429  19.447  27.160  1.00  0.00    -0.377 OA
BRANCH  24  25
ATOM     25  C   UNL A   1      42.473  18.985  25.823  1.00  0.00     0.188 C 
BRANCH  25  26
ATOM     26  C   UNL A   1      43.800  19.150  25.061  1.00  0.00     0.188 C 
BRANCH  26  27
ATOM     27  O   UNL A   1      44.641  20.216  25.502  1.00  0.00    -0.376 OA
BRANCH  27  28
ATOM     28  C   UNL A   1      45.320  20.937  24.468  1.00  0.00     0.202 C 
BRANCH  28  29
ATOM     29  C   UNL A   1      45.368  22.479  24.563  1.00  0.00     0.261 C 
BRANCH  29  30
ATOM     30  O   UNL A   1      44.685  23.066  25.672  1.00  0.00    -0.460 OA
BRANCH  30  31
ATOM     31  C   UNL A   1      43.445  23.562  25.451  1.00  0.00     0.338 C 
ATOM     32  O   UNL A   1      42.636  23.169  24.647  1.00  0.00    -0.246 OA
BRANCH  31  33
ATOM     33  C   UNL A   1      43.178  24.534  26.537  1.00  0.00     0.060 A 
ATOM     34  C   UNL A   1      42.468  24.094  27.662  1.00  0.00     0.016 A 
ATOM     35  C   UNL A   1      43.684  25.835  26.479  1.00  0.00     0.016 A 
ATOM     36  C   UNL A   1      42.311  24.935  28.762  1.00  0.00     0.010 A 
ATOM     37  C   UNL A   1      43.462  26.702  27.548  1.00  0.00     0.010 A 
ATOM     38  C   UNL A   1      42.763  26.257  28.684  1.00  0.00    -0.014 A 
BRANCH  38  39
ATOM     39  C   UNL A   1      42.209  27.258  29.617  1.00  0.00     0.031 A 
ATOM     40  C   UNL A   1      42.954  27.443  30.909  1.00  0.00     0.074 A 
ATOM     41  C   UNL A   1      41.078  27.934  29.361  1.00  0.00     0.049 A 
ATOM     42  N   UNL A   1      42.653  28.172  31.946  1.00  0.00    -0.248 NA
ATOM     43  C   UNL A   1      44.213  26.686  31.045  1.00  0.00     0.031 C 
ATOM     44  C   UNL A   1      40.298  27.850  28.128  1.00  0.00     0.029 A 
ATOM     45  N   UNL A   1      40.374  28.806  30.150  1.00  0.00    -0.354 N 
ATOM     46  C   UNL A   1      43.660  27.930  32.872  1.00  0.00     0.074 A 
ATOM     47  C   UNL A   1      44.581  26.990  32.277  1.00  0.00     0.031 C 
ATOM     48  C   UNL A   1      39.200  28.618  28.258  1.00  0.00     0.029 A 
ATOM     49  C   UNL A   1      39.185  29.214  29.594  1.00  0.00     0.049 A 
ATOM     50  H   UNL A   1      40.689  29.112  31.032  1.00  0.00     0.167 HD
ATOM     51  C   UNL A   1      43.804  28.440  34.114  1.00  0.00     0.034 A 
ATOM     52  C   UNL A   1      38.194  29.959  30.122  1.00  0.00     0.034 A 
ATOM     53  C   UNL A   1      42.868  29.352  34.703  1.00  0.00     0.049 A 
ATOM     54  C   UNL A   1      38.348  30.479  31.532  1.00  0.00     0.074 A 
ATOM     55  C   UNL A   1      42.922  29.959  35.942  1.00  0.00     0.029 A 
ATOM     56  N   UNL A   1      41.690  29.764  34.098  1.00  0.00    -0.354 N 
ATOM     57  N   UNL A   1      39.349  30.324  32.366  1.00  0.00    -0.248 NA
ATOM     58  C   UNL A   1      37.249  31.297  32.065  1.00  0.00     0.031 C 
ATOM     59  C   UNL A   1      41.751  30.705  36.105  1.00  0.00     0.029 A 
ATOM     60  C   UNL A   1      40.997  30.608  34.944  1.00  0.00     0.049 A 
ATOM     61  H   UNL A   1      41.392  29.496  33.199  1.00  0.00     0.167 HD
ATOM     62  C   UNL A   1      39.028  31.066  33.497  1.00  0.00     0.074 A 
ATOM     63  C   UNL A   1      37.734  31.667  33.244  1.00  0.00     0.031 C 
ATOM     64  C   UNL A   1      39.737  31.240  34.641  1.00  0.00     0.034 A 
BRANCH  51  65
ATOM     65  C   UNL A   1      44.997  27.985  34.909  1.00  0.00     0.023 A 
ATOM     66  C   UNL A   1      46.218  28.689  34.818  1.00  0.00     0.012 A 
ATOM     67  C   UNL A   1      44.917  26.847  35.732  1.00  0.00     0.148 A 
ATOM     68  C   UNL A   1      47.351  28.234  35.491  1.00  0.00     0.002 A 
ATOM     69  C   UNL A   1      46.034  26.433  36.444  1.00  0.00     0.091 A 
ATOM     70  F   UNL A   1      43.760  26.171  35.779  1.00  0.00    -0.205 F 
ATOM     71  C   UNL A   1      47.256  27.113  36.311  1.00  0.00     0.022 A 
BRANCH  69  72
ATOM     72  S   UNL A   1      45.988  25.052  37.589  1.00  0.00     0.127 S 
ATOM     73  O   UNL A   1      46.268  23.923  36.703  1.00  0.00    -0.237 OA
ATOM     74  O   UNL A   1      47.072  25.384  38.515  1.00  0.00    -0.237 OA
ATOM     75  O   UNL A   1      44.658  25.068  38.183  1.00  0.00    -0.744 OA
ENDBRANCH  69  72
ENDBRANCH  51  65
BRANCH  52  76
ATOM     76  C   UNL A   1      36.994  30.296  29.306  1.00  0.00     0.023 A 
ATOM     77  C   UNL A   1      36.234  29.256  28.737  1.00  0.00     0.012 A 
ATOM     78  C   UNL A   1      36.582  31.631  29.114  1.00  0.00     0.148 A 
ATOM     79  C   UNL A   1      35.098  29.536  27.975  1.00  0.00     0.002 A 
ATOM     80  C   UNL A   1      35.422  31.900  28.397  1.00  0.00     0.091 A 
ATOM     81  F   UNL A   1      37.325  32.606  29.654  1.00  0.00    -0.205 F 
ATOM     82  C   UNL A   1      34.688  30.856  27.813  1.00  0.00     0.022 A 
BRANCH  80  83
ATOM     83  S   UNL A   1      34.746  33.557  28.227  1.00  0.00     0.127 S 
ATOM     84  O   UNL A   1      33.386  33.281  27.772  1.00  0.00    -0.237 OA
ATOM     85  O   UNL A   1      34.846  34.060  29.598  1.00  0.00    -0.237 OA
ATOM     86  O   UNL A   1      35.600  34.240  27.267  1.00  0.00    -0.744 OA
ENDBRANCH  80  83
ENDBRANCH  52  76
BRANCH  64  87
ATOM     87  C   UNL A   1      39.186  32.174  35.684  1.00  0.00     0.023 A 
ATOM     88  C   UNL A   1      38.276  31.708  36.652  1.00  0.00     0.012 A 
ATOM     89  C   UNL A   1      39.681  33.492  35.774  1.00  0.00     0.148 A 
ATOM     90  C   UNL A   1      37.854  32.546  37.683  1.00  0.00     0.002 A 
ATOM     91  C   UNL A   1      39.299  34.301  36.834  1.00  0.00     0.091 A 
ATOM     92  F   UNL A   1      40.536  33.917  34.832  1.00  0.00    -0.205 F 
ATOM     93  C   UNL A   1      38.376  33.835  37.783  1.00  0.00     0.022 A 
BRANCH  91  94
ATOM     94  S   UNL A   1      40.005  35.930  37.105  1.00  0.00     0.127 S 
ATOM     95  O   UNL A   1      39.654  36.617  35.862  1.00  0.00    -0.237 OA
ATOM     96  O   UNL A   1      39.274  36.392  38.285  1.00  0.00    -0.237 OA
ATOM     97  O   UNL A   1      41.431  35.724  37.318  1.00  0.00    -0.744 OA
ENDBRANCH  91  94
ENDBRANCH  64  87
ENDBRANCH  38  39
ENDBRANCH  31  33
ENDBRANCH  30  31
ENDBRANCH  29  30
ENDBRANCH  28  29
ENDBRANCH  27  28
ENDBRANCH  26  27
ENDBRANCH  25  26
ENDBRANCH  24  25
ENDBRANCH  23  24
ENDBRANCH   1  23
TORSDOF 31
ENDMDL
MODEL 2
REMARK VINA RESULT:      -7.2      3.720      6.657
REMARK SMILES C#CCN(CC(=O)OCCOCCOCCOCCOC(=O)c1ccc(-c2c3nc(c(-c4cccc(S(=O)(=O)[O-])c4F)c4ccc([nH]4)c(-c4cccc(S(=O)(=O)[O-])c4F)c4nc(c(-c5cccc(S(=O)(=O)[O-])c5F)c5ccc2[nH]5)C=C4)C=C3)cc1)C(=O)N[C@@H](C)CCCC
REMARK SMILES IDX 12 1 11 2 10 3 9 4 8 5 6 6 7 7 5 8 4 9 3 10 2 11 1 12 86 13
REMARK SMILES IDX 87 14 88 15 89 17 90 18 91 19 92 20 93 21 94 22 13 23 14 24
REMARK SMILES IDX 15 25 16 26 17 27 18 28 19 29 20 30 21 31 22 32 23 33 24 34
REMARK SMILES IDX 85 35 25 36 84 37 26 38 27 39 28 40 78 41 29 42 83 43 77 44
REMARK SMILES IDX 79 45 30 46 82 47 76 48 75 49 31 51 63 52 43 53 62 54 44 55
REMARK SMILES IDX 47 56 61 57 80 58 45 59 46 60 60 62 81 63 48 64 32 65 33 66
REMARK SMILES IDX 41 67 34 68 36 69 42 70 35 71 37 72 38 73 39 74 40 75 64 76
REMARK SMILES IDX 65 77 73 78 66 79 68 80 74 81 67 82 69 83 70 84 71 85 72 86
REMARK SMILES IDX 49 87 50 88 58 89 51 90 53 91 59 92 52 93 54 94 55 95 56 96
REMARK SMILES IDX 57 97
REMARK H PARENT 88 16 79 50 47 61
REMARK Flexibility Score: inf
ROOT
ATOM      1  C   UNL A   1      39.452  23.464  26.457  1.00  0.00     0.188 C 
ENDROOT
BRANCH   1   2
ATOM      2  O   UNL A   1      38.073  23.756  26.467  1.00  0.00    -0.376 OA
BRANCH   2   3
ATOM      3  C   UNL A   1      37.360  23.534  25.251  1.00  0.00     0.202 C 
BRANCH   3   4
ATOM      4  C   UNL A   1      35.875  23.980  25.142  1.00  0.00     0.261 C 
BRANCH   4   5
ATOM      5  O   UNL A   1      35.215  23.812  23.849  1.00  0.00    -0.462 OA
BRANCH   5   6
ATOM      6  C   UNL A   1      34.154  24.598  23.556  1.00  0.00     0.325 C 
ATOM      7  O   UNL A   1      33.807  24.829  22.400  1.00  0.00    -0.250 OA
BRANCH   6   8
ATOM      8  C   UNL A   1      33.470  25.280  24.797  1.00  0.00     0.245 C 
BRANCH   8   9
ATOM      9  N   UNL A   1      32.049  25.172  25.276  1.00  0.00    -0.303 N 
BRANCH   9  10
ATOM     10  C   UNL A   1      31.527  23.786  25.656  1.00  0.00     0.211 C 
BRANCH  10  11
ATOM     11  C   UNL A   1      32.441  23.142  26.686  1.00  0.00    -0.085 C 
ATOM     12  C   UNL A   1      33.226  22.590  27.569  1.00  0.00     0.006 C 
ENDBRANCH  10  11
ENDBRANCH   9  10
BRANCH   9  13
ATOM     13  C   UNL A   1      31.163  26.198  25.526  1.00  0.00     0.318 C 
ATOM     14  O   UNL A   1      30.443  26.195  26.535  1.00  0.00    -0.249 OA
ATOM     15  N   UNL A   1      30.924  27.281  24.770  1.00  0.00    -0.336 N 
ATOM     16  H   UNL A   1      30.273  27.847  25.242  1.00  0.00     0.165 HD
BRANCH  15  17
ATOM     17  C   UNL A   1      31.269  27.938  23.504  1.00  0.00     0.080 C 
ATOM     18  C   UNL A   1      31.088  26.959  22.321  1.00  0.00     0.031 C 
BRANCH  17  19
ATOM     19  C   UNL A   1      30.312  29.115  23.195  1.00  0.00     0.024 C 
BRANCH  19  20
ATOM     20  C   UNL A   1      28.812  28.842  23.182  1.00  0.00     0.002 C 
BRANCH  20  21
ATOM     21  C   UNL A   1      27.903  30.046  22.989  1.00  0.00    -0.003 C 
ATOM     22  C   UNL A   1      28.638  31.351  22.730  1.00  0.00     0.004 C 
ENDBRANCH  20  21
ENDBRANCH  19  20
ENDBRANCH  17  19
ENDBRANCH  15  17
ENDBRANCH   9  13
ENDBRANCH   8   9
ENDBRANCH   6   8
ENDBRANCH   5   6
ENDBRANCH   4   5
ENDBRANCH   3   4
ENDBRANCH   2   3
ENDBRANCH   1   2
BRANCH   1  23
ATOM     23  C   UNL A   1      40.189  23.249  27.766  1.00  0.00     0.188 C 
BRANCH  23  24
ATOM     24  O   UNL A   1      40.816  21.994  27.932  1.00  0.00    -0.377 OA
BRANCH  24  25
ATOM     25  C   UNL A   1      41.033  21.269  26.735  1.00  0.00     0.188 C 
BRANCH  25  26
ATOM     26  C   UNL A   1      42.482  21.165  26.224  1.00  0.00     0.188 C 
BRANCH  26  27
ATOM     27  O   UNL A   1      43.234  22.378  26.241  1.00  0.00    -0.376 OA
BRANCH  27  28
ATOM     28  C   UNL A   1      43.212  23.136  25.027  1.00  0.00     0.202 C 
BRANCH  28  29
ATOM     29  C   UNL A   1      43.642  24.620  25.084  1.00  0.00     0.261 C 
BRANCH  29  30
ATOM     30  O   UNL A   1      43.690  25.215  26.382  1.00  0.00    -0.460 OA
BRANCH  30  31
ATOM     31  C   UNL A   1      42.668  26.030  26.735  1.00  0.00     0.338 C 
ATOM     32  O   UNL A   1      41.614  26.164  26.164  1.00  0.00    -0.246 OA
BRANCH  31  33
ATOM     33  C   UNL A   1      42.993  26.557  28.081  1.00  0.00     0.060 A 
ATOM     34  C   UNL A   1      44.296  27.011  28.319  1.00  0.00     0.016 A 
ATOM     35  C   UNL A   1      42.009  26.671  29.066  1.00  0.00     0.016 A 
ATOM     36  C   UNL A   1      44.609  27.637  29.525  1.00  0.00     0.010 A 
ATOM     37  C   UNL A   1      42.339  27.227  30.300  1.00  0.00     0.010 A 
ATOM     38  C   UNL A   1      43.643  27.698  30.536  1.00  0.00    -0.014 A 
BRANCH  38  39
ATOM     39  C   UNL A   1      44.080  27.922  31.928  1.00  0.00     0.031 A 
ATOM     40  C   UNL A   1      44.628  26.725  32.651  1.00  0.00     0.074 A 
ATOM     41  C   UNL A   1      43.954  29.110  32.540  1.00  0.00     0.049 A 
ATOM     42  N   UNL A   1      44.996  26.601  33.896  1.00  0.00    -0.248 NA
ATOM     43  C   UNL A   1      44.770  25.494  31.853  1.00  0.00     0.031 C 
ATOM     44  C   UNL A   1      43.464  30.339  31.919  1.00  0.00     0.029 A 
ATOM     45  N   UNL A   1      44.204  29.463  33.841  1.00  0.00    -0.354 N 
ATOM     46  C   UNL A   1      45.370  25.271  34.038  1.00  0.00     0.074 A 
ATOM     47  C   UNL A   1      45.190  24.628  32.759  1.00  0.00     0.031 C 
ATOM     48  C   UNL A   1      43.418  31.307  32.853  1.00  0.00     0.029 A 
ATOM     49  C   UNL A   1      43.840  30.754  34.140  1.00  0.00     0.049 A 
ATOM     50  H   UNL A   1      44.607  28.851  34.499  1.00  0.00     0.167 HD
ATOM     51  C   UNL A   1      45.821  24.635  35.142  1.00  0.00     0.034 A 
ATOM     52  C   UNL A   1      43.826  31.395  35.326  1.00  0.00     0.034 A 
ATOM     53  C   UNL A   1      45.971  25.279  36.414  1.00  0.00     0.049 A 
ATOM     54  C   UNL A   1      44.284  30.655  36.559  1.00  0.00     0.074 A 
ATOM     55  C   UNL A   1      46.445  24.747  37.597  1.00  0.00     0.029 A 
ATOM     56  N   UNL A   1      45.619  26.596  36.671  1.00  0.00    -0.354 N 
ATOM     57  N   UNL A   1      44.729  29.424  36.667  1.00  0.00    -0.248 NA
ATOM     58  C   UNL A   1      44.263  31.395  37.829  1.00  0.00     0.031 C 
ATOM     59  C   UNL A   1      46.337  25.732  38.583  1.00  0.00     0.029 A 
ATOM     60  C   UNL A   1      45.850  26.893  38.000  1.00  0.00     0.049 A 
ATOM     61  H   UNL A   1      45.257  27.225  36.007  1.00  0.00     0.167 HD
ATOM     62  C   UNL A   1      45.090  29.260  38.000  1.00  0.00     0.074 A 
ATOM     63  C   UNL A   1      44.807  30.518  38.663  1.00  0.00     0.031 C 
ATOM     64  C   UNL A   1      45.613  28.173  38.621  1.00  0.00     0.034 A 
BRANCH  51  65
ATOM     65  C   UNL A   1      46.142  23.172  35.008  1.00  0.00     0.023 A 
ATOM     66  C   UNL A   1      45.126  22.207  35.176  1.00  0.00     0.012 A 
ATOM     67  C   UNL A   1      47.457  22.751  34.737  1.00  0.00     0.148 A 
ATOM     68  C   UNL A   1      45.426  20.846  35.129  1.00  0.00     0.002 A 
ATOM     69  C   UNL A   1      47.737  21.395  34.635  1.00  0.00     0.091 A 
ATOM     70  F   UNL A   1      48.415  23.680  34.615  1.00  0.00    -0.205 F 
ATOM     71  C   UNL A   1      46.729  20.441  34.849  1.00  0.00     0.022 A 
BRANCH  69  72
ATOM     72  S   UNL A   1      49.364  20.779  34.194  1.00  0.00     0.127 S 
ATOM     73  O   UNL A   1      49.717  20.001  35.380  1.00  0.00    -0.237 OA
ATOM     74  O   UNL A   1      49.077  19.979  33.003  1.00  0.00    -0.237 OA
ATOM     75  O   UNL A   1      50.186  21.956  33.950  1.00  0.00    -0.744 OA
ENDBRANCH  69  72
ENDBRANCH  51  65
BRANCH  52  76
ATOM     76  C   UNL A   1      43.406  32.824  35.399  1.00  0.00     0.023 A 
ATOM     77  C   UNL A   1      44.350  33.834  35.131  1.00  0.00     0.012 A 
ATOM     78  C   UNL A   1      42.078  33.189  35.700  1.00  0.00     0.148 A 
ATOM     79  C   UNL A   1      43.988  35.181  35.181  1.00  0.00     0.002 A 
ATOM     80  C   UNL A   1      41.712  34.530  35.699  1.00  0.00     0.091 A 
ATOM     81  F   UNL A   1      41.197  32.213  35.962  1.00  0.00    -0.205 F 
ATOM     82  C   UNL A   1      42.669  35.528  35.456  1.00  0.00     0.022 A 
BRANCH  80  83
ATOM     83  S   UNL A   1      40.015  35.075  35.927  1.00  0.00     0.127 S 
ATOM     84  O   UNL A   1      39.290  34.190  35.019  1.00  0.00    -0.237 OA
ATOM     85  O   UNL A   1      39.804  34.803  37.350  1.00  0.00    -0.237 OA
ATOM     86  O   UNL A   1      39.998  36.486  35.571  1.00  0.00    -0.744 OA
ENDBRANCH  80  83
ENDBRANCH  52  76
BRANCH  64  87
ATOM     87  C   UNL A   1      45.995  28.297  40.071  1.00  0.00     0.023 A 
ATOM     88  C   UNL A   1      45.098  27.904  41.082  1.00  0.00     0.012 A 
ATOM     89  C   UNL A   1      47.306  28.687  40.418  1.00  0.00     0.148 A 
ATOM     90  C   UNL A   1      45.495  27.916  42.419  1.00  0.00     0.002 A 
ATOM     91  C   UNL A   1      47.710  28.643  41.745  1.00  0.00     0.091 A 
ATOM     92  F   UNL A   1      48.137  29.070  39.437  1.00  0.00    -0.205 F 
ATOM     93  C   UNL A   1      46.803  28.270  42.748  1.00  0.00     0.022 A 
BRANCH  91  94
ATOM     94  S   UNL A   1      49.402  28.971  42.246  1.00  0.00     0.127 S 
ATOM     95  O   UNL A   1      50.156  28.478  41.093  1.00  0.00    -0.237 OA
ATOM     96  O   UNL A   1      49.403  30.427  42.398  1.00  0.00    -0.237 OA
ATOM     97  O   UNL A   1      49.610  28.233  43.484  1.00  0.00    -0.744 OA
ENDBRANCH  91  94
ENDBRANCH  64  87
ENDBRANCH  38  39
ENDBRANCH  31  33
ENDBRANCH  30  31
ENDBRANCH  29  30
ENDBRANCH  28  29
ENDBRANCH  27  28
ENDBRANCH  26  27
ENDBRANCH  25  26
ENDBRANCH  24  25
ENDBRANCH  23  24
ENDBRANCH   1  23
TORSDOF 31
ENDMDL
MODEL 3
REMARK VINA RESULT:      -6.7      6.711      9.059
REMARK SMILES C#CCN(CC(=O)OCCOCCOCCOCCOC(=O)c1ccc(-c2c3nc(c(-c4cccc(S(=O)(=O)[O-])c4F)c4ccc([nH]4)c(-c4cccc(S(=O)(=O)[O-])c4F)c4nc(c(-c5cccc(S(=O)(=O)[O-])c5F)c5ccc2[nH]5)C=C4)C=C3)cc1)C(=O)N[C@@H](C)CCCC
REMARK SMILES IDX 12 1 11 2 10 3 9 4 8 5 6 6 7 7 5 8 4 9 3 10 2 11 1 12 86 13
REMARK SMILES IDX 87 14 88 15 89 17 90 18 91 19 92 20 93 21 94 22 13 23 14 24
REMARK SMILES IDX 15 25 16 26 17 27 18 28 19 29 20 30 21 31 22 32 23 33 24 34
REMARK SMILES IDX 85 35 25 36 84 37 26 38 27 39 28 40 78 41 29 42 83 43 77 44
REMARK SMILES IDX 79 45 30 46 82 47 76 48 75 49 31 51 63 52 43 53 62 54 44 55
REMARK SMILES IDX 47 56 61 57 80 58 45 59 46 60 60 62 81 63 48 64 32 65 33 66
REMARK SMILES IDX 41 67 34 68 36 69 42 70 35 71 37 72 38 73 39 74 40 75 64 76
REMARK SMILES IDX 65 77 73 78 66 79 68 80 74 81 67 82 69 83 70 84 71 85 72 86
REMARK SMILES IDX 49 87 50 88 58 89 51 90 53 91 59 92 52 93 54 94 55 95 56 96
REMARK SMILES IDX 57 97
REMARK H PARENT 88 16 79 50 47 61
REMARK Flexibility Score: inf
ROOT
ATOM      1  C   UNL A   1      40.080  21.641  26.677  1.00  0.00     0.188 C 
ENDROOT
BRANCH   1   2
ATOM      2  O   UNL A   1      38.961  20.859  26.330  1.00  0.00    -0.376 OA
BRANCH   2   3
ATOM      3  C   UNL A   1      38.112  21.370  25.304  1.00  0.00     0.202 C 
BRANCH   3   4
ATOM      4  C   UNL A   1      36.582  21.476  25.558  1.00  0.00     0.261 C 
BRANCH   4   5
ATOM      5  O   UNL A   1      35.931  22.743  25.231  1.00  0.00    -0.462 OA
BRANCH   5   6
ATOM      6  C   UNL A   1      34.821  22.720  24.458  1.00  0.00     0.325 C 
ATOM      7  O   UNL A   1      34.361  21.676  24.000  1.00  0.00    -0.250 OA
BRANCH   6   8
ATOM      8  C   UNL A   1      34.230  24.133  24.102  1.00  0.00     0.245 C 
BRANCH   8   9
ATOM      9  N   UNL A   1      33.263  24.511  23.014  1.00  0.00    -0.303 N 
BRANCH   9  10
ATOM     10  C   UNL A   1      31.897  23.821  23.001  1.00  0.00     0.211 C 
BRANCH  10  11
ATOM     11  C   UNL A   1      30.833  24.749  23.564  1.00  0.00    -0.085 C 
ATOM     12  C   UNL A   1      29.919  25.544  24.047  1.00  0.00     0.006 C 
ENDBRANCH  10  11
ENDBRANCH   9  10
BRANCH   9  13
ATOM     13  C   UNL A   1      33.405  25.500  22.065  1.00  0.00     0.318 C 
ATOM     14  O   UNL A   1      33.336  25.245  20.854  1.00  0.00    -0.249 OA
ATOM     15  N   UNL A   1      33.651  26.804  22.267  1.00  0.00    -0.336 N 
ATOM     16  H   UNL A   1      33.651  27.255  21.393  1.00  0.00     0.165 HD
BRANCH  15  17
ATOM     17  C   UNL A   1      33.921  27.809  23.301  1.00  0.00     0.080 C 
ATOM     18  C   UNL A   1      33.504  29.214  22.811  1.00  0.00     0.031 C 
BRANCH  17  19
ATOM     19  C   UNL A   1      33.069  27.563  24.571  1.00  0.00     0.024 C 
BRANCH  19  20
ATOM     20  C   UNL A   1      33.014  28.662  25.627  1.00  0.00     0.002 C 
BRANCH  20  21
ATOM     21  C   UNL A   1      31.677  28.871  26.321  1.00  0.00    -0.003 C 
ATOM     22  C   UNL A   1      31.538  28.139  27.646  1.00  0.00     0.004 C 
ENDBRANCH  20  21
ENDBRANCH  19  20
ENDBRANCH  17  19
ENDBRANCH  15  17
ENDBRANCH   9  13
ENDBRANCH   8   9
ENDBRANCH   6   8
ENDBRANCH   5   6
ENDBRANCH   4   5
ENDBRANCH   3   4
ENDBRANCH   2   3
ENDBRANCH   1   2
BRANCH   1  23
ATOM     23  C   UNL A   1      41.157  21.064  27.578  1.00  0.00     0.188 C 
BRANCH  23  24
ATOM     24  O   UNL A   1      42.480  21.119  27.086  1.00  0.00    -0.377 OA
BRANCH  24  25
ATOM     25  C   UNL A   1      42.718  22.126  26.120  1.00  0.00     0.188 C 
BRANCH  25  26
ATOM     26  C   UNL A   1      44.046  22.899  26.217  1.00  0.00     0.188 C 
BRANCH  26  27
ATOM     27  O   UNL A   1      43.931  24.309  26.402  1.00  0.00    -0.376 OA
BRANCH  27  28
ATOM     28  C   UNL A   1      44.058  25.102  25.216  1.00  0.00     0.202 C 
BRANCH  28  29
ATOM     29  C   UNL A   1      43.681  26.599  25.294  1.00  0.00     0.261 C 
BRANCH  29  30
ATOM     30  O   UNL A   1      44.156  27.313  26.436  1.00  0.00    -0.460 OA
BRANCH  30  31
ATOM     31  C   UNL A   1      43.254  27.635  27.393  1.00  0.00     0.338 C 
ATOM     32  O   UNL A   1      42.376  26.933  27.831  1.00  0.00    -0.246 OA
BRANCH  31  33
ATOM     33  C   UNL A   1      43.687  28.931  27.964  1.00  0.00     0.060 A 
ATOM     34  C   UNL A   1      44.470  28.916  29.126  1.00  0.00     0.016 A 
ATOM     35  C   UNL A   1      43.390  30.135  27.323  1.00  0.00     0.016 A 
ATOM     36  C   UNL A   1      45.009  30.101  29.620  1.00  0.00     0.010 A 
ATOM     37  C   UNL A   1      43.866  31.331  27.859  1.00  0.00     0.010 A 
ATOM     38  C   UNL A   1      44.664  31.316  29.017  1.00  0.00    -0.014 A 
BRANCH  38  39
ATOM     39  C   UNL A   1      44.837  32.568  29.780  1.00  0.00     0.031 A 
ATOM     40  C   UNL A   1      43.832  32.826  30.866  1.00  0.00     0.074 A 
ATOM     41  C   UNL A   1      45.804  33.456  29.498  1.00  0.00     0.049 A 
ATOM     42  N   UNL A   1      43.679  33.873  31.627  1.00  0.00    -0.248 NA
ATOM     43  C   UNL A   1      42.857  31.748  31.117  1.00  0.00     0.031 C 
ATOM     44  C   UNL A   1      46.845  33.287  28.487  1.00  0.00     0.029 A 
ATOM     45  N   UNL A   1      46.040  34.699  30.026  1.00  0.00    -0.354 N 
ATOM     46  C   UNL A   1      42.568  33.598  32.414  1.00  0.00     0.074 A 
ATOM     47  C   UNL A   1      42.086  32.288  32.043  1.00  0.00     0.031 C 
ATOM     48  C   UNL A   1      47.593  34.405  28.445  1.00  0.00     0.029 A 
ATOM     49  C   UNL A   1      47.058  35.377  29.399  1.00  0.00     0.049 A 
ATOM     50  H   UNL A   1      45.530  35.071  30.781  1.00  0.00     0.167 HD
ATOM     51  C   UNL A   1      41.992  34.371  33.360  1.00  0.00     0.034 A 
ATOM     52  C   UNL A   1      47.481  36.646  29.565  1.00  0.00     0.034 A 
ATOM     53  C   UNL A   1      42.465  35.681  33.700  1.00  0.00     0.049 A 
ATOM     54  C   UNL A   1      46.794  37.514  30.591  1.00  0.00     0.074 A 
ATOM     55  C   UNL A   1      41.983  36.547  34.662  1.00  0.00     0.029 A 
ATOM     56  N   UNL A   1      43.517  36.323  33.064  1.00  0.00    -0.354 N 
ATOM     57  N   UNL A   1      45.805  37.213  31.400  1.00  0.00    -0.248 NA
ATOM     58  C   UNL A   1      47.294  38.888  30.748  1.00  0.00     0.031 C 
ATOM     59  C   UNL A   1      42.716  37.734  34.576  1.00  0.00     0.029 A 
ATOM     60  C   UNL A   1      43.691  37.584  33.600  1.00  0.00     0.049 A 
ATOM     61  H   UNL A   1      44.058  35.939  32.337  1.00  0.00     0.167 HD
ATOM     62  C   UNL A   1      45.601  38.335  32.195  1.00  0.00     0.074 A 
ATOM     63  C   UNL A   1      46.567  39.326  31.767  1.00  0.00     0.031 C 
ATOM     64  C   UNL A   1      44.701  38.529  33.193  1.00  0.00     0.034 A 
BRANCH  51  65
ATOM     65  C   UNL A   1      40.777  33.818  34.053  1.00  0.00     0.023 A 
ATOM     66  C   UNL A   1      40.918  33.089  35.254  1.00  0.00     0.012 A 
ATOM     67  C   UNL A   1      39.496  34.001  33.503  1.00  0.00     0.148 A 
ATOM     68  C   UNL A   1      39.807  32.508  35.866  1.00  0.00     0.002 A 
ATOM     69  C   UNL A   1      38.388  33.468  34.148  1.00  0.00     0.091 A 
ATOM     70  F   UNL A   1      39.385  34.666  32.344  1.00  0.00    -0.205 F 
ATOM     71  C   UNL A   1      38.543  32.706  35.318  1.00  0.00     0.022 A 
BRANCH  69  72
ATOM     72  S   UNL A   1      36.712  33.741  33.566  1.00  0.00     0.127 S 
ATOM     73  O   UNL A   1      36.066  32.478  33.922  1.00  0.00    -0.237 OA
ATOM     74  O   UNL A   1      36.291  34.889  34.371  1.00  0.00    -0.237 OA
ATOM     75  O   UNL A   1      36.821  34.009  32.139  1.00  0.00    -0.744 OA
ENDBRANCH  69  72
ENDBRANCH  51  65
BRANCH  52  76
ATOM     76  C   UNL A   1      48.637  37.159  28.776  1.00  0.00     0.023 A 
ATOM     77  C   UNL A   1      48.404  37.761  27.524  1.00  0.00     0.012 A 
ATOM     78  C   UNL A   1      49.957  37.083  29.265  1.00  0.00     0.148 A 
ATOM     79  C   UNL A   1      49.463  38.261  26.765  1.00  0.00     0.002 A 
ATOM     80  C   UNL A   1      51.001  37.627  28.527  1.00  0.00     0.091 A 
ATOM     81  F   UNL A   1      50.159  36.496  30.453  1.00  0.00    -0.205 F 
ATOM     82  C   UNL A   1      50.759  38.202  27.269  1.00  0.00     0.022 A 
BRANCH  80  83
ATOM     83  S   UNL A   1      52.689  37.704  29.139  1.00  0.00     0.127 S 
ATOM     84  O   UNL A   1      52.546  38.569  30.307  1.00  0.00    -0.237 OA
ATOM     85  O   UNL A   1      52.959  36.298  29.444  1.00  0.00    -0.237 OA
ATOM     86  O   UNL A   1      53.484  38.251  28.050  1.00  0.00    -0.744 OA
ENDBRANCH  80  83
ENDBRANCH  52  76
BRANCH  64  87
ATOM     87  C   UNL A   1      44.754  39.825  33.956  1.00  0.00     0.023 A 
ATOM     88  C   UNL A   1      45.629  39.975  35.049  1.00  0.00     0.012 A 
ATOM     89  C   UNL A   1      44.021  40.938  33.496  1.00  0.00     0.148 A 
ATOM     90  C   UNL A   1      45.756  41.210  35.685  1.00  0.00     0.002 A 
ATOM     91  C   UNL A   1      44.195  42.176  34.098  1.00  0.00     0.091 A 
ATOM     92  F   UNL A   1      43.184  40.767  32.461  1.00  0.00    -0.205 F 
ATOM     93  C   UNL A   1      45.053  42.312  35.200  1.00  0.00     0.022 A 
BRANCH  91  94
ATOM     94  S   UNL A   1      43.419  43.669  33.471  1.00  0.00     0.127 S 
ATOM     95  O   UNL A   1      42.050  43.523  33.965  1.00  0.00    -0.237 OA
ATOM     96  O   UNL A   1      44.196  44.721  34.128  1.00  0.00    -0.237 OA
ATOM     97  O   UNL A   1      43.564  43.625  32.022  1.00  0.00    -0.744 OA
ENDBRANCH  91  94
ENDBRANCH  64  87
ENDBRANCH  38  39
ENDBRANCH  31  33
ENDBRANCH  30  31
ENDBRANCH  29  30
ENDBRANCH  28  29
ENDBRANCH  27  28
ENDBRANCH  26  27
ENDBRANCH  25  26
ENDBRANCH  24  25
ENDBRANCH  23  24
ENDBRANCH   1  23
TORSDOF 31
ENDMDL
