MODEL 1
REMARK VINA RESULT:      -8.9      0.000      0.000
REMARK SMILES O=C(OCCOCCOCCOCCOC(=O)[C@@H](Cc1c[nH]c2ccccc12)Nc1ncnc2ccccc12)c1ccc(-c2c3nc(c(-c4cccc(S(=O)(=O)[O-])c4F)c4ccc([nH]4)c(-c4cccc(S(=O)(=O)[O-])c4F)c4nc(c(-c5cccc(S(=O)(=O)[O-])c5F)c5ccc2[nH]5)C=C4)C=C3)cc1
REMARK SMILES IDX 8 1 7 2 6 3 5 4 4 5 3 6 2 7 1 8 40 9 41 10 102 11 42 12
REMARK SMILES IDX 101 13 43 14 44 15 45 16 95 17 46 18 100 19 94 20 96 21
REMARK SMILES IDX 47 22 99 23 93 24 92 25 48 27 80 28 60 29 79 30 61 31 64 32
REMARK SMILES IDX 78 33 97 34 62 35 63 36 77 38 98 39 65 40 49 41 50 42 58 43
REMARK SMILES IDX 51 44 53 45 59 46 52 47 54 48 55 49 56 50 57 51 81 52 82 53
REMARK SMILES IDX 90 54 83 55 85 56 91 57 84 58 86 59 87 60 88 61 89 62 66 63
REMARK SMILES IDX 67 64 75 65 68 66 70 67 76 68 69 69 71 70 72 71 73 72 74 73
REMARK SMILES IDX 9 74 10 75 11 76 12 77 13 78 14 79 15 80 16 81 17 82 18 83
REMARK SMILES IDX 19 84 20 85 21 86 28 87 22 88 23 89 27 90 24 92 26 93 25 94
REMARK SMILES IDX 29 95 30 97 31 98 39 99 32 100 34 101 38 102 33 103 35 104
REMARK SMILES IDX 37 105 36 106
REMARK H PARENT 96 26 64 37 22 91 29 96
REMARK Flexibility Score: inf
ROOT
ATOM      1  C   UNL A   1      35.267  31.008  28.108  1.00  0.00     0.188 C 
ENDROOT
BRANCH   1   2
ATOM      2  C   UNL A   1      35.551  30.020  29.215  1.00  0.00     0.188 C 
BRANCH   2   3
ATOM      3  O   UNL A   1      36.498  30.605  30.085  1.00  0.00    -0.376 OA
BRANCH   3   4
ATOM      4  C   UNL A   1      36.273  30.554  31.482  1.00  0.00     0.202 C 
BRANCH   4   5
ATOM      5  C   UNL A   1      37.284  29.752  32.293  1.00  0.00     0.261 C 
BRANCH   5   6
ATOM      6  O   UNL A   1      38.258  30.514  33.036  1.00  0.00    -0.460 OA
BRANCH   6   7
ATOM      7  C   UNL A   1      39.533  30.242  33.406  1.00  0.00     0.338 C 
ATOM      8  O   UNL A   1      39.711  29.674  34.484  1.00  0.00    -0.246 OA
BRANCH   7   9
ATOM      9  C   UNL A   1      40.741  30.622  32.618  1.00  0.00     0.060 A 
ATOM     10  C   UNL A   1      41.964  30.960  33.177  1.00  0.00     0.016 A 
ATOM     11  C   UNL A   1      40.682  30.531  31.220  1.00  0.00     0.016 A 
ATOM     12  C   UNL A   1      43.070  31.288  32.434  1.00  0.00     0.010 A 
ATOM     13  C   UNL A   1      41.806  30.831  30.438  1.00  0.00     0.010 A 
ATOM     14  C   UNL A   1      42.990  31.243  31.058  1.00  0.00    -0.014 A 
BRANCH  14  15
ATOM     15  C   UNL A   1      44.108  31.877  30.359  1.00  0.00     0.031 A 
ATOM     16  C   UNL A   1      43.982  33.340  30.081  1.00  0.00     0.074 A 
ATOM     17  C   UNL A   1      45.265  31.208  30.214  1.00  0.00     0.049 A 
ATOM     18  N   UNL A   1      44.796  34.129  29.447  1.00  0.00    -0.248 NA
ATOM     19  C   UNL A   1      42.782  34.012  30.619  1.00  0.00     0.031 C 
ATOM     20  C   UNL A   1      45.515  29.837  30.675  1.00  0.00     0.029 A 
ATOM     21  N   UNL A   1      46.454  31.596  29.667  1.00  0.00    -0.354 N 
ATOM     22  C   UNL A   1      44.167  35.366  29.429  1.00  0.00     0.074 A 
ATOM     23  C   UNL A   1      42.928  35.242  30.156  1.00  0.00     0.031 C 
ATOM     24  C   UNL A   1      46.775  29.494  30.369  1.00  0.00     0.029 A 
ATOM     25  C   UNL A   1      47.382  30.584  29.621  1.00  0.00     0.049 A 
ATOM     26  H   UNL A   1      46.628  32.508  29.338  1.00  0.00     0.167 HD
ATOM     27  C   UNL A   1      44.592  36.494  28.824  1.00  0.00     0.034 A 
ATOM     28  C   UNL A   1      48.562  30.541  28.976  1.00  0.00     0.034 A 
ATOM     29  C   UNL A   1      45.838  36.559  28.116  1.00  0.00     0.049 A 
ATOM     30  C   UNL A   1      48.969  31.779  28.225  1.00  0.00     0.074 A 
ATOM     31  C   UNL A   1      46.370  37.606  27.395  1.00  0.00     0.029 A 
ATOM     32  N   UNL A   1      46.740  35.505  28.039  1.00  0.00    -0.354 N 
ATOM     33  N   UNL A   1      48.356  32.939  28.157  1.00  0.00    -0.248 NA
ATOM     34  C   UNL A   1      50.224  31.715  27.470  1.00  0.00     0.031 C 
ATOM     35  C   UNL A   1      47.579  37.169  26.844  1.00  0.00     0.029 A 
ATOM     36  C   UNL A   1      47.824  35.868  27.267  1.00  0.00     0.049 A 
ATOM     37  H   UNL A   1      46.624  34.628  28.471  1.00  0.00     0.167 HD
ATOM     38  C   UNL A   1      49.161  33.754  27.376  1.00  0.00     0.074 A 
ATOM     39  C   UNL A   1      50.319  32.956  27.012  1.00  0.00     0.031 C 
ATOM     40  C   UNL A   1      48.967  35.036  26.979  1.00  0.00     0.034 A 
BRANCH  27  41
ATOM     41  C   UNL A   1      43.655  37.666  28.827  1.00  0.00     0.023 A 
ATOM     42  C   UNL A   1      42.744  37.867  27.770  1.00  0.00     0.012 A 
ATOM     43  C   UNL A   1      43.722  38.607  29.872  1.00  0.00     0.148 A 
ATOM     44  C   UNL A   1      41.944  39.010  27.734  1.00  0.00     0.002 A 
ATOM     45  C   UNL A   1      42.890  39.717  29.855  1.00  0.00     0.091 A 
ATOM     46  F   UNL A   1      44.626  38.418  30.844  1.00  0.00    -0.205 F 
ATOM     47  C   UNL A   1      42.011  39.929  28.780  1.00  0.00     0.022 A 
BRANCH  45  48
ATOM     48  S   UNL A   1      42.858  40.928  31.179  1.00  0.00     0.127 S 
ATOM     49  O   UNL A   1      41.604  41.628  30.912  1.00  0.00    -0.237 OA
ATOM     50  O   UNL A   1      42.848  40.080  32.366  1.00  0.00    -0.237 OA
ATOM     51  O   UNL A   1      44.065  41.738  31.014  1.00  0.00    -0.744 OA
ENDBRANCH  45  48
ENDBRANCH  27  41
BRANCH  28  52
ATOM     52  C   UNL A   1      49.379  29.295  28.967  1.00  0.00     0.023 A 
ATOM     53  C   UNL A   1      50.366  29.094  29.949  1.00  0.00     0.012 A 
ATOM     54  C   UNL A   1      49.170  28.296  27.993  1.00  0.00     0.148 A 
ATOM     55  C   UNL A   1      51.152  27.938  29.941  1.00  0.00     0.002 A 
ATOM     56  C   UNL A   1      49.917  27.124  28.023  1.00  0.00     0.091 A 
ATOM     57  F   UNL A   1      48.236  28.508  27.054  1.00  0.00    -0.205 F 
ATOM     58  C   UNL A   1      50.922  26.951  28.986  1.00  0.00     0.022 A 
BRANCH  56  59
ATOM     59  S   UNL A   1      49.613  25.751  26.905  1.00  0.00     0.127 S 
ATOM     60  O   UNL A   1      50.605  24.780  27.346  1.00  0.00    -0.237 OA
ATOM     61  O   UNL A   1      48.227  25.409  27.215  1.00  0.00    -0.237 OA
ATOM     62  O   UNL A   1      49.810  26.289  25.559  1.00  0.00    -0.744 OA
ENDBRANCH  56  59
ENDBRANCH  28  52
BRANCH  40  63
ATOM     63  C   UNL A   1      50.053  35.663  26.153  1.00  0.00     0.023 A 
ATOM     64  C   UNL A   1      50.009  35.578  24.749  1.00  0.00     0.012 A 
ATOM     65  C   UNL A   1      51.055  36.427  26.780  1.00  0.00     0.148 A 
ATOM     66  C   UNL A   1      50.972  36.224  23.979  1.00  0.00     0.002 A 
ATOM     67  C   UNL A   1      51.972  37.117  26.005  1.00  0.00     0.091 A 
ATOM     68  F   UNL A   1      51.080  36.474  28.120  1.00  0.00    -0.205 F 
ATOM     69  C   UNL A   1      51.941  37.006  24.604  1.00  0.00     0.022 A 
BRANCH  67  70
ATOM     70  S   UNL A   1      53.173  38.241  26.721  1.00  0.00     0.127 S 
ATOM     71  O   UNL A   1      53.898  38.695  25.537  1.00  0.00    -0.237 OA
ATOM     72  O   UNL A   1      52.317  39.251  27.342  1.00  0.00    -0.237 OA
ATOM     73  O   UNL A   1      53.952  37.448  27.665  1.00  0.00    -0.744 OA
ENDBRANCH  67  70
ENDBRANCH  40  63
ENDBRANCH  14  15
ENDBRANCH   7   9
ENDBRANCH   6   7
ENDBRANCH   5   6
ENDBRANCH   4   5
ENDBRANCH   3   4
ENDBRANCH   2   3
ENDBRANCH   1   2
BRANCH   1  74
ATOM     74  O   UNL A   1      34.020  30.788  27.466  1.00  0.00    -0.377 OA
BRANCH  74  75
ATOM     75  C   UNL A   1      33.898  29.802  26.450  1.00  0.00     0.188 C 
BRANCH  75  76
ATOM     76  C   UNL A   1      33.282  28.438  26.767  1.00  0.00     0.188 C 
BRANCH  76  77
ATOM     77  O   UNL A   1      32.946  27.652  25.652  1.00  0.00    -0.376 OA
BRANCH  77  78
ATOM     78  C   UNL A   1      33.959  27.315  24.707  1.00  0.00     0.202 C 
BRANCH  78  79
ATOM     79  C   UNL A   1      34.182  25.892  24.141  1.00  0.00     0.261 C 
BRANCH  79  80
ATOM     80  O   UNL A   1      34.125  25.729  22.706  1.00  0.00    -0.462 OA
BRANCH  80  81
ATOM     81  C   UNL A   1      32.950  25.280  22.192  1.00  0.00     0.329 C 
ATOM     82  O   UNL A   1      32.866  24.812  21.054  1.00  0.00    -0.250 OA
BRANCH  81  83
ATOM     83  C   UNL A   1      31.718  25.246  23.155  1.00  0.00     0.195 C 
BRANCH  83  84
ATOM     84  C   UNL A   1      30.425  26.081  23.047  1.00  0.00     0.074 C 
BRANCH  84  85
ATOM     85  C   UNL A   1      30.440  27.536  22.724  1.00  0.00    -0.020 A 
ATOM     86  C   UNL A   1      31.575  28.200  22.284  1.00  0.00     0.087 A 
ATOM     87  C   UNL A   1      29.396  28.503  22.788  1.00  0.00     0.003 A 
ATOM     88  N   UNL A   1      31.244  29.494  22.017  1.00  0.00    -0.361 N 
ATOM     89  C   UNL A   1      29.926  29.714  22.334  1.00  0.00     0.046 A 
ATOM     90  C   UNL A   1      28.039  28.472  23.164  1.00  0.00     0.010 A 
ATOM     91  H   UNL A   1      31.857  30.172  21.651  1.00  0.00     0.166 HD
ATOM     92  C   UNL A   1      29.167  30.884  22.233  1.00  0.00     0.026 A 
ATOM     93  C   UNL A   1      27.265  29.631  23.070  1.00  0.00     0.001 A 
ATOM     94  C   UNL A   1      27.825  30.818  22.612  1.00  0.00     0.002 A 
ENDBRANCH  84  85
ENDBRANCH  83  84
BRANCH  83  95
ATOM     95  N   UNL A   1      31.331  23.861  23.476  1.00  0.00    -0.356 N 
ATOM     96  H   UNL A   1      30.913  23.299  22.785  1.00  0.00     0.163 HD
BRANCH  95  97
ATOM     97  C   UNL A   1      31.551  23.343  24.736  1.00  0.00     0.137 A 
ATOM     98  N   UNL A   1      30.640  23.725  25.640  1.00  0.00    -0.219 NA
ATOM     99  C   UNL A   1      32.709  22.611  25.089  1.00  0.00     0.043 A 
ATOM    100  C   UNL A   1      30.834  23.320  26.894  1.00  0.00     0.224 A 
ATOM    101  C   UNL A   1      32.814  22.297  26.450  1.00  0.00     0.076 A 
ATOM    102  C   UNL A   1      33.752  22.190  24.214  1.00  0.00     0.014 A 
ATOM    103  N   UNL A   1      31.889  22.637  27.352  1.00  0.00    -0.236 NA
ATOM    104  C   UNL A   1      33.938  21.608  26.896  1.00  0.00     0.029 A 
ATOM    105  C   UNL A   1      34.854  21.474  24.679  1.00  0.00     0.001 A 
ATOM    106  C   UNL A   1      34.953  21.195  26.030  1.00  0.00     0.002 A 
ENDBRANCH  95  97
ENDBRANCH  83  95
ENDBRANCH  81  83
ENDBRANCH  80  81
ENDBRANCH  79  80
ENDBRANCH  78  79
ENDBRANCH  77  78
ENDBRANCH  76  77
ENDBRANCH  75  76
ENDBRANCH  74  75
ENDBRANCH   1  74
TORSDOF 27
ENDMDL
MODEL 2
REMARK VINA RESULT:      -8.8      5.565     10.781
REMARK SMILES O=C(OCCOCCOCCOCCOC(=O)[C@@H](Cc1c[nH]c2ccccc12)Nc1ncnc2ccccc12)c1ccc(-c2c3nc(c(-c4cccc(S(=O)(=O)[O-])c4F)c4ccc([nH]4)c(-c4cccc(S(=O)(=O)[O-])c4F)c4nc(c(-c5cccc(S(=O)(=O)[O-])c5F)c5ccc2[nH]5)C=C4)C=C3)cc1
REMARK SMILES IDX 8 1 7 2 6 3 5 4 4 5 3 6 2 7 1 8 40 9 41 10 102 11 42 12
REMARK SMILES IDX 101 13 43 14 44 15 45 16 95 17 46 18 100 19 94 20 96 21
REMARK SMILES IDX 47 22 99 23 93 24 92 25 48 27 80 28 60 29 79 30 61 31 64 32
REMARK SMILES IDX 78 33 97 34 62 35 63 36 77 38 98 39 65 40 49 41 50 42 58 43
REMARK SMILES IDX 51 44 53 45 59 46 52 47 54 48 55 49 56 50 57 51 81 52 82 53
REMARK SMILES IDX 90 54 83 55 85 56 91 57 84 58 86 59 87 60 88 61 89 62 66 63
REMARK SMILES IDX 67 64 75 65 68 66 70 67 76 68 69 69 71 70 72 71 73 72 74 73
REMARK SMILES IDX 9 74 10 75 11 76 12 77 13 78 14 79 15 80 16 81 17 82 18 83
REMARK SMILES IDX 19 84 20 85 21 86 28 87 22 88 23 89 27 90 24 92 26 93 25 94
REMARK SMILES IDX 29 95 30 97 31 98 39 99 32 100 34 101 38 102 33 103 35 104
REMARK SMILES IDX 37 105 36 106
REMARK H PARENT 96 26 64 37 22 91 29 96
REMARK Flexibility Score: inf
ROOT
ATOM      1  C   UNL A   1      34.895  22.724  26.282  1.00  0.00     0.188 C 
ENDROOT
BRANCH   1   2
ATOM      2  C   UNL A   1      36.033  22.728  25.289  1.00  0.00     0.188 C 
BRANCH   2   3
ATOM      3  O   UNL A   1      37.155  22.139  25.913  1.00  0.00    -0.376 OA
BRANCH   3   4
ATOM      4  C   UNL A   1      38.105  21.454  25.119  1.00  0.00     0.202 C 
BRANCH   4   5
ATOM      5  C   UNL A   1      39.164  20.662  25.876  1.00  0.00     0.261 C 
BRANCH   5   6
ATOM      6  O   UNL A   1      40.251  21.423  26.442  1.00  0.00    -0.460 OA
BRANCH   6   7
ATOM      7  C   UNL A   1      41.589  21.391  26.229  1.00  0.00     0.338 C 
ATOM      8  O   UNL A   1      42.061  20.398  25.676  1.00  0.00    -0.246 OA
BRANCH   7   9
ATOM      9  C   UNL A   1      42.538  22.459  26.659  1.00  0.00     0.060 A 
ATOM     10  C   UNL A   1      43.395  22.352  27.744  1.00  0.00     0.016 A 
ATOM     11  C   UNL A   1      42.660  23.605  25.860  1.00  0.00     0.016 A 
ATOM     12  C   UNL A   1      44.275  23.339  28.111  1.00  0.00     0.010 A 
ATOM     13  C   UNL A   1      43.573  24.614  26.196  1.00  0.00     0.010 A 
ATOM     14  C   UNL A   1      44.354  24.485  27.348  1.00  0.00    -0.014 A 
BRANCH  14  15
ATOM     15  C   UNL A   1      45.096  25.583  27.968  1.00  0.00     0.031 A 
ATOM     16  C   UNL A   1      46.468  25.847  27.439  1.00  0.00     0.074 A 
ATOM     17  C   UNL A   1      44.458  26.435  28.788  1.00  0.00     0.049 A 
ATOM     18  N   UNL A   1      47.347  26.720  27.831  1.00  0.00    -0.248 NA
ATOM     19  C   UNL A   1      46.898  25.031  26.285  1.00  0.00     0.031 C 
ATOM     20  C   UNL A   1      43.042  26.349  29.165  1.00  0.00     0.029 A 
ATOM     21  N   UNL A   1      44.904  27.556  29.428  1.00  0.00    -0.354 N 
ATOM     22  C   UNL A   1      48.464  26.498  27.038  1.00  0.00     0.074 A 
ATOM     23  C   UNL A   1      48.141  25.445  26.107  1.00  0.00     0.031 C 
ATOM     24  C   UNL A   1      42.745  27.366  29.990  1.00  0.00     0.029 A 
ATOM     25  C   UNL A   1      43.964  28.112  30.260  1.00  0.00     0.049 A 
ATOM     26  H   UNL A   1      45.809  27.927  29.305  1.00  0.00     0.167 HD
ATOM     27  C   UNL A   1      49.661  27.114  27.116  1.00  0.00     0.034 A 
ATOM     28  C   UNL A   1      44.112  29.076  31.187  1.00  0.00     0.034 A 
ATOM     29  C   UNL A   1      49.922  28.159  28.062  1.00  0.00     0.049 A 
ATOM     30  C   UNL A   1      45.483  29.680  31.323  1.00  0.00     0.074 A 
ATOM     31  C   UNL A   1      51.102  28.829  28.308  1.00  0.00     0.029 A 
ATOM     32  N   UNL A   1      48.969  28.673  28.932  1.00  0.00    -0.354 N 
ATOM     33  N   UNL A   1      46.562  29.441  30.613  1.00  0.00    -0.248 NA
ATOM     34  C   UNL A   1      45.663  30.686  32.374  1.00  0.00     0.031 C 
ATOM     35  C   UNL A   1      50.871  29.721  29.360  1.00  0.00     0.029 A 
ATOM     36  C   UNL A   1      49.534  29.644  29.732  1.00  0.00     0.049 A 
ATOM     37  H   UNL A   1      48.027  28.387  28.972  1.00  0.00     0.167 HD
ATOM     38  C   UNL A   1      47.544  30.284  31.109  1.00  0.00     0.074 A 
ATOM     39  C   UNL A   1      46.921  31.056  32.169  1.00  0.00     0.031 C 
ATOM     40  C   UNL A   1      48.843  30.407  30.743  1.00  0.00     0.034 A 
BRANCH  27  41
ATOM     41  C   UNL A   1      50.757  26.588  26.236  1.00  0.00     0.023 A 
ATOM     42  C   UNL A   1      51.518  25.465  26.622  1.00  0.00     0.012 A 
ATOM     43  C   UNL A   1      51.069  27.258  25.037  1.00  0.00     0.148 A 
ATOM     44  C   UNL A   1      52.597  25.043  25.844  1.00  0.00     0.002 A 
ATOM     45  C   UNL A   1      52.113  26.803  24.245  1.00  0.00     0.091 A 
ATOM     46  F   UNL A   1      50.360  28.349  24.714  1.00  0.00    -0.205 F 
ATOM     47  C   UNL A   1      52.889  25.705  24.653  1.00  0.00     0.022 A 
BRANCH  45  48
ATOM     48  S   UNL A   1      52.532  27.550  22.669  1.00  0.00     0.127 S 
ATOM     49  O   UNL A   1      51.849  26.665  21.729  1.00  0.00    -0.237 OA
ATOM     50  O   UNL A   1      51.947  28.880  22.797  1.00  0.00    -0.237 OA
ATOM     51  O   UNL A   1      53.993  27.528  22.587  1.00  0.00    -0.744 OA
ENDBRANCH  45  48
ENDBRANCH  27  41
BRANCH  28  52
ATOM     52  C   UNL A   1      42.975  29.466  32.068  1.00  0.00     0.023 A 
ATOM     53  C   UNL A   1      41.987  30.347  31.592  1.00  0.00     0.012 A 
ATOM     54  C   UNL A   1      42.860  28.952  33.377  1.00  0.00     0.148 A 
ATOM     55  C   UNL A   1      40.925  30.735  32.414  1.00  0.00     0.002 A 
ATOM     56  C   UNL A   1      41.772  29.299  34.170  1.00  0.00     0.091 A 
ATOM     57  F   UNL A   1      43.817  28.125  33.822  1.00  0.00    -0.205 F 
ATOM     58  C   UNL A   1      40.812  30.205  33.697  1.00  0.00     0.022 A 
BRANCH  56  59
ATOM     59  S   UNL A   1      41.485  28.578  35.791  1.00  0.00     0.127 S 
ATOM     60  O   UNL A   1      42.741  28.861  36.472  1.00  0.00    -0.237 OA
ATOM     61  O   UNL A   1      40.335  29.344  36.264  1.00  0.00    -0.237 OA
ATOM     62  O   UNL A   1      41.202  27.164  35.547  1.00  0.00    -0.744 OA
ENDBRANCH  56  59
ENDBRANCH  28  52
BRANCH  40  63
ATOM     63  C   UNL A   1      49.655  31.448  31.457  1.00  0.00     0.023 A 
ATOM     64  C   UNL A   1      49.690  32.770  30.973  1.00  0.00     0.012 A 
ATOM     65  C   UNL A   1      50.292  31.127  32.670  1.00  0.00     0.148 A 
ATOM     66  C   UNL A   1      50.378  33.754  31.677  1.00  0.00     0.002 A 
ATOM     67  C   UNL A   1      50.922  32.125  33.395  1.00  0.00     0.091 A 
ATOM     68  F   UNL A   1      50.255  29.855  33.095  1.00  0.00    -0.205 F 
ATOM     69  C   UNL A   1      50.979  33.436  32.894  1.00  0.00     0.022 A 
BRANCH  67  70
ATOM     70  S   UNL A   1      51.612  31.830  35.025  1.00  0.00     0.127 S 
ATOM     71  O   UNL A   1      50.470  31.258  35.733  1.00  0.00    -0.237 OA
ATOM     72  O   UNL A   1      52.690  30.884  34.736  1.00  0.00    -0.237 OA
ATOM     73  O   UNL A   1      52.063  33.128  35.512  1.00  0.00    -0.744 OA
ENDBRANCH  67  70
ENDBRANCH  40  63
ENDBRANCH  14  15
ENDBRANCH   7   9
ENDBRANCH   6   7
ENDBRANCH   5   6
ENDBRANCH   4   5
ENDBRANCH   3   4
ENDBRANCH   2   3
ENDBRANCH   1   2
BRANCH   1  74
ATOM     74  O   UNL A   1      33.742  23.410  25.816  1.00  0.00    -0.377 OA
BRANCH  74  75
ATOM     75  C   UNL A   1      33.819  24.782  25.455  1.00  0.00     0.188 C 
BRANCH  75  76
ATOM     76  C   UNL A   1      32.550  25.565  25.117  1.00  0.00     0.188 C 
BRANCH  76  77
ATOM     77  O   UNL A   1      32.417  26.810  25.755  1.00  0.00    -0.376 OA
BRANCH  77  78
ATOM     78  C   UNL A   1      33.586  27.477  26.227  1.00  0.00     0.202 C 
BRANCH  78  79
ATOM     79  C   UNL A   1      33.568  28.803  27.025  1.00  0.00     0.261 C 
BRANCH  79  80
ATOM     80  O   UNL A   1      34.695  29.694  26.863  1.00  0.00    -0.462 OA
BRANCH  80  81
ATOM     81  C   UNL A   1      34.678  30.835  27.601  1.00  0.00     0.329 C 
ATOM     82  O   UNL A   1      33.634  31.446  27.843  1.00  0.00    -0.250 OA
BRANCH  81  83
ATOM     83  C   UNL A   1      36.025  31.278  28.261  1.00  0.00     0.195 C 
BRANCH  83  84
ATOM     84  C   UNL A   1      37.432  30.710  27.981  1.00  0.00     0.074 C 
BRANCH  84  85
ATOM     85  C   UNL A   1      37.999  29.569  28.753  1.00  0.00    -0.020 A 
ATOM     86  C   UNL A   1      38.781  28.580  28.175  1.00  0.00     0.087 A 
ATOM     87  C   UNL A   1      37.882  29.245  30.136  1.00  0.00     0.003 A 
ATOM     88  N   UNL A   1      39.192  27.726  29.154  1.00  0.00    -0.361 N 
ATOM     89  C   UNL A   1      38.644  28.094  30.357  1.00  0.00     0.046 A 
ATOM     90  C   UNL A   1      37.224  29.827  31.237  1.00  0.00     0.010 A 
ATOM     91  H   UNL A   1      39.794  26.958  29.019  1.00  0.00     0.166 HD
ATOM     92  C   UNL A   1      38.781  27.506  31.618  1.00  0.00     0.026 A 
ATOM     93  C   UNL A   1      37.350  29.254  32.503  1.00  0.00     0.001 A 
ATOM     94  C   UNL A   1      38.117  28.109  32.688  1.00  0.00     0.002 A 
ENDBRANCH  84  85
ENDBRANCH  83  84
BRANCH  83  95
ATOM     95  N   UNL A   1      36.136  32.746  28.312  1.00  0.00    -0.356 N 
ATOM     96  H   UNL A   1      35.754  33.289  27.586  1.00  0.00     0.163 HD
BRANCH  95  97
ATOM     97  C   UNL A   1      36.767  33.368  29.370  1.00  0.00     0.137 A 
ATOM     98  N   UNL A   1      37.974  33.860  29.059  1.00  0.00    -0.219 NA
ATOM     99  C   UNL A   1      36.273  33.353  30.694  1.00  0.00     0.043 A 
ATOM    100  C   UNL A   1      38.671  34.409  30.053  1.00  0.00     0.224 A 
ATOM    101  C   UNL A   1      37.131  33.915  31.649  1.00  0.00     0.076 A 
ATOM    102  C   UNL A   1      35.025  32.822  31.133  1.00  0.00     0.014 A 
ATOM    103  N   UNL A   1      38.317  34.446  31.342  1.00  0.00    -0.236 NA
ATOM    104  C   UNL A   1      36.742  33.913  32.986  1.00  0.00     0.029 A 
ATOM    105  C   UNL A   1      34.644  32.859  32.473  1.00  0.00     0.001 A 
ATOM    106  C   UNL A   1      35.515  33.395  33.406  1.00  0.00     0.002 A 
ENDBRANCH  95  97
ENDBRANCH  83  95
ENDBRANCH  81  83
ENDBRANCH  80  81
ENDBRANCH  79  80
ENDBRANCH  78  79
ENDBRANCH  77  78
ENDBRANCH  76  77
ENDBRANCH  75  76
ENDBRANCH  74  75
ENDBRANCH   1  74
TORSDOF 27
ENDMDL
MODEL 3
REMARK VINA RESULT:      -8.7      2.865      6.310
REMARK SMILES O=C(OCCOCCOCCOCCOC(=O)[C@@H](Cc1c[nH]c2ccccc12)Nc1ncnc2ccccc12)c1ccc(-c2c3nc(c(-c4cccc(S(=O)(=O)[O-])c4F)c4ccc([nH]4)c(-c4cccc(S(=O)(=O)[O-])c4F)c4nc(c(-c5cccc(S(=O)(=O)[O-])c5F)c5ccc2[nH]5)C=C4)C=C3)cc1
REMARK SMILES IDX 8 1 7 2 6 3 5 4 4 5 3 6 2 7 1 8 40 9 41 10 102 11 42 12
REMARK SMILES IDX 101 13 43 14 44 15 45 16 95 17 46 18 100 19 94 20 96 21
REMARK SMILES IDX 47 22 99 23 93 24 92 25 48 27 80 28 60 29 79 30 61 31 64 32
REMARK SMILES IDX 78 33 97 34 62 35 63 36 77 38 98 39 65 40 49 41 50 42 58 43
REMARK SMILES IDX 51 44 53 45 59 46 52 47 54 48 55 49 56 50 57 51 81 52 82 53
REMARK SMILES IDX 90 54 83 55 85 56 91 57 84 58 86 59 87 60 88 61 89 62 66 63
REMARK SMILES IDX 67 64 75 65 68 66 70 67 76 68 69 69 71 70 72 71 73 72 74 73
REMARK SMILES IDX 9 74 10 75 11 76 12 77 13 78 14 79 15 80 16 81 17 82 18 83
REMARK SMILES IDX 19 84 20 85 21 86 28 87 22 88 23 89 27 90 24 92 26 93 25 94
REMARK SMILES IDX 29 95 30 97 31 98 39 99 32 100 34 101 38 102 33 103 35 104
REMARK SMILES IDX 37 105 36 106
REMARK H PARENT 96 26 64 37 22 91 29 96
REMARK Flexibility Score: inf
ROOT
ATOM      1  C   UNL A   1      40.014  22.321  26.147  1.00  0.00     0.188 C 
ENDROOT
BRANCH   1   2
ATOM      2  C   UNL A   1      40.747  22.952  27.307  1.00  0.00     0.188 C 
BRANCH   2   3
ATOM      3  O   UNL A   1      41.999  22.309  27.428  1.00  0.00    -0.376 OA
BRANCH   3   4
ATOM      4  C   UNL A   1      43.180  23.090  27.392  1.00  0.00     0.202 C 
BRANCH   4   5
ATOM      5  C   UNL A   1      42.991  24.596  27.534  1.00  0.00     0.261 C 
BRANCH   5   6
ATOM      6  O   UNL A   1      43.698  25.231  28.619  1.00  0.00    -0.460 OA
BRANCH   6   7
ATOM      7  C   UNL A   1      44.909  25.836  28.683  1.00  0.00     0.338 C 
ATOM      8  O   UNL A   1      45.885  25.141  28.965  1.00  0.00    -0.246 OA
BRANCH   7   9
ATOM      9  C   UNL A   1      45.135  27.296  28.478  1.00  0.00     0.060 A 
ATOM     10  C   UNL A   1      45.675  28.144  29.434  1.00  0.00     0.016 A 
ATOM     11  C   UNL A   1      44.893  27.838  27.208  1.00  0.00     0.016 A 
ATOM     12  C   UNL A   1      45.894  29.481  29.219  1.00  0.00     0.010 A 
ATOM     13  C   UNL A   1      45.137  29.194  26.953  1.00  0.00     0.010 A 
ATOM     14  C   UNL A   1      45.607  30.018  27.981  1.00  0.00    -0.014 A 
BRANCH  14  15
ATOM     15  C   UNL A   1      45.599  31.480  27.935  1.00  0.00     0.031 A 
ATOM     16  C   UNL A   1      44.401  32.161  28.512  1.00  0.00     0.074 A 
ATOM     17  C   UNL A   1      46.724  32.140  27.612  1.00  0.00     0.049 A 
ATOM     18  N   UNL A   1      44.119  33.429  28.560  1.00  0.00    -0.248 NA
ATOM     19  C   UNL A   1      43.390  31.292  29.149  1.00  0.00     0.031 C 
ATOM     20  C   UNL A   1      48.002  31.513  27.254  1.00  0.00     0.029 A 
ATOM     21  N   UNL A   1      46.986  33.479  27.562  1.00  0.00    -0.354 N 
ATOM     22  C   UNL A   1      42.864  33.504  29.148  1.00  0.00     0.074 A 
ATOM     23  C   UNL A   1      42.455  32.163  29.486  1.00  0.00     0.031 C 
ATOM     24  C   UNL A   1      48.905  32.472  27.000  1.00  0.00     0.029 A 
ATOM     25  C   UNL A   1      48.245  33.765  27.094  1.00  0.00     0.049 A 
ATOM     26  H   UNL A   1      46.337  34.169  27.833  1.00  0.00     0.167 HD
ATOM     27  C   UNL A   1      42.119  34.609  29.352  1.00  0.00     0.034 A 
ATOM     28  C   UNL A   1      48.765  34.948  26.720  1.00  0.00     0.034 A 
ATOM     29  C   UNL A   1      42.582  35.919  28.998  1.00  0.00     0.049 A 
ATOM     30  C   UNL A   1      47.879  36.155  26.866  1.00  0.00     0.074 A 
ATOM     31  C   UNL A   1      41.915  37.123  29.078  1.00  0.00     0.029 A 
ATOM     32  N   UNL A   1      43.843  36.181  28.476  1.00  0.00    -0.354 N 
ATOM     33  N   UNL A   1      46.668  36.230  27.372  1.00  0.00    -0.248 NA
ATOM     34  C   UNL A   1      48.419  37.435  26.401  1.00  0.00     0.031 C 
ATOM     35  C   UNL A   1      42.762  38.110  28.564  1.00  0.00     0.029 A 
ATOM     36  C   UNL A   1      43.975  37.528  28.213  1.00  0.00     0.049 A 
ATOM     37  H   UNL A   1      44.540  35.504  28.319  1.00  0.00     0.167 HD
ATOM     38  C   UNL A   1      46.310  37.568  27.314  1.00  0.00     0.074 A 
ATOM     39  C   UNL A   1      47.445  38.270  26.741  1.00  0.00     0.031 C 
ATOM     40  C   UNL A   1      45.152  38.169  27.681  1.00  0.00     0.034 A 
BRANCH  27  41
ATOM     41  C   UNL A   1      40.727  34.406  29.874  1.00  0.00     0.023 A 
ATOM     42  C   UNL A   1      39.628  34.328  28.994  1.00  0.00     0.012 A 
ATOM     43  C   UNL A   1      40.506  34.349  31.264  1.00  0.00     0.148 A 
ATOM     44  C   UNL A   1      38.328  34.236  29.493  1.00  0.00     0.002 A 
ATOM     45  C   UNL A   1      39.215  34.210  31.752  1.00  0.00     0.091 A 
ATOM     46  F   UNL A   1      41.561  34.470  32.082  1.00  0.00    -0.205 F 
ATOM     47  C   UNL A   1      38.123  34.168  30.870  1.00  0.00     0.022 A 
BRANCH  45  48
ATOM     48  S   UNL A   1      38.850  34.056  33.502  1.00  0.00     0.127 S 
ATOM     49  O   UNL A   1      37.707  34.952  33.647  1.00  0.00    -0.237 OA
ATOM     50  O   UNL A   1      38.538  32.636  33.624  1.00  0.00    -0.237 OA
ATOM     51  O   UNL A   1      40.061  34.480  34.206  1.00  0.00    -0.744 OA
ENDBRANCH  45  48
ENDBRANCH  27  41
BRANCH  28  52
ATOM     52  C   UNL A   1      50.133  35.026  26.134  1.00  0.00     0.023 A 
ATOM     53  C   UNL A   1      50.319  34.832  24.753  1.00  0.00     0.012 A 
ATOM     54  C   UNL A   1      51.255  35.309  26.942  1.00  0.00     0.148 A 
ATOM     55  C   UNL A   1      51.599  34.885  24.194  1.00  0.00     0.002 A 
ATOM     56  C   UNL A   1      52.518  35.414  26.371  1.00  0.00     0.091 A 
ATOM     57  F   UNL A   1      51.064  35.476  28.259  1.00  0.00    -0.205 F 
ATOM     58  C   UNL A   1      52.695  35.185  24.999  1.00  0.00     0.022 A 
BRANCH  56  59
ATOM     59  S   UNL A   1      53.968  35.908  27.310  1.00  0.00     0.127 S 
ATOM     60  O   UNL A   1      54.127  34.788  28.227  1.00  0.00    -0.237 OA
ATOM     61  O   UNL A   1      54.986  36.006  26.266  1.00  0.00    -0.237 OA
ATOM     62  O   UNL A   1      53.620  37.187  27.928  1.00  0.00    -0.744 OA
ENDBRANCH  56  59
ENDBRANCH  28  52
BRANCH  40  63
ATOM     63  C   UNL A   1      45.082  39.660  27.524  1.00  0.00     0.023 A 
ATOM     64  C   UNL A   1      44.671  40.221  26.299  1.00  0.00     0.012 A 
ATOM     65  C   UNL A   1      45.322  40.493  28.632  1.00  0.00     0.148 A 
ATOM     66  C   UNL A   1      44.530  41.600  26.174  1.00  0.00     0.002 A 
ATOM     67  C   UNL A   1      45.120  41.859  28.517  1.00  0.00     0.091 A 
ATOM     68  F   UNL A   1      45.729  39.930  29.780  1.00  0.00    -0.205 F 
ATOM     69  C   UNL A   1      44.738  42.416  27.285  1.00  0.00     0.022 A 
BRANCH  67  70
ATOM     70  S   UNL A   1      45.245  42.964  29.924  1.00  0.00     0.127 S 
ATOM     71  O   UNL A   1      46.055  44.050  29.378  1.00  0.00    -0.237 OA
ATOM     72  O   UNL A   1      43.845  43.308  30.171  1.00  0.00    -0.237 OA
ATOM     73  O   UNL A   1      45.872  42.191  30.989  1.00  0.00    -0.744 OA
ENDBRANCH  67  70
ENDBRANCH  40  63
ENDBRANCH  14  15
ENDBRANCH   7   9
ENDBRANCH   6   7
ENDBRANCH   5   6
ENDBRANCH   4   5
ENDBRANCH   3   4
ENDBRANCH   2   3
ENDBRANCH   1   2
BRANCH   1  74
ATOM     74  O   UNL A   1      38.608  22.254  26.342  1.00  0.00    -0.377 OA
BRANCH  74  75
ATOM     75  C   UNL A   1      37.784  21.574  25.405  1.00  0.00     0.188 C 
BRANCH  75  76
ATOM     76  C   UNL A   1      36.869  22.361  24.466  1.00  0.00     0.188 C 
BRANCH  76  77
ATOM     77  O   UNL A   1      36.765  23.737  24.734  1.00  0.00    -0.376 OA
BRANCH  77  78
ATOM     78  C   UNL A   1      35.474  24.310  24.934  1.00  0.00     0.202 C 
BRANCH  78  79
ATOM     79  C   UNL A   1      34.538  24.764  23.788  1.00  0.00     0.261 C 
BRANCH  79  80
ATOM     80  O   UNL A   1      33.810  25.999  23.974  1.00  0.00    -0.462 OA
BRANCH  80  81
ATOM     81  C   UNL A   1      32.880  26.014  24.965  1.00  0.00     0.329 C 
ATOM     82  O   UNL A   1      33.174  26.252  26.138  1.00  0.00    -0.250 OA
BRANCH  81  83
ATOM     83  C   UNL A   1      31.383  25.855  24.540  1.00  0.00     0.195 C 
BRANCH  83  84
ATOM     84  C   UNL A   1      30.739  26.290  23.207  1.00  0.00     0.074 C 
BRANCH  84  85
ATOM     85  C   UNL A   1      30.632  27.720  22.803  1.00  0.00    -0.020 A 
ATOM     86  C   UNL A   1      31.716  28.462  22.357  1.00  0.00     0.087 A 
ATOM     87  C   UNL A   1      29.503  28.588  22.783  1.00  0.00     0.003 A 
ATOM     88  N   UNL A   1      31.276  29.704  22.008  1.00  0.00    -0.361 N 
ATOM     89  C   UNL A   1      29.934  29.816  22.275  1.00  0.00     0.046 A 
ATOM     90  C   UNL A   1      28.143  28.451  23.123  1.00  0.00     0.010 A 
ATOM     91  H   UNL A   1      31.837  30.415  21.621  1.00  0.00     0.166 HD
ATOM     92  C   UNL A   1      29.075  30.904  22.088  1.00  0.00     0.026 A 
ATOM     93  C   UNL A   1      27.270  29.526  22.942  1.00  0.00     0.001 A 
ATOM     94  C   UNL A   1      27.733  30.734  22.433  1.00  0.00     0.002 A 
ENDBRANCH  84  85
ENDBRANCH  83  84
BRANCH  83  95
ATOM     95  N   UNL A   1      30.877  24.510  24.865  1.00  0.00    -0.356 N 
ATOM     96  H   UNL A   1      29.989  24.410  25.277  1.00  0.00     0.163 HD
BRANCH  95  97
ATOM     97  C   UNL A   1      31.634  23.389  24.596  1.00  0.00     0.137 A 
ATOM     98  N   UNL A   1      31.501  22.940  23.340  1.00  0.00    -0.219 NA
ATOM     99  C   UNL A   1      32.358  22.678  25.581  1.00  0.00     0.043 A 
ATOM    100  C   UNL A   1      32.148  21.817  23.034  1.00  0.00     0.224 A 
ATOM    101  C   UNL A   1      32.944  21.486  25.136  1.00  0.00     0.076 A 
ATOM    102  C   UNL A   1      32.528  23.048  26.947  1.00  0.00     0.014 A 
ATOM    103  N   UNL A   1      32.852  21.053  23.876  1.00  0.00    -0.236 NA
ATOM    104  C   UNL A   1      33.647  20.702  26.046  1.00  0.00     0.029 A 
ATOM    105  C   UNL A   1      33.262  22.262  27.833  1.00  0.00     0.001 A 
ATOM    106  C   UNL A   1      33.813  21.076  27.382  1.00  0.00     0.002 A 
ENDBRANCH  95  97
ENDBRANCH  83  95
ENDBRANCH  81  83
ENDBRANCH  80  81
ENDBRANCH  79  80
ENDBRANCH  78  79
ENDBRANCH  77  78
ENDBRANCH  76  77
ENDBRANCH  75  76
ENDBRANCH  74  75
ENDBRANCH   1  74
TORSDOF 27
ENDMDL
