MODEL 1
REMARK VINA RESULT:      -8.1      0.000      0.000
REMARK SMILES O=C(CNC(=O)c1ccc(Cl)cc1Cl)OCCOCCOCCOCCOC(=O)c1ccc(-c2c3nc(c(-c4cccc(S(=O)(=O)[O-])c4F)c4ccc([nH]4)c(-c4cccc(S(=O)(=O)[O-])c4F)c4nc(c(-c5cccc(S(=O)(=O)[O-])c5F)c5ccc2[nH]5)C=C4)C=C3)cc1
REMARK SMILES IDX 22 1 21 2 20 3 19 4 18 5 17 6 16 7 15 8 2 9 1 10 3 11 4 12
REMARK SMILES IDX 5 13 6 15 7 16 8 17 13 18 9 19 12 20 14 21 10 22 11 23 23 24
REMARK SMILES IDX 24 25 25 26 26 27 27 28 28 29 29 30 30 31 31 32 92 33 32 34
REMARK SMILES IDX 91 35 33 36 34 37 35 38 85 39 36 40 90 41 84 42 86 43 37 44
REMARK SMILES IDX 89 45 83 46 82 47 38 49 70 50 50 51 69 52 51 53 54 54 68 55
REMARK SMILES IDX 87 56 52 57 53 58 67 60 88 61 55 62 39 63 40 64 48 65 41 66
REMARK SMILES IDX 43 67 49 68 42 69 44 70 45 71 46 72 47 73 71 74 72 75 80 76
REMARK SMILES IDX 73 77 75 78 81 79 74 80 76 81 77 82 78 83 79 84 56 85 57 86
REMARK SMILES IDX 65 87 58 88 60 89 66 90 59 91 61 92 62 93 63 94 64 95
REMARK H PARENT 4 14 86 48 54 59
REMARK Flexibility Score: inf
ROOT
ATOM      1  C   UNL A   1      33.705  31.866  27.869  1.00  0.00     0.188 C 
ENDROOT
BRANCH   1   2
ATOM      2  O   UNL A   1      33.786  30.592  27.254  1.00  0.00    -0.377 OA
BRANCH   2   3
ATOM      3  C   UNL A   1      32.562  30.101  26.738  1.00  0.00     0.188 C 
BRANCH   3   4
ATOM      4  C   UNL A   1      32.571  29.275  25.445  1.00  0.00     0.188 C 
BRANCH   4   5
ATOM      5  O   UNL A   1      31.579  29.425  24.436  1.00  0.00    -0.376 OA
BRANCH   5   6
ATOM      6  C   UNL A   1      31.079  28.356  23.659  1.00  0.00     0.202 C 
BRANCH   6   7
ATOM      7  C   UNL A   1      31.707  26.968  23.737  1.00  0.00     0.261 C 
BRANCH   7   8
ATOM      8  O   UNL A   1      31.798  26.210  22.531  1.00  0.00    -0.462 OA
BRANCH   8   9
ATOM      9  C   UNL A   1      32.746  25.303  22.226  1.00  0.00     0.325 C 
ATOM     10  O   UNL A   1      33.665  25.632  21.473  1.00  0.00    -0.250 OA
BRANCH   9  11
ATOM     11  C   UNL A   1      32.599  23.846  22.649  1.00  0.00     0.239 C 
BRANCH  11  12
ATOM     12  N   UNL A   1      31.627  23.505  23.674  1.00  0.00    -0.341 N 
ATOM     13  C   UNL A   1      31.698  22.604  24.707  1.00  0.00     0.253 C 
ATOM     14  H   UNL A   1      30.780  24.003  23.618  1.00  0.00     0.164 HD
ATOM     15  O   UNL A   1      30.967  22.779  25.679  1.00  0.00    -0.269 OA
BRANCH  13  16
ATOM     16  C   UNL A   1      32.578  21.411  24.670  1.00  0.00     0.058 A 
ATOM     17  C   UNL A   1      32.137  20.193  24.136  1.00  0.00     0.017 A 
ATOM     18  C   UNL A   1      33.908  21.517  25.123  1.00  0.00     0.055 A 
ATOM     19  C   UNL A   1      32.992  19.084  24.113  1.00  0.00     0.021 A 
ATOM     20  C   UNL A   1      34.766  20.413  25.072  1.00  0.00     0.041 A 
ATOM     21  Cl  UNL A   1      34.551  22.962  25.826  1.00  0.00    -0.083 Cl
ATOM     22  C   UNL A   1      34.301  19.200  24.578  1.00  0.00     0.042 A 
ATOM     23  Cl  UNL A   1      35.351  17.838  24.540  1.00  0.00    -0.084 Cl
ENDBRANCH  13  16
ENDBRANCH  11  12
ENDBRANCH   9  11
ENDBRANCH   8   9
ENDBRANCH   7   8
ENDBRANCH   6   7
ENDBRANCH   5   6
ENDBRANCH   4   5
ENDBRANCH   3   4
ENDBRANCH   2   3
ENDBRANCH   1   2
BRANCH   1  24
ATOM     24  C   UNL A   1      35.081  32.541  27.949  1.00  0.00     0.188 C 
BRANCH  24  25
ATOM     25  O   UNL A   1      35.308  33.143  29.222  1.00  0.00    -0.376 OA
BRANCH  25  26
ATOM     26  C   UNL A   1      35.264  32.264  30.345  1.00  0.00     0.202 C 
BRANCH  26  27
ATOM     27  C   UNL A   1      35.829  32.727  31.704  1.00  0.00     0.261 C 
BRANCH  27  28
ATOM     28  O   UNL A   1      37.238  33.016  31.769  1.00  0.00    -0.460 OA
BRANCH  28  29
ATOM     29  C   UNL A   1      37.651  34.278  32.005  1.00  0.00     0.338 C 
ATOM     30  O   UNL A   1      37.211  35.046  32.845  1.00  0.00    -0.246 OA
BRANCH  29  31
ATOM     31  C   UNL A   1      38.913  34.469  31.238  1.00  0.00     0.060 A 
ATOM     32  C   UNL A   1      40.129  34.501  31.937  1.00  0.00     0.016 A 
ATOM     33  C   UNL A   1      38.916  34.470  29.838  1.00  0.00     0.016 A 
ATOM     34  C   UNL A   1      41.344  34.528  31.241  1.00  0.00     0.010 A 
ATOM     35  C   UNL A   1      40.131  34.519  29.145  1.00  0.00     0.010 A 
ATOM     36  C   UNL A   1      41.353  34.561  29.839  1.00  0.00    -0.014 A 
BRANCH  36  37
ATOM     37  C   UNL A   1      42.613  34.812  29.092  1.00  0.00     0.031 A 
ATOM     38  C   UNL A   1      43.586  33.673  28.948  1.00  0.00     0.074 A 
ATOM     39  C   UNL A   1      42.921  36.026  28.598  1.00  0.00     0.049 A 
ATOM     40  N   UNL A   1      44.782  33.668  28.420  1.00  0.00    -0.248 NA
ATOM     41  C   UNL A   1      43.153  32.368  29.474  1.00  0.00     0.031 C 
ATOM     42  C   UNL A   1      42.070  37.214  28.671  1.00  0.00     0.029 A 
ATOM     43  N   UNL A   1      44.061  36.470  27.969  1.00  0.00    -0.354 N 
ATOM     44  C   UNL A   1      45.257  32.373  28.582  1.00  0.00     0.074 A 
ATOM     45  C   UNL A   1      44.221  31.617  29.250  1.00  0.00     0.031 C 
ATOM     46  C   UNL A   1      42.738  38.260  28.150  1.00  0.00     0.029 A 
ATOM     47  C   UNL A   1      44.071  37.826  27.734  1.00  0.00     0.049 A 
ATOM     48  H   UNL A   1      44.801  35.873  27.712  1.00  0.00     0.167 HD
ATOM     49  C   UNL A   1      46.449  31.854  28.206  1.00  0.00     0.034 A 
ATOM     50  C   UNL A   1      45.056  38.629  27.275  1.00  0.00     0.034 A 
ATOM     51  C   UNL A   1      47.478  32.594  27.531  1.00  0.00     0.049 A 
ATOM     52  C   UNL A   1      46.390  38.027  26.899  1.00  0.00     0.074 A 
ATOM     53  C   UNL A   1      48.688  32.131  27.046  1.00  0.00     0.029 A 
ATOM     54  N   UNL A   1      47.433  33.953  27.269  1.00  0.00    -0.354 N 
ATOM     55  N   UNL A   1      46.766  36.771  26.912  1.00  0.00    -0.248 NA
ATOM     56  C   UNL A   1      47.432  38.953  26.424  1.00  0.00     0.031 C 
ATOM     57  C   UNL A   1      49.394  33.219  26.525  1.00  0.00     0.029 A 
ATOM     58  C   UNL A   1      48.608  34.353  26.657  1.00  0.00     0.049 A 
ATOM     59  H   UNL A   1      46.679  34.546  27.487  1.00  0.00     0.167 HD
ATOM     60  C   UNL A   1      48.070  36.755  26.424  1.00  0.00     0.074 A 
ATOM     61  C   UNL A   1      48.411  38.122  26.094  1.00  0.00     0.031 C 
ATOM     62  C   UNL A   1      48.918  35.707  26.282  1.00  0.00     0.034 A 
BRANCH  49  63
ATOM     63  C   UNL A   1      46.711  30.404  28.502  1.00  0.00     0.023 A 
ATOM     64  C   UNL A   1      46.304  29.419  27.581  1.00  0.00     0.012 A 
ATOM     65  C   UNL A   1      47.441  30.029  29.646  1.00  0.00     0.148 A 
ATOM     66  C   UNL A   1      46.608  28.077  27.802  1.00  0.00     0.002 A 
ATOM     67  C   UNL A   1      47.775  28.695  29.839  1.00  0.00     0.091 A 
ATOM     68  F   UNL A   1      47.795  30.983  30.519  1.00  0.00    -0.205 F 
ATOM     69  C   UNL A   1      47.355  27.717  28.922  1.00  0.00     0.022 A 
BRANCH  67  70
ATOM     70  S   UNL A   1      48.797  28.138  31.207  1.00  0.00     0.127 S 
ATOM     71  O   UNL A   1      49.133  26.779  30.787  1.00  0.00    -0.237 OA
ATOM     72  O   UNL A   1      49.911  29.085  31.161  1.00  0.00    -0.237 OA
ATOM     73  O   UNL A   1      47.964  28.231  32.397  1.00  0.00    -0.744 OA
ENDBRANCH  67  70
ENDBRANCH  49  63
BRANCH  50  74
ATOM     74  C   UNL A   1      44.841  40.101  27.151  1.00  0.00     0.023 A 
ATOM     75  C   UNL A   1      44.313  40.633  25.957  1.00  0.00     0.012 A 
ATOM     76  C   UNL A   1      45.193  40.981  28.194  1.00  0.00     0.148 A 
ATOM     77  C   UNL A   1      44.180  42.013  25.790  1.00  0.00     0.002 A 
ATOM     78  C   UNL A   1      45.001  42.349  28.044  1.00  0.00     0.091 A 
ATOM     79  F   UNL A   1      45.720  40.462  29.312  1.00  0.00    -0.205 F 
ATOM     80  C   UNL A   1      44.514  42.870  26.835  1.00  0.00     0.022 A 
BRANCH  78  81
ATOM     81  S   UNL A   1      45.280  43.507  29.387  1.00  0.00     0.127 S 
ATOM     82  O   UNL A   1      44.797  44.759  28.811  1.00  0.00    -0.237 OA
ATOM     83  O   UNL A   1      44.438  42.950  30.447  1.00  0.00    -0.237 OA
ATOM     84  O   UNL A   1      46.708  43.441  29.665  1.00  0.00    -0.744 OA
ENDBRANCH  78  81
ENDBRANCH  50  74
BRANCH  62  85
ATOM     85  C   UNL A   1      50.293  35.978  25.726  1.00  0.00     0.023 A 
ATOM     86  C   UNL A   1      50.534  35.808  24.347  1.00  0.00     0.012 A 
ATOM     87  C   UNL A   1      51.317  36.489  26.547  1.00  0.00     0.148 A 
ATOM     88  C   UNL A   1      51.781  36.113  23.802  1.00  0.00     0.002 A 
ATOM     89  C   UNL A   1      52.541  36.838  25.989  1.00  0.00     0.091 A 
ATOM     90  F   UNL A   1      51.072  36.634  27.858  1.00  0.00    -0.205 F 
ATOM     91  C   UNL A   1      52.779  36.638  24.619  1.00  0.00     0.022 A 
BRANCH  89  92
ATOM     92  S   UNL A   1      53.854  37.611  26.941  1.00  0.00     0.127 S 
ATOM     93  O   UNL A   1      54.180  36.562  27.906  1.00  0.00    -0.237 OA
ATOM     94  O   UNL A   1      54.879  37.844  25.922  1.00  0.00    -0.237 OA
ATOM     95  O   UNL A   1      53.280  38.823  27.510  1.00  0.00    -0.744 OA
ENDBRANCH  89  92
ENDBRANCH  62  85
ENDBRANCH  36  37
ENDBRANCH  29  31
ENDBRANCH  28  29
ENDBRANCH  27  28
ENDBRANCH  26  27
ENDBRANCH  25  26
ENDBRANCH  24  25
ENDBRANCH   1  24
TORSDOF 25
ENDMDL
MODEL 2
REMARK VINA RESULT:      -8.1      1.923      2.207
REMARK SMILES O=C(CNC(=O)c1ccc(Cl)cc1Cl)OCCOCCOCCOCCOC(=O)c1ccc(-c2c3nc(c(-c4cccc(S(=O)(=O)[O-])c4F)c4ccc([nH]4)c(-c4cccc(S(=O)(=O)[O-])c4F)c4nc(c(-c5cccc(S(=O)(=O)[O-])c5F)c5ccc2[nH]5)C=C4)C=C3)cc1
REMARK SMILES IDX 22 1 21 2 20 3 19 4 18 5 17 6 16 7 15 8 2 9 1 10 3 11 4 12
REMARK SMILES IDX 5 13 6 15 7 16 8 17 13 18 9 19 12 20 14 21 10 22 11 23 23 24
REMARK SMILES IDX 24 25 25 26 26 27 27 28 28 29 29 30 30 31 31 32 92 33 32 34
REMARK SMILES IDX 91 35 33 36 34 37 35 38 85 39 36 40 90 41 84 42 86 43 37 44
REMARK SMILES IDX 89 45 83 46 82 47 38 49 70 50 50 51 69 52 51 53 54 54 68 55
REMARK SMILES IDX 87 56 52 57 53 58 67 60 88 61 55 62 39 63 40 64 48 65 41 66
REMARK SMILES IDX 43 67 49 68 42 69 44 70 45 71 46 72 47 73 71 74 72 75 80 76
REMARK SMILES IDX 73 77 75 78 81 79 74 80 76 81 77 82 78 83 79 84 56 85 57 86
REMARK SMILES IDX 65 87 58 88 60 89 66 90 59 91 61 92 62 93 63 94 64 95
REMARK H PARENT 4 14 86 48 54 59
REMARK Flexibility Score: inf
ROOT
ATOM      1  C   UNL A   1      33.653  31.730  27.969  1.00  0.00     0.188 C 
ENDROOT
BRANCH   1   2
ATOM      2  O   UNL A   1      33.667  30.468  27.324  1.00  0.00    -0.377 OA
BRANCH   2   3
ATOM      3  C   UNL A   1      32.428  30.074  26.760  1.00  0.00     0.188 C 
BRANCH   3   4
ATOM      4  C   UNL A   1      32.419  29.303  25.433  1.00  0.00     0.188 C 
BRANCH   4   5
ATOM      5  O   UNL A   1      31.475  29.568  24.403  1.00  0.00    -0.376 OA
BRANCH   5   6
ATOM      6  C   UNL A   1      30.939  28.575  23.552  1.00  0.00     0.202 C 
BRANCH   6   7
ATOM      7  C   UNL A   1      31.498  27.156  23.554  1.00  0.00     0.261 C 
BRANCH   7   8
ATOM      8  O   UNL A   1      31.583  26.472  22.302  1.00  0.00    -0.462 OA
BRANCH   8   9
ATOM      9  C   UNL A   1      32.580  25.661  21.901  1.00  0.00     0.325 C 
ATOM     10  O   UNL A   1      33.296  26.017  20.962  1.00  0.00    -0.250 OA
BRANCH   9  11
ATOM     11  C   UNL A   1      32.715  24.250  22.463  1.00  0.00     0.239 C 
BRANCH  11  12
ATOM     12  N   UNL A   1      31.978  23.898  23.664  1.00  0.00    -0.341 N 
ATOM     13  C   UNL A   1      32.396  23.298  24.825  1.00  0.00     0.253 C 
ATOM     14  H   UNL A   1      31.022  24.129  23.641  1.00  0.00     0.164 HD
ATOM     15  O   UNL A   1      31.734  23.481  25.844  1.00  0.00    -0.269 OA
BRANCH  13  16
ATOM     16  C   UNL A   1      33.578  22.403  24.883  1.00  0.00     0.058 A 
ATOM     17  C   UNL A   1      33.465  21.026  24.649  1.00  0.00     0.017 A 
ATOM     18  C   UNL A   1      34.853  22.953  25.115  1.00  0.00     0.055 A 
ATOM     19  C   UNL A   1      34.598  20.206  24.707  1.00  0.00     0.021 A 
ATOM     20  C   UNL A   1      35.986  22.134  25.146  1.00  0.00     0.041 A 
ATOM     21  Cl  UNL A   1      35.109  24.634  25.443  1.00  0.00    -0.083 Cl
ATOM     22  C   UNL A   1      35.852  20.763  24.952  1.00  0.00     0.042 A 
ATOM     23  Cl  UNL A   1      37.244  19.755  25.016  1.00  0.00    -0.084 Cl
ENDBRANCH  13  16
ENDBRANCH  11  12
ENDBRANCH   9  11
ENDBRANCH   8   9
ENDBRANCH   7   8
ENDBRANCH   6   7
ENDBRANCH   5   6
ENDBRANCH   4   5
ENDBRANCH   3   4
ENDBRANCH   2   3
ENDBRANCH   1   2
BRANCH   1  24
ATOM     24  C   UNL A   1      35.036  32.395  27.933  1.00  0.00     0.188 C 
BRANCH  24  25
ATOM     25  O   UNL A   1      35.440  32.856  29.221  1.00  0.00    -0.376 OA
BRANCH  25  26
ATOM     26  C   UNL A   1      35.769  31.845  30.171  1.00  0.00     0.202 C 
BRANCH  26  27
ATOM     27  C   UNL A   1      36.496  32.227  31.478  1.00  0.00     0.261 C 
BRANCH  27  28
ATOM     28  O   UNL A   1      37.825  32.767  31.360  1.00  0.00    -0.460 OA
BRANCH  28  29
ATOM     29  C   UNL A   1      38.014  34.101  31.433  1.00  0.00     0.338 C 
ATOM     30  O   UNL A   1      37.374  34.894  32.105  1.00  0.00    -0.246 OA
BRANCH  29  31
ATOM     31  C   UNL A   1      39.307  34.391  30.755  1.00  0.00     0.060 A 
ATOM     32  C   UNL A   1      40.503  34.136  31.443  1.00  0.00     0.016 A 
ATOM     33  C   UNL A   1      39.349  34.771  29.408  1.00  0.00     0.016 A 
ATOM     34  C   UNL A   1      41.735  34.253  30.788  1.00  0.00     0.010 A 
ATOM     35  C   UNL A   1      40.583  34.909  28.761  1.00  0.00     0.010 A 
ATOM     36  C   UNL A   1      41.784  34.664  29.449  1.00  0.00    -0.014 A 
BRANCH  36  37
ATOM     37  C   UNL A   1      43.080  35.006  28.806  1.00  0.00     0.031 A 
ATOM     38  C   UNL A   1      44.052  33.889  28.538  1.00  0.00     0.074 A 
ATOM     39  C   UNL A   1      43.419  36.276  28.513  1.00  0.00     0.049 A 
ATOM     40  N   UNL A   1      45.271  33.946  28.071  1.00  0.00    -0.248 NA
ATOM     41  C   UNL A   1      43.586  32.526  28.843  1.00  0.00     0.031 C 
ATOM     42  C   UNL A   1      42.573  37.451  28.723  1.00  0.00     0.029 A 
ATOM     43  N   UNL A   1      44.590  36.793  28.010  1.00  0.00    -0.354 N 
ATOM     44  C   UNL A   1      45.730  32.635  28.060  1.00  0.00     0.074 A 
ATOM     45  C   UNL A   1      44.659  31.802  28.559  1.00  0.00     0.031 C 
ATOM     46  C   UNL A   1      43.271  38.554  28.395  1.00  0.00     0.029 A 
ATOM     47  C   UNL A   1      44.620  38.169  27.980  1.00  0.00     0.049 A 
ATOM     48  H   UNL A   1      45.337  36.231  27.701  1.00  0.00     0.167 HD
ATOM     49  C   UNL A   1      46.935  32.162  27.665  1.00  0.00     0.034 A 
ATOM     50  C   UNL A   1      45.630  39.018  27.692  1.00  0.00     0.034 A 
ATOM     51  C   UNL A   1      47.999  32.981  27.155  1.00  0.00     0.049 A 
ATOM     52  C   UNL A   1      46.976  38.461  27.292  1.00  0.00     0.074 A 
ATOM     53  C   UNL A   1      49.228  32.579  26.663  1.00  0.00     0.029 A 
ATOM     54  N   UNL A   1      47.976  34.364  27.098  1.00  0.00    -0.354 N 
ATOM     55  N   UNL A   1      47.343  37.213  27.134  1.00  0.00    -0.248 NA
ATOM     56  C   UNL A   1      48.045  39.434  27.008  1.00  0.00     0.031 C 
ATOM     57  C   UNL A   1      49.965  33.723  26.343  1.00  0.00     0.029 A 
ATOM     58  C   UNL A   1      49.181  34.835  26.606  1.00  0.00     0.049 A 
ATOM     59  H   UNL A   1      47.215  34.928  27.366  1.00  0.00     0.167 HD
ATOM     60  C   UNL A   1      48.669  37.252  26.710  1.00  0.00     0.074 A 
ATOM     61  C   UNL A   1      49.033  38.648  26.603  1.00  0.00     0.031 C 
ATOM     62  C   UNL A   1      49.516  36.225  26.452  1.00  0.00     0.034 A 
BRANCH  49  63
ATOM     63  C   UNL A   1      47.174  30.681  27.754  1.00  0.00     0.023 A 
ATOM     64  C   UNL A   1      47.733  30.133  28.925  1.00  0.00     0.012 A 
ATOM     65  C   UNL A   1      46.760  29.827  26.714  1.00  0.00     0.148 A 
ATOM     66  C   UNL A   1      47.889  28.755  29.055  1.00  0.00     0.002 A 
ATOM     67  C   UNL A   1      46.881  28.452  26.867  1.00  0.00     0.091 A 
ATOM     68  F   UNL A   1      46.254  30.376  25.600  1.00  0.00    -0.205 F 
ATOM     69  C   UNL A   1      47.452  27.914  28.033  1.00  0.00     0.022 A 
BRANCH  67  70
ATOM     70  S   UNL A   1      46.280  27.282  25.645  1.00  0.00     0.127 S 
ATOM     71  O   UNL A   1      45.979  28.164  24.518  1.00  0.00    -0.237 OA
ATOM     72  O   UNL A   1      47.444  26.419  25.451  1.00  0.00    -0.237 OA
ATOM     73  O   UNL A   1      45.126  26.628  26.245  1.00  0.00    -0.744 OA
ENDBRANCH  67  70
ENDBRANCH  49  63
BRANCH  50  74
ATOM     74  C   UNL A   1      45.430  40.495  27.779  1.00  0.00     0.023 A 
ATOM     75  C   UNL A   1      45.390  41.123  29.040  1.00  0.00     0.012 A 
ATOM     76  C   UNL A   1      45.241  41.275  26.621  1.00  0.00     0.148 A 
ATOM     77  C   UNL A   1      45.123  42.489  29.148  1.00  0.00     0.002 A 
ATOM     78  C   UNL A   1      45.037  42.645  26.732  1.00  0.00     0.091 A 
ATOM     79  F   UNL A   1      45.254  40.660  25.431  1.00  0.00    -0.205 F 
ATOM     80  C   UNL A   1      44.956  43.252  27.995  1.00  0.00     0.022 A 
BRANCH  78  81
ATOM     81  S   UNL A   1      44.946  43.719  25.295  1.00  0.00     0.127 S 
ATOM     82  O   UNL A   1      45.150  45.036  25.890  1.00  0.00    -0.237 OA
ATOM     83  O   UNL A   1      46.060  43.230  24.482  1.00  0.00    -0.237 OA
ATOM     84  O   UNL A   1      43.633  43.477  24.714  1.00  0.00    -0.744 OA
ENDBRANCH  78  81
ENDBRANCH  50  74
BRANCH  62  85
ATOM     85  C   UNL A   1      50.917  36.558  26.006  1.00  0.00     0.023 A 
ATOM     86  C   UNL A   1      51.212  36.631  24.630  1.00  0.00     0.012 A 
ATOM     87  C   UNL A   1      51.915  36.889  26.944  1.00  0.00     0.148 A 
ATOM     88  C   UNL A   1      52.486  36.998  24.196  1.00  0.00     0.002 A 
ATOM     89  C   UNL A   1      53.167  37.302  26.504  1.00  0.00     0.091 A 
ATOM     90  F   UNL A   1      51.618  36.803  28.249  1.00  0.00    -0.205 F 
ATOM     91  C   UNL A   1      53.458  37.345  25.131  1.00  0.00     0.022 A 
BRANCH  89  92
ATOM     92  S   UNL A   1      54.453  37.860  27.628  1.00  0.00     0.127 S 
ATOM     93  O   UNL A   1      54.660  36.673  28.457  1.00  0.00    -0.237 OA
ATOM     94  O   UNL A   1      55.554  38.165  26.713  1.00  0.00    -0.237 OA
ATOM     95  O   UNL A   1      53.906  39.017  28.324  1.00  0.00    -0.744 OA
ENDBRANCH  89  92
ENDBRANCH  62  85
ENDBRANCH  36  37
ENDBRANCH  29  31
ENDBRANCH  28  29
ENDBRANCH  27  28
ENDBRANCH  26  27
ENDBRANCH  25  26
ENDBRANCH  24  25
ENDBRANCH   1  24
TORSDOF 25
ENDMDL
MODEL 3
REMARK VINA RESULT:      -8.0      4.220      7.030
REMARK SMILES O=C(CNC(=O)c1ccc(Cl)cc1Cl)OCCOCCOCCOCCOC(=O)c1ccc(-c2c3nc(c(-c4cccc(S(=O)(=O)[O-])c4F)c4ccc([nH]4)c(-c4cccc(S(=O)(=O)[O-])c4F)c4nc(c(-c5cccc(S(=O)(=O)[O-])c5F)c5ccc2[nH]5)C=C4)C=C3)cc1
REMARK SMILES IDX 22 1 21 2 20 3 19 4 18 5 17 6 16 7 15 8 2 9 1 10 3 11 4 12
REMARK SMILES IDX 5 13 6 15 7 16 8 17 13 18 9 19 12 20 14 21 10 22 11 23 23 24
REMARK SMILES IDX 24 25 25 26 26 27 27 28 28 29 29 30 30 31 31 32 92 33 32 34
REMARK SMILES IDX 91 35 33 36 34 37 35 38 85 39 36 40 90 41 84 42 86 43 37 44
REMARK SMILES IDX 89 45 83 46 82 47 38 49 70 50 50 51 69 52 51 53 54 54 68 55
REMARK SMILES IDX 87 56 52 57 53 58 67 60 88 61 55 62 39 63 40 64 48 65 41 66
REMARK SMILES IDX 43 67 49 68 42 69 44 70 45 71 46 72 47 73 71 74 72 75 80 76
REMARK SMILES IDX 73 77 75 78 81 79 74 80 76 81 77 82 78 83 79 84 56 85 57 86
REMARK SMILES IDX 65 87 58 88 60 89 66 90 59 91 61 92 62 93 63 94 64 95
REMARK H PARENT 4 14 86 48 54 59
REMARK Flexibility Score: inf
ROOT
ATOM      1  C   UNL A   1      39.366  28.292  28.491  1.00  0.00     0.188 C 
ENDROOT
BRANCH   1   2
ATOM      2  O   UNL A   1      38.097  28.702  28.011  1.00  0.00    -0.377 OA
BRANCH   2   3
ATOM      3  C   UNL A   1      37.545  29.827  28.672  1.00  0.00     0.188 C 
BRANCH   3   4
ATOM      4  C   UNL A   1      36.503  30.687  27.945  1.00  0.00     0.188 C 
BRANCH   4   5
ATOM      5  O   UNL A   1      35.326  30.133  27.368  1.00  0.00    -0.376 OA
BRANCH   5   6
ATOM      6  C   UNL A   1      34.035  30.682  27.534  1.00  0.00     0.202 C 
BRANCH   6   7
ATOM      7  C   UNL A   1      32.839  30.118  26.774  1.00  0.00     0.261 C 
BRANCH   7   8
ATOM      8  O   UNL A   1      32.930  30.045  25.350  1.00  0.00    -0.462 OA
BRANCH   8   9
ATOM      9  C   UNL A   1      33.227  28.951  24.623  1.00  0.00     0.325 C 
ATOM     10  O   UNL A   1      33.598  27.930  25.207  1.00  0.00    -0.250 OA
BRANCH   9  11
ATOM     11  C   UNL A   1      33.286  29.016  23.101  1.00  0.00     0.239 C 
BRANCH  11  12
ATOM     12  N   UNL A   1      32.044  28.997  22.348  1.00  0.00    -0.341 N 
ATOM     13  C   UNL A   1      30.896  28.270  22.535  1.00  0.00     0.253 C 
ATOM     14  H   UNL A   1      32.023  29.609  21.577  1.00  0.00     0.164 HD
ATOM     15  O   UNL A   1      29.849  28.708  22.064  1.00  0.00    -0.269 OA
BRANCH  13  16
ATOM     16  C   UNL A   1      30.883  26.961  23.232  1.00  0.00     0.058 A 
ATOM     17  C   UNL A   1      30.315  26.816  24.505  1.00  0.00     0.017 A 
ATOM     18  C   UNL A   1      31.395  25.822  22.580  1.00  0.00     0.055 A 
ATOM     19  C   UNL A   1      30.315  25.567  25.139  1.00  0.00     0.021 A 
ATOM     20  C   UNL A   1      31.368  24.572  23.206  1.00  0.00     0.041 A 
ATOM     21  Cl  UNL A   1      32.144  25.887  21.020  1.00  0.00    -0.083 Cl
ATOM     22  C   UNL A   1      30.838  24.452  24.486  1.00  0.00     0.042 A 
ATOM     23  Cl  UNL A   1      30.830  22.918  25.263  1.00  0.00    -0.084 Cl
ENDBRANCH  13  16
ENDBRANCH  11  12
ENDBRANCH   9  11
ENDBRANCH   8   9
ENDBRANCH   7   8
ENDBRANCH   6   7
ENDBRANCH   5   6
ENDBRANCH   4   5
ENDBRANCH   3   4
ENDBRANCH   2   3
ENDBRANCH   1   2
BRANCH   1  24
ATOM     24  C   UNL A   1      39.304  26.893  29.119  1.00  0.00     0.188 C 
BRANCH  24  25
ATOM     25  O   UNL A   1      40.493  26.145  28.874  1.00  0.00    -0.376 OA
BRANCH  25  26
ATOM     26  C   UNL A   1      40.661  25.657  27.544  1.00  0.00     0.202 C 
BRANCH  26  27
ATOM     27  C   UNL A   1      41.148  24.211  27.313  1.00  0.00     0.261 C 
BRANCH  27  28
ATOM     28  O   UNL A   1      42.270  23.761  28.095  1.00  0.00    -0.460 OA
BRANCH  28  29
ATOM     29  C   UNL A   1      43.403  23.370  27.475  1.00  0.00     0.338 C 
ATOM     30  O   UNL A   1      43.647  22.260  27.030  1.00  0.00    -0.246 OA
BRANCH  29  31
ATOM     31  C   UNL A   1      44.190  24.603  27.197  1.00  0.00     0.060 A 
ATOM     32  C   UNL A   1      44.729  25.317  28.277  1.00  0.00     0.016 A 
ATOM     33  C   UNL A   1      44.519  24.971  25.887  1.00  0.00     0.016 A 
ATOM     34  C   UNL A   1      45.598  26.392  28.050  1.00  0.00     0.010 A 
ATOM     35  C   UNL A   1      45.369  26.060  25.662  1.00  0.00     0.010 A 
ATOM     36  C   UNL A   1      45.904  26.786  26.740  1.00  0.00    -0.014 A 
BRANCH  36  37
ATOM     37  C   UNL A   1      46.640  28.051  26.479  1.00  0.00     0.031 A 
ATOM     38  C   UNL A   1      48.132  27.975  26.290  1.00  0.00     0.074 A 
ATOM     39  C   UNL A   1      46.021  29.247  26.461  1.00  0.00     0.049 A 
ATOM     40  N   UNL A   1      48.998  28.941  26.139  1.00  0.00    -0.248 NA
ATOM     41  C   UNL A   1      48.723  26.626  26.277  1.00  0.00     0.031 C 
ATOM     42  C   UNL A   1      44.585  29.462  26.631  1.00  0.00     0.029 A 
ATOM     43  N   UNL A   1      46.536  30.516  26.330  1.00  0.00    -0.354 N 
ATOM     44  C   UNL A   1      50.238  28.322  26.048  1.00  0.00     0.074 A 
ATOM     45  C   UNL A   1      50.014  26.898  26.154  1.00  0.00     0.031 C 
ATOM     46  C   UNL A   1      44.341  30.786  26.641  1.00  0.00     0.029 A 
ATOM     47  C   UNL A   1      45.604  31.513  26.506  1.00  0.00     0.049 A 
ATOM     48  H   UNL A   1      47.484  30.694  26.129  1.00  0.00     0.167 HD
ATOM     49  C   UNL A   1      51.457  28.886  25.886  1.00  0.00     0.034 A 
ATOM     50  C   UNL A   1      45.758  32.852  26.591  1.00  0.00     0.034 A 
ATOM     51  C   UNL A   1      51.686  30.299  25.767  1.00  0.00     0.049 A 
ATOM     52  C   UNL A   1      47.136  33.452  26.446  1.00  0.00     0.074 A 
ATOM     53  C   UNL A   1      52.880  30.956  25.527  1.00  0.00     0.029 A 
ATOM     54  N   UNL A   1      50.713  31.274  25.905  1.00  0.00    -0.354 N 
ATOM     55  N   UNL A   1      48.278  32.855  26.202  1.00  0.00    -0.248 NA
ATOM     56  C   UNL A   1      47.246  34.916  26.567  1.00  0.00     0.031 C 
ATOM     57  C   UNL A   1      52.636  32.332  25.559  1.00  0.00     0.029 A 
ATOM     58  C   UNL A   1      51.283  32.529  25.787  1.00  0.00     0.049 A 
ATOM     59  H   UNL A   1      49.757  31.099  26.065  1.00  0.00     0.167 HD
ATOM     60  C   UNL A   1      49.230  33.868  26.113  1.00  0.00     0.074 A 
ATOM     61  C   UNL A   1      48.528  35.120  26.299  1.00  0.00     0.031 C 
ATOM     62  C   UNL A   1      50.568  33.770  25.919  1.00  0.00     0.034 A 
BRANCH  49  63
ATOM     63  C   UNL A   1      52.651  27.976  25.814  1.00  0.00     0.023 A 
ATOM     64  C   UNL A   1      53.073  27.476  24.566  1.00  0.00     0.012 A 
ATOM     65  C   UNL A   1      53.405  27.694  26.969  1.00  0.00     0.148 A 
ATOM     66  C   UNL A   1      54.223  26.695  24.472  1.00  0.00     0.002 A 
ATOM     67  C   UNL A   1      54.572  26.949  26.860  1.00  0.00     0.091 A 
ATOM     68  F   UNL A   1      52.968  28.161  28.147  1.00  0.00    -0.205 F 
ATOM     69  C   UNL A   1      54.979  26.443  25.615  1.00  0.00     0.022 A 
BRANCH  67  70
ATOM     70  S   UNL A   1      55.656  26.634  28.257  1.00  0.00     0.127 S 
ATOM     71  O   UNL A   1      54.727  26.049  29.223  1.00  0.00    -0.237 OA
ATOM     72  O   UNL A   1      56.619  25.692  27.689  1.00  0.00    -0.237 OA
ATOM     73  O   UNL A   1      56.213  27.924  28.637  1.00  0.00    -0.744 OA
ENDBRANCH  67  70
ENDBRANCH  49  63
BRANCH  50  74
ATOM     74  C   UNL A   1      44.582  33.738  26.841  1.00  0.00     0.023 A 
ATOM     75  C   UNL A   1      44.010  34.459  25.773  1.00  0.00     0.012 A 
ATOM     76  C   UNL A   1      44.052  33.900  28.136  1.00  0.00     0.148 A 
ATOM     77  C   UNL A   1      42.963  35.355  25.998  1.00  0.00     0.002 A 
ATOM     78  C   UNL A   1      42.970  34.747  28.343  1.00  0.00     0.091 A 
ATOM     79  F   UNL A   1      44.624  33.230  29.146  1.00  0.00    -0.205 F 
ATOM     80  C   UNL A   1      42.436  35.492  27.280  1.00  0.00     0.022 A 
BRANCH  78  81
ATOM     81  S   UNL A   1      42.149  34.879  29.935  1.00  0.00     0.127 S 
ATOM     82  O   UNL A   1      42.989  35.852  30.627  1.00  0.00    -0.237 OA
ATOM     83  O   UNL A   1      40.824  35.369  29.552  1.00  0.00    -0.237 OA
ATOM     84  O   UNL A   1      42.150  33.530  30.483  1.00  0.00    -0.744 OA
ENDBRANCH  78  81
ENDBRANCH  50  74
BRANCH  62  85
ATOM     85  C   UNL A   1      51.371  35.045  25.870  1.00  0.00     0.023 A 
ATOM     86  C   UNL A   1      51.495  35.746  24.653  1.00  0.00     0.012 A 
ATOM     87  C   UNL A   1      51.924  35.596  27.043  1.00  0.00     0.148 A 
ATOM     88  C   UNL A   1      52.182  36.959  24.600  1.00  0.00     0.002 A 
ATOM     89  C   UNL A   1      52.564  36.829  26.992  1.00  0.00     0.091 A 
ATOM     90  F   UNL A   1      51.805  34.909  28.189  1.00  0.00    -0.205 F 
ATOM     91  C   UNL A   1      52.704  37.506  25.769  1.00  0.00     0.022 A 
BRANCH  89  92
ATOM     92  S   UNL A   1      53.184  37.659  28.460  1.00  0.00     0.127 S 
ATOM     93  O   UNL A   1      54.263  36.764  28.875  1.00  0.00    -0.237 OA
ATOM     94  O   UNL A   1      53.631  38.946  27.923  1.00  0.00    -0.237 OA
ATOM     95  O   UNL A   1      52.059  37.746  29.381  1.00  0.00    -0.744 OA
ENDBRANCH  89  92
ENDBRANCH  62  85
ENDBRANCH  36  37
ENDBRANCH  29  31
ENDBRANCH  28  29
ENDBRANCH  27  28
ENDBRANCH  26  27
ENDBRANCH  25  26
ENDBRANCH  24  25
ENDBRANCH   1  24
TORSDOF 25
ENDMDL
