MODEL 1
REMARK VINA RESULT:      -5.5      0.000      0.000
REMARK SMILES CCCCCNC(=O)Oc1cccc(-c2ccc([C@@H](C)C(=O)OCCOCCOCCOCCOC(=O)c3ccc(-c4c5nc(c(-c6cccc(S(=O)(=O)[O-])c6F)c6ccc([nH]6)c(-c6cccc(S(=O)(=O)[O-])c6F)c6nc(c(-c7cccc(S(=O)(=O)[O-])c7F)c7ccc4[nH]7)C=C6)C=C5)cc3)cc2F)c1
REMARK SMILES IDX 27 1 26 2 25 3 24 4 23 5 21 6 22 7 19 8 20 9 18 10 15 11
REMARK SMILES IDX 16 12 102 13 17 14 101 15 103 16 14 17 10 18 11 19 104 20
REMARK SMILES IDX 12 21 13 22 9 23 7 24 6 25 8 27 5 28 4 29 3 30 2 31 1 32
REMARK SMILES IDX 28 33 29 34 30 35 31 36 32 37 33 38 34 39 35 40 36 41 37 42
REMARK SMILES IDX 38 43 39 44 100 45 40 46 99 47 41 48 42 49 43 50 93 51 44 52
REMARK SMILES IDX 98 53 92 54 94 55 45 56 97 57 91 58 90 59 46 61 78 62 58 63
REMARK SMILES IDX 77 64 59 65 62 66 76 67 95 68 60 69 61 70 75 72 96 73 63 74
REMARK SMILES IDX 47 75 48 76 56 77 49 78 51 79 57 80 50 81 52 82 53 83 54 84
REMARK SMILES IDX 55 85 79 86 80 87 88 88 81 89 83 90 89 91 82 92 84 93 85 94
REMARK SMILES IDX 86 95 87 96 64 97 65 98 73 99 66 100 68 101 74 102 67 103
REMARK SMILES IDX 69 104 70 105 71 106 72 107
REMARK H PARENT 6 26 94 60 62 71
REMARK Flexibility Score: inf
ROOT
ATOM      1  C   UNL A   1      53.266  30.659  25.245  1.00  0.00     0.188 C 
ENDROOT
BRANCH   1   2
ATOM      2  O   UNL A   1      52.111  30.537  24.426  1.00  0.00    -0.376 OA
BRANCH   2   3
ATOM      3  C   UNL A   1      52.232  30.402  23.016  1.00  0.00     0.202 C 
BRANCH   3   4
ATOM      4  C   UNL A   1      52.062  29.030  22.336  1.00  0.00     0.261 C 
BRANCH   4   5
ATOM      5  O   UNL A   1      50.720  28.513  22.231  1.00  0.00    -0.463 OA
BRANCH   5   6
ATOM      6  C   UNL A   1      50.329  27.650  23.195  1.00  0.00     0.313 C 
ATOM      7  O   UNL A   1      51.064  27.278  24.111  1.00  0.00    -0.252 OA
BRANCH   6   8
ATOM      8  C   UNL A   1      48.898  27.123  23.085  1.00  0.00     0.126 C 
ATOM      9  C   UNL A   1      48.147  27.970  22.064  1.00  0.00     0.025 C 
BRANCH   8  10
ATOM     10  C   UNL A   1      48.045  26.859  24.326  1.00  0.00    -0.031 A 
ATOM     11  C   UNL A   1      46.325  26.359  26.578  1.00  0.00     0.018 A 
ATOM     12  C   UNL A   1      47.727  26.362  26.701  1.00  0.00     0.012 A 
ATOM     13  C   UNL A   1      45.808  26.611  25.303  1.00  0.00     0.131 A 
ATOM     14  C   UNL A   1      48.574  26.609  25.598  1.00  0.00     0.005 A 
ATOM     15  C   UNL A   1      46.640  26.869  24.206  1.00  0.00     0.044 A 
ATOM     16  F   UNL A   1      44.481  26.623  25.100  1.00  0.00    -0.206 F 
BRANCH  11  17
ATOM     17  C   UNL A   1      45.445  26.149  27.748  1.00  0.00    -0.012 A 
ATOM     18  C   UNL A   1      43.601  26.814  29.199  1.00  0.00     0.133 A 
ATOM     19  C   UNL A   1      43.834  25.730  30.042  1.00  0.00     0.047 A 
ATOM     20  C   UNL A   1      44.403  27.039  28.072  1.00  0.00     0.056 A 
ATOM     21  C   UNL A   1      44.862  24.842  29.738  1.00  0.00     0.004 A 
ATOM     22  C   UNL A   1      45.655  25.050  28.603  1.00  0.00     0.009 A 
BRANCH  18  23
ATOM     23  O   UNL A   1      42.607  27.726  29.597  1.00  0.00    -0.410 OA
BRANCH  23  24
ATOM     24  C   UNL A   1      41.898  28.365  28.590  1.00  0.00     0.412 C 
ATOM     25  N   UNL A   1      40.795  27.674  28.167  1.00  0.00    -0.321 N 
ATOM     26  H   UNL A   1      40.222  28.128  27.508  1.00  0.00     0.167 HD
ATOM     27  O   UNL A   1      42.180  29.445  28.086  1.00  0.00    -0.224 OA
BRANCH  25  28
ATOM     28  C   UNL A   1      40.373  26.351  28.581  1.00  0.00     0.119 C 
BRANCH  28  29
ATOM     29  C   UNL A   1      39.665  25.588  27.461  1.00  0.00     0.021 C 
BRANCH  29  30
ATOM     30  C   UNL A   1      40.296  24.242  27.081  1.00  0.00     0.002 C 
BRANCH  30  31
ATOM     31  C   UNL A   1      39.322  23.075  26.899  1.00  0.00    -0.003 C 
ATOM     32  C   UNL A   1      39.964  21.831  26.304  1.00  0.00     0.004 C 
ENDBRANCH  30  31
ENDBRANCH  29  30
ENDBRANCH  28  29
ENDBRANCH  25  28
ENDBRANCH  23  24
ENDBRANCH  18  23
ENDBRANCH  11  17
ENDBRANCH   8  10
ENDBRANCH   6   8
ENDBRANCH   5   6
ENDBRANCH   4   5
ENDBRANCH   3   4
ENDBRANCH   2   3
ENDBRANCH   1   2
BRANCH   1  33
ATOM     33  C   UNL A   1      54.453  31.542  24.833  1.00  0.00     0.188 C 
BRANCH  33  34
ATOM     34  O   UNL A   1      55.591  30.842  24.381  1.00  0.00    -0.377 OA
BRANCH  34  35
ATOM     35  C   UNL A   1      56.238  30.005  25.324  1.00  0.00     0.188 C 
BRANCH  35  36
ATOM     36  C   UNL A   1      56.403  28.523  24.937  1.00  0.00     0.188 C 
BRANCH  36  37
ATOM     37  O   UNL A   1      55.286  27.969  24.248  1.00  0.00    -0.376 OA
BRANCH  37  38
ATOM     38  C   UNL A   1      54.294  27.291  25.008  1.00  0.00     0.202 C 
BRANCH  38  39
ATOM     39  C   UNL A   1      54.294  27.477  26.534  1.00  0.00     0.261 C 
BRANCH  39  40
ATOM     40  O   UNL A   1      53.557  26.509  27.289  1.00  0.00    -0.460 OA
BRANCH  40  41
ATOM     41  C   UNL A   1      53.692  26.506  28.633  1.00  0.00     0.338 C 
ATOM     42  O   UNL A   1      54.725  26.489  29.265  1.00  0.00    -0.246 OA
BRANCH  41  43
ATOM     43  C   UNL A   1      52.351  26.779  29.206  1.00  0.00     0.060 A 
ATOM     44  C   UNL A   1      51.218  26.377  28.484  1.00  0.00     0.016 A 
ATOM     45  C   UNL A   1      52.213  27.415  30.441  1.00  0.00     0.016 A 
ATOM     46  C   UNL A   1      49.942  26.654  28.974  1.00  0.00     0.010 A 
ATOM     47  C   UNL A   1      50.932  27.713  30.919  1.00  0.00     0.010 A 
ATOM     48  C   UNL A   1      49.793  27.371  30.167  1.00  0.00    -0.014 A 
BRANCH  48  49
ATOM     49  C   UNL A   1      48.467  27.940  30.515  1.00  0.00     0.031 A 
ATOM     50  C   UNL A   1      47.598  27.185  31.483  1.00  0.00     0.074 A 
ATOM     51  C   UNL A   1      48.037  29.102  29.994  1.00  0.00     0.049 A 
ATOM     52  N   UNL A   1      46.396  27.461  31.913  1.00  0.00    -0.248 NA
ATOM     53  C   UNL A   1      48.168  25.945  32.038  1.00  0.00     0.031 C 
ATOM     54  C   UNL A   1      48.784  29.933  29.054  1.00  0.00     0.029 A 
ATOM     55  N   UNL A   1      46.847  29.765  30.164  1.00  0.00    -0.354 N 
ATOM     56  C   UNL A   1      46.049  26.417  32.762  1.00  0.00     0.074 A 
ATOM     57  C   UNL A   1      47.164  25.494  32.773  1.00  0.00     0.031 C 
ATOM     58  C   UNL A   1      48.017  30.977  28.695  1.00  0.00     0.029 A 
ATOM     59  C   UNL A   1      46.718  30.871  29.359  1.00  0.00     0.049 A 
ATOM     60  H   UNL A   1      46.154  29.476  30.801  1.00  0.00     0.167 HD
ATOM     61  C   UNL A   1      44.913  26.242  33.477  1.00  0.00     0.034 A 
ATOM     62  C   UNL A   1      45.661  31.684  29.156  1.00  0.00     0.034 A 
ATOM     63  C   UNL A   1      43.804  27.158  33.462  1.00  0.00     0.049 A 
ATOM     64  C   UNL A   1      44.389  31.459  29.932  1.00  0.00     0.074 A 
ATOM     65  C   UNL A   1      42.626  27.096  34.185  1.00  0.00     0.029 A 
ATOM     66  N   UNL A   1      43.724  28.289  32.663  1.00  0.00    -0.354 N 
ATOM     67  N   UNL A   1      44.116  30.531  30.818  1.00  0.00    -0.248 NA
ATOM     68  C   UNL A   1      43.292  32.411  29.705  1.00  0.00     0.031 C 
ATOM     69  C   UNL A   1      41.815  28.165  33.790  1.00  0.00     0.029 A 
ATOM     70  C   UNL A   1      42.507  28.922  32.858  1.00  0.00     0.049 A 
ATOM     71  H   UNL A   1      44.428  28.596  32.048  1.00  0.00     0.167 HD
ATOM     72  C   UNL A   1      42.831  30.806  31.277  1.00  0.00     0.074 A 
ATOM     73  C   UNL A   1      42.388  31.996  30.583  1.00  0.00     0.031 C 
ATOM     74  C   UNL A   1      42.086  30.128  32.187  1.00  0.00     0.034 A 
BRANCH  61  75
ATOM     75  C   UNL A   1      44.820  25.003  34.329  1.00  0.00     0.023 A 
ATOM     76  C   UNL A   1      44.180  23.850  33.829  1.00  0.00     0.012 A 
ATOM     77  C   UNL A   1      45.369  24.977  35.626  1.00  0.00     0.148 A 
ATOM     78  C   UNL A   1      44.038  22.712  34.625  1.00  0.00     0.002 A 
ATOM     79  C   UNL A   1      45.271  23.822  36.394  1.00  0.00     0.091 A 
ATOM     80  F   UNL A   1      45.954  26.088  36.097  1.00  0.00    -0.205 F 
ATOM     81  C   UNL A   1      44.591  22.697  35.902  1.00  0.00     0.022 A 
BRANCH  79  82
ATOM     82  S   UNL A   1      46.021  23.677  38.018  1.00  0.00     0.127 S 
ATOM     83  O   UNL A   1      47.442  23.805  37.700  1.00  0.00    -0.237 OA
ATOM     84  O   UNL A   1      45.450  24.824  38.725  1.00  0.00    -0.237 OA
ATOM     85  O   UNL A   1      45.608  22.381  38.536  1.00  0.00    -0.744 OA
ENDBRANCH  79  82
ENDBRANCH  61  75
BRANCH  62  86
ATOM     86  C   UNL A   1      45.774  32.796  28.171  1.00  0.00     0.023 A 
ATOM     87  C   UNL A   1      45.310  32.620  26.854  1.00  0.00     0.012 A 
ATOM     88  C   UNL A   1      46.295  34.047  28.556  1.00  0.00     0.148 A 
ATOM     89  C   UNL A   1      45.379  33.665  25.932  1.00  0.00     0.002 A 
ATOM     90  C   UNL A   1      46.307  35.101  27.651  1.00  0.00     0.091 A 
ATOM     91  F   UNL A   1      46.745  34.187  29.811  1.00  0.00    -0.205 F 
ATOM     92  C   UNL A   1      45.866  34.908  26.333  1.00  0.00     0.022 A 
BRANCH  90  93
ATOM     93  S   UNL A   1      46.790  36.768  28.114  1.00  0.00     0.127 S 
ATOM     94  O   UNL A   1      46.654  37.483  26.847  1.00  0.00    -0.237 OA
ATOM     95  O   UNL A   1      45.781  37.098  29.121  1.00  0.00    -0.237 OA
ATOM     96  O   UNL A   1      48.147  36.661  28.631  1.00  0.00    -0.744 OA
ENDBRANCH  90  93
ENDBRANCH  62  86
BRANCH  74  97
ATOM     97  C   UNL A   1      40.720  30.672  32.526  1.00  0.00     0.023 A 
ATOM     98  C   UNL A   1      40.581  31.687  33.493  1.00  0.00     0.012 A 
ATOM     99  C   UNL A   1      39.580  30.231  31.823  1.00  0.00     0.148 A 
ATOM    100  C   UNL A   1      39.327  32.227  33.781  1.00  0.00     0.002 A 
ATOM    101  C   UNL A   1      38.343  30.810  32.076  1.00  0.00     0.091 A 
ATOM    102  F   UNL A   1      39.728  29.253  30.916  1.00  0.00    -0.205 F 
ATOM    103  C   UNL A   1      38.212  31.798  33.065  1.00  0.00     0.022 A 
BRANCH 101 104
ATOM    104  S   UNL A   1      36.870  30.392  31.136  1.00  0.00     0.127 S 
ATOM    105  O   UNL A   1      37.312  30.639  29.764  1.00  0.00    -0.237 OA
ATOM    106  O   UNL A   1      36.680  28.981  31.472  1.00  0.00    -0.237 OA
ATOM    107  O   UNL A   1      35.818  31.276  31.620  1.00  0.00    -0.744 OA
ENDBRANCH 101 104
ENDBRANCH  74  97
ENDBRANCH  48  49
ENDBRANCH  41  43
ENDBRANCH  40  41
ENDBRANCH  39  40
ENDBRANCH  38  39
ENDBRANCH  37  38
ENDBRANCH  36  37
ENDBRANCH  35  36
ENDBRANCH  34  35
ENDBRANCH  33  34
ENDBRANCH   1  33
TORSDOF 31
ENDMDL
MODEL 2
REMARK VINA RESULT:      -5.1      3.976     12.300
REMARK SMILES CCCCCNC(=O)Oc1cccc(-c2ccc([C@@H](C)C(=O)OCCOCCOCCOCCOC(=O)c3ccc(-c4c5nc(c(-c6cccc(S(=O)(=O)[O-])c6F)c6ccc([nH]6)c(-c6cccc(S(=O)(=O)[O-])c6F)c6nc(c(-c7cccc(S(=O)(=O)[O-])c7F)c7ccc4[nH]7)C=C6)C=C5)cc3)cc2F)c1
REMARK SMILES IDX 27 1 26 2 25 3 24 4 23 5 21 6 22 7 19 8 20 9 18 10 15 11
REMARK SMILES IDX 16 12 102 13 17 14 101 15 103 16 14 17 10 18 11 19 104 20
REMARK SMILES IDX 12 21 13 22 9 23 7 24 6 25 8 27 5 28 4 29 3 30 2 31 1 32
REMARK SMILES IDX 28 33 29 34 30 35 31 36 32 37 33 38 34 39 35 40 36 41 37 42
REMARK SMILES IDX 38 43 39 44 100 45 40 46 99 47 41 48 42 49 43 50 93 51 44 52
REMARK SMILES IDX 98 53 92 54 94 55 45 56 97 57 91 58 90 59 46 61 78 62 58 63
REMARK SMILES IDX 77 64 59 65 62 66 76 67 95 68 60 69 61 70 75 72 96 73 63 74
REMARK SMILES IDX 47 75 48 76 56 77 49 78 51 79 57 80 50 81 52 82 53 83 54 84
REMARK SMILES IDX 55 85 79 86 80 87 88 88 81 89 83 90 89 91 82 92 84 93 85 94
REMARK SMILES IDX 86 95 87 96 64 97 65 98 73 99 66 100 68 101 74 102 67 103
REMARK SMILES IDX 69 104 70 105 71 106 72 107
REMARK H PARENT 6 26 94 60 62 71
REMARK Flexibility Score: inf
ROOT
ATOM      1  C   UNL A   1      46.372  40.233  29.260  1.00  0.00     0.188 C 
ENDROOT
BRANCH   1   2
ATOM      2  O   UNL A   1      47.178  39.500  28.345  1.00  0.00    -0.376 OA
BRANCH   2   3
ATOM      3  C   UNL A   1      47.001  39.650  26.942  1.00  0.00     0.202 C 
BRANCH   3   4
ATOM      4  C   UNL A   1      45.792  40.420  26.375  1.00  0.00     0.261 C 
BRANCH   4   5
ATOM      5  O   UNL A   1      44.556  39.689  26.237  1.00  0.00    -0.463 OA
BRANCH   5   6
ATOM      6  C   UNL A   1      43.442  40.295  26.703  1.00  0.00     0.313 C 
ATOM      7  O   UNL A   1      43.265  41.513  26.661  1.00  0.00    -0.252 OA
BRANCH   6   8
ATOM      8  C   UNL A   1      42.387  39.378  27.321  1.00  0.00     0.126 C 
ATOM      9  C   UNL A   1      41.816  40.061  28.559  1.00  0.00     0.025 C 
BRANCH   8  10
ATOM     10  C   UNL A   1      42.668  37.898  27.583  1.00  0.00    -0.031 A 
ATOM     11  C   UNL A   1      43.225  35.145  28.208  1.00  0.00     0.018 A 
ATOM     12  C   UNL A   1      42.684  35.529  26.967  1.00  0.00     0.012 A 
ATOM     13  C   UNL A   1      43.477  36.170  29.125  1.00  0.00     0.131 A 
ATOM     14  C   UNL A   1      42.411  36.879  26.656  1.00  0.00     0.005 A 
ATOM     15  C   UNL A   1      43.221  37.514  28.821  1.00  0.00     0.044 A 
ATOM     16  F   UNL A   1      43.990  35.887  30.334  1.00  0.00    -0.206 F 
BRANCH  11  17
ATOM     17  C   UNL A   1      43.554  33.734  28.507  1.00  0.00    -0.012 A 
ATOM     18  C   UNL A   1      43.267  31.686  29.798  1.00  0.00     0.133 A 
ATOM     19  C   UNL A   1      44.277  31.054  29.078  1.00  0.00     0.047 A 
ATOM     20  C   UNL A   1      42.914  33.015  29.535  1.00  0.00     0.056 A 
ATOM     21  C   UNL A   1      44.923  31.751  28.061  1.00  0.00     0.004 A 
ATOM     22  C   UNL A   1      44.563  33.074  27.779  1.00  0.00     0.009 A 
BRANCH  18  23
ATOM     23  O   UNL A   1      42.706  30.967  30.870  1.00  0.00    -0.410 OA
BRANCH  23  24
ATOM     24  C   UNL A   1      41.480  30.357  30.646  1.00  0.00     0.412 C 
ATOM     25  N   UNL A   1      40.441  30.941  31.320  1.00  0.00    -0.321 N 
ATOM     26  H   UNL A   1      39.543  30.585  31.129  1.00  0.00     0.167 HD
ATOM     27  O   UNL A   1      41.280  29.385  29.926  1.00  0.00    -0.224 OA
BRANCH  25  28
ATOM     28  C   UNL A   1      40.513  32.023  32.281  1.00  0.00     0.119 C 
BRANCH  28  29
ATOM     29  C   UNL A   1      39.870  33.308  31.760  1.00  0.00     0.021 C 
BRANCH  29  30
ATOM     30  C   UNL A   1      38.682  33.112  30.809  1.00  0.00     0.002 C 
BRANCH  30  31
ATOM     31  C   UNL A   1      38.779  33.830  29.461  1.00  0.00    -0.003 C 
ATOM     32  C   UNL A   1      39.857  34.902  29.417  1.00  0.00     0.004 C 
ENDBRANCH  30  31
ENDBRANCH  29  30
ENDBRANCH  28  29
ENDBRANCH  25  28
ENDBRANCH  23  24
ENDBRANCH  18  23
ENDBRANCH  11  17
ENDBRANCH   8  10
ENDBRANCH   6   8
ENDBRANCH   5   6
ENDBRANCH   4   5
ENDBRANCH   3   4
ENDBRANCH   2   3
ENDBRANCH   1   2
BRANCH   1  33
ATOM     33  C   UNL A   1      45.852  39.596  30.557  1.00  0.00     0.188 C 
BRANCH  33  34
ATOM     34  O   UNL A   1      46.551  39.962  31.725  1.00  0.00    -0.377 OA
BRANCH  34  35
ATOM     35  C   UNL A   1      45.884  40.838  32.617  1.00  0.00     0.188 C 
BRANCH  35  36
ATOM     36  C   UNL A   1      46.352  40.824  34.085  1.00  0.00     0.188 C 
BRANCH  36  37
ATOM     37  O   UNL A   1      45.341  40.452  35.019  1.00  0.00    -0.376 OA
BRANCH  37  38
ATOM     38  C   UNL A   1      44.710  39.188  34.860  1.00  0.00     0.202 C 
BRANCH  38  39
ATOM     39  C   UNL A   1      44.165  38.485  36.114  1.00  0.00     0.261 C 
BRANCH  39  40
ATOM     40  O   UNL A   1      44.148  37.054  36.080  1.00  0.00    -0.460 OA
BRANCH  40  41
ATOM     41  C   UNL A   1      43.155  36.439  35.402  1.00  0.00     0.338 C 
ATOM     42  O   UNL A   1      42.027  36.847  35.227  1.00  0.00    -0.246 OA
BRANCH  41  43
ATOM     43  C   UNL A   1      43.759  35.285  34.694  1.00  0.00     0.060 A 
ATOM     44  C   UNL A   1      44.984  34.781  35.155  1.00  0.00     0.016 A 
ATOM     45  C   UNL A   1      43.124  34.702  33.595  1.00  0.00     0.016 A 
ATOM     46  C   UNL A   1      45.601  33.723  34.488  1.00  0.00     0.010 A 
ATOM     47  C   UNL A   1      43.756  33.657  32.914  1.00  0.00     0.010 A 
ATOM     48  C   UNL A   1      45.017  33.191  33.332  1.00  0.00    -0.014 A 
BRANCH  48  49
ATOM     49  C   UNL A   1      45.818  32.303  32.453  1.00  0.00     0.031 A 
ATOM     50  C   UNL A   1      46.589  32.926  31.322  1.00  0.00     0.074 A 
ATOM     51  C   UNL A   1      45.872  30.975  32.650  1.00  0.00     0.049 A 
ATOM     52  N   UNL A   1      47.330  32.359  30.408  1.00  0.00    -0.248 NA
ATOM     53  C   UNL A   1      46.508  34.393  31.209  1.00  0.00     0.031 C 
ATOM     54  C   UNL A   1      45.180  30.251  33.712  1.00  0.00     0.029 A 
ATOM     55  N   UNL A   1      46.520  29.997  31.937  1.00  0.00    -0.354 N 
ATOM     56  C   UNL A   1      47.777  33.390  29.591  1.00  0.00     0.074 A 
ATOM     57  C   UNL A   1      47.211  34.617  30.110  1.00  0.00     0.031 C 
ATOM     58  C   UNL A   1      45.406  28.934  33.556  1.00  0.00     0.029 A 
ATOM     59  C   UNL A   1      46.235  28.725  32.369  1.00  0.00     0.049 A 
ATOM     60  H   UNL A   1      47.131  30.190  31.188  1.00  0.00     0.167 HD
ATOM     61  C   UNL A   1      48.593  33.329  28.512  1.00  0.00     0.034 A 
ATOM     62  C   UNL A   1      46.574  27.529  31.848  1.00  0.00     0.034 A 
ATOM     63  C   UNL A   1      49.153  32.109  27.994  1.00  0.00     0.049 A 
ATOM     64  C   UNL A   1      47.454  27.473  30.625  1.00  0.00     0.074 A 
ATOM     65  C   UNL A   1      50.026  31.945  26.934  1.00  0.00     0.029 A 
ATOM     66  N   UNL A   1      48.871  30.841  28.481  1.00  0.00    -0.354 N 
ATOM     67  N   UNL A   1      47.963  28.461  29.929  1.00  0.00    -0.248 NA
ATOM     68  C   UNL A   1      47.833  26.139  30.136  1.00  0.00     0.031 C 
ATOM     69  C   UNL A   1      50.237  30.573  26.753  1.00  0.00     0.029 A 
ATOM     70  C   UNL A   1      49.536  29.886  27.730  1.00  0.00     0.049 A 
ATOM     71  H   UNL A   1      48.285  30.649  29.248  1.00  0.00     0.167 HD
ATOM     72  C   UNL A   1      48.747  27.871  28.942  1.00  0.00     0.074 A 
ATOM     73  C   UNL A   1      48.658  26.440  29.142  1.00  0.00     0.031 C 
ATOM     74  C   UNL A   1      49.469  28.463  27.957  1.00  0.00     0.034 A 
BRANCH  61  75
ATOM     75  C   UNL A   1      48.918  34.628  27.820  1.00  0.00     0.023 A 
ATOM     76  C   UNL A   1      48.114  35.078  26.752  1.00  0.00     0.012 A 
ATOM     77  C   UNL A   1      50.019  35.406  28.228  1.00  0.00     0.148 A 
ATOM     78  C   UNL A   1      48.432  36.251  26.066  1.00  0.00     0.002 A 
ATOM     79  C   UNL A   1      50.298  36.601  27.575  1.00  0.00     0.091 A 
ATOM     80  F   UNL A   1      50.787  34.954  29.230  1.00  0.00    -0.205 F 
ATOM     81  C   UNL A   1      49.518  37.015  26.484  1.00  0.00     0.022 A 
BRANCH  79  82
ATOM     82  S   UNL A   1      51.624  37.695  28.092  1.00  0.00     0.127 S 
ATOM     83  O   UNL A   1      52.805  36.875  27.823  1.00  0.00    -0.237 OA
ATOM     84  O   UNL A   1      51.455  38.833  27.188  1.00  0.00    -0.237 OA
ATOM     85  O   UNL A   1      51.374  37.994  29.494  1.00  0.00    -0.744 OA
ENDBRANCH  79  82
ENDBRANCH  61  75
BRANCH  62  86
ATOM     86  C   UNL A   1      46.078  26.282  32.495  1.00  0.00     0.023 A 
ATOM     87  C   UNL A   1      44.859  25.712  32.083  1.00  0.00     0.012 A 
ATOM     88  C   UNL A   1      46.842  25.632  33.484  1.00  0.00     0.148 A 
ATOM     89  C   UNL A   1      44.399  24.526  32.658  1.00  0.00     0.002 A 
ATOM     90  C   UNL A   1      46.409  24.422  34.011  1.00  0.00     0.091 A 
ATOM     91  F   UNL A   1      47.993  26.201  33.871  1.00  0.00    -0.205 F 
ATOM     92  C   UNL A   1      45.179  23.875  33.611  1.00  0.00     0.022 A 
BRANCH  90  93
ATOM     93  S   UNL A   1      47.406  23.447  35.142  1.00  0.00     0.127 S 
ATOM     94  O   UNL A   1      47.457  24.312  36.319  1.00  0.00    -0.237 OA
ATOM     95  O   UNL A   1      46.588  22.244  35.295  1.00  0.00    -0.237 OA
ATOM     96  O   UNL A   1      48.679  23.231  34.468  1.00  0.00    -0.744 OA
ENDBRANCH  90  93
ENDBRANCH  62  86
BRANCH  74  97
ATOM     97  C   UNL A   1      50.261  27.572  27.031  1.00  0.00     0.023 A 
ATOM     98  C   UNL A   1      49.664  27.050  25.868  1.00  0.00     0.012 A 
ATOM     99  C   UNL A   1      51.626  27.319  27.277  1.00  0.00     0.148 A 
ATOM    100  C   UNL A   1      50.402  26.261  24.983  1.00  0.00     0.002 A 
ATOM    101  C   UNL A   1      52.369  26.578  26.366  1.00  0.00     0.091 A 
ATOM    102  F   UNL A   1      52.175  27.812  28.398  1.00  0.00    -0.205 F 
ATOM    103  C   UNL A   1      51.754  26.036  25.226  1.00  0.00     0.022 A 
BRANCH 101 104
ATOM    104  S   UNL A   1      54.137  26.320  26.544  1.00  0.00     0.127 S 
ATOM    105  O   UNL A   1      54.224  25.770  27.896  1.00  0.00    -0.237 OA
ATOM    106  O   UNL A   1      54.418  25.359  25.476  1.00  0.00    -0.237 OA
ATOM    107  O   UNL A   1      54.757  27.625  26.361  1.00  0.00    -0.744 OA
ENDBRANCH 101 104
ENDBRANCH  74  97
ENDBRANCH  48  49
ENDBRANCH  41  43
ENDBRANCH  40  41
ENDBRANCH  39  40
ENDBRANCH  38  39
ENDBRANCH  37  38
ENDBRANCH  36  37
ENDBRANCH  35  36
ENDBRANCH  34  35
ENDBRANCH  33  34
ENDBRANCH   1  33
TORSDOF 31
ENDMDL
MODEL 3
REMARK VINA RESULT:      -5.1      4.369      9.505
REMARK SMILES CCCCCNC(=O)Oc1cccc(-c2ccc([C@@H](C)C(=O)OCCOCCOCCOCCOC(=O)c3ccc(-c4c5nc(c(-c6cccc(S(=O)(=O)[O-])c6F)c6ccc([nH]6)c(-c6cccc(S(=O)(=O)[O-])c6F)c6nc(c(-c7cccc(S(=O)(=O)[O-])c7F)c7ccc4[nH]7)C=C6)C=C5)cc3)cc2F)c1
REMARK SMILES IDX 27 1 26 2 25 3 24 4 23 5 21 6 22 7 19 8 20 9 18 10 15 11
REMARK SMILES IDX 16 12 102 13 17 14 101 15 103 16 14 17 10 18 11 19 104 20
REMARK SMILES IDX 12 21 13 22 9 23 7 24 6 25 8 27 5 28 4 29 3 30 2 31 1 32
REMARK SMILES IDX 28 33 29 34 30 35 31 36 32 37 33 38 34 39 35 40 36 41 37 42
REMARK SMILES IDX 38 43 39 44 100 45 40 46 99 47 41 48 42 49 43 50 93 51 44 52
REMARK SMILES IDX 98 53 92 54 94 55 45 56 97 57 91 58 90 59 46 61 78 62 58 63
REMARK SMILES IDX 77 64 59 65 62 66 76 67 95 68 60 69 61 70 75 72 96 73 63 74
REMARK SMILES IDX 47 75 48 76 56 77 49 78 51 79 57 80 50 81 52 82 53 83 54 84
REMARK SMILES IDX 55 85 79 86 80 87 88 88 81 89 83 90 89 91 82 92 84 93 85 94
REMARK SMILES IDX 86 95 87 96 64 97 65 98 73 99 66 100 68 101 74 102 67 103
REMARK SMILES IDX 69 104 70 105 71 106 72 107
REMARK H PARENT 6 26 94 60 62 71
REMARK Flexibility Score: inf
ROOT
ATOM      1  C   UNL A   1      46.488  29.246  31.383  1.00  0.00     0.188 C 
ENDROOT
BRANCH   1   2
ATOM      2  O   UNL A   1      46.099  29.982  30.231  1.00  0.00    -0.376 OA
BRANCH   2   3
ATOM      3  C   UNL A   1      45.598  29.317  29.079  1.00  0.00     0.202 C 
BRANCH   3   4
ATOM      4  C   UNL A   1      46.398  29.305  27.762  1.00  0.00     0.261 C 
BRANCH   4   5
ATOM      5  O   UNL A   1      46.645  28.019  27.157  1.00  0.00    -0.463 OA
BRANCH   5   6
ATOM      6  C   UNL A   1      47.747  27.918  26.382  1.00  0.00     0.313 C 
ATOM      7  O   UNL A   1      48.077  28.772  25.559  1.00  0.00    -0.252 OA
BRANCH   6   8
ATOM      8  C   UNL A   1      48.582  26.650  26.564  1.00  0.00     0.126 C 
ATOM      9  C   UNL A   1      47.636  25.463  26.703  1.00  0.00     0.025 C 
BRANCH   8  10
ATOM     10  C   UNL A   1      49.719  26.579  27.583  1.00  0.00    -0.031 A 
ATOM     11  C   UNL A   1      51.947  26.426  29.397  1.00  0.00     0.018 A 
ATOM     12  C   UNL A   1      50.660  26.789  29.833  1.00  0.00     0.012 A 
ATOM     13  C   UNL A   1      52.091  26.144  28.034  1.00  0.00     0.131 A 
ATOM     14  C   UNL A   1      49.563  26.864  28.946  1.00  0.00     0.005 A 
ATOM     15  C   UNL A   1      51.006  26.203  27.149  1.00  0.00     0.044 A 
ATOM     16  F   UNL A   1      53.287  25.792  27.537  1.00  0.00    -0.206 F 
BRANCH  11  17
ATOM     17  C   UNL A   1      53.079  26.302  30.340  1.00  0.00    -0.012 A 
ATOM     18  C   UNL A   1      54.177  25.272  32.259  1.00  0.00     0.133 A 
ATOM     19  C   UNL A   1      55.247  26.158  32.160  1.00  0.00     0.047 A 
ATOM     20  C   UNL A   1      53.094  25.346  31.375  1.00  0.00     0.056 A 
ATOM     21  C   UNL A   1      55.248  27.111  31.146  1.00  0.00     0.004 A 
ATOM     22  C   UNL A   1      54.177  27.179  30.247  1.00  0.00     0.009 A 
BRANCH  18  23
ATOM     23  O   UNL A   1      54.185  24.385  33.351  1.00  0.00    -0.410 OA
BRANCH  23  24
ATOM     24  C   UNL A   1      54.877  23.194  33.191  1.00  0.00     0.412 C 
ATOM     25  N   UNL A   1      55.883  23.012  34.102  1.00  0.00    -0.321 N 
ATOM     26  H   UNL A   1      56.348  22.145  34.070  1.00  0.00     0.167 HD
ATOM     27  O   UNL A   1      54.658  22.344  32.336  1.00  0.00    -0.224 OA
BRANCH  25  28
ATOM     28  C   UNL A   1      56.339  23.949  35.108  1.00  0.00     0.119 C 
BRANCH  28  29
ATOM     29  C   UNL A   1      55.591  23.793  36.432  1.00  0.00     0.021 C 
BRANCH  29  30
ATOM     30  C   UNL A   1      55.795  24.931  37.441  1.00  0.00     0.002 C 
BRANCH  30  31
ATOM     31  C   UNL A   1      57.075  25.753  37.271  1.00  0.00    -0.003 C 
ATOM     32  C   UNL A   1      56.941  27.194  37.740  1.00  0.00     0.004 C 
ENDBRANCH  30  31
ENDBRANCH  29  30
ENDBRANCH  28  29
ENDBRANCH  25  28
ENDBRANCH  23  24
ENDBRANCH  18  23
ENDBRANCH  11  17
ENDBRANCH   8  10
ENDBRANCH   6   8
ENDBRANCH   5   6
ENDBRANCH   4   5
ENDBRANCH   3   4
ENDBRANCH   2   3
ENDBRANCH   1   2
BRANCH   1  33
ATOM     33  C   UNL A   1      47.950  28.842  31.622  1.00  0.00     0.188 C 
BRANCH  33  34
ATOM     34  O   UNL A   1      48.793  29.883  32.065  1.00  0.00    -0.377 OA
BRANCH  34  35
ATOM     35  C   UNL A   1      50.179  29.592  32.135  1.00  0.00     0.188 C 
BRANCH  35  36
ATOM     36  C   UNL A   1      50.783  29.428  33.543  1.00  0.00     0.188 C 
BRANCH  36  37
ATOM     37  O   UNL A   1      49.913  28.805  34.485  1.00  0.00    -0.376 OA
BRANCH  37  38
ATOM     38  C   UNL A   1      50.053  27.407  34.707  1.00  0.00     0.202 C 
BRANCH  38  39
ATOM     39  C   UNL A   1      49.334  26.443  33.750  1.00  0.00     0.261 C 
BRANCH  39  40
ATOM     40  O   UNL A   1      48.580  25.391  34.361  1.00  0.00    -0.460 OA
BRANCH  40  41
ATOM     41  C   UNL A   1      47.915  25.657  35.506  1.00  0.00     0.338 C 
ATOM     42  O   UNL A   1      48.339  25.566  36.636  1.00  0.00    -0.246 OA
BRANCH  41  43
ATOM     43  C   UNL A   1      46.644  26.323  35.127  1.00  0.00     0.060 A 
ATOM     44  C   UNL A   1      45.502  25.532  34.939  1.00  0.00     0.016 A 
ATOM     45  C   UNL A   1      46.578  27.708  34.967  1.00  0.00     0.016 A 
ATOM     46  C   UNL A   1      44.301  26.121  34.544  1.00  0.00     0.010 A 
ATOM     47  C   UNL A   1      45.380  28.293  34.547  1.00  0.00     0.010 A 
ATOM     48  C   UNL A   1      44.248  27.497  34.293  1.00  0.00    -0.014 A 
BRANCH  48  49
ATOM     49  C   UNL A   1      43.080  28.061  33.571  1.00  0.00     0.031 A 
ATOM     50  C   UNL A   1      42.898  27.706  32.121  1.00  0.00     0.074 A 
ATOM     51  C   UNL A   1      42.192  28.865  34.182  1.00  0.00     0.049 A 
ATOM     52  N   UNL A   1      41.981  28.098  31.277  1.00  0.00    -0.248 NA
ATOM     53  C   UNL A   1      43.892  26.784  31.547  1.00  0.00     0.031 C 
ATOM     54  C   UNL A   1      42.250  29.277  35.581  1.00  0.00     0.029 A 
ATOM     55  N   UNL A   1      41.083  29.502  33.684  1.00  0.00    -0.354 N 
ATOM     56  C   UNL A   1      42.303  27.499  30.065  1.00  0.00     0.074 A 
ATOM     57  C   UNL A   1      43.510  26.730  30.281  1.00  0.00     0.031 C 
ATOM     58  C   UNL A   1      41.242  30.135  35.821  1.00  0.00     0.029 A 
ATOM     59  C   UNL A   1      40.489  30.351  34.587  1.00  0.00     0.049 A 
ATOM     60  H   UNL A   1      40.746  29.364  32.769  1.00  0.00     0.167 HD
ATOM     61  C   UNL A   1      41.651  27.571  28.880  1.00  0.00     0.034 A 
ATOM     62  C   UNL A   1      39.477  31.228  34.426  1.00  0.00     0.034 A 
ATOM     63  C   UNL A   1      40.454  28.339  28.665  1.00  0.00     0.049 A 
ATOM     64  C   UNL A   1      38.782  31.324  33.092  1.00  0.00     0.074 A 
ATOM     65  C   UNL A   1      39.692  28.442  27.515  1.00  0.00     0.029 A 
ATOM     66  N   UNL A   1      39.859  29.157  29.614  1.00  0.00    -0.354 N 
ATOM     67  N   UNL A   1      39.027  30.667  31.984  1.00  0.00    -0.248 NA
ATOM     68  C   UNL A   1      37.651  32.259  32.995  1.00  0.00     0.031 C 
ATOM     69  C   UNL A   1      38.662  29.358  27.756  1.00  0.00     0.029 A 
ATOM     70  C   UNL A   1      38.752  29.787  29.070  1.00  0.00     0.049 A 
ATOM     71  H   UNL A   1      40.177  29.274  30.538  1.00  0.00     0.167 HD
ATOM     72  C   UNL A   1      38.063  31.083  31.069  1.00  0.00     0.074 A 
ATOM     73  C   UNL A   1      37.221  32.037  31.760  1.00  0.00     0.031 C 
ATOM     74  C   UNL A   1      37.897  30.711  29.774  1.00  0.00     0.034 A 
BRANCH  61  75
ATOM     75  C   UNL A   1      42.236  26.799  27.725  1.00  0.00     0.023 A 
ATOM     76  C   UNL A   1      43.056  27.454  26.783  1.00  0.00     0.012 A 
ATOM     77  C   UNL A   1      41.976  25.423  27.574  1.00  0.00     0.148 A 
ATOM     78  C   UNL A   1      43.562  26.765  25.679  1.00  0.00     0.002 A 
ATOM     79  C   UNL A   1      42.527  24.732  26.501  1.00  0.00     0.091 A 
ATOM     80  F   UNL A   1      41.176  24.820  28.465  1.00  0.00    -0.205 F 
ATOM     81  C   UNL A   1      43.304  25.405  25.544  1.00  0.00     0.022 A 
BRANCH  79  82
ATOM     82  S   UNL A   1      42.319  22.962  26.286  1.00  0.00     0.127 S 
ATOM     83  O   UNL A   1      40.863  22.835  26.264  1.00  0.00    -0.237 OA
ATOM     84  O   UNL A   1      42.970  22.730  24.996  1.00  0.00    -0.237 OA
ATOM     85  O   UNL A   1      42.987  22.340  27.420  1.00  0.00    -0.744 OA
ENDBRANCH  79  82
ENDBRANCH  61  75
BRANCH  62  86
ATOM     86  C   UNL A   1      39.059  32.080  35.574  1.00  0.00     0.023 A 
ATOM     87  C   UNL A   1      38.191  31.563  36.555  1.00  0.00     0.012 A 
ATOM     88  C   UNL A   1      39.564  33.386  35.721  1.00  0.00     0.148 A 
ATOM     89  C   UNL A   1      37.820  32.340  37.653  1.00  0.00     0.002 A 
ATOM     90  C   UNL A   1      39.237  34.134  36.845  1.00  0.00     0.091 A 
ATOM     91  F   UNL A   1      40.377  33.862  34.766  1.00  0.00    -0.205 F 
ATOM     92  C   UNL A   1      38.352  33.619  37.805  1.00  0.00     0.022 A 
BRANCH  90  93
ATOM     93  S   UNL A   1      39.977  35.733  37.192  1.00  0.00     0.127 S 
ATOM     94  O   UNL A   1      39.294  36.119  38.424  1.00  0.00    -0.237 OA
ATOM     95  O   UNL A   1      41.387  35.378  37.352  1.00  0.00    -0.237 OA
ATOM     96  O   UNL A   1      39.692  36.565  36.030  1.00  0.00    -0.744 OA
ENDBRANCH  90  93
ENDBRANCH  62  86
BRANCH  74  97
ATOM     97  C   UNL A   1      36.735  31.303  29.015  1.00  0.00     0.023 A 
ATOM     98  C   UNL A   1      36.723  32.676  28.696  1.00  0.00     0.012 A 
ATOM     99  C   UNL A   1      35.692  30.479  28.548  1.00  0.00     0.148 A 
ATOM    100  C   UNL A   1      35.674  33.224  27.956  1.00  0.00     0.002 A 
ATOM    101  C   UNL A   1      34.678  31.020  27.766  1.00  0.00     0.091 A 
ATOM    102  F   UNL A   1      35.711  29.178  28.873  1.00  0.00    -0.205 F 
ATOM    103  C   UNL A   1      34.660  32.395  27.482  1.00  0.00     0.022 A 
BRANCH 101 104
ATOM    104  S   UNL A   1      33.385  30.015  27.029  1.00  0.00     0.127 S 
ATOM    105  O   UNL A   1      33.247  28.940  28.011  1.00  0.00    -0.237 OA
ATOM    106  O   UNL A   1      32.258  30.947  26.983  1.00  0.00    -0.237 OA
ATOM    107  O   UNL A   1      33.885  29.606  25.724  1.00  0.00    -0.744 OA
ENDBRANCH 101 104
ENDBRANCH  74  97
ENDBRANCH  48  49
ENDBRANCH  41  43
ENDBRANCH  40  41
ENDBRANCH  39  40
ENDBRANCH  38  39
ENDBRANCH  37  38
ENDBRANCH  36  37
ENDBRANCH  35  36
ENDBRANCH  34  35
ENDBRANCH  33  34
ENDBRANCH   1  33
TORSDOF 31
ENDMDL
