MODEL 1
REMARK VINA RESULT:      -9.2      0.000      0.000
REMARK SMILES CC1(C)[C@H](C#N)C(SCC(=O)OCCOCCOCCOCCOC(=O)c2ccc(-c3c4nc(c(-c5cccc(S(=O)(=O)[O-])c5F)c5ccc([nH]5)c(-c5cccc(S(=O)(=O)[O-])c5F)c5nc(c(-c6cccc(S(=O)(=O)[O-])c6F)c6ccc3[nH]6)C=C5)C=C4)cc2)=NC(=O)[C@@H]1C#N
REMARK SMILES IDX 18 1 17 2 16 3 15 4 14 5 13 6 12 7 10 8 11 9 9 10 8 11 7 12
REMARK SMILES IDX 1 13 2 14 3 15 4 16 93 17 91 18 90 19 92 20 5 21 6 22 94 23
REMARK SMILES IDX 95 24 19 25 20 26 21 27 22 28 23 29 24 30 25 31 26 32 27 33
REMARK SMILES IDX 28 34 89 35 29 36 88 37 30 38 31 39 32 40 82 41 33 42 87 43
REMARK SMILES IDX 81 44 83 45 34 46 86 47 80 48 79 49 35 51 67 52 47 53 66 54
REMARK SMILES IDX 48 55 51 56 65 57 84 58 49 59 50 60 64 62 85 63 52 64 36 65
REMARK SMILES IDX 37 66 45 67 38 68 40 69 46 70 39 71 41 72 42 73 43 74 44 75
REMARK SMILES IDX 68 76 69 77 77 78 70 79 72 80 78 81 71 82 73 83 74 84 75 85
REMARK SMILES IDX 76 86 53 87 54 88 62 89 55 90 57 91 63 92 56 93 58 94 59 95
REMARK SMILES IDX 60 96 61 97
REMARK H PARENT 83 50 51 61
REMARK Flexibility Score: inf
ROOT
ATOM      1  O   UNL A   1      34.992  31.922  27.903  1.00  0.00    -0.377 OA
ENDROOT
BRANCH   1   2
ATOM      2  C   UNL A   1      34.373  30.709  27.591  1.00  0.00     0.188 C 
BRANCH   2   3
ATOM      3  C   UNL A   1      32.941  30.214  27.347  1.00  0.00     0.188 C 
BRANCH   3   4
ATOM      4  O   UNL A   1      31.908  30.979  26.768  1.00  0.00    -0.376 OA
BRANCH   4   5
ATOM      5  C   UNL A   1      31.370  30.654  25.510  1.00  0.00     0.202 C 
BRANCH   5   6
ATOM      6  C   UNL A   1      31.393  29.201  25.002  1.00  0.00     0.261 C 
BRANCH   6   7
ATOM      7  O   UNL A   1      30.973  28.990  23.637  1.00  0.00    -0.463 OA
BRANCH   7   8
ATOM      8  C   UNL A   1      29.913  28.169  23.426  1.00  0.00     0.316 C 
ATOM      9  O   UNL A   1      28.970  28.472  22.697  1.00  0.00    -0.251 OA
BRANCH   8  10
ATOM     10  C   UNL A   1      29.952  26.802  24.120  1.00  0.00     0.198 C 
BRANCH  10  11
ATOM     11  S   UNL A   1      30.232  25.289  23.147  1.00  0.00    -0.097 SA
BRANCH  11  12
ATOM     12  C   UNL A   1      31.046  24.114  24.236  1.00  0.00     0.095 C 
ATOM     13  C   UNL A   1      32.399  20.556  23.696  1.00  0.00     0.015 C 
ATOM     14  C   UNL A   1      32.651  21.912  24.396  1.00  0.00     0.012 C 
ATOM     15  C   UNL A   1      34.272  21.898  24.302  1.00  0.00     0.015 C 
ATOM     16  C   UNL A   1      31.863  23.048  23.529  1.00  0.00     0.156 C 
ATOM     17  C   UNL A   1      32.263  22.041  25.908  1.00  0.00     0.191 C 
ATOM     18  C   UNL A   1      31.621  23.368  26.381  1.00  0.00     0.264 C 
ATOM     19  N   UNL A   1      31.024  24.265  25.515  1.00  0.00    -0.209 NA
ATOM     20  O   UNL A   1      31.507  23.567  27.590  1.00  0.00    -0.271 OA
BRANCH  16  21
ATOM     21  C   UNL A   1      33.106  23.913  23.393  1.00  0.00     0.073 C 
ATOM     22  N   UNL A   1      34.137  24.631  23.281  1.00  0.00    -0.198 NA
ENDBRANCH  16  21
BRANCH  17  23
ATOM     23  C   UNL A   1      33.372  21.752  26.844  1.00  0.00     0.076 C 
ATOM     24  N   UNL A   1      34.277  21.543  27.561  1.00  0.00    -0.197 NA
ENDBRANCH  17  23
ENDBRANCH  11  12
ENDBRANCH  10  11
ENDBRANCH   8  10
ENDBRANCH   7   8
ENDBRANCH   6   7
ENDBRANCH   5   6
ENDBRANCH   4   5
ENDBRANCH   3   4
ENDBRANCH   2   3
ENDBRANCH   1   2
BRANCH   1  25
ATOM     25  C   UNL A   1      34.205  33.030  28.230  1.00  0.00     0.188 C 
BRANCH  25  26
ATOM     26  C   UNL A   1      35.031  34.314  28.151  1.00  0.00     0.188 C 
BRANCH  26  27
ATOM     27  O   UNL A   1      34.233  35.492  28.224  1.00  0.00    -0.376 OA
BRANCH  27  28
ATOM     28  C   UNL A   1      33.046  35.462  29.018  1.00  0.00     0.202 C 
BRANCH  28  29
ATOM     29  C   UNL A   1      32.841  36.430  30.182  1.00  0.00     0.261 C 
BRANCH  29  30
ATOM     30  O   UNL A   1      33.596  36.192  31.361  1.00  0.00    -0.460 OA
BRANCH  30  31
ATOM     31  C   UNL A   1      33.314  35.148  32.149  1.00  0.00     0.338 C 
ATOM     32  O   UNL A   1      32.264  34.880  32.689  1.00  0.00    -0.246 OA
BRANCH  31  33
ATOM     33  C   UNL A   1      34.555  34.360  32.129  1.00  0.00     0.060 A 
ATOM     34  C   UNL A   1      34.477  33.022  32.526  1.00  0.00     0.016 A 
ATOM     35  C   UNL A   1      35.743  34.902  31.629  1.00  0.00     0.016 A 
ATOM     36  C   UNL A   1      35.607  32.223  32.469  1.00  0.00     0.010 A 
ATOM     37  C   UNL A   1      36.889  34.105  31.602  1.00  0.00     0.010 A 
ATOM     38  C   UNL A   1      36.826  32.781  32.066  1.00  0.00    -0.014 A 
BRANCH  38  39
ATOM     39  C   UNL A   1      38.053  32.034  32.404  1.00  0.00     0.031 A 
ATOM     40  C   UNL A   1      38.703  32.338  33.724  1.00  0.00     0.074 A 
ATOM     41  C   UNL A   1      38.497  31.044  31.613  1.00  0.00     0.049 A 
ATOM     42  N   UNL A   1      39.745  31.786  34.280  1.00  0.00    -0.248 NA
ATOM     43  C   UNL A   1      38.085  33.405  34.533  1.00  0.00     0.031 C 
ATOM     44  C   UNL A   1      37.894  30.644  30.342  1.00  0.00     0.029 A 
ATOM     45  N   UNL A   1      39.560  30.196  31.767  1.00  0.00    -0.354 N 
ATOM     46  C   UNL A   1      39.922  32.450  35.486  1.00  0.00     0.074 A 
ATOM     47  C   UNL A   1      38.891  33.456  35.581  1.00  0.00     0.031 C 
ATOM     48  C   UNL A   1      38.611  29.634  29.820  1.00  0.00     0.029 A 
ATOM     49  C   UNL A   1      39.736  29.342  30.704  1.00  0.00     0.049 A 
ATOM     50  H   UNL A   1      40.142  30.197  32.561  1.00  0.00     0.167 HD
ATOM     51  C   UNL A   1      40.860  32.233  36.436  1.00  0.00     0.034 A 
ATOM     52  C   UNL A   1      40.717  28.449  30.472  1.00  0.00     0.034 A 
ATOM     53  C   UNL A   1      41.878  31.228  36.320  1.00  0.00     0.049 A 
ATOM     54  C   UNL A   1      41.788  28.271  31.516  1.00  0.00     0.074 A 
ATOM     55  C   UNL A   1      42.877  30.908  37.220  1.00  0.00     0.029 A 
ATOM     56  N   UNL A   1      42.039  30.393  35.225  1.00  0.00    -0.354 N 
ATOM     57  N   UNL A   1      41.908  28.859  32.683  1.00  0.00    -0.248 NA
ATOM     58  C   UNL A   1      42.843  27.290  31.225  1.00  0.00     0.031 C 
ATOM     59  C   UNL A   1      43.671  29.911  36.646  1.00  0.00     0.029 A 
ATOM     60  C   UNL A   1      43.132  29.569  35.415  1.00  0.00     0.049 A 
ATOM     61  H   UNL A   1      41.460  30.388  34.428  1.00  0.00     0.167 HD
ATOM     62  C   UNL A   1      43.027  28.293  33.283  1.00  0.00     0.074 A 
ATOM     63  C   UNL A   1      43.536  27.302  32.355  1.00  0.00     0.031 C 
ATOM     64  C   UNL A   1      43.588  28.565  34.487  1.00  0.00     0.034 A 
BRANCH  51  65
ATOM     65  C   UNL A   1      40.833  33.108  37.659  1.00  0.00     0.023 A 
ATOM     66  C   UNL A   1      39.976  32.798  38.736  1.00  0.00     0.012 A 
ATOM     67  C   UNL A   1      41.685  34.225  37.754  1.00  0.00     0.148 A 
ATOM     68  C   UNL A   1      39.944  33.605  39.874  1.00  0.00     0.002 A 
ATOM     69  C   UNL A   1      41.684  34.994  38.911  1.00  0.00     0.091 A 
ATOM     70  F   UNL A   1      42.470  34.519  36.709  1.00  0.00    -0.205 F 
ATOM     71  C   UNL A   1      40.806  34.695  39.965  1.00  0.00     0.022 A 
BRANCH  69  72
ATOM     72  S   UNL A   1      42.808  36.373  39.156  1.00  0.00     0.127 S 
ATOM     73  O   UNL A   1      42.433  37.258  38.053  1.00  0.00    -0.237 OA
ATOM     74  O   UNL A   1      42.418  36.851  40.482  1.00  0.00    -0.237 OA
ATOM     75  O   UNL A   1      44.152  35.819  39.075  1.00  0.00    -0.744 OA
ENDBRANCH  69  72
ENDBRANCH  51  65
BRANCH  52  76
ATOM     76  C   UNL A   1      40.726  27.656  29.211  1.00  0.00     0.023 A 
ATOM     77  C   UNL A   1      39.842  26.572  29.053  1.00  0.00     0.012 A 
ATOM     78  C   UNL A   1      41.607  27.982  28.160  1.00  0.00     0.148 A 
ATOM     79  C   UNL A   1      39.856  25.808  27.883  1.00  0.00     0.002 A 
ATOM     80  C   UNL A   1      41.576  27.255  26.977  1.00  0.00     0.091 A 
ATOM     81  F   UNL A   1      42.450  29.009  28.336  1.00  0.00    -0.205 F 
ATOM     82  C   UNL A   1      40.714  26.155  26.843  1.00  0.00     0.022 A 
BRANCH  80  83
ATOM     83  S   UNL A   1      42.552  27.710  25.541  1.00  0.00     0.127 S 
ATOM     84  O   UNL A   1      43.889  27.837  26.116  1.00  0.00    -0.237 OA
ATOM     85  O   UNL A   1      42.360  26.549  24.671  1.00  0.00    -0.237 OA
ATOM     86  O   UNL A   1      41.963  28.943  25.037  1.00  0.00    -0.744 OA
ENDBRANCH  80  83
ENDBRANCH  52  76
BRANCH  64  87
ATOM     87  C   UNL A   1      44.785  27.749  34.896  1.00  0.00     0.023 A 
ATOM     88  C   UNL A   1      46.086  28.260  34.728  1.00  0.00     0.012 A 
ATOM     89  C   UNL A   1      44.606  26.498  35.522  1.00  0.00     0.148 A 
ATOM     90  C   UNL A   1      47.193  27.522  35.141  1.00  0.00     0.002 A 
ATOM     91  C   UNL A   1      45.709  25.796  35.985  1.00  0.00     0.091 A 
ATOM     92  F   UNL A   1      43.359  26.026  35.659  1.00  0.00    -0.205 F 
ATOM     93  C   UNL A   1      47.004  26.299  35.781  1.00  0.00     0.022 A 
BRANCH  91  94
ATOM     94  S   UNL A   1      45.557  24.266  36.911  1.00  0.00     0.127 S 
ATOM     95  O   UNL A   1      46.947  23.814  36.967  1.00  0.00    -0.237 OA
ATOM     96  O   UNL A   1      45.014  24.732  38.187  1.00  0.00    -0.237 OA
ATOM     97  O   UNL A   1      44.657  23.416  36.143  1.00  0.00    -0.744 OA
ENDBRANCH  91  94
ENDBRANCH  64  87
ENDBRANCH  38  39
ENDBRANCH  31  33
ENDBRANCH  30  31
ENDBRANCH  29  30
ENDBRANCH  28  29
ENDBRANCH  27  28
ENDBRANCH  26  27
ENDBRANCH  25  26
ENDBRANCH   1  25
TORSDOF 27
ENDMDL
MODEL 2
REMARK VINA RESULT:      -9.2      4.979     11.788
REMARK SMILES CC1(C)[C@H](C#N)C(SCC(=O)OCCOCCOCCOCCOC(=O)c2ccc(-c3c4nc(c(-c5cccc(S(=O)(=O)[O-])c5F)c5ccc([nH]5)c(-c5cccc(S(=O)(=O)[O-])c5F)c5nc(c(-c6cccc(S(=O)(=O)[O-])c6F)c6ccc3[nH]6)C=C5)C=C4)cc2)=NC(=O)[C@@H]1C#N
REMARK SMILES IDX 18 1 17 2 16 3 15 4 14 5 13 6 12 7 10 8 11 9 9 10 8 11 7 12
REMARK SMILES IDX 1 13 2 14 3 15 4 16 93 17 91 18 90 19 92 20 5 21 6 22 94 23
REMARK SMILES IDX 95 24 19 25 20 26 21 27 22 28 23 29 24 30 25 31 26 32 27 33
REMARK SMILES IDX 28 34 89 35 29 36 88 37 30 38 31 39 32 40 82 41 33 42 87 43
REMARK SMILES IDX 81 44 83 45 34 46 86 47 80 48 79 49 35 51 67 52 47 53 66 54
REMARK SMILES IDX 48 55 51 56 65 57 84 58 49 59 50 60 64 62 85 63 52 64 36 65
REMARK SMILES IDX 37 66 45 67 38 68 40 69 46 70 39 71 41 72 42 73 43 74 44 75
REMARK SMILES IDX 68 76 69 77 77 78 70 79 72 80 78 81 71 82 73 83 74 84 75 85
REMARK SMILES IDX 76 86 53 87 54 88 62 89 55 90 57 91 63 92 56 93 58 94 59 95
REMARK SMILES IDX 60 96 61 97
REMARK H PARENT 83 50 51 61
REMARK Flexibility Score: inf
ROOT
ATOM      1  O   UNL A   1      33.089  23.833  24.183  1.00  0.00    -0.377 OA
ENDROOT
BRANCH   1   2
ATOM      2  C   UNL A   1      32.346  24.681  25.009  1.00  0.00     0.188 C 
BRANCH   2   3
ATOM      3  C   UNL A   1      31.145  25.623  24.853  1.00  0.00     0.188 C 
BRANCH   3   4
ATOM      4  O   UNL A   1      31.122  26.780  24.048  1.00  0.00    -0.376 OA
BRANCH   4   5
ATOM      5  C   UNL A   1      31.004  28.064  24.610  1.00  0.00     0.202 C 
BRANCH   5   6
ATOM      6  C   UNL A   1      32.252  28.817  25.106  1.00  0.00     0.261 C 
BRANCH   6   7
ATOM      7  O   UNL A   1      32.228  29.271  26.476  1.00  0.00    -0.463 OA
BRANCH   7   8
ATOM      8  C   UNL A   1      33.359  29.833  26.972  1.00  0.00     0.316 C 
ATOM      9  O   UNL A   1      34.456  29.282  26.916  1.00  0.00    -0.251 OA
BRANCH   8  10
ATOM     10  C   UNL A   1      33.220  31.230  27.588  1.00  0.00     0.198 C 
BRANCH  10  11
ATOM     11  S   UNL A   1      34.702  32.226  27.946  1.00  0.00    -0.097 SA
BRANCH  11  12
ATOM     12  C   UNL A   1      34.243  33.397  29.230  1.00  0.00     0.095 C 
ATOM     13  C   UNL A   1      34.245  33.194  33.069  1.00  0.00     0.015 C 
ATOM     14  C   UNL A   1      34.522  34.106  31.851  1.00  0.00     0.012 C 
ATOM     15  C   UNL A   1      35.758  34.943  32.491  1.00  0.00     0.015 C 
ATOM     16  C   UNL A   1      34.858  33.126  30.591  1.00  0.00     0.156 C 
ATOM     17  C   UNL A   1      33.416  35.134  31.436  1.00  0.00     0.191 C 
ATOM     18  C   UNL A   1      33.158  35.353  29.925  1.00  0.00     0.264 C 
ATOM     19  N   UNL A   1      33.546  34.445  28.958  1.00  0.00    -0.209 NA
ATOM     20  O   UNL A   1      32.451  36.300  29.581  1.00  0.00    -0.271 OA
BRANCH  16  21
ATOM     21  C   UNL A   1      36.163  33.845  30.283  1.00  0.00     0.073 C 
ATOM     22  N   UNL A   1      37.244  34.440  30.028  1.00  0.00    -0.198 NA
ENDBRANCH  16  21
BRANCH  17  23
ATOM     23  C   UNL A   1      33.583  36.477  32.034  1.00  0.00     0.076 C 
ATOM     24  N   UNL A   1      33.676  37.550  32.504  1.00  0.00    -0.197 NA
ENDBRANCH  17  23
ENDBRANCH  11  12
ENDBRANCH  10  11
ENDBRANCH   8  10
ENDBRANCH   7   8
ENDBRANCH   6   7
ENDBRANCH   5   6
ENDBRANCH   4   5
ENDBRANCH   3   4
ENDBRANCH   2   3
ENDBRANCH   1   2
BRANCH   1  25
ATOM     25  C   UNL A   1      34.277  24.298  23.613  1.00  0.00     0.188 C 
BRANCH  25  26
ATOM     26  C   UNL A   1      35.311  23.173  23.543  1.00  0.00     0.188 C 
BRANCH  26  27
ATOM     27  O   UNL A   1      34.891  21.992  24.219  1.00  0.00    -0.376 OA
BRANCH  27  28
ATOM     28  C   UNL A   1      35.884  21.164  24.826  1.00  0.00     0.202 C 
BRANCH  28  29
ATOM     29  C   UNL A   1      36.854  21.718  25.869  1.00  0.00     0.261 C 
BRANCH  29  30
ATOM     30  O   UNL A   1      38.156  22.065  25.421  1.00  0.00    -0.460 OA
BRANCH  30  31
ATOM     31  C   UNL A   1      39.238  21.560  26.021  1.00  0.00     0.338 C 
ATOM     32  O   UNL A   1      39.668  20.429  25.964  1.00  0.00    -0.246 OA
BRANCH  31  33
ATOM     33  C   UNL A   1      39.830  22.724  26.697  1.00  0.00     0.060 A 
ATOM     34  C   UNL A   1      39.280  23.980  26.421  1.00  0.00     0.016 A 
ATOM     35  C   UNL A   1      40.831  22.565  27.660  1.00  0.00     0.016 A 
ATOM     36  C   UNL A   1      39.764  25.099  27.077  1.00  0.00     0.010 A 
ATOM     37  C   UNL A   1      41.340  23.698  28.298  1.00  0.00     0.010 A 
ATOM     38  C   UNL A   1      40.834  24.967  27.968  1.00  0.00    -0.014 A 
BRANCH  38  39
ATOM     39  C   UNL A   1      41.573  26.195  28.322  1.00  0.00     0.031 A 
ATOM     40  C   UNL A   1      42.905  26.412  27.662  1.00  0.00     0.074 A 
ATOM     41  C   UNL A   1      41.018  27.130  29.111  1.00  0.00     0.049 A 
ATOM     42  N   UNL A   1      43.718  27.427  27.753  1.00  0.00    -0.248 NA
ATOM     43  C   UNL A   1      43.379  25.340  26.766  1.00  0.00     0.031 C 
ATOM     44  C   UNL A   1      39.706  27.026  29.748  1.00  0.00     0.029 A 
ATOM     45  N   UNL A   1      41.493  28.350  29.507  1.00  0.00    -0.354 N 
ATOM     46  C   UNL A   1      44.806  27.109  26.951  1.00  0.00     0.074 A 
ATOM     47  C   UNL A   1      44.560  25.802  26.389  1.00  0.00     0.031 C 
ATOM     48  C   UNL A   1      39.487  28.136  30.475  1.00  0.00     0.029 A 
ATOM     49  C   UNL A   1      40.656  29.007  30.376  1.00  0.00     0.049 A 
ATOM     50  H   UNL A   1      42.352  28.721  29.201  1.00  0.00     0.167 HD
ATOM     51  C   UNL A   1      45.910  27.847  26.700  1.00  0.00     0.034 A 
ATOM     52  C   UNL A   1      40.837  30.169  31.033  1.00  0.00     0.034 A 
ATOM     53  C   UNL A   1      46.135  29.145  27.272  1.00  0.00     0.049 A 
ATOM     54  C   UNL A   1      42.105  30.942  30.787  1.00  0.00     0.074 A 
ATOM     55  C   UNL A   1      47.210  29.992  27.084  1.00  0.00     0.029 A 
ATOM     56  N   UNL A   1      45.276  29.773  28.160  1.00  0.00    -0.354 N 
ATOM     57  N   UNL A   1      43.097  30.663  29.976  1.00  0.00    -0.248 NA
ATOM     58  C   UNL A   1      42.267  32.203  31.524  1.00  0.00     0.031 C 
ATOM     59  C   UNL A   1      47.023  31.113  27.899  1.00  0.00     0.029 A 
ATOM     60  C   UNL A   1      45.803  30.990  28.547  1.00  0.00     0.049 A 
ATOM     61  H   UNL A   1      44.416  29.406  28.470  1.00  0.00     0.167 HD
ATOM     62  C   UNL A   1      43.984  31.729  30.073  1.00  0.00     0.074 A 
ATOM     63  C   UNL A   1      43.398  32.668  31.011  1.00  0.00     0.031 C 
ATOM     64  C   UNL A   1      45.174  31.918  29.453  1.00  0.00     0.034 A 
BRANCH  51  65
ATOM     65  C   UNL A   1      46.953  27.260  25.789  1.00  0.00     0.023 A 
ATOM     66  C   UNL A   1      47.725  26.157  26.209  1.00  0.00     0.012 A 
ATOM     67  C   UNL A   1      47.146  27.785  24.497  1.00  0.00     0.148 A 
ATOM     68  C   UNL A   1      48.695  25.607  25.371  1.00  0.00     0.002 A 
ATOM     69  C   UNL A   1      48.079  27.201  23.649  1.00  0.00     0.091 A 
ATOM     70  F   UNL A   1      46.424  28.851  24.127  1.00  0.00    -0.205 F 
ATOM     71  C   UNL A   1      48.863  26.122  24.088  1.00  0.00     0.022 A 
BRANCH  69  72
ATOM     72  S   UNL A   1      48.317  27.742  21.954  1.00  0.00     0.127 S 
ATOM     73  O   UNL A   1      47.122  28.557  21.734  1.00  0.00    -0.237 OA
ATOM     74  O   UNL A   1      49.564  28.501  22.049  1.00  0.00    -0.237 OA
ATOM     75  O   UNL A   1      48.397  26.531  21.150  1.00  0.00    -0.744 OA
ENDBRANCH  69  72
ENDBRANCH  51  65
BRANCH  52  76
ATOM     76  C   UNL A   1      39.794  30.669  31.973  1.00  0.00     0.023 A 
ATOM     77  C   UNL A   1      38.582  31.182  31.474  1.00  0.00     0.012 A 
ATOM     78  C   UNL A   1      40.000  30.627  33.366  1.00  0.00     0.148 A 
ATOM     79  C   UNL A   1      37.607  31.674  32.344  1.00  0.00     0.002 A 
ATOM     80  C   UNL A   1      39.003  31.064  34.229  1.00  0.00     0.091 A 
ATOM     81  F   UNL A   1      41.166  30.147  33.821  1.00  0.00    -0.205 F 
ATOM     82  C   UNL A   1      37.812  31.606  33.720  1.00  0.00     0.022 A 
BRANCH  80  83
ATOM     83  S   UNL A   1      39.129  30.894  36.011  1.00  0.00     0.127 S 
ATOM     84  O   UNL A   1      39.840  32.116  36.380  1.00  0.00    -0.237 OA
ATOM     85  O   UNL A   1      37.720  30.855  36.407  1.00  0.00    -0.237 OA
ATOM     86  O   UNL A   1      39.852  29.651  36.240  1.00  0.00    -0.744 OA
ENDBRANCH  80  83
ENDBRANCH  52  76
BRANCH  64  87
ATOM     87  C   UNL A   1      45.901  33.209  29.724  1.00  0.00     0.023 A 
ATOM     88  C   UNL A   1      46.826  33.295  30.781  1.00  0.00     0.012 A 
ATOM     89  C   UNL A   1      45.717  34.315  28.869  1.00  0.00     0.148 A 
ATOM     90  C   UNL A   1      47.529  34.476  31.009  1.00  0.00     0.002 A 
ATOM     91  C   UNL A   1      46.463  35.468  29.067  1.00  0.00     0.091 A 
ATOM     92  F   UNL A   1      44.821  34.214  27.878  1.00  0.00    -0.205 F 
ATOM     93  C   UNL A   1      47.358  35.557  30.146  1.00  0.00     0.022 A 
BRANCH  91  94
ATOM     94  S   UNL A   1      46.386  36.867  27.945  1.00  0.00     0.127 S 
ATOM     95  O   UNL A   1      47.411  37.750  28.502  1.00  0.00    -0.237 OA
ATOM     96  O   UNL A   1      46.739  36.254  26.665  1.00  0.00    -0.237 OA
ATOM     97  O   UNL A   1      45.022  37.372  28.021  1.00  0.00    -0.744 OA
ENDBRANCH  91  94
ENDBRANCH  64  87
ENDBRANCH  38  39
ENDBRANCH  31  33
ENDBRANCH  30  31
ENDBRANCH  29  30
ENDBRANCH  28  29
ENDBRANCH  27  28
ENDBRANCH  26  27
ENDBRANCH  25  26
ENDBRANCH   1  25
TORSDOF 27
ENDMDL
MODEL 3
REMARK VINA RESULT:      -9.0      6.351     10.728
REMARK SMILES CC1(C)[C@H](C#N)C(SCC(=O)OCCOCCOCCOCCOC(=O)c2ccc(-c3c4nc(c(-c5cccc(S(=O)(=O)[O-])c5F)c5ccc([nH]5)c(-c5cccc(S(=O)(=O)[O-])c5F)c5nc(c(-c6cccc(S(=O)(=O)[O-])c6F)c6ccc3[nH]6)C=C5)C=C4)cc2)=NC(=O)[C@@H]1C#N
REMARK SMILES IDX 18 1 17 2 16 3 15 4 14 5 13 6 12 7 10 8 11 9 9 10 8 11 7 12
REMARK SMILES IDX 1 13 2 14 3 15 4 16 93 17 91 18 90 19 92 20 5 21 6 22 94 23
REMARK SMILES IDX 95 24 19 25 20 26 21 27 22 28 23 29 24 30 25 31 26 32 27 33
REMARK SMILES IDX 28 34 89 35 29 36 88 37 30 38 31 39 32 40 82 41 33 42 87 43
REMARK SMILES IDX 81 44 83 45 34 46 86 47 80 48 79 49 35 51 67 52 47 53 66 54
REMARK SMILES IDX 48 55 51 56 65 57 84 58 49 59 50 60 64 62 85 63 52 64 36 65
REMARK SMILES IDX 37 66 45 67 38 68 40 69 46 70 39 71 41 72 42 73 43 74 44 75
REMARK SMILES IDX 68 76 69 77 77 78 70 79 72 80 78 81 71 82 73 83 74 84 75 85
REMARK SMILES IDX 76 86 53 87 54 88 62 89 55 90 57 91 63 92 56 93 58 94 59 95
REMARK SMILES IDX 60 96 61 97
REMARK H PARENT 83 50 51 61
REMARK Flexibility Score: inf
ROOT
ATOM      1  O   UNL A   1      35.903  23.104  25.209  1.00  0.00    -0.377 OA
ENDROOT
BRANCH   1   2
ATOM      2  C   UNL A   1      35.013  22.656  26.189  1.00  0.00     0.188 C 
BRANCH   2   3
ATOM      3  C   UNL A   1      34.155  21.408  26.433  1.00  0.00     0.188 C 
BRANCH   3   4
ATOM      4  O   UNL A   1      34.236  20.212  25.691  1.00  0.00    -0.376 OA
BRANCH   4   5
ATOM      5  C   UNL A   1      33.128  19.705  24.989  1.00  0.00     0.202 C 
BRANCH   5   6
ATOM      6  C   UNL A   1      32.668  20.362  23.675  1.00  0.00     0.261 C 
BRANCH   6   7
ATOM      7  O   UNL A   1      32.059  21.666  23.787  1.00  0.00    -0.463 OA
BRANCH   7   8
ATOM      8  C   UNL A   1      32.601  22.677  23.060  1.00  0.00     0.316 C 
ATOM      9  O   UNL A   1      33.752  22.645  22.630  1.00  0.00    -0.251 OA
BRANCH   8  10
ATOM     10  C   UNL A   1      31.690  23.872  22.759  1.00  0.00     0.198 C 
BRANCH  10  11
ATOM     11  S   UNL A   1      32.363  25.355  21.944  1.00  0.00    -0.097 SA
BRANCH  11  12
ATOM     12  C   UNL A   1      31.573  26.774  22.714  1.00  0.00     0.095 C 
ATOM     13  C   UNL A   1      31.378  27.997  26.354  1.00  0.00     0.015 C 
ATOM     14  C   UNL A   1      31.520  28.437  24.878  1.00  0.00     0.012 C 
ATOM     15  C   UNL A   1      32.493  29.712  25.132  1.00  0.00     0.015 C 
ATOM     16  C   UNL A   1      32.146  27.170  24.063  1.00  0.00     0.156 C 
ATOM     17  C   UNL A   1      30.239  28.955  24.140  1.00  0.00     0.191 C 
ATOM     18  C   UNL A   1      30.035  28.541  22.662  1.00  0.00     0.264 C 
ATOM     19  N   UNL A   1      30.677  27.458  22.091  1.00  0.00    -0.209 NA
ATOM     20  O   UNL A   1      29.157  29.104  22.010  1.00  0.00    -0.271 OA
BRANCH  16  21
ATOM     21  C   UNL A   1      33.273  28.008  23.478  1.00  0.00     0.073 C 
ATOM     22  N   UNL A   1      34.207  28.702  22.993  1.00  0.00    -0.198 NA
ENDBRANCH  16  21
BRANCH  17  23
ATOM     23  C   UNL A   1      30.063  30.424  24.193  1.00  0.00     0.076 C 
ATOM     24  N   UNL A   1      29.891  31.583  24.261  1.00  0.00    -0.197 NA
ENDBRANCH  17  23
ENDBRANCH  11  12
ENDBRANCH  10  11
ENDBRANCH   8  10
ENDBRANCH   7   8
ENDBRANCH   6   7
ENDBRANCH   5   6
ENDBRANCH   4   5
ENDBRANCH   3   4
ENDBRANCH   2   3
ENDBRANCH   1   2
BRANCH   1  25
ATOM     25  C   UNL A   1      36.494  22.180  24.344  1.00  0.00     0.188 C 
BRANCH  25  26
ATOM     26  C   UNL A   1      37.664  21.476  25.032  1.00  0.00     0.188 C 
BRANCH  26  27
ATOM     27  O   UNL A   1      37.435  20.083  25.227  1.00  0.00    -0.376 OA
BRANCH  27  28
ATOM     28  C   UNL A   1      38.560  19.203  25.237  1.00  0.00     0.202 C 
BRANCH  28  29
ATOM     29  C   UNL A   1      39.803  19.508  26.072  1.00  0.00     0.261 C 
BRANCH  29  30
ATOM     30  O   UNL A   1      41.064  19.323  25.445  1.00  0.00    -0.460 OA
BRANCH  30  31
ATOM     31  C   UNL A   1      42.192  19.365  26.162  1.00  0.00     0.338 C 
ATOM     32  O   UNL A   1      42.949  18.457  26.423  1.00  0.00    -0.246 OA
BRANCH  31  33
ATOM     33  C   UNL A   1      42.339  20.793  26.483  1.00  0.00     0.060 A 
ATOM     34  C   UNL A   1      42.397  21.693  25.415  1.00  0.00     0.016 A 
ATOM     35  C   UNL A   1      42.311  21.238  27.808  1.00  0.00     0.016 A 
ATOM     36  C   UNL A   1      42.476  23.053  25.668  1.00  0.00     0.010 A 
ATOM     37  C   UNL A   1      42.423  22.607  28.063  1.00  0.00     0.010 A 
ATOM     38  C   UNL A   1      42.551  23.505  26.990  1.00  0.00    -0.014 A 
BRANCH  38  39
ATOM     39  C   UNL A   1      43.038  24.881  27.205  1.00  0.00     0.031 A 
ATOM     40  C   UNL A   1      42.071  25.871  27.790  1.00  0.00     0.074 A 
ATOM     41  C   UNL A   1      44.326  25.197  26.993  1.00  0.00     0.049 A 
ATOM     42  N   UNL A   1      42.264  27.114  28.130  1.00  0.00    -0.248 NA
ATOM     43  C   UNL A   1      40.700  25.385  28.037  1.00  0.00     0.031 C 
ATOM     44  C   UNL A   1      45.346  24.284  26.481  1.00  0.00     0.029 A 
ATOM     45  N   UNL A   1      44.992  26.377  27.186  1.00  0.00    -0.354 N 
ATOM     46  C   UNL A   1      41.040  27.567  28.605  1.00  0.00     0.074 A 
ATOM     47  C   UNL A   1      40.105  26.472  28.500  1.00  0.00     0.031 C 
ATOM     48  C   UNL A   1      46.512  24.946  26.382  1.00  0.00     0.029 A 
ATOM     49  C   UNL A   1      46.308  26.333  26.794  1.00  0.00     0.049 A 
ATOM     50  H   UNL A   1      44.569  27.180  27.568  1.00  0.00     0.167 HD
ATOM     51  C   UNL A   1      40.727  28.788  29.093  1.00  0.00     0.034 A 
ATOM     52  C   UNL A   1      47.227  27.316  26.752  1.00  0.00     0.034 A 
ATOM     53  C   UNL A   1      41.673  29.864  29.187  1.00  0.00     0.049 A 
ATOM     54  C   UNL A   1      46.836  28.686  27.240  1.00  0.00     0.074 A 
ATOM     55  C   UNL A   1      41.476  31.142  29.673  1.00  0.00     0.029 A 
ATOM     56  N   UNL A   1      42.992  29.790  28.765  1.00  0.00    -0.354 N 
ATOM     57  N   UNL A   1      45.694  29.085  27.749  1.00  0.00    -0.248 NA
ATOM     58  C   UNL A   1      47.864  29.733  27.176  1.00  0.00     0.031 C 
ATOM     59  C   UNL A   1      42.665  31.857  29.500  1.00  0.00     0.029 A 
ATOM     60  C   UNL A   1      43.619  31.006  28.961  1.00  0.00     0.049 A 
ATOM     61  H   UNL A   1      43.419  28.990  28.382  1.00  0.00     0.167 HD
ATOM     62  C   UNL A   1      45.877  30.417  28.102  1.00  0.00     0.074 A 
ATOM     63  C   UNL A   1      47.248  30.749  27.763  1.00  0.00     0.031 C 
ATOM     64  C   UNL A   1      44.997  31.291  28.649  1.00  0.00     0.034 A 
BRANCH  51  65
ATOM     65  C   UNL A   1      39.310  29.021  29.541  1.00  0.00     0.023 A 
ATOM     66  C   UNL A   1      38.940  28.791  30.882  1.00  0.00     0.012 A 
ATOM     67  C   UNL A   1      38.347  29.501  28.632  1.00  0.00     0.148 A 
ATOM     68  C   UNL A   1      37.627  29.004  31.304  1.00  0.00     0.002 A 
ATOM     69  C   UNL A   1      37.055  29.759  29.071  1.00  0.00     0.091 A 
ATOM     70  F   UNL A   1      38.711  29.686  27.356  1.00  0.00    -0.205 F 
ATOM     71  C   UNL A   1      36.689  29.498  30.402  1.00  0.00     0.022 A 
BRANCH  69  72
ATOM     72  S   UNL A   1      35.794  30.467  28.006  1.00  0.00     0.127 S 
ATOM     73  O   UNL A   1      35.996  29.712  26.769  1.00  0.00    -0.237 OA
ATOM     74  O   UNL A   1      34.566  30.137  28.728  1.00  0.00    -0.237 OA
ATOM     75  O   UNL A   1      36.091  31.890  27.919  1.00  0.00    -0.744 OA
ENDBRANCH  69  72
ENDBRANCH  51  65
BRANCH  52  76
ATOM     76  C   UNL A   1      48.599  27.040  26.238  1.00  0.00     0.023 A 
ATOM     77  C   UNL A   1      49.548  26.412  27.065  1.00  0.00     0.012 A 
ATOM     78  C   UNL A   1      48.960  27.392  24.922  1.00  0.00     0.148 A 
ATOM     79  C   UNL A   1      50.843  26.167  26.602  1.00  0.00     0.002 A 
ATOM     80  C   UNL A   1      50.231  27.093  24.448  1.00  0.00     0.091 A 
ATOM     81  F   UNL A   1      48.045  28.001  24.155  1.00  0.00    -0.205 F 
ATOM     82  C   UNL A   1      51.181  26.498  25.292  1.00  0.00     0.022 A 
BRANCH  80  83
ATOM     83  S   UNL A   1      50.710  27.366  22.740  1.00  0.00     0.127 S 
ATOM     84  O   UNL A   1      50.760  28.824  22.671  1.00  0.00    -0.237 OA
ATOM     85  O   UNL A   1      52.012  26.699  22.686  1.00  0.00    -0.237 OA
ATOM     86  O   UNL A   1      49.676  26.732  21.933  1.00  0.00    -0.744 OA
ENDBRANCH  80  83
ENDBRANCH  52  76
BRANCH  64  87
ATOM     87  C   UNL A   1      45.499  32.674  28.967  1.00  0.00     0.023 A 
ATOM     88  C   UNL A   1      46.220  32.914  30.152  1.00  0.00     0.012 A 
ATOM     89  C   UNL A   1      45.317  33.721  28.040  1.00  0.00     0.148 A 
ATOM     90  C   UNL A   1      46.719  34.185  30.429  1.00  0.00     0.002 A 
ATOM     91  C   UNL A   1      45.867  34.968  28.295  1.00  0.00     0.091 A 
ATOM     92  F   UNL A   1      44.616  33.472  26.925  1.00  0.00    -0.205 F 
ATOM     93  C   UNL A   1      46.555  35.207  29.496  1.00  0.00     0.022 A 
BRANCH  91  94
ATOM     94  S   UNL A   1      45.797  36.312  27.107  1.00  0.00     0.127 S 
ATOM     95  O   UNL A   1      46.541  37.362  27.803  1.00  0.00    -0.237 OA
ATOM     96  O   UNL A   1      46.488  35.738  25.952  1.00  0.00    -0.237 OA
ATOM     97  O   UNL A   1      44.384  36.589  26.892  1.00  0.00    -0.744 OA
ENDBRANCH  91  94
ENDBRANCH  64  87
ENDBRANCH  38  39
ENDBRANCH  31  33
ENDBRANCH  30  31
ENDBRANCH  29  30
ENDBRANCH  28  29
ENDBRANCH  27  28
ENDBRANCH  26  27
ENDBRANCH  25  26
ENDBRANCH   1  25
TORSDOF 27
ENDMDL
