MODEL 1
REMARK VINA RESULT:      -8.3      0.000      0.000
REMARK SMILES N#CCOc1ccccc1[C@H]1[NH2+][C@@H](C(=O)OCCOCCOCCOCCOC(=O)c2ccc(-c3c4nc(c(-c5cccc(S(=O)(=O)[O-])c5F)c5ccc([nH]5)c(-c5cccc(S(=O)(=O)[O-])c5F)c5nc(c(-c6cccc(S(=O)(=O)[O-])c6F)c6ccc3[nH]6)C=C5)C=C4)cc2)CS1
REMARK SMILES IDX 21 1 20 2 19 3 18 4 17 5 16 6 14 7 15 8 13 9 11 10 12 11
REMARK SMILES IDX 95 12 94 15 10 16 5 17 6 18 7 19 9 20 8 21 4 22 3 23 2 24
REMARK SMILES IDX 1 25 22 26 23 27 24 28 25 29 26 30 27 31 28 32 29 33 30 34
REMARK SMILES IDX 31 35 32 36 93 37 33 38 92 39 34 40 35 41 36 42 86 43 37 44
REMARK SMILES IDX 91 45 85 46 87 47 38 48 90 49 84 50 83 51 39 53 71 54 51 55
REMARK SMILES IDX 70 56 52 57 55 58 69 59 88 60 53 61 54 62 68 64 89 65 56 66
REMARK SMILES IDX 40 67 41 68 49 69 42 70 44 71 50 72 43 73 45 74 46 75 47 76
REMARK SMILES IDX 48 77 72 78 73 79 81 80 74 81 76 82 82 83 75 84 77 85 78 86
REMARK SMILES IDX 79 87 80 88 57 89 58 90 66 91 59 92 61 93 67 94 60 95 62 96
REMARK SMILES IDX 63 97 64 98 65 99
REMARK H PARENT 12 13 12 14 87 52 55 63
REMARK Flexibility Score: inf
ROOT
ATOM      1  C   UNL A   1      34.598  18.931  24.320  1.00  0.00     0.188 C 
ENDROOT
BRANCH   1   2
ATOM      2  C   UNL A   1      33.157  18.501  24.659  1.00  0.00     0.188 C 
BRANCH   2   3
ATOM      3  O   UNL A   1      32.115  19.457  24.766  1.00  0.00    -0.376 OA
BRANCH   3   4
ATOM      4  C   UNL A   1      32.299  20.643  25.531  1.00  0.00     0.202 C 
BRANCH   4   5
ATOM      5  C   UNL A   1      31.268  21.788  25.548  1.00  0.00     0.261 C 
BRANCH   5   6
ATOM      6  O   UNL A   1      31.199  22.577  26.748  1.00  0.00    -0.459 OA
BRANCH   6   7
ATOM      7  C   UNL A   1      30.913  23.898  26.612  1.00  0.00     0.365 C 
ATOM      8  O   UNL A   1      29.778  24.361  26.561  1.00  0.00    -0.245 OA
BRANCH   7   9
ATOM      9  C   UNL A   1      32.162  24.795  26.648  1.00  0.00     0.304 C 
ATOM     10  C   UNL A   1      32.983  27.029  26.273  1.00  0.00     0.278 C 
ATOM     11  N   UNL A   1      31.867  26.238  26.814  1.00  0.00    -0.319 N 
ATOM     12  S   UNL A   1      33.634  26.153  24.869  1.00  0.00    -0.087 SA
ATOM     13  H   UNL A   1      31.009  26.470  26.311  1.00  0.00     0.348 HD
ATOM     14  H   UNL A   1      31.745  26.451  27.805  1.00  0.00     0.348 HD
ATOM     15  C   UNL A   1      32.989  24.549  25.386  1.00  0.00     0.153 C 
BRANCH  10  16
ATOM     16  C   UNL A   1      32.675  28.527  26.281  1.00  0.00     0.062 A 
ATOM     17  C   UNL A   1      31.686  29.346  25.705  1.00  0.00     0.131 A 
ATOM     18  C   UNL A   1      31.679  30.735  26.027  1.00  0.00     0.047 A 
ATOM     19  C   UNL A   1      32.603  31.340  26.874  1.00  0.00     0.004 A 
ATOM     20  C   UNL A   1      33.618  29.201  27.135  1.00  0.00     0.015 A 
ATOM     21  C   UNL A   1      33.590  30.562  27.431  1.00  0.00     0.001 A 
BRANCH  17  22
ATOM     22  O   UNL A   1      30.616  29.159  24.892  1.00  0.00    -0.478 OA
BRANCH  22  23
ATOM     23  C   UNL A   1      30.365  29.667  23.597  1.00  0.00     0.349 C 
BRANCH  23  24
ATOM     24  C   UNL A   1      29.335  30.710  23.537  1.00  0.00     0.104 C 
ATOM     25  N   UNL A   1      28.467  31.488  23.490  1.00  0.00    -0.195 NA
ENDBRANCH  23  24
ENDBRANCH  22  23
ENDBRANCH  17  22
ENDBRANCH  10  16
ENDBRANCH   7   9
ENDBRANCH   6   7
ENDBRANCH   5   6
ENDBRANCH   4   5
ENDBRANCH   3   4
ENDBRANCH   2   3
ENDBRANCH   1   2
BRANCH   1  26
ATOM     26  O   UNL A   1      35.017  20.123  24.949  1.00  0.00    -0.377 OA
BRANCH  26  27
ATOM     27  C   UNL A   1      36.427  20.314  25.045  1.00  0.00     0.188 C 
BRANCH  27  28
ATOM     28  C   UNL A   1      36.946  21.694  25.523  1.00  0.00     0.188 C 
BRANCH  28  29
ATOM     29  O   UNL A   1      38.292  21.974  25.166  1.00  0.00    -0.376 OA
BRANCH  29  30
ATOM     30  C   UNL A   1      39.342  21.765  26.094  1.00  0.00     0.202 C 
BRANCH  30  31
ATOM     31  C   UNL A   1      40.088  20.419  26.129  1.00  0.00     0.261 C 
BRANCH  31  32
ATOM     32  O   UNL A   1      41.370  20.408  26.762  1.00  0.00    -0.460 OA
BRANCH  32  33
ATOM     33  C   UNL A   1      42.437  20.259  25.950  1.00  0.00     0.338 C 
ATOM     34  O   UNL A   1      42.595  19.386  25.117  1.00  0.00    -0.246 OA
BRANCH  33  35
ATOM     35  C   UNL A   1      43.290  21.460  26.076  1.00  0.00     0.060 A 
ATOM     36  C   UNL A   1      43.696  21.845  27.360  1.00  0.00     0.016 A 
ATOM     37  C   UNL A   1      43.660  22.213  24.959  1.00  0.00     0.016 A 
ATOM     38  C   UNL A   1      44.402  23.027  27.542  1.00  0.00     0.010 A 
ATOM     39  C   UNL A   1      44.346  23.418  25.146  1.00  0.00     0.010 A 
ATOM     40  C   UNL A   1      44.657  23.857  26.445  1.00  0.00    -0.014 A 
BRANCH  40  41
ATOM     41  C   UNL A   1      44.987  25.275  26.717  1.00  0.00     0.031 A 
ATOM     42  C   UNL A   1      43.889  26.174  27.223  1.00  0.00     0.074 A 
ATOM     43  C   UNL A   1      46.247  25.731  26.619  1.00  0.00     0.049 A 
ATOM     44  N   UNL A   1      43.946  27.426  27.592  1.00  0.00    -0.248 NA
ATOM     45  C   UNL A   1      42.546  25.577  27.331  1.00  0.00     0.031 C 
ATOM     46  C   UNL A   1      47.397  24.949  26.174  1.00  0.00     0.029 A 
ATOM     47  N   UNL A   1      46.763  26.974  26.884  1.00  0.00    -0.354 N 
ATOM     48  C   UNL A   1      42.645  27.776  27.939  1.00  0.00     0.074 A 
ATOM     49  C   UNL A   1      41.819  26.610  27.721  1.00  0.00     0.031 C 
ATOM     50  C   UNL A   1      48.486  25.737  26.179  1.00  0.00     0.029 A 
ATOM     51  C   UNL A   1      48.102  27.083  26.602  1.00  0.00     0.049 A 
ATOM     52  H   UNL A   1      46.225  27.716  27.242  1.00  0.00     0.167 HD
ATOM     53  C   UNL A   1      42.180  28.958  28.407  1.00  0.00     0.034 A 
ATOM     54  C   UNL A   1      48.917  28.154  26.657  1.00  0.00     0.034 A 
ATOM     55  C   UNL A   1      43.006  30.112  28.626  1.00  0.00     0.049 A 
ATOM     56  C   UNL A   1      48.370  29.468  27.148  1.00  0.00     0.074 A 
ATOM     57  C   UNL A   1      42.641  31.348  29.130  1.00  0.00     0.029 A 
ATOM     58  N   UNL A   1      44.360  30.183  28.333  1.00  0.00    -0.354 N 
ATOM     59  N   UNL A   1      47.157  29.763  27.551  1.00  0.00    -0.248 NA
ATOM     60  C   UNL A   1      49.318  30.588  27.233  1.00  0.00     0.031 C 
ATOM     61  C   UNL A   1      43.762  32.184  29.087  1.00  0.00     0.029 A 
ATOM     62  C   UNL A   1      44.842  31.447  28.628  1.00  0.00     0.049 A 
ATOM     63  H   UNL A   1      44.898  29.445  27.969  1.00  0.00     0.167 HD
ATOM     64  C   UNL A   1      47.207  31.085  27.981  1.00  0.00     0.074 A 
ATOM     65  C   UNL A   1      48.575  31.525  27.804  1.00  0.00     0.031 C 
ATOM     66  C   UNL A   1      46.214  31.863  28.478  1.00  0.00     0.034 A 
BRANCH  53  67
ATOM     67  C   UNL A   1      40.703  29.062  28.688  1.00  0.00     0.023 A 
ATOM     68  C   UNL A   1      39.786  29.249  27.631  1.00  0.00     0.012 A 
ATOM     69  C   UNL A   1      40.221  28.947  30.006  1.00  0.00     0.148 A 
ATOM     70  C   UNL A   1      38.420  29.365  27.890  1.00  0.00     0.002 A 
ATOM     71  C   UNL A   1      38.856  29.007  30.249  1.00  0.00     0.091 A 
ATOM     72  F   UNL A   1      41.109  28.795  30.999  1.00  0.00    -0.205 F 
ATOM     73  C   UNL A   1      37.955  29.234  29.195  1.00  0.00     0.022 A 
BRANCH  71  74
ATOM     74  S   UNL A   1      38.152  28.765  31.882  1.00  0.00     0.127 S 
ATOM     75  O   UNL A   1      36.736  29.036  31.637  1.00  0.00    -0.237 OA
ATOM     76  O   UNL A   1      38.468  27.362  32.145  1.00  0.00    -0.237 OA
ATOM     77  O   UNL A   1      38.825  29.716  32.756  1.00  0.00    -0.744 OA
ENDBRANCH  71  74
ENDBRANCH  53  67
BRANCH  54  78
ATOM     78  C   UNL A   1      50.342  28.026  26.247  1.00  0.00     0.023 A 
ATOM     79  C   UNL A   1      50.709  28.199  24.898  1.00  0.00     0.012 A 
ATOM     80  C   UNL A   1      51.338  27.735  27.199  1.00  0.00     0.148 A 
ATOM     81  C   UNL A   1      52.038  28.048  24.500  1.00  0.00     0.002 A 
ATOM     82  C   UNL A   1      52.667  27.646  26.806  1.00  0.00     0.091 A 
ATOM     83  F   UNL A   1      50.964  27.564  28.475  1.00  0.00    -0.205 F 
ATOM     84  C   UNL A   1      53.017  27.783  25.453  1.00  0.00     0.022 A 
BRANCH  82  85
ATOM     85  S   UNL A   1      54.007  27.430  27.980  1.00  0.00     0.127 S 
ATOM     86  O   UNL A   1      55.160  27.285  27.095  1.00  0.00    -0.237 OA
ATOM     87  O   UNL A   1      53.954  28.688  28.726  1.00  0.00    -0.237 OA
ATOM     88  O   UNL A   1      53.664  26.249  28.761  1.00  0.00    -0.744 OA
ENDBRANCH  82  85
ENDBRANCH  54  78
BRANCH  66  89
ATOM     89  C   UNL A   1      46.581  33.252  28.941  1.00  0.00     0.023 A 
ATOM     90  C   UNL A   1      46.512  34.348  28.058  1.00  0.00     0.012 A 
ATOM     91  C   UNL A   1      46.970  33.470  30.279  1.00  0.00     0.148 A 
ATOM     92  C   UNL A   1      46.885  35.624  28.480  1.00  0.00     0.002 A 
ATOM     93  C   UNL A   1      47.279  34.753  30.709  1.00  0.00     0.091 A 
ATOM     94  F   UNL A   1      47.044  32.415  31.104  1.00  0.00    -0.205 F 
ATOM     95  C   UNL A   1      47.259  35.828  29.807  1.00  0.00     0.022 A 
BRANCH  93  96
ATOM     96  S   UNL A   1      47.668  35.122  32.423  1.00  0.00     0.127 S 
ATOM     97  O   UNL A   1      46.603  34.414  33.130  1.00  0.00    -0.237 OA
ATOM     98  O   UNL A   1      48.997  34.528  32.572  1.00  0.00    -0.237 OA
ATOM     99  O   UNL A   1      47.640  36.574  32.538  1.00  0.00    -0.744 OA
ENDBRANCH  93  96
ENDBRANCH  66  89
ENDBRANCH  40  41
ENDBRANCH  33  35
ENDBRANCH  32  33
ENDBRANCH  31  32
ENDBRANCH  30  31
ENDBRANCH  29  30
ENDBRANCH  28  29
ENDBRANCH  27  28
ENDBRANCH  26  27
ENDBRANCH   1  26
TORSDOF 27
ENDMDL
MODEL 2
REMARK VINA RESULT:      -8.3      5.348      9.223
REMARK SMILES N#CCOc1ccccc1[C@H]1[NH2+][C@@H](C(=O)OCCOCCOCCOCCOC(=O)c2ccc(-c3c4nc(c(-c5cccc(S(=O)(=O)[O-])c5F)c5ccc([nH]5)c(-c5cccc(S(=O)(=O)[O-])c5F)c5nc(c(-c6cccc(S(=O)(=O)[O-])c6F)c6ccc3[nH]6)C=C5)C=C4)cc2)CS1
REMARK SMILES IDX 21 1 20 2 19 3 18 4 17 5 16 6 14 7 15 8 13 9 11 10 12 11
REMARK SMILES IDX 95 12 94 15 10 16 5 17 6 18 7 19 9 20 8 21 4 22 3 23 2 24
REMARK SMILES IDX 1 25 22 26 23 27 24 28 25 29 26 30 27 31 28 32 29 33 30 34
REMARK SMILES IDX 31 35 32 36 93 37 33 38 92 39 34 40 35 41 36 42 86 43 37 44
REMARK SMILES IDX 91 45 85 46 87 47 38 48 90 49 84 50 83 51 39 53 71 54 51 55
REMARK SMILES IDX 70 56 52 57 55 58 69 59 88 60 53 61 54 62 68 64 89 65 56 66
REMARK SMILES IDX 40 67 41 68 49 69 42 70 44 71 50 72 43 73 45 74 46 75 47 76
REMARK SMILES IDX 48 77 72 78 73 79 81 80 74 81 76 82 82 83 75 84 77 85 78 86
REMARK SMILES IDX 79 87 80 88 57 89 58 90 66 91 59 92 61 93 67 94 60 95 62 96
REMARK SMILES IDX 63 97 64 98 65 99
REMARK H PARENT 12 13 12 14 87 52 55 63
REMARK Flexibility Score: inf
ROOT
ATOM      1  C   UNL A   1      42.018  22.399  27.604  1.00  0.00     0.188 C 
ENDROOT
BRANCH   1   2
ATOM      2  C   UNL A   1      40.819  22.005  26.720  1.00  0.00     0.188 C 
BRANCH   2   3
ATOM      3  O   UNL A   1      39.637  22.789  26.701  1.00  0.00    -0.376 OA
BRANCH   3   4
ATOM      4  C   UNL A   1      39.606  24.064  27.329  1.00  0.00     0.202 C 
BRANCH   4   5
ATOM      5  C   UNL A   1      39.883  25.373  26.565  1.00  0.00     0.261 C 
BRANCH   5   6
ATOM      6  O   UNL A   1      40.285  26.508  27.352  1.00  0.00    -0.459 OA
BRANCH   6   7
ATOM      7  C   UNL A   1      40.644  27.636  26.686  1.00  0.00     0.365 C 
ATOM      8  O   UNL A   1      41.232  27.649  25.608  1.00  0.00    -0.245 OA
BRANCH   7   9
ATOM      9  C   UNL A   1      40.133  28.923  27.354  1.00  0.00     0.304 C 
ATOM     10  C   UNL A   1      39.032  29.817  29.302  1.00  0.00     0.278 C 
ATOM     11  N   UNL A   1      40.022  28.837  28.830  1.00  0.00    -0.319 N 
ATOM     12  S   UNL A   1      37.757  29.933  28.069  1.00  0.00    -0.087 SA
ATOM     13  H   UNL A   1      39.724  27.897  29.094  1.00  0.00     0.348 HD
ATOM     14  H   UNL A   1      40.930  29.035  29.253  1.00  0.00     0.348 HD
ATOM     15  C   UNL A   1      38.793  29.311  26.729  1.00  0.00     0.153 C 
BRANCH  10  16
ATOM     16  C   UNL A   1      38.765  29.677  30.802  1.00  0.00     0.062 A 
ATOM     17  C   UNL A   1      37.906  30.301  31.725  1.00  0.00     0.131 A 
ATOM     18  C   UNL A   1      37.881  29.819  33.067  1.00  0.00     0.047 A 
ATOM     19  C   UNL A   1      38.666  28.767  33.527  1.00  0.00     0.004 A 
ATOM     20  C   UNL A   1      39.570  28.606  31.330  1.00  0.00     0.015 A 
ATOM     21  C   UNL A   1      39.528  28.157  32.648  1.00  0.00     0.001 A 
BRANCH  17  22
ATOM     22  O   UNL A   1      36.981  31.293  31.681  1.00  0.00    -0.478 OA
BRANCH  22  23
ATOM     23  C   UNL A   1      36.317  31.957  32.737  1.00  0.00     0.349 C 
BRANCH  23  24
ATOM     24  C   UNL A   1      35.095  32.666  32.343  1.00  0.00     0.104 C 
ATOM     25  N   UNL A   1      34.117  33.254  32.095  1.00  0.00    -0.195 NA
ENDBRANCH  23  24
ENDBRANCH  22  23
ENDBRANCH  17  22
ENDBRANCH  10  16
ENDBRANCH   7   9
ENDBRANCH   6   7
ENDBRANCH   5   6
ENDBRANCH   4   5
ENDBRANCH   3   4
ENDBRANCH   2   3
ENDBRANCH   1   2
BRANCH   1  26
ATOM     26  O   UNL A   1      43.164  22.807  26.888  1.00  0.00    -0.377 OA
BRANCH  26  27
ATOM     27  C   UNL A   1      43.038  22.825  25.468  1.00  0.00     0.188 C 
BRANCH  27  28
ATOM     28  C   UNL A   1      44.293  23.170  24.627  1.00  0.00     0.188 C 
BRANCH  28  29
ATOM     29  O   UNL A   1      45.258  23.963  25.303  1.00  0.00    -0.376 OA
BRANCH  29  30
ATOM     30  C   UNL A   1      46.549  24.152  24.752  1.00  0.00     0.202 C 
BRANCH  30  31
ATOM     31  C   UNL A   1      47.152  25.566  24.659  1.00  0.00     0.261 C 
BRANCH  31  32
ATOM     32  O   UNL A   1      46.303  26.597  24.149  1.00  0.00    -0.460 OA
BRANCH  32  33
ATOM     33  C   UNL A   1      46.568  27.853  24.566  1.00  0.00     0.338 C 
ATOM     34  O   UNL A   1      46.969  28.773  23.878  1.00  0.00    -0.246 OA
BRANCH  33  35
ATOM     35  C   UNL A   1      46.079  27.995  25.954  1.00  0.00     0.060 A 
ATOM     36  C   UNL A   1      44.718  27.769  26.196  1.00  0.00     0.016 A 
ATOM     37  C   UNL A   1      46.932  28.372  26.994  1.00  0.00     0.016 A 
ATOM     38  C   UNL A   1      44.187  28.000  27.459  1.00  0.00     0.010 A 
ATOM     39  C   UNL A   1      46.392  28.632  28.258  1.00  0.00     0.010 A 
ATOM     40  C   UNL A   1      45.007  28.510  28.471  1.00  0.00    -0.014 A 
BRANCH  40  41
ATOM     41  C   UNL A   1      44.349  29.161  29.627  1.00  0.00     0.031 A 
ATOM     42  C   UNL A   1      43.913  30.595  29.479  1.00  0.00     0.074 A 
ATOM     43  C   UNL A   1      44.051  28.472  30.742  1.00  0.00     0.049 A 
ATOM     44  N   UNL A   1      43.263  31.356  30.319  1.00  0.00    -0.248 NA
ATOM     45  C   UNL A   1      44.253  31.259  28.208  1.00  0.00     0.031 C 
ATOM     46  C   UNL A   1      44.391  27.074  30.987  1.00  0.00     0.029 A 
ATOM     47  N   UNL A   1      43.397  28.869  31.881  1.00  0.00    -0.354 N 
ATOM     48  C   UNL A   1      43.150  32.595  29.696  1.00  0.00     0.074 A 
ATOM     49  C   UNL A   1      43.811  32.489  28.416  1.00  0.00     0.031 C 
ATOM     50  C   UNL A   1      43.958  26.731  32.213  1.00  0.00     0.029 A 
ATOM     51  C   UNL A   1      43.335  27.893  32.844  1.00  0.00     0.049 A 
ATOM     52  H   UNL A   1      43.010  29.766  31.995  1.00  0.00     0.167 HD
ATOM     53  C   UNL A   1      42.540  33.717  30.144  1.00  0.00     0.034 A 
ATOM     54  C   UNL A   1      42.851  27.943  34.100  1.00  0.00     0.034 A 
ATOM     55  C   UNL A   1      41.880  33.816  31.415  1.00  0.00     0.049 A 
ATOM     56  C   UNL A   1      42.208  29.214  34.590  1.00  0.00     0.074 A 
ATOM     57  C   UNL A   1      41.202  34.897  31.950  1.00  0.00     0.029 A 
ATOM     58  N   UNL A   1      41.834  32.805  32.364  1.00  0.00    -0.354 N 
ATOM     59  N   UNL A   1      42.035  30.351  33.960  1.00  0.00    -0.248 NA
ATOM     60  C   UNL A   1      41.656  29.192  35.951  1.00  0.00     0.031 C 
ATOM     61  C   UNL A   1      40.796  34.559  33.246  1.00  0.00     0.029 A 
ATOM     62  C   UNL A   1      41.154  33.242  33.488  1.00  0.00     0.049 A 
ATOM     63  H   UNL A   1      42.226  31.910  32.253  1.00  0.00     0.167 HD
ATOM     64  C   UNL A   1      41.313  31.163  34.828  1.00  0.00     0.074 A 
ATOM     65  C   UNL A   1      41.068  30.378  36.021  1.00  0.00     0.031 C 
ATOM     66  C   UNL A   1      40.889  32.440  34.656  1.00  0.00     0.034 A 
BRANCH  53  67
ATOM     67  C   UNL A   1      42.586  34.935  29.256  1.00  0.00     0.023 A 
ATOM     68  C   UNL A   1      41.569  35.167  28.307  1.00  0.00     0.012 A 
ATOM     69  C   UNL A   1      43.634  35.867  29.386  1.00  0.00     0.148 A 
ATOM     70  C   UNL A   1      41.618  36.283  27.472  1.00  0.00     0.002 A 
ATOM     71  C   UNL A   1      43.646  37.005  28.590  1.00  0.00     0.091 A 
ATOM     72  F   UNL A   1      44.605  35.617  30.275  1.00  0.00    -0.205 F 
ATOM     73  C   UNL A   1      42.650  37.206  27.620  1.00  0.00     0.022 A 
BRANCH  71  74
ATOM     74  S   UNL A   1      44.884  38.292  28.763  1.00  0.00     0.127 S 
ATOM     75  O   UNL A   1      44.578  38.819  30.092  1.00  0.00    -0.237 OA
ATOM     76  O   UNL A   1      46.130  37.532  28.680  1.00  0.00    -0.237 OA
ATOM     77  O   UNL A   1      44.661  39.218  27.661  1.00  0.00    -0.744 OA
ENDBRANCH  71  74
ENDBRANCH  53  67
BRANCH  54  78
ATOM     78  C   UNL A   1      42.945  26.746  34.981  1.00  0.00     0.023 A 
ATOM     79  C   UNL A   1      41.875  25.832  35.049  1.00  0.00     0.012 A 
ATOM     80  C   UNL A   1      44.100  26.511  35.751  1.00  0.00     0.148 A 
ATOM     81  C   UNL A   1      41.941  24.725  35.896  1.00  0.00     0.002 A 
ATOM     82  C   UNL A   1      44.183  25.377  36.547  1.00  0.00     0.091 A 
ATOM     83  F   UNL A   1      45.100  27.401  35.679  1.00  0.00    -0.205 F 
ATOM     84  C   UNL A   1      43.097  24.492  36.636  1.00  0.00     0.022 A 
BRANCH  82  85
ATOM     85  S   UNL A   1      45.676  24.932  37.437  1.00  0.00     0.127 S 
ATOM     86  O   UNL A   1      45.328  23.616  37.966  1.00  0.00    -0.237 OA
ATOM     87  O   UNL A   1      46.671  24.922  36.364  1.00  0.00    -0.237 OA
ATOM     88  O   UNL A   1      45.872  25.976  38.433  1.00  0.00    -0.744 OA
ENDBRANCH  82  85
ENDBRANCH  54  78
BRANCH  66  89
ATOM     89  C   UNL A   1      40.048  33.050  35.750  1.00  0.00     0.023 A 
ATOM     90  C   UNL A   1      38.647  32.907  35.748  1.00  0.00     0.012 A 
ATOM     91  C   UNL A   1      40.667  33.747  36.809  1.00  0.00     0.148 A 
ATOM     92  C   UNL A   1      37.872  33.502  36.744  1.00  0.00     0.002 A 
ATOM     93  C   UNL A   1      39.895  34.281  37.831  1.00  0.00     0.091 A 
ATOM     94  F   UNL A   1      42.001  33.885  36.791  1.00  0.00    -0.205 F 
ATOM     95  C   UNL A   1      38.495  34.180  37.789  1.00  0.00     0.022 A 
BRANCH  93  96
ATOM     96  S   UNL A   1      40.621  35.078  39.267  1.00  0.00     0.127 S 
ATOM     97  O   UNL A   1      41.653  34.116  39.651  1.00  0.00    -0.237 OA
ATOM     98  O   UNL A   1      41.133  36.326  38.701  1.00  0.00    -0.237 OA
ATOM     99  O   UNL A   1      39.537  35.248  40.224  1.00  0.00    -0.744 OA
ENDBRANCH  93  96
ENDBRANCH  66  89
ENDBRANCH  40  41
ENDBRANCH  33  35
ENDBRANCH  32  33
ENDBRANCH  31  32
ENDBRANCH  30  31
ENDBRANCH  29  30
ENDBRANCH  28  29
ENDBRANCH  27  28
ENDBRANCH  26  27
ENDBRANCH   1  26
TORSDOF 27
ENDMDL
MODEL 3
REMARK VINA RESULT:      -8.2      2.295      7.678
REMARK SMILES N#CCOc1ccccc1[C@H]1[NH2+][C@@H](C(=O)OCCOCCOCCOCCOC(=O)c2ccc(-c3c4nc(c(-c5cccc(S(=O)(=O)[O-])c5F)c5ccc([nH]5)c(-c5cccc(S(=O)(=O)[O-])c5F)c5nc(c(-c6cccc(S(=O)(=O)[O-])c6F)c6ccc3[nH]6)C=C5)C=C4)cc2)CS1
REMARK SMILES IDX 21 1 20 2 19 3 18 4 17 5 16 6 14 7 15 8 13 9 11 10 12 11
REMARK SMILES IDX 95 12 94 15 10 16 5 17 6 18 7 19 9 20 8 21 4 22 3 23 2 24
REMARK SMILES IDX 1 25 22 26 23 27 24 28 25 29 26 30 27 31 28 32 29 33 30 34
REMARK SMILES IDX 31 35 32 36 93 37 33 38 92 39 34 40 35 41 36 42 86 43 37 44
REMARK SMILES IDX 91 45 85 46 87 47 38 48 90 49 84 50 83 51 39 53 71 54 51 55
REMARK SMILES IDX 70 56 52 57 55 58 69 59 88 60 53 61 54 62 68 64 89 65 56 66
REMARK SMILES IDX 40 67 41 68 49 69 42 70 44 71 50 72 43 73 45 74 46 75 47 76
REMARK SMILES IDX 48 77 72 78 73 79 81 80 74 81 76 82 82 83 75 84 77 85 78 86
REMARK SMILES IDX 79 87 80 88 57 89 58 90 66 91 59 92 61 93 67 94 60 95 62 96
REMARK SMILES IDX 63 97 64 98 65 99
REMARK H PARENT 12 13 12 14 87 52 55 63
REMARK Flexibility Score: inf
ROOT
ATOM      1  C   UNL A   1      36.056  18.845  24.639  1.00  0.00     0.188 C 
ENDROOT
BRANCH   1   2
ATOM      2  C   UNL A   1      34.586  18.382  24.633  1.00  0.00     0.188 C 
BRANCH   2   3
ATOM      3  O   UNL A   1      33.533  19.296  24.373  1.00  0.00    -0.376 OA
BRANCH   3   4
ATOM      4  C   UNL A   1      33.465  20.535  25.068  1.00  0.00     0.202 C 
BRANCH   4   5
ATOM      5  C   UNL A   1      32.165  21.357  25.173  1.00  0.00     0.261 C 
BRANCH   5   6
ATOM      6  O   UNL A   1      31.983  22.125  26.375  1.00  0.00    -0.459 OA
BRANCH   6   7
ATOM      7  C   UNL A   1      31.480  23.381  26.244  1.00  0.00     0.365 C 
ATOM      8  O   UNL A   1      30.291  23.638  26.079  1.00  0.00    -0.245 OA
BRANCH   7   9
ATOM      9  C   UNL A   1      32.536  24.480  26.445  1.00  0.00     0.304 C 
ATOM     10  C   UNL A   1      33.030  26.812  26.093  1.00  0.00     0.278 C 
ATOM     11  N   UNL A   1      31.980  25.855  26.476  1.00  0.00    -0.319 N 
ATOM     12  S   UNL A   1      34.059  26.026  24.874  1.00  0.00    -0.087 SA
ATOM     13  H   UNL A   1      31.201  25.922  25.820  1.00  0.00     0.348 HD
ATOM     14  H   UNL A   1      31.649  26.068  27.417  1.00  0.00     0.348 HD
ATOM     15  C   UNL A   1      33.605  24.348  25.361  1.00  0.00     0.153 C 
BRANCH  10  16
ATOM     16  C   UNL A   1      32.481  28.234  25.963  1.00  0.00     0.062 A 
ATOM     17  C   UNL A   1      31.576  28.881  25.101  1.00  0.00     0.131 A 
ATOM     18  C   UNL A   1      31.240  30.241  25.362  1.00  0.00     0.047 A 
ATOM     19  C   UNL A   1      31.763  30.981  26.418  1.00  0.00     0.004 A 
ATOM     20  C   UNL A   1      33.008  29.045  27.030  1.00  0.00     0.015 A 
ATOM     21  C   UNL A   1      32.664  30.375  27.261  1.00  0.00     0.001 A 
BRANCH  17  22
ATOM     22  O   UNL A   1      30.835  28.526  24.021  1.00  0.00    -0.478 OA
BRANCH  22  23
ATOM     23  C   UNL A   1      31.246  28.226  22.702  1.00  0.00     0.349 C 
BRANCH  23  24
ATOM     24  C   UNL A   1      31.313  26.793  22.393  1.00  0.00     0.104 C 
ATOM     25  N   UNL A   1      31.404  25.645  22.207  1.00  0.00    -0.195 NA
ENDBRANCH  23  24
ENDBRANCH  22  23
ENDBRANCH  17  22
ENDBRANCH  10  16
ENDBRANCH   7   9
ENDBRANCH   6   7
ENDBRANCH   5   6
ENDBRANCH   4   5
ENDBRANCH   3   4
ENDBRANCH   2   3
ENDBRANCH   1   2
BRANCH   1  26
ATOM     26  O   UNL A   1      36.238  20.213  24.933  1.00  0.00    -0.377 OA
BRANCH  26  27
ATOM     27  C   UNL A   1      37.575  20.699  24.838  1.00  0.00     0.188 C 
BRANCH  27  28
ATOM     28  C   UNL A   1      37.952  21.969  25.642  1.00  0.00     0.188 C 
BRANCH  28  29
ATOM     29  O   UNL A   1      39.345  22.141  25.857  1.00  0.00    -0.376 OA
BRANCH  29  30
ATOM     30  C   UNL A   1      40.029  21.352  26.813  1.00  0.00     0.202 C 
BRANCH  30  31
ATOM     31  C   UNL A   1      40.682  20.021  26.396  1.00  0.00     0.261 C 
BRANCH  31  32
ATOM     32  O   UNL A   1      42.068  19.858  26.706  1.00  0.00    -0.460 OA
BRANCH  32  33
ATOM     33  C   UNL A   1      42.934  20.022  25.683  1.00  0.00     0.338 C 
ATOM     34  O   UNL A   1      43.074  19.279  24.729  1.00  0.00    -0.246 OA
BRANCH  33  35
ATOM     35  C   UNL A   1      43.530  21.370  25.789  1.00  0.00     0.060 A 
ATOM     36  C   UNL A   1      44.506  21.581  26.771  1.00  0.00     0.016 A 
ATOM     37  C   UNL A   1      43.119  22.418  24.961  1.00  0.00     0.016 A 
ATOM     38  C   UNL A   1      45.015  22.856  26.986  1.00  0.00     0.010 A 
ATOM     39  C   UNL A   1      43.610  23.706  25.196  1.00  0.00     0.010 A 
ATOM     40  C   UNL A   1      44.508  23.935  26.254  1.00  0.00    -0.014 A 
BRANCH  40  41
ATOM     41  C   UNL A   1      44.720  25.295  26.800  1.00  0.00     0.031 A 
ATOM     42  C   UNL A   1      46.034  25.975  26.520  1.00  0.00     0.074 A 
ATOM     43  C   UNL A   1      43.738  25.954  27.439  1.00  0.00     0.049 A 
ATOM     44  N   UNL A   1      46.429  27.181  26.832  1.00  0.00    -0.248 NA
ATOM     45  C   UNL A   1      47.040  25.188  25.784  1.00  0.00     0.031 C 
ATOM     46  C   UNL A   1      42.414  25.414  27.738  1.00  0.00     0.029 A 
ATOM     47  N   UNL A   1      43.712  27.224  27.955  1.00  0.00    -0.354 N 
ATOM     48  C   UNL A   1      47.735  27.284  26.365  1.00  0.00     0.074 A 
ATOM     49  C   UNL A   1      48.072  26.014  25.763  1.00  0.00     0.031 C 
ATOM     50  C   UNL A   1      41.708  26.343  28.405  1.00  0.00     0.029 A 
ATOM     51  C   UNL A   1      42.539  27.530  28.599  1.00  0.00     0.049 A 
ATOM     52  H   UNL A   1      44.462  27.856  27.871  1.00  0.00     0.167 HD
ATOM     53  C   UNL A   1      48.575  28.343  26.421  1.00  0.00     0.034 A 
ATOM     54  C   UNL A   1      42.189  28.633  29.287  1.00  0.00     0.034 A 
ATOM     55  C   UNL A   1      48.234  29.605  27.016  1.00  0.00     0.049 A 
ATOM     56  C   UNL A   1      43.153  29.787  29.366  1.00  0.00     0.074 A 
ATOM     57  C   UNL A   1      49.000  30.754  27.095  1.00  0.00     0.029 A 
ATOM     58  N   UNL A   1      47.034  29.879  27.655  1.00  0.00    -0.354 N 
ATOM     59  N   UNL A   1      44.353  29.901  28.849  1.00  0.00    -0.248 NA
ATOM     60  C   UNL A   1      42.696  30.982  30.089  1.00  0.00     0.031 C 
ATOM     61  C   UNL A   1      48.286  31.704  27.833  1.00  0.00     0.029 A 
ATOM     62  C   UNL A   1      47.045  31.172  28.148  1.00  0.00     0.049 A 
ATOM     63  H   UNL A   1      46.285  29.247  27.746  1.00  0.00     0.167 HD
ATOM     64  C   UNL A   1      44.775  31.193  29.143  1.00  0.00     0.074 A 
ATOM     65  C   UNL A   1      43.693  31.827  29.868  1.00  0.00     0.031 C 
ATOM     66  C   UNL A   1      45.948  31.803  28.839  1.00  0.00     0.034 A 
BRANCH  53  67
ATOM     67  C   UNL A   1      49.957  28.166  25.844  1.00  0.00     0.023 A 
ATOM     68  C   UNL A   1      51.072  28.014  26.694  1.00  0.00     0.012 A 
ATOM     69  C   UNL A   1      50.142  28.124  24.449  1.00  0.00     0.148 A 
ATOM     70  C   UNL A   1      52.354  27.869  26.164  1.00  0.00     0.002 A 
ATOM     71  C   UNL A   1      51.414  27.923  23.929  1.00  0.00     0.091 A 
ATOM     72  F   UNL A   1      49.074  28.295  23.657  1.00  0.00    -0.205 F 
ATOM     73  C   UNL A   1      52.524  27.813  24.783  1.00  0.00     0.022 A 
BRANCH  71  74
ATOM     74  S   UNL A   1      51.722  27.751  22.169  1.00  0.00     0.127 S 
ATOM     75  O   UNL A   1      51.437  29.102  21.686  1.00  0.00    -0.237 OA
ATOM     76  O   UNL A   1      53.136  27.379  22.142  1.00  0.00    -0.237 OA
ATOM     77  O   UNL A   1      50.811  26.718  21.698  1.00  0.00    -0.744 OA
ENDBRANCH  71  74
ENDBRANCH  53  67
BRANCH  54  78
ATOM     78  C   UNL A   1      40.856  28.706  29.947  1.00  0.00     0.023 A 
ATOM     79  C   UNL A   1      40.677  28.182  31.242  1.00  0.00     0.012 A 
ATOM     80  C   UNL A   1      39.762  29.301  29.290  1.00  0.00     0.148 A 
ATOM     81  C   UNL A   1      39.424  28.217  31.855  1.00  0.00     0.002 A 
ATOM     82  C   UNL A   1      38.532  29.386  29.928  1.00  0.00     0.091 A 
ATOM     83  F   UNL A   1      39.953  29.783  28.053  1.00  0.00    -0.205 F 
ATOM     84  C   UNL A   1      38.356  28.827  31.204  1.00  0.00     0.022 A 
BRANCH  82  85
ATOM     85  S   UNL A   1      37.136  30.262  29.218  1.00  0.00     0.127 S 
ATOM     86  O   UNL A   1      36.687  29.325  28.192  1.00  0.00    -0.237 OA
ATOM     87  O   UNL A   1      36.245  30.386  30.373  1.00  0.00    -0.237 OA
ATOM     88  O   UNL A   1      37.667  31.525  28.726  1.00  0.00    -0.744 OA
ENDBRANCH  82  85
ENDBRANCH  54  78
BRANCH  66  89
ATOM     89  C   UNL A   1      46.100  33.254  29.222  1.00  0.00     0.023 A 
ATOM     90  C   UNL A   1      46.560  33.618  30.503  1.00  0.00     0.012 A 
ATOM     91  C   UNL A   1      45.809  34.265  28.283  1.00  0.00     0.148 A 
ATOM     92  C   UNL A   1      46.666  34.962  30.863  1.00  0.00     0.002 A 
ATOM     93  C   UNL A   1      45.978  35.599  28.627  1.00  0.00     0.091 A 
ATOM     94  F   UNL A   1      45.360  33.905  27.072  1.00  0.00    -0.205 F 
ATOM     95  C   UNL A   1      46.385  35.951  29.924  1.00  0.00     0.022 A 
BRANCH  93  96
ATOM     96  S   UNL A   1      45.739  36.933  27.448  1.00  0.00     0.127 S 
ATOM     97  O   UNL A   1      46.303  38.073  28.170  1.00  0.00    -0.237 OA
ATOM     98  O   UNL A   1      46.535  36.481  26.306  1.00  0.00    -0.237 OA
ATOM     99  O   UNL A   1      44.306  36.996  27.198  1.00  0.00    -0.744 OA
ENDBRANCH  93  96
ENDBRANCH  66  89
ENDBRANCH  40  41
ENDBRANCH  33  35
ENDBRANCH  32  33
ENDBRANCH  31  32
ENDBRANCH  30  31
ENDBRANCH  29  30
ENDBRANCH  28  29
ENDBRANCH  27  28
ENDBRANCH  26  27
ENDBRANCH   1  26
TORSDOF 27
ENDMDL
