MODEL 1
REMARK VINA RESULT:      -8.6      0.000      0.000
REMARK SMILES CC(C)COc1cccc(N2C[C@@H](C(=O)OCCOCCOCCOCCOC(=O)c3ccc(-c4c5nc(c(-c6cccc(S(=O)(=O)[O-])c6F)c6ccc([nH]6)c(-c6cccc(S(=O)(=O)[O-])c6F)c6nc(c(-c7cccc(S(=O)(=O)[O-])c7F)c7ccc4[nH]7)C=C6)C=C5)cc3)CC2=O)c1
REMARK SMILES IDX 21 1 20 2 19 3 18 4 17 5 16 6 14 7 15 8 13 9 11 10 12 11
REMARK SMILES IDX 95 12 94 13 96 14 10 15 6 16 7 17 97 18 8 19 9 20 5 21 4 22
REMARK SMILES IDX 2 23 1 24 3 25 22 26 23 27 24 28 25 29 26 30 27 31 28 32
REMARK SMILES IDX 29 33 30 34 31 35 32 36 93 37 33 38 92 39 34 40 35 41 36 42
REMARK SMILES IDX 86 43 37 44 91 45 85 46 87 47 38 48 90 49 84 50 83 51 39 53
REMARK SMILES IDX 71 54 51 55 70 56 52 57 55 58 69 59 88 60 53 61 54 62 68 64
REMARK SMILES IDX 89 65 56 66 40 67 41 68 49 69 42 70 44 71 50 72 43 73 45 74
REMARK SMILES IDX 46 75 47 76 48 77 72 78 73 79 81 80 74 81 76 82 82 83 75 84
REMARK SMILES IDX 77 85 78 86 79 87 80 88 57 89 58 90 66 91 59 92 61 93 67 94
REMARK SMILES IDX 60 95 62 96 63 97 64 98 65 99
REMARK H PARENT 87 52 55 63
REMARK Flexibility Score: inf
ROOT
ATOM      1  C   UNL A   1      40.755  21.799  27.678  1.00  0.00     0.188 C 
ENDROOT
BRANCH   1   2
ATOM      2  C   UNL A   1      40.423  23.296  27.626  1.00  0.00     0.188 C 
BRANCH   2   3
ATOM      3  O   UNL A   1      39.824  23.880  26.479  1.00  0.00    -0.376 OA
BRANCH   3   4
ATOM      4  C   UNL A   1      38.413  24.032  26.392  1.00  0.00     0.202 C 
BRANCH   4   5
ATOM      5  C   UNL A   1      37.553  23.105  25.514  1.00  0.00     0.261 C 
BRANCH   5   6
ATOM      6  O   UNL A   1      36.417  23.732  24.895  1.00  0.00    -0.463 OA
BRANCH   6   7
ATOM      7  C   UNL A   1      36.011  23.223  23.716  1.00  0.00     0.311 C 
ATOM      8  O   UNL A   1      36.741  23.031  22.749  1.00  0.00    -0.252 OA
BRANCH   7   9
ATOM      9  C   UNL A   1      34.562  22.794  23.701  1.00  0.00     0.128 C 
ATOM     10  N   UNL A   1      32.443  23.656  24.170  1.00  0.00    -0.311 N 
ATOM     11  C   UNL A   1      33.740  24.064  23.692  1.00  0.00     0.141 C 
ATOM     12  C   UNL A   1      32.522  22.448  24.863  1.00  0.00     0.227 C 
ATOM     13  C   UNL A   1      33.954  22.013  24.859  1.00  0.00     0.117 C 
ATOM     14  O   UNL A   1      31.628  21.807  25.394  1.00  0.00    -0.274 OA
BRANCH  10  15
ATOM     15  C   UNL A   1      31.412  24.604  24.328  1.00  0.00     0.047 A 
ATOM     16  C   UNL A   1      30.896  26.832  25.056  1.00  0.00     0.121 A 
ATOM     17  C   UNL A   1      29.802  26.883  24.200  1.00  0.00     0.046 A 
ATOM     18  C   UNL A   1      31.596  25.651  25.226  1.00  0.00     0.072 A 
ATOM     19  C   UNL A   1      29.491  25.766  23.422  1.00  0.00     0.006 A 
ATOM     20  C   UNL A   1      30.327  24.647  23.448  1.00  0.00     0.026 A 
BRANCH  16  21
ATOM     21  O   UNL A   1      31.336  27.947  25.714  1.00  0.00    -0.493 OA
BRANCH  21  22
ATOM     22  C   UNL A   1      32.211  27.606  26.825  1.00  0.00     0.232 C 
BRANCH  22  23
ATOM     23  C   UNL A   1      33.005  28.806  27.410  1.00  0.00     0.020 C 
ATOM     24  C   UNL A   1      34.478  28.802  26.970  1.00  0.00     0.011 C 
ATOM     25  C   UNL A   1      32.407  30.140  26.951  1.00  0.00     0.011 C 
ENDBRANCH  22  23
ENDBRANCH  21  22
ENDBRANCH  16  21
ENDBRANCH  10  15
ENDBRANCH   7   9
ENDBRANCH   6   7
ENDBRANCH   5   6
ENDBRANCH   4   5
ENDBRANCH   3   4
ENDBRANCH   2   3
ENDBRANCH   1   2
BRANCH   1  26
ATOM     26  O   UNL A   1      40.224  21.020  26.630  1.00  0.00    -0.377 OA
BRANCH  26  27
ATOM     27  C   UNL A   1      41.036  19.962  26.139  1.00  0.00     0.188 C 
BRANCH  27  28
ATOM     28  C   UNL A   1      42.560  20.076  26.347  1.00  0.00     0.188 C 
BRANCH  28  29
ATOM     29  O   UNL A   1      43.250  20.755  25.305  1.00  0.00    -0.376 OA
BRANCH  29  30
ATOM     30  C   UNL A   1      44.583  20.370  24.995  1.00  0.00     0.202 C 
BRANCH  30  31
ATOM     31  C   UNL A   1      45.735  21.318  25.378  1.00  0.00     0.261 C 
BRANCH  31  32
ATOM     32  O   UNL A   1      45.370  22.617  25.867  1.00  0.00    -0.460 OA
BRANCH  32  33
ATOM     33  C   UNL A   1      45.629  23.688  25.092  1.00  0.00     0.338 C 
ATOM     34  O   UNL A   1      45.835  23.689  23.887  1.00  0.00    -0.246 OA
BRANCH  33  35
ATOM     35  C   UNL A   1      45.400  24.901  25.904  1.00  0.00     0.060 A 
ATOM     36  C   UNL A   1      46.483  25.467  26.591  1.00  0.00     0.016 A 
ATOM     37  C   UNL A   1      44.132  25.481  25.986  1.00  0.00     0.016 A 
ATOM     38  C   UNL A   1      46.293  26.589  27.396  1.00  0.00     0.010 A 
ATOM     39  C   UNL A   1      43.937  26.591  26.813  1.00  0.00     0.010 A 
ATOM     40  C   UNL A   1      45.010  27.125  27.551  1.00  0.00    -0.014 A 
BRANCH  40  41
ATOM     41  C   UNL A   1      44.753  28.100  28.638  1.00  0.00     0.031 A 
ATOM     42  C   UNL A   1      44.499  27.571  30.024  1.00  0.00     0.074 A 
ATOM     43  C   UNL A   1      44.754  29.426  28.409  1.00  0.00     0.049 A 
ATOM     44  N   UNL A   1      44.215  28.221  31.121  1.00  0.00    -0.248 NA
ATOM     45  C   UNL A   1      44.577  26.110  30.193  1.00  0.00     0.031 C 
ATOM     46  C   UNL A   1      45.005  30.061  27.118  1.00  0.00     0.029 A 
ATOM     47  N   UNL A   1      44.509  30.474  29.261  1.00  0.00    -0.354 N 
ATOM     48  C   UNL A   1      44.044  27.251  32.101  1.00  0.00     0.074 A 
ATOM     49  C   UNL A   1      44.251  25.967  31.469  1.00  0.00     0.031 C 
ATOM     50  C   UNL A   1      44.868  31.392  27.254  1.00  0.00     0.029 A 
ATOM     51  C   UNL A   1      44.490  31.698  28.633  1.00  0.00     0.049 A 
ATOM     52  H   UNL A   1      44.361  30.362  30.227  1.00  0.00     0.167 HD
ATOM     53  C   UNL A   1      43.752  27.412  33.412  1.00  0.00     0.034 A 
ATOM     54  C   UNL A   1      44.173  32.918  29.112  1.00  0.00     0.034 A 
ATOM     55  C   UNL A   1      43.557  28.690  34.042  1.00  0.00     0.049 A 
ATOM     56  C   UNL A   1      43.811  33.067  30.569  1.00  0.00     0.074 A 
ATOM     57  C   UNL A   1      43.301  28.960  35.374  1.00  0.00     0.029 A 
ATOM     58  N   UNL A   1      43.575  29.908  33.381  1.00  0.00    -0.354 N 
ATOM     59  N   UNL A   1      43.762  32.154  31.508  1.00  0.00    -0.248 NA
ATOM     60  C   UNL A   1      43.492  34.424  31.040  1.00  0.00     0.031 C 
ATOM     61  C   UNL A   1      43.121  30.340  35.512  1.00  0.00     0.029 A 
ATOM     62  C   UNL A   1      43.316  30.933  34.274  1.00  0.00     0.049 A 
ATOM     63  H   UNL A   1      43.747  30.027  32.420  1.00  0.00     0.167 HD
ATOM     64  C   UNL A   1      43.446  32.827  32.684  1.00  0.00     0.074 A 
ATOM     65  C   UNL A   1      43.335  34.231  32.342  1.00  0.00     0.031 C 
ATOM     66  C   UNL A   1      43.256  32.331  33.932  1.00  0.00     0.034 A 
BRANCH  53  67
ATOM     67  C   UNL A   1      43.626  26.173  34.258  1.00  0.00     0.023 A 
ATOM     68  C   UNL A   1      42.351  25.699  34.628  1.00  0.00     0.012 A 
ATOM     69  C   UNL A   1      44.771  25.449  34.643  1.00  0.00     0.148 A 
ATOM     70  C   UNL A   1      42.219  24.542  35.396  1.00  0.00     0.002 A 
ATOM     71  C   UNL A   1      44.630  24.272  35.366  1.00  0.00     0.091 A 
ATOM     72  F   UNL A   1      45.975  25.930  34.302  1.00  0.00    -0.205 F 
ATOM     73  C   UNL A   1      43.357  23.823  35.754  1.00  0.00     0.022 A 
BRANCH  71  74
ATOM     74  S   UNL A   1      46.026  23.231  35.805  1.00  0.00     0.127 S 
ATOM     75  O   UNL A   1      45.354  22.050  36.347  1.00  0.00    -0.237 OA
ATOM     76  O   UNL A   1      46.673  23.025  34.510  1.00  0.00    -0.237 OA
ATOM     77  O   UNL A   1      46.812  23.995  36.765  1.00  0.00    -0.744 OA
ENDBRANCH  71  74
ENDBRANCH  53  67
BRANCH  54  78
ATOM     78  C   UNL A   1      44.192  34.105  28.210  1.00  0.00     0.023 A 
ATOM     79  C   UNL A   1      43.026  34.466  27.505  1.00  0.00     0.012 A 
ATOM     80  C   UNL A   1      45.359  34.875  28.044  1.00  0.00     0.148 A 
ATOM     81  C   UNL A   1      43.034  35.550  26.626  1.00  0.00     0.002 A 
ATOM     82  C   UNL A   1      45.344  35.988  27.213  1.00  0.00     0.091 A 
ATOM     83  F   UNL A   1      46.463  34.505  28.710  1.00  0.00    -0.205 F 
ATOM     84  C   UNL A   1      44.189  36.316  26.487  1.00  0.00     0.022 A 
BRANCH  82  85
ATOM     85  S   UNL A   1      46.742  37.107  27.071  1.00  0.00     0.127 S 
ATOM     86  O   UNL A   1      47.722  36.275  26.376  1.00  0.00    -0.237 OA
ATOM     87  O   UNL A   1      46.176  38.193  26.271  1.00  0.00    -0.237 OA
ATOM     88  O   UNL A   1      47.088  37.483  28.435  1.00  0.00    -0.744 OA
ENDBRANCH  82  85
ENDBRANCH  54  78
BRANCH  66  89
ATOM     89  C   UNL A   1      42.962  33.307  35.043  1.00  0.00     0.023 A 
ATOM     90  C   UNL A   1      44.018  33.899  35.766  1.00  0.00     0.012 A 
ATOM     91  C   UNL A   1      41.636  33.696  35.318  1.00  0.00     0.148 A 
ATOM     92  C   UNL A   1      43.755  34.832  36.768  1.00  0.00     0.002 A 
ATOM     93  C   UNL A   1      41.385  34.666  36.280  1.00  0.00     0.091 A 
ATOM     94  F   UNL A   1      40.643  33.113  34.631  1.00  0.00    -0.205 F 
ATOM     95  C   UNL A   1      42.441  35.225  37.016  1.00  0.00     0.022 A 
BRANCH  93  96
ATOM     96  S   UNL A   1      39.737  35.307  36.599  1.00  0.00     0.127 S 
ATOM     97  O   UNL A   1      39.784  35.545  38.041  1.00  0.00    -0.237 OA
ATOM     98  O   UNL A   1      39.713  36.519  35.781  1.00  0.00    -0.237 OA
ATOM     99  O   UNL A   1      38.810  34.269  36.170  1.00  0.00    -0.744 OA
ENDBRANCH  93  96
ENDBRANCH  66  89
ENDBRANCH  40  41
ENDBRANCH  33  35
ENDBRANCH  32  33
ENDBRANCH  31  32
ENDBRANCH  30  31
ENDBRANCH  29  30
ENDBRANCH  28  29
ENDBRANCH  27  28
ENDBRANCH  26  27
ENDBRANCH   1  26
TORSDOF 27
ENDMDL
MODEL 2
REMARK VINA RESULT:      -8.5      4.236      6.222
REMARK SMILES CC(C)COc1cccc(N2C[C@@H](C(=O)OCCOCCOCCOCCOC(=O)c3ccc(-c4c5nc(c(-c6cccc(S(=O)(=O)[O-])c6F)c6ccc([nH]6)c(-c6cccc(S(=O)(=O)[O-])c6F)c6nc(c(-c7cccc(S(=O)(=O)[O-])c7F)c7ccc4[nH]7)C=C6)C=C5)cc3)CC2=O)c1
REMARK SMILES IDX 21 1 20 2 19 3 18 4 17 5 16 6 14 7 15 8 13 9 11 10 12 11
REMARK SMILES IDX 95 12 94 13 96 14 10 15 6 16 7 17 97 18 8 19 9 20 5 21 4 22
REMARK SMILES IDX 2 23 1 24 3 25 22 26 23 27 24 28 25 29 26 30 27 31 28 32
REMARK SMILES IDX 29 33 30 34 31 35 32 36 93 37 33 38 92 39 34 40 35 41 36 42
REMARK SMILES IDX 86 43 37 44 91 45 85 46 87 47 38 48 90 49 84 50 83 51 39 53
REMARK SMILES IDX 71 54 51 55 70 56 52 57 55 58 69 59 88 60 53 61 54 62 68 64
REMARK SMILES IDX 89 65 56 66 40 67 41 68 49 69 42 70 44 71 50 72 43 73 45 74
REMARK SMILES IDX 46 75 47 76 48 77 72 78 73 79 81 80 74 81 76 82 82 83 75 84
REMARK SMILES IDX 77 85 78 86 79 87 80 88 57 89 58 90 66 91 59 92 61 93 67 94
REMARK SMILES IDX 60 95 62 96 63 97 64 98 65 99
REMARK H PARENT 87 52 55 63
REMARK Flexibility Score: inf
ROOT
ATOM      1  C   UNL A   1      36.721  20.284  24.985  1.00  0.00     0.188 C 
ENDROOT
BRANCH   1   2
ATOM      2  C   UNL A   1      36.415  18.783  24.898  1.00  0.00     0.188 C 
BRANCH   2   3
ATOM      3  O   UNL A   1      35.270  18.302  24.212  1.00  0.00    -0.376 OA
BRANCH   3   4
ATOM      4  C   UNL A   1      34.467  17.268  24.769  1.00  0.00     0.202 C 
BRANCH   4   5
ATOM      5  C   UNL A   1      32.951  17.195  24.511  1.00  0.00     0.261 C 
BRANCH   5   6
ATOM      6  O   UNL A   1      32.214  18.376  24.872  1.00  0.00    -0.463 OA
BRANCH   6   7
ATOM      7  C   UNL A   1      32.294  19.422  24.028  1.00  0.00     0.311 C 
ATOM      8  O   UNL A   1      32.332  19.333  22.805  1.00  0.00    -0.252 OA
BRANCH   7   9
ATOM      9  C   UNL A   1      32.226  20.767  24.713  1.00  0.00     0.128 C 
ATOM     10  N   UNL A   1      32.337  23.041  24.193  1.00  0.00    -0.311 N 
ATOM     11  C   UNL A   1      31.912  21.782  23.636  1.00  0.00     0.141 C 
ATOM     12  C   UNL A   1      33.242  22.848  25.236  1.00  0.00     0.227 C 
ATOM     13  C   UNL A   1      33.447  21.373  25.395  1.00  0.00     0.117 C 
ATOM     14  O   UNL A   1      33.797  23.680  25.936  1.00  0.00    -0.274 OA
BRANCH  10  15
ATOM     15  C   UNL A   1      32.226  24.226  23.438  1.00  0.00     0.047 A 
ATOM     16  C   UNL A   1      31.791  26.584  23.548  1.00  0.00     0.121 A 
ATOM     17  C   UNL A   1      32.540  26.799  22.397  1.00  0.00     0.046 A 
ATOM     18  C   UNL A   1      31.514  25.296  23.971  1.00  0.00     0.072 A 
ATOM     19  C   UNL A   1      33.112  25.708  21.741  1.00  0.00     0.006 A 
ATOM     20  C   UNL A   1      32.999  24.429  22.291  1.00  0.00     0.026 A 
BRANCH  16  21
ATOM     21  O   UNL A   1      31.348  27.627  24.314  1.00  0.00    -0.493 OA
BRANCH  21  22
ATOM     22  C   UNL A   1      31.759  27.488  25.702  1.00  0.00     0.232 C 
BRANCH  22  23
ATOM     23  C   UNL A   1      31.751  28.813  26.511  1.00  0.00     0.020 C 
ATOM     24  C   UNL A   1      33.005  28.972  27.386  1.00  0.00     0.011 C 
ATOM     25  C   UNL A   1      31.702  30.028  25.579  1.00  0.00     0.011 C 
ENDBRANCH  22  23
ENDBRANCH  21  22
ENDBRANCH  16  21
ENDBRANCH  10  15
ENDBRANCH   7   9
ENDBRANCH   6   7
ENDBRANCH   5   6
ENDBRANCH   4   5
ENDBRANCH   3   4
ENDBRANCH   2   3
ENDBRANCH   1   2
BRANCH   1  26
ATOM     26  O   UNL A   1      38.089  20.627  25.010  1.00  0.00    -0.377 OA
BRANCH  26  27
ATOM     27  C   UNL A   1      38.448  21.792  25.742  1.00  0.00     0.188 C 
BRANCH  27  28
ATOM     28  C   UNL A   1      39.733  21.732  26.593  1.00  0.00     0.188 C 
BRANCH  28  29
ATOM     29  O   UNL A   1      40.440  20.500  26.509  1.00  0.00    -0.376 OA
BRANCH  29  30
ATOM     30  C   UNL A   1      41.827  20.479  26.819  1.00  0.00     0.202 C 
BRANCH  30  31
ATOM     31  C   UNL A   1      42.818  21.112  25.823  1.00  0.00     0.261 C 
BRANCH  31  32
ATOM     32  O   UNL A   1      42.444  22.374  25.251  1.00  0.00    -0.460 OA
BRANCH  32  33
ATOM     33  C   UNL A   1      43.418  23.253  24.946  1.00  0.00     0.338 C 
ATOM     34  O   UNL A   1      44.261  23.138  24.068  1.00  0.00    -0.246 OA
BRANCH  33  35
ATOM     35  C   UNL A   1      43.162  24.494  25.706  1.00  0.00     0.060 A 
ATOM     36  C   UNL A   1      42.884  25.672  25.000  1.00  0.00     0.016 A 
ATOM     37  C   UNL A   1      43.191  24.499  27.103  1.00  0.00     0.016 A 
ATOM     38  C   UNL A   1      42.676  26.868  25.685  1.00  0.00     0.010 A 
ATOM     39  C   UNL A   1      43.008  25.703  27.789  1.00  0.00     0.010 A 
ATOM     40  C   UNL A   1      42.787  26.899  27.080  1.00  0.00    -0.014 A 
BRANCH  40  41
ATOM     41  C   UNL A   1      42.884  28.205  27.775  1.00  0.00     0.031 A 
ATOM     42  C   UNL A   1      44.240  28.849  27.896  1.00  0.00     0.074 A 
ATOM     43  C   UNL A   1      41.798  28.815  28.281  1.00  0.00     0.049 A 
ATOM     44  N   UNL A   1      44.579  29.961  28.489  1.00  0.00    -0.248 NA
ATOM     45  C   UNL A   1      45.362  28.138  27.260  1.00  0.00     0.031 C 
ATOM     46  C   UNL A   1      40.431  28.304  28.212  1.00  0.00     0.029 A 
ATOM     47  N   UNL A   1      41.685  29.992  28.979  1.00  0.00    -0.354 N 
ATOM     48  C   UNL A   1      45.956  30.068  28.331  1.00  0.00     0.074 A 
ATOM     49  C   UNL A   1      46.390  28.904  27.591  1.00  0.00     0.031 C 
ATOM     50  C   UNL A   1      39.618  29.147  28.872  1.00  0.00     0.029 A 
ATOM     51  C   UNL A   1      40.411  30.239  29.435  1.00  0.00     0.049 A 
ATOM     52  H   UNL A   1      42.441  30.601  29.137  1.00  0.00     0.167 HD
ATOM     53  C   UNL A   1      46.784  31.051  28.753  1.00  0.00     0.034 A 
ATOM     54  C   UNL A   1      39.948  31.217  30.240  1.00  0.00     0.034 A 
ATOM     55  C   UNL A   1      46.350  32.213  29.479  1.00  0.00     0.049 A 
ATOM     56  C   UNL A   1      40.899  32.279  30.732  1.00  0.00     0.074 A 
ATOM     57  C   UNL A   1      47.106  33.287  29.913  1.00  0.00     0.029 A 
ATOM     58  N   UNL A   1      45.049  32.443  29.898  1.00  0.00    -0.354 N 
ATOM     59  N   UNL A   1      42.177  32.426  30.482  1.00  0.00    -0.248 NA
ATOM     60  C   UNL A   1      40.335  33.331  31.592  1.00  0.00     0.031 C 
ATOM     61  C   UNL A   1      46.271  34.147  30.632  1.00  0.00     0.029 A 
ATOM     62  C   UNL A   1      44.983  33.633  30.601  1.00  0.00     0.049 A 
ATOM     63  H   UNL A   1      44.285  31.849  29.721  1.00  0.00     0.167 HD
ATOM     64  C   UNL A   1      42.561  33.603  31.119  1.00  0.00     0.074 A 
ATOM     65  C   UNL A   1      41.374  34.140  31.750  1.00  0.00     0.031 C 
ATOM     66  C   UNL A   1      43.786  34.183  31.184  1.00  0.00     0.034 A 
BRANCH  53  67
ATOM     67  C   UNL A   1      48.251  30.913  28.439  1.00  0.00     0.023 A 
ATOM     68  C   UNL A   1      48.781  31.506  27.275  1.00  0.00     0.012 A 
ATOM     69  C   UNL A   1      49.113  30.239  29.326  1.00  0.00     0.148 A 
ATOM     70  C   UNL A   1      50.141  31.402  26.982  1.00  0.00     0.002 A 
ATOM     71  C   UNL A   1      50.473  30.182  29.052  1.00  0.00     0.091 A 
ATOM     72  F   UNL A   1      48.585  29.663  30.415  1.00  0.00    -0.205 F 
ATOM     73  C   UNL A   1      50.988  30.751  27.875  1.00  0.00     0.022 A 
BRANCH  71  74
ATOM     74  S   UNL A   1      51.658  29.439  30.179  1.00  0.00     0.127 S 
ATOM     75  O   UNL A   1      52.912  30.043  29.730  1.00  0.00    -0.237 OA
ATOM     76  O   UNL A   1      51.183  29.913  31.479  1.00  0.00    -0.237 OA
ATOM     77  O   UNL A   1      51.555  27.999  29.980  1.00  0.00    -0.744 OA
ENDBRANCH  71  74
ENDBRANCH  53  67
BRANCH  54  78
ATOM     78  C   UNL A   1      38.509  31.249  30.628  1.00  0.00     0.023 A 
ATOM     79  C   UNL A   1      38.075  30.538  31.766  1.00  0.00     0.012 A 
ATOM     80  C   UNL A   1      37.567  31.976  29.875  1.00  0.00     0.148 A 
ATOM     81  C   UNL A   1      36.726  30.523  32.123  1.00  0.00     0.002 A 
ATOM     82  C   UNL A   1      36.236  32.007  30.270  1.00  0.00     0.091 A 
ATOM     83  F   UNL A   1      37.996  32.632  28.787  1.00  0.00    -0.205 F 
ATOM     84  C   UNL A   1      35.809  31.264  31.382  1.00  0.00     0.022 A 
BRANCH  82  85
ATOM     85  S   UNL A   1      35.009  33.034  29.455  1.00  0.00     0.127 S 
ATOM     86  O   UNL A   1      35.832  34.117  28.922  1.00  0.00    -0.237 OA
ATOM     87  O   UNL A   1      34.470  32.115  28.451  1.00  0.00    -0.237 OA
ATOM     88  O   UNL A   1      34.059  33.415  30.492  1.00  0.00    -0.744 OA
ENDBRANCH  82  85
ENDBRANCH  54  78
BRANCH  66  89
ATOM     89  C   UNL A   1      43.908  35.495  31.915  1.00  0.00     0.023 A 
ATOM     90  C   UNL A   1      43.857  36.712  31.204  1.00  0.00     0.012 A 
ATOM     91  C   UNL A   1      43.995  35.523  33.321  1.00  0.00     0.148 A 
ATOM     92  C   UNL A   1      43.929  37.930  31.878  1.00  0.00     0.002 A 
ATOM     93  C   UNL A   1      44.012  36.740  33.990  1.00  0.00     0.091 A 
ATOM     94  F   UNL A   1      44.057  34.356  33.981  1.00  0.00    -0.205 F 
ATOM     95  C   UNL A   1      43.994  37.945  33.270  1.00  0.00     0.022 A 
BRANCH  93  96
ATOM     96  S   UNL A   1      43.994  36.858  35.782  1.00  0.00     0.127 S 
ATOM     97  O   UNL A   1      44.105  38.302  35.987  1.00  0.00    -0.237 OA
ATOM     98  O   UNL A   1      42.688  36.292  36.116  1.00  0.00    -0.237 OA
ATOM     99  O   UNL A   1      45.130  36.076  36.250  1.00  0.00    -0.744 OA
ENDBRANCH  93  96
ENDBRANCH  66  89
ENDBRANCH  40  41
ENDBRANCH  33  35
ENDBRANCH  32  33
ENDBRANCH  31  32
ENDBRANCH  30  31
ENDBRANCH  29  30
ENDBRANCH  28  29
ENDBRANCH  27  28
ENDBRANCH  26  27
ENDBRANCH   1  26
TORSDOF 27
ENDMDL
MODEL 3
REMARK VINA RESULT:      -8.4      4.383     10.388
REMARK SMILES CC(C)COc1cccc(N2C[C@@H](C(=O)OCCOCCOCCOCCOC(=O)c3ccc(-c4c5nc(c(-c6cccc(S(=O)(=O)[O-])c6F)c6ccc([nH]6)c(-c6cccc(S(=O)(=O)[O-])c6F)c6nc(c(-c7cccc(S(=O)(=O)[O-])c7F)c7ccc4[nH]7)C=C6)C=C5)cc3)CC2=O)c1
REMARK SMILES IDX 21 1 20 2 19 3 18 4 17 5 16 6 14 7 15 8 13 9 11 10 12 11
REMARK SMILES IDX 95 12 94 13 96 14 10 15 6 16 7 17 97 18 8 19 9 20 5 21 4 22
REMARK SMILES IDX 2 23 1 24 3 25 22 26 23 27 24 28 25 29 26 30 27 31 28 32
REMARK SMILES IDX 29 33 30 34 31 35 32 36 93 37 33 38 92 39 34 40 35 41 36 42
REMARK SMILES IDX 86 43 37 44 91 45 85 46 87 47 38 48 90 49 84 50 83 51 39 53
REMARK SMILES IDX 71 54 51 55 70 56 52 57 55 58 69 59 88 60 53 61 54 62 68 64
REMARK SMILES IDX 89 65 56 66 40 67 41 68 49 69 42 70 44 71 50 72 43 73 45 74
REMARK SMILES IDX 46 75 47 76 48 77 72 78 73 79 81 80 74 81 76 82 82 83 75 84
REMARK SMILES IDX 77 85 78 86 79 87 80 88 57 89 58 90 66 91 59 92 61 93 67 94
REMARK SMILES IDX 60 95 62 96 63 97 64 98 65 99
REMARK H PARENT 87 52 55 63
REMARK Flexibility Score: inf
ROOT
ATOM      1  C   UNL A   1      34.536  34.524  29.322  1.00  0.00     0.188 C 
ENDROOT
BRANCH   1   2
ATOM      2  C   UNL A   1      34.302  33.800  27.989  1.00  0.00     0.188 C 
BRANCH   2   3
ATOM      3  O   UNL A   1      33.742  32.496  27.947  1.00  0.00    -0.376 OA
BRANCH   3   4
ATOM      4  C   UNL A   1      34.511  31.388  27.495  1.00  0.00     0.202 C 
BRANCH   4   5
ATOM      5  C   UNL A   1      34.010  29.941  27.654  1.00  0.00     0.261 C 
BRANCH   5   6
ATOM      6  O   UNL A   1      32.653  29.717  27.236  1.00  0.00    -0.463 OA
BRANCH   6   7
ATOM      7  C   UNL A   1      32.472  28.938  26.152  1.00  0.00     0.311 C 
ATOM      8  O   UNL A   1      32.509  29.335  24.992  1.00  0.00    -0.252 OA
BRANCH   7   9
ATOM      9  C   UNL A   1      32.318  27.469  26.473  1.00  0.00     0.128 C 
ATOM     10  N   UNL A   1      32.705  25.381  25.501  1.00  0.00    -0.311 N 
ATOM     11  C   UNL A   1      33.227  26.724  25.520  1.00  0.00     0.141 C 
ATOM     12  C   UNL A   1      31.385  25.350  25.949  1.00  0.00     0.227 C 
ATOM     13  C   UNL A   1      30.986  26.753  26.289  1.00  0.00     0.117 C 
ATOM     14  O   UNL A   1      30.638  24.392  26.073  1.00  0.00    -0.274 OA
BRANCH  10  15
ATOM     15  C   UNL A   1      33.295  24.401  24.678  1.00  0.00     0.047 A 
ATOM     16  C   UNL A   1      34.064  22.130  24.581  1.00  0.00     0.121 A 
ATOM     17  C   UNL A   1      33.849  22.091  23.209  1.00  0.00     0.046 A 
ATOM     18  C   UNL A   1      33.933  23.318  25.276  1.00  0.00     0.072 A 
ATOM     19  C   UNL A   1      33.380  23.234  22.558  1.00  0.00     0.006 A 
ATOM     20  C   UNL A   1      33.055  24.371  23.301  1.00  0.00     0.026 A 
BRANCH  16  21
ATOM     21  O   UNL A   1      34.364  20.996  25.286  1.00  0.00    -0.493 OA
BRANCH  21  22
ATOM     22  C   UNL A   1      33.186  20.174  25.510  1.00  0.00     0.232 C 
BRANCH  22  23
ATOM     23  C   UNL A   1      33.243  18.773  24.843  1.00  0.00     0.020 C 
ATOM     24  C   UNL A   1      32.625  17.678  25.727  1.00  0.00     0.011 C 
ATOM     25  C   UNL A   1      32.474  18.762  23.518  1.00  0.00     0.011 C 
ENDBRANCH  22  23
ENDBRANCH  21  22
ENDBRANCH  16  21
ENDBRANCH  10  15
ENDBRANCH   7   9
ENDBRANCH   6   7
ENDBRANCH   5   6
ENDBRANCH   4   5
ENDBRANCH   3   4
ENDBRANCH   2   3
ENDBRANCH   1   2
BRANCH   1  26
ATOM     26  O   UNL A   1      33.392  34.714  30.123  1.00  0.00    -0.377 OA
BRANCH  26  27
ATOM     27  C   UNL A   1      33.499  35.649  31.188  1.00  0.00     0.188 C 
BRANCH  27  28
ATOM     28  C   UNL A   1      33.283  35.125  32.622  1.00  0.00     0.188 C 
BRANCH  28  29
ATOM     29  O   UNL A   1      34.222  35.609  33.575  1.00  0.00    -0.376 OA
BRANCH  29  30
ATOM     30  C   UNL A   1      35.170  34.707  34.129  1.00  0.00     0.202 C 
BRANCH  30  31
ATOM     31  C   UNL A   1      35.968  33.795  33.178  1.00  0.00     0.261 C 
BRANCH  31  32
ATOM     32  O   UNL A   1      35.568  32.418  33.113  1.00  0.00    -0.460 OA
BRANCH  32  33
ATOM     33  C   UNL A   1      35.916  31.700  32.028  1.00  0.00     0.338 C 
ATOM     34  O   UNL A   1      35.314  31.639  30.965  1.00  0.00    -0.246 OA
BRANCH  33  35
ATOM     35  C   UNL A   1      37.276  31.168  32.253  1.00  0.00     0.060 A 
ATOM     36  C   UNL A   1      38.370  31.864  31.720  1.00  0.00     0.016 A 
ATOM     37  C   UNL A   1      37.476  29.996  32.987  1.00  0.00     0.016 A 
ATOM     38  C   UNL A   1      39.662  31.369  31.882  1.00  0.00     0.010 A 
ATOM     39  C   UNL A   1      38.769  29.487  33.127  1.00  0.00     0.010 A 
ATOM     40  C   UNL A   1      39.864  30.151  32.542  1.00  0.00    -0.014 A 
BRANCH  40  41
ATOM     41  C   UNL A   1      41.178  29.474  32.437  1.00  0.00     0.031 A 
ATOM     42  C   UNL A   1      42.198  29.728  33.514  1.00  0.00     0.074 A 
ATOM     43  C   UNL A   1      41.462  28.643  31.418  1.00  0.00     0.049 A 
ATOM     44  N   UNL A   1      43.422  29.283  33.619  1.00  0.00    -0.248 NA
ATOM     45  C   UNL A   1      41.779  30.604  34.621  1.00  0.00     0.031 C 
ATOM     46  C   UNL A   1      40.553  28.301  30.326  1.00  0.00     0.029 A 
ATOM     47  N   UNL A   1      42.614  27.956  31.128  1.00  0.00    -0.354 N 
ATOM     48  C   UNL A   1      43.931  29.851  34.781  1.00  0.00     0.074 A 
ATOM     49  C   UNL A   1      42.887  30.677  35.343  1.00  0.00     0.031 C 
ATOM     50  C   UNL A   1      41.194  27.494  29.464  1.00  0.00     0.029 A 
ATOM     51  C   UNL A   1      42.566  27.287  29.927  1.00  0.00     0.049 A 
ATOM     52  H   UNL A   1      43.399  27.942  31.721  1.00  0.00     0.167 HD
ATOM     53  C   UNL A   1      45.154  29.691  35.337  1.00  0.00     0.034 A 
ATOM     54  C   UNL A   1      43.528  26.613  29.265  1.00  0.00     0.034 A 
ATOM     55  C   UNL A   1      46.189  28.861  34.782  1.00  0.00     0.049 A 
ATOM     56  C   UNL A   1      44.897  26.483  29.887  1.00  0.00     0.074 A 
ATOM     57  C   UNL A   1      47.447  28.599  35.294  1.00  0.00     0.029 A 
ATOM     58  N   UNL A   1      46.093  28.176  33.581  1.00  0.00    -0.354 N 
ATOM     59  N   UNL A   1      45.330  26.933  31.039  1.00  0.00    -0.248 NA
ATOM     60  C   UNL A   1      45.902  25.722  29.128  1.00  0.00     0.031 C 
ATOM     61  C   UNL A   1      48.129  27.790  34.381  1.00  0.00     0.029 A 
ATOM     62  C   UNL A   1      47.277  27.506  33.324  1.00  0.00     0.049 A 
ATOM     63  H   UNL A   1      45.302  28.166  32.997  1.00  0.00     0.167 HD
ATOM     64  C   UNL A   1      46.639  26.480  31.162  1.00  0.00     0.074 A 
ATOM     65  C   UNL A   1      46.923  25.701  29.974  1.00  0.00     0.031 C 
ATOM     66  C   UNL A   1      47.531  26.693  32.162  1.00  0.00     0.034 A 
BRANCH  53  67
ATOM     67  C   UNL A   1      45.443  30.431  36.616  1.00  0.00     0.023 A 
ATOM     68  C   UNL A   1      45.196  29.814  37.859  1.00  0.00     0.012 A 
ATOM     69  C   UNL A   1      46.011  31.721  36.585  1.00  0.00     0.148 A 
ATOM     70  C   UNL A   1      45.477  30.482  39.051  1.00  0.00     0.002 A 
ATOM     71  C   UNL A   1      46.333  32.359  37.775  1.00  0.00     0.091 A 
ATOM     72  F   UNL A   1      46.217  32.299  35.393  1.00  0.00    -0.205 F 
ATOM     73  C   UNL A   1      46.055  31.747  39.009  1.00  0.00     0.022 A 
BRANCH  71  74
ATOM     74  S   UNL A   1      47.156  33.954  37.827  1.00  0.00     0.127 S 
ATOM     75  O   UNL A   1      48.434  33.649  37.185  1.00  0.00    -0.237 OA
ATOM     76  O   UNL A   1      46.256  34.789  37.032  1.00  0.00    -0.237 OA
ATOM     77  O   UNL A   1      47.239  34.319  39.235  1.00  0.00    -0.744 OA
ENDBRANCH  71  74
ENDBRANCH  53  67
BRANCH  54  78
ATOM     78  C   UNL A   1      43.235  25.996  27.940  1.00  0.00     0.023 A 
ATOM     79  C   UNL A   1      43.456  26.735  26.760  1.00  0.00     0.012 A 
ATOM     80  C   UNL A   1      42.736  24.683  27.842  1.00  0.00     0.148 A 
ATOM     81  C   UNL A   1      43.151  26.191  25.512  1.00  0.00     0.002 A 
ATOM     82  C   UNL A   1      42.490  24.125  26.594  1.00  0.00     0.091 A 
ATOM     83  F   UNL A   1      42.516  24.002  28.976  1.00  0.00    -0.205 F 
ATOM     84  C   UNL A   1      42.678  24.884  25.428  1.00  0.00     0.022 A 
BRANCH  82  85
ATOM     85  S   UNL A   1      42.003  22.409  26.382  1.00  0.00     0.127 S 
ATOM     86  O   UNL A   1      40.546  22.506  26.419  1.00  0.00    -0.237 OA
ATOM     87  O   UNL A   1      42.569  22.098  25.069  1.00  0.00    -0.237 OA
ATOM     88  O   UNL A   1      42.616  21.684  27.487  1.00  0.00    -0.744 OA
ENDBRANCH  82  85
ENDBRANCH  54  78
BRANCH  66  89
ATOM     89  C   UNL A   1      48.884  26.037  32.054  1.00  0.00     0.023 A 
ATOM     90  C   UNL A   1      49.892  26.618  31.258  1.00  0.00     0.012 A 
ATOM     91  C   UNL A   1      49.179  24.883  32.807  1.00  0.00     0.148 A 
ATOM     92  C   UNL A   1      51.158  26.039  31.185  1.00  0.00     0.002 A 
ATOM     93  C   UNL A   1      50.458  24.342  32.771  1.00  0.00     0.091 A 
ATOM     94  F   UNL A   1      48.204  24.336  33.547  1.00  0.00    -0.205 F 
ATOM     95  C   UNL A   1      51.445  24.910  31.950  1.00  0.00     0.022 A 
BRANCH  93  96
ATOM     96  S   UNL A   1      50.948  22.952  33.797  1.00  0.00     0.127 S 
ATOM     97  O   UNL A   1      50.812  21.833  32.867  1.00  0.00    -0.237 OA
ATOM     98  O   UNL A   1      52.328  23.294  34.143  1.00  0.00    -0.237 OA
ATOM     99  O   UNL A   1      50.027  22.938  34.926  1.00  0.00    -0.744 OA
ENDBRANCH  93  96
ENDBRANCH  66  89
ENDBRANCH  40  41
ENDBRANCH  33  35
ENDBRANCH  32  33
ENDBRANCH  31  32
ENDBRANCH  30  31
ENDBRANCH  29  30
ENDBRANCH  28  29
ENDBRANCH  27  28
ENDBRANCH  26  27
ENDBRANCH   1  26
TORSDOF 27
ENDMDL
