MODEL 1
REMARK VINA RESULT:      -9.6      0.000      0.000
REMARK SMILES CCC[C@]1(C(=O)OCCOCCOCCOCCOC(=O)c2ccc(-c3c4nc(c(-c5cccc(S(=O)(=O)[O-])c5F)c5ccc([nH]5)c(-c5cccc(S(=O)(=O)[O-])c5F)c5nc(c(-c6cccc(S(=O)(=O)[O-])c6F)c6ccc3[nH]6)C=C5)C=C4)cc2)CCCN(C(=O)c2ccc(NS(=O)(=O)CC)cc2)C1
REMARK SMILES IDX 12 1 11 2 10 3 9 4 8 5 7 6 5 7 6 8 4 9 85 10 103 11 86 12
REMARK SMILES IDX 88 13 87 14 3 15 2 16 1 17 89 18 90 19 91 20 92 21 102 22
REMARK SMILES IDX 93 23 101 24 94 25 95 26 96 28 97 29 98 30 99 31 100 32
REMARK SMILES IDX 13 33 14 34 15 35 16 36 17 37 18 38 19 39 20 40 21 41 22 42
REMARK SMILES IDX 23 43 84 44 24 45 83 46 25 47 26 48 27 49 77 50 28 51 82 52
REMARK SMILES IDX 76 53 78 54 29 55 81 56 75 57 74 58 30 60 62 61 42 62 61 63
REMARK SMILES IDX 43 64 46 65 60 66 79 67 44 68 45 69 59 71 80 72 47 73 31 74
REMARK SMILES IDX 32 75 40 76 33 77 35 78 41 79 34 80 36 81 37 82 38 83 39 84
REMARK SMILES IDX 63 85 64 86 72 87 65 88 67 89 73 90 66 91 68 92 69 93 70 94
REMARK SMILES IDX 71 95 48 96 49 97 57 98 50 99 52 100 58 101 51 102 53 103
REMARK SMILES IDX 54 104 55 105 56 106
REMARK H PARENT 95 27 78 59 46 70
REMARK Flexibility Score: inf
ROOT
ATOM      1  C   UNL A   1      38.329  23.351  26.104  1.00  0.00     0.188 C 
ENDROOT
BRANCH   1   2
ATOM      2  C   UNL A   1      36.922  23.466  25.500  1.00  0.00     0.188 C 
BRANCH   2   3
ATOM      3  O   UNL A   1      36.688  23.237  24.121  1.00  0.00    -0.376 OA
BRANCH   3   4
ATOM      4  C   UNL A   1      35.489  22.634  23.660  1.00  0.00     0.202 C 
BRANCH   4   5
ATOM      5  C   UNL A   1      34.540  23.325  22.664  1.00  0.00     0.261 C 
BRANCH   5   6
ATOM      6  O   UNL A   1      34.317  24.736  22.833  1.00  0.00    -0.463 OA
BRANCH   6   7
ATOM      7  C   UNL A   1      33.288  25.256  22.124  1.00  0.00     0.313 C 
ATOM      8  O   UNL A   1      33.191  25.157  20.903  1.00  0.00    -0.252 OA
BRANCH   7   9
ATOM      9  C   UNL A   1      32.294  26.068  22.971  1.00  0.00     0.086 C 
ATOM     10  C   UNL A   1      31.347  27.068  22.247  1.00  0.00     0.022 C 
ATOM     11  C   UNL A   1      31.371  24.914  23.445  1.00  0.00     0.138 C 
ATOM     12  C   UNL A   1      30.234  27.575  23.173  1.00  0.00     0.023 C 
ATOM     13  N   UNL A   1      30.336  25.414  24.331  1.00  0.00    -0.338 N 
ATOM     14  C   UNL A   1      29.436  26.415  23.752  1.00  0.00     0.120 C 
BRANCH   9  15
ATOM     15  C   UNL A   1      33.062  26.706  24.196  1.00  0.00     0.020 C 
BRANCH  15  16
ATOM     16  C   UNL A   1      34.020  27.905  24.022  1.00  0.00    -0.002 C 
ATOM     17  C   UNL A   1      33.585  29.226  24.644  1.00  0.00     0.004 C 
ENDBRANCH  15  16
ENDBRANCH   9  15
BRANCH  13  18
ATOM     18  C   UNL A   1      30.425  25.049  25.660  1.00  0.00     0.253 C 
ATOM     19  O   UNL A   1      29.794  25.568  26.577  1.00  0.00    -0.269 OA
BRANCH  18  20
ATOM     20  C   UNL A   1      31.250  23.899  26.003  1.00  0.00     0.040 A 
ATOM     21  C   UNL A   1      32.560  24.146  26.399  1.00  0.00     0.016 A 
ATOM     22  C   UNL A   1      30.760  22.605  25.860  1.00  0.00     0.016 A 
ATOM     23  C   UNL A   1      33.416  23.072  26.611  1.00  0.00     0.027 A 
ATOM     24  C   UNL A   1      31.636  21.538  26.040  1.00  0.00     0.027 A 
ATOM     25  C   UNL A   1      32.982  21.768  26.364  1.00  0.00     0.049 A 
BRANCH  25  26
ATOM     26  N   UNL A   1      33.876  20.697  26.079  1.00  0.00    -0.284 N 
ATOM     27  H   UNL A   1      34.696  20.650  26.621  1.00  0.00     0.180 HD
BRANCH  26  28
ATOM     28  S   UNL A   1      33.678  19.523  24.927  1.00  0.00     0.232 S 
ATOM     29  O   UNL A   1      32.844  20.060  23.875  1.00  0.00    -0.207 OA
ATOM     30  O   UNL A   1      35.024  19.073  24.631  1.00  0.00    -0.207 OA
BRANCH  28  31
ATOM     31  C   UNL A   1      32.810  18.147  25.690  1.00  0.00     0.156 C 
ATOM     32  C   UNL A   1      32.771  16.855  24.903  1.00  0.00     0.023 C 
ENDBRANCH  28  31
ENDBRANCH  26  28
ENDBRANCH  25  26
ENDBRANCH  18  20
ENDBRANCH  13  18
ENDBRANCH   7   9
ENDBRANCH   6   7
ENDBRANCH   5   6
ENDBRANCH   4   5
ENDBRANCH   3   4
ENDBRANCH   2   3
ENDBRANCH   1   2
BRANCH   1  33
ATOM     33  O   UNL A   1      38.877  22.055  26.170  1.00  0.00    -0.377 OA
BRANCH  33  34
ATOM     34  C   UNL A   1      40.282  21.953  26.334  1.00  0.00     0.188 C 
BRANCH  34  35
ATOM     35  C   UNL A   1      40.805  21.295  27.624  1.00  0.00     0.188 C 
BRANCH  35  36
ATOM     36  O   UNL A   1      40.777  19.873  27.613  1.00  0.00    -0.376 OA
BRANCH  36  37
ATOM     37  C   UNL A   1      41.997  19.149  27.555  1.00  0.00     0.202 C 
BRANCH  37  38
ATOM     38  C   UNL A   1      42.434  18.549  26.206  1.00  0.00     0.261 C 
BRANCH  38  39
ATOM     39  O   UNL A   1      42.586  19.464  25.110  1.00  0.00    -0.460 OA
BRANCH  39  40
ATOM     40  C   UNL A   1      43.813  19.973  24.880  1.00  0.00     0.338 C 
ATOM     41  O   UNL A   1      44.698  19.467  24.205  1.00  0.00    -0.246 OA
BRANCH  40  42
ATOM     42  C   UNL A   1      43.845  21.357  25.394  1.00  0.00     0.060 A 
ATOM     43  C   UNL A   1      43.527  22.401  24.514  1.00  0.00     0.016 A 
ATOM     44  C   UNL A   1      44.190  21.632  26.720  1.00  0.00     0.016 A 
ATOM     45  C   UNL A   1      43.607  23.723  24.942  1.00  0.00     0.010 A 
ATOM     46  C   UNL A   1      44.296  22.962  27.139  1.00  0.00     0.010 A 
ATOM     47  C   UNL A   1      44.050  24.012  26.238  1.00  0.00    -0.014 A 
BRANCH  47  48
ATOM     48  C   UNL A   1      44.459  25.404  26.550  1.00  0.00     0.031 A 
ATOM     49  C   UNL A   1      43.429  26.335  27.137  1.00  0.00     0.074 A 
ATOM     50  C   UNL A   1      45.733  25.809  26.396  1.00  0.00     0.049 A 
ATOM     51  N   UNL A   1      43.560  27.572  27.535  1.00  0.00    -0.248 NA
ATOM     52  C   UNL A   1      42.068  25.793  27.304  1.00  0.00     0.031 C 
ATOM     53  C   UNL A   1      46.824  24.993  25.868  1.00  0.00     0.029 A 
ATOM     54  N   UNL A   1      46.318  27.019  26.672  1.00  0.00    -0.354 N 
ATOM     55  C   UNL A   1      42.305  27.960  27.990  1.00  0.00     0.074 A 
ATOM     56  C   UNL A   1      41.416  26.838  27.791  1.00  0.00     0.031 C 
ATOM     57  C   UNL A   1      47.947  25.733  25.841  1.00  0.00     0.029 A 
ATOM     58  C   UNL A   1      47.649  27.077  26.330  1.00  0.00     0.049 A 
ATOM     59  H   UNL A   1      45.832  27.774  27.076  1.00  0.00     0.167 HD
ATOM     60  C   UNL A   1      41.929  29.134  28.548  1.00  0.00     0.034 A 
ATOM     61  C   UNL A   1      48.519  28.106  26.393  1.00  0.00     0.034 A 
ATOM     62  C   UNL A   1      42.814  30.248  28.750  1.00  0.00     0.049 A 
ATOM     63  C   UNL A   1      48.053  29.425  26.960  1.00  0.00     0.074 A 
ATOM     64  C   UNL A   1      42.531  31.482  29.308  1.00  0.00     0.029 A 
ATOM     65  N   UNL A   1      44.154  30.269  28.396  1.00  0.00    -0.354 N 
ATOM     66  N   UNL A   1      46.887  29.745  27.466  1.00  0.00    -0.248 NA
ATOM     67  C   UNL A   1      49.040  30.515  26.999  1.00  0.00     0.031 C 
ATOM     68  C   UNL A   1      43.693  32.259  29.266  1.00  0.00     0.029 A 
ATOM     69  C   UNL A   1      44.711  31.493  28.720  1.00  0.00     0.049 A 
ATOM     70  H   UNL A   1      44.638  29.521  27.976  1.00  0.00     0.167 HD
ATOM     71  C   UNL A   1      47.015  31.052  27.926  1.00  0.00     0.074 A 
ATOM     72  C   UNL A   1      48.381  31.454  27.662  1.00  0.00     0.031 C 
ATOM     73  C   UNL A   1      46.087  31.856  28.503  1.00  0.00     0.034 A 
BRANCH  60  74
ATOM     74  C   UNL A   1      40.500  29.265  29.007  1.00  0.00     0.023 A 
ATOM     75  C   UNL A   1      39.483  29.499  28.059  1.00  0.00     0.012 A 
ATOM     76  C   UNL A   1      40.156  29.094  30.362  1.00  0.00     0.148 A 
ATOM     77  C   UNL A   1      38.150  29.588  28.455  1.00  0.00     0.002 A 
ATOM     78  C   UNL A   1      38.820  29.138  30.743  1.00  0.00     0.091 A 
ATOM     79  F   UNL A   1      41.139  28.893  31.250  1.00  0.00    -0.205 F 
ATOM     80  C   UNL A   1      37.817  29.395  29.793  1.00  0.00     0.022 A 
BRANCH  78  81
ATOM     81  S   UNL A   1      38.279  28.828  32.427  1.00  0.00     0.127 S 
ATOM     82  O   UNL A   1      39.039  29.832  33.170  1.00  0.00    -0.237 OA
ATOM     83  O   UNL A   1      36.843  29.092  32.339  1.00  0.00    -0.237 OA
ATOM     84  O   UNL A   1      38.631  27.446  32.717  1.00  0.00    -0.744 OA
ENDBRANCH  78  81
ENDBRANCH  60  74
BRANCH  61  85
ATOM     85  C   UNL A   1      49.926  27.945  25.925  1.00  0.00     0.023 A 
ATOM     86  C   UNL A   1      50.232  28.091  24.557  1.00  0.00     0.012 A 
ATOM     87  C   UNL A   1      50.956  27.603  26.824  1.00  0.00     0.148 A 
ATOM     88  C   UNL A   1      51.523  27.844  24.086  1.00  0.00     0.002 A 
ATOM     89  C   UNL A   1      52.252  27.421  26.356  1.00  0.00     0.091 A 
ATOM     90  F   UNL A   1      50.646  27.451  28.119  1.00  0.00    -0.205 F 
ATOM     91  C   UNL A   1      52.534  27.517  24.984  1.00  0.00     0.022 A 
BRANCH  89  92
ATOM     92  S   UNL A   1      53.636  27.121  27.459  1.00  0.00     0.127 S 
ATOM     93  O   UNL A   1      54.630  26.558  26.548  1.00  0.00    -0.237 OA
ATOM     94  O   UNL A   1      53.935  28.468  27.942  1.00  0.00    -0.237 OA
ATOM     95  O   UNL A   1      53.132  26.215  28.484  1.00  0.00    -0.744 OA
ENDBRANCH  89  92
ENDBRANCH  61  85
BRANCH  73  96
ATOM     96  C   UNL A   1      46.530  33.228  28.945  1.00  0.00     0.023 A 
ATOM     97  C   UNL A   1      47.072  33.420  30.232  1.00  0.00     0.012 A 
ATOM     98  C   UNL A   1      46.449  34.324  28.062  1.00  0.00     0.148 A 
ATOM     99  C   UNL A   1      47.477  34.687  30.650  1.00  0.00     0.002 A 
ATOM    100  C   UNL A   1      46.907  35.572  28.465  1.00  0.00     0.091 A 
ATOM    101  F   UNL A   1      45.918  34.128  26.846  1.00  0.00    -0.205 F 
ATOM    102  C   UNL A   1      47.403  35.759  29.765  1.00  0.00     0.022 A 
BRANCH 100 103
ATOM    103  S   UNL A   1      46.945  36.988  27.361  1.00  0.00     0.127 S 
ATOM    104  O   UNL A   1      47.572  36.421  26.170  1.00  0.00    -0.237 OA
ATOM    105  O   UNL A   1      45.522  37.301  27.213  1.00  0.00    -0.237 OA
ATOM    106  O   UNL A   1      47.720  38.012  28.049  1.00  0.00    -0.744 OA
ENDBRANCH 100 103
ENDBRANCH  73  96
ENDBRANCH  47  48
ENDBRANCH  40  42
ENDBRANCH  39  40
ENDBRANCH  38  39
ENDBRANCH  37  38
ENDBRANCH  36  37
ENDBRANCH  35  36
ENDBRANCH  34  35
ENDBRANCH  33  34
ENDBRANCH   1  33
TORSDOF 30
ENDMDL
MODEL 2
REMARK VINA RESULT:      -8.8      2.618      3.911
REMARK SMILES CCC[C@]1(C(=O)OCCOCCOCCOCCOC(=O)c2ccc(-c3c4nc(c(-c5cccc(S(=O)(=O)[O-])c5F)c5ccc([nH]5)c(-c5cccc(S(=O)(=O)[O-])c5F)c5nc(c(-c6cccc(S(=O)(=O)[O-])c6F)c6ccc3[nH]6)C=C5)C=C4)cc2)CCCN(C(=O)c2ccc(NS(=O)(=O)CC)cc2)C1
REMARK SMILES IDX 12 1 11 2 10 3 9 4 8 5 7 6 5 7 6 8 4 9 85 10 103 11 86 12
REMARK SMILES IDX 88 13 87 14 3 15 2 16 1 17 89 18 90 19 91 20 92 21 102 22
REMARK SMILES IDX 93 23 101 24 94 25 95 26 96 28 97 29 98 30 99 31 100 32
REMARK SMILES IDX 13 33 14 34 15 35 16 36 17 37 18 38 19 39 20 40 21 41 22 42
REMARK SMILES IDX 23 43 84 44 24 45 83 46 25 47 26 48 27 49 77 50 28 51 82 52
REMARK SMILES IDX 76 53 78 54 29 55 81 56 75 57 74 58 30 60 62 61 42 62 61 63
REMARK SMILES IDX 43 64 46 65 60 66 79 67 44 68 45 69 59 71 80 72 47 73 31 74
REMARK SMILES IDX 32 75 40 76 33 77 35 78 41 79 34 80 36 81 37 82 38 83 39 84
REMARK SMILES IDX 63 85 64 86 72 87 65 88 67 89 73 90 66 91 68 92 69 93 70 94
REMARK SMILES IDX 71 95 48 96 49 97 57 98 50 99 52 100 58 101 51 102 53 103
REMARK SMILES IDX 54 104 55 105 56 106
REMARK H PARENT 95 27 78 59 46 70
REMARK Flexibility Score: inf
ROOT
ATOM      1  C   UNL A   1      37.731  23.441  25.594  1.00  0.00     0.188 C 
ENDROOT
BRANCH   1   2
ATOM      2  C   UNL A   1      36.275  23.864  25.838  1.00  0.00     0.188 C 
BRANCH   2   3
ATOM      3  O   UNL A   1      35.280  22.920  26.194  1.00  0.00    -0.376 OA
BRANCH   3   4
ATOM      4  C   UNL A   1      34.091  23.308  26.864  1.00  0.00     0.202 C 
BRANCH   4   5
ATOM      5  C   UNL A   1      33.142  24.389  26.314  1.00  0.00     0.261 C 
BRANCH   5   6
ATOM      6  O   UNL A   1      33.589  25.754  26.370  1.00  0.00    -0.463 OA
BRANCH   6   7
ATOM      7  C   UNL A   1      32.627  26.693  26.217  1.00  0.00     0.313 C 
ATOM      8  O   UNL A   1      31.895  27.066  27.130  1.00  0.00    -0.252 OA
BRANCH   7   9
ATOM      9  C   UNL A   1      32.463  27.188  24.770  1.00  0.00     0.086 C 
ATOM     10  C   UNL A   1      32.790  28.675  24.453  1.00  0.00     0.022 C 
ATOM     11  C   UNL A   1      33.602  26.376  24.099  1.00  0.00     0.138 C 
ATOM     12  C   UNL A   1      32.861  28.937  22.943  1.00  0.00     0.023 C 
ATOM     13  N   UNL A   1      33.640  26.626  22.670  1.00  0.00    -0.338 N 
ATOM     14  C   UNL A   1      33.876  28.018  22.277  1.00  0.00     0.120 C 
BRANCH   9  15
ATOM     15  C   UNL A   1      31.053  26.726  24.224  1.00  0.00     0.020 C 
BRANCH  15  16
ATOM     16  C   UNL A   1      29.793  27.606  24.376  1.00  0.00    -0.002 C 
ATOM     17  C   UNL A   1      28.972  27.851  23.116  1.00  0.00     0.004 C 
ENDBRANCH  15  16
ENDBRANCH   9  15
BRANCH  13  18
ATOM     18  C   UNL A   1      33.262  25.586  21.845  1.00  0.00     0.253 C 
ATOM     19  O   UNL A   1      33.160  25.656  20.623  1.00  0.00    -0.269 OA
BRANCH  18  20
ATOM     20  C   UNL A   1      33.062  24.272  22.443  1.00  0.00     0.040 A 
ATOM     21  C   UNL A   1      34.183  23.466  22.607  1.00  0.00     0.016 A 
ATOM     22  C   UNL A   1      31.785  23.822  22.758  1.00  0.00     0.016 A 
ATOM     23  C   UNL A   1      34.018  22.161  23.054  1.00  0.00     0.027 A 
ATOM     24  C   UNL A   1      31.627  22.502  23.170  1.00  0.00     0.027 A 
ATOM     25  C   UNL A   1      32.736  21.649  23.268  1.00  0.00     0.049 A 
BRANCH  25  26
ATOM     26  N   UNL A   1      32.446  20.255  23.240  1.00  0.00    -0.284 N 
ATOM     27  H   UNL A   1      31.829  19.946  22.537  1.00  0.00     0.180 HD
BRANCH  26  28
ATOM     28  S   UNL A   1      33.039  19.100  24.268  1.00  0.00     0.232 S 
ATOM     29  O   UNL A   1      34.355  19.515  24.701  1.00  0.00    -0.207 OA
ATOM     30  O   UNL A   1      31.982  18.900  25.240  1.00  0.00    -0.207 OA
BRANCH  28  31
ATOM     31  C   UNL A   1      33.205  17.572  23.338  1.00  0.00     0.156 C 
ATOM     32  C   UNL A   1      33.963  16.450  24.014  1.00  0.00     0.023 C 
ENDBRANCH  28  31
ENDBRANCH  26  28
ENDBRANCH  25  26
ENDBRANCH  18  20
ENDBRANCH  13  18
ENDBRANCH   7   9
ENDBRANCH   6   7
ENDBRANCH   5   6
ENDBRANCH   4   5
ENDBRANCH   3   4
ENDBRANCH   2   3
ENDBRANCH   1   2
BRANCH   1  33
ATOM     33  O   UNL A   1      38.060  22.112  25.928  1.00  0.00    -0.377 OA
BRANCH  33  34
ATOM     34  C   UNL A   1      39.437  21.783  25.993  1.00  0.00     0.188 C 
BRANCH  34  35
ATOM     35  C   UNL A   1      40.171  22.041  27.323  1.00  0.00     0.188 C 
BRANCH  35  36
ATOM     36  O   UNL A   1      41.425  21.381  27.441  1.00  0.00    -0.376 OA
BRANCH  36  37
ATOM     37  C   UNL A   1      42.603  22.029  26.984  1.00  0.00     0.202 C 
BRANCH  37  38
ATOM     38  C   UNL A   1      43.146  21.674  25.589  1.00  0.00     0.261 C 
BRANCH  38  39
ATOM     39  O   UNL A   1      44.172  22.526  25.057  1.00  0.00    -0.460 OA
BRANCH  39  40
ATOM     40  C   UNL A   1      45.319  22.641  25.754  1.00  0.00     0.338 C 
ATOM     41  O   UNL A   1      46.146  21.761  25.949  1.00  0.00    -0.246 OA
BRANCH  40  42
ATOM     42  C   UNL A   1      45.535  24.069  26.061  1.00  0.00     0.060 A 
ATOM     43  C   UNL A   1      45.954  24.417  27.352  1.00  0.00     0.016 A 
ATOM     44  C   UNL A   1      45.323  25.059  25.097  1.00  0.00     0.016 A 
ATOM     45  C   UNL A   1      46.107  25.756  27.700  1.00  0.00     0.010 A 
ATOM     46  C   UNL A   1      45.451  26.405  25.456  1.00  0.00     0.010 A 
ATOM     47  C   UNL A   1      45.799  26.758  26.772  1.00  0.00    -0.014 A 
BRANCH  47  48
ATOM     48  C   UNL A   1      45.632  28.148  27.263  1.00  0.00     0.031 A 
ATOM     49  C   UNL A   1      44.287  28.555  27.808  1.00  0.00     0.074 A 
ATOM     50  C   UNL A   1      46.669  29.004  27.302  1.00  0.00     0.049 A 
ATOM     51  N   UNL A   1      43.915  29.691  28.336  1.00  0.00    -0.248 NA
ATOM     52  C   UNL A   1      43.219  27.540  27.758  1.00  0.00     0.031 C 
ATOM     53  C   UNL A   1      48.023  28.718  26.832  1.00  0.00     0.029 A 
ATOM     54  N   UNL A   1      46.737  30.295  27.761  1.00  0.00    -0.354 N 
ATOM     55  C   UNL A   1      42.575  29.533  28.672  1.00  0.00     0.074 A 
ATOM     56  C   UNL A   1      42.189  28.202  28.262  1.00  0.00     0.031 C 
ATOM     57  C   UNL A   1      48.786  29.810  27.012  1.00  0.00     0.029 A 
ATOM     58  C   UNL A   1      47.971  30.877  27.589  1.00  0.00     0.049 A 
ATOM     59  H   UNL A   1      45.974  30.762  28.174  1.00  0.00     0.167 HD
ATOM     60  C   UNL A   1      41.746  30.405  29.291  1.00  0.00     0.034 A 
ATOM     61  C   UNL A   1      48.385  32.133  27.854  1.00  0.00     0.034 A 
ATOM     62  C   UNL A   1      42.132  31.726  29.704  1.00  0.00     0.049 A 
ATOM     63  C   UNL A   1      47.418  33.105  28.485  1.00  0.00     0.074 A 
ATOM     64  C   UNL A   1      41.367  32.687  30.341  1.00  0.00     0.029 A 
ATOM     65  N   UNL A   1      43.389  32.278  29.517  1.00  0.00    -0.354 N 
ATOM     66  N   UNL A   1      46.182  32.910  28.876  1.00  0.00    -0.248 NA
ATOM     67  C   UNL A   1      47.919  34.463  28.746  1.00  0.00     0.031 C 
ATOM     68  C   UNL A   1      42.153  33.830  30.513  1.00  0.00     0.029 A 
ATOM     69  C   UNL A   1      43.421  33.566  30.021  1.00  0.00     0.049 A 
ATOM     70  H   UNL A   1      44.149  31.820  29.089  1.00  0.00     0.167 HD
ATOM     71  C   UNL A   1      45.777  34.100  29.471  1.00  0.00     0.074 A 
ATOM     72  C   UNL A   1      46.908  35.002  29.413  1.00  0.00     0.031 C 
ATOM     73  C   UNL A   1      44.574  34.428  30.007  1.00  0.00     0.034 A 
BRANCH  60  74
ATOM     74  C   UNL A   1      40.342  29.946  29.587  1.00  0.00     0.023 A 
ATOM     75  C   UNL A   1      39.424  29.789  28.528  1.00  0.00     0.012 A 
ATOM     76  C   UNL A   1      39.949  29.610  30.897  1.00  0.00     0.148 A 
ATOM     77  C   UNL A   1      38.130  29.332  28.771  1.00  0.00     0.002 A 
ATOM     78  C   UNL A   1      38.673  29.111  31.126  1.00  0.00     0.091 A 
ATOM     79  F   UNL A   1      40.830  29.786  31.891  1.00  0.00    -0.205 F 
ATOM     80  C   UNL A   1      37.759  28.981  30.066  1.00  0.00     0.022 A 
BRANCH  78  81
ATOM     81  S   UNL A   1      38.120  28.559  32.743  1.00  0.00     0.127 S 
ATOM     82  O   UNL A   1      39.089  29.212  33.623  1.00  0.00    -0.237 OA
ATOM     83  O   UNL A   1      36.768  29.113  32.808  1.00  0.00    -0.237 OA
ATOM     84  O   UNL A   1      38.187  27.105  32.719  1.00  0.00    -0.744 OA
ENDBRANCH  78  81
ENDBRANCH  60  74
BRANCH  61  85
ATOM     85  C   UNL A   1      49.781  32.557  27.545  1.00  0.00     0.023 A 
ATOM     86  C   UNL A   1      50.822  32.256  28.447  1.00  0.00     0.012 A 
ATOM     87  C   UNL A   1      50.076  33.298  26.384  1.00  0.00     0.148 A 
ATOM     88  C   UNL A   1      52.115  32.732  28.226  1.00  0.00     0.002 A 
ATOM     89  C   UNL A   1      51.379  33.715  26.139  1.00  0.00     0.091 A 
ATOM     90  F   UNL A   1      49.073  33.591  25.544  1.00  0.00    -0.205 F 
ATOM     91  C   UNL A   1      52.396  33.454  27.070  1.00  0.00     0.022 A 
BRANCH  89  92
ATOM     92  S   UNL A   1      51.852  34.540  24.617  1.00  0.00     0.127 S 
ATOM     93  O   UNL A   1      53.199  35.008  24.934  1.00  0.00    -0.237 OA
ATOM     94  O   UNL A   1      51.791  33.446  23.648  1.00  0.00    -0.237 OA
ATOM     95  O   UNL A   1      50.853  35.581  24.408  1.00  0.00    -0.744 OA
ENDBRANCH  89  92
ENDBRANCH  61  85
BRANCH  73  96
ATOM     96  C   UNL A   1      44.436  35.796  30.629  1.00  0.00     0.023 A 
ATOM     97  C   UNL A   1      44.690  35.980  32.003  1.00  0.00     0.012 A 
ATOM     98  C   UNL A   1      44.097  36.910  29.835  1.00  0.00     0.148 A 
ATOM     99  C   UNL A   1      44.558  37.240  32.586  1.00  0.00     0.002 A 
ATOM    100  C   UNL A   1      44.023  38.172  30.412  1.00  0.00     0.091 A 
ATOM    101  F   UNL A   1      43.845  36.715  28.532  1.00  0.00    -0.205 F 
ATOM    102  C   UNL A   1      44.233  38.336  31.789  1.00  0.00     0.022 A 
BRANCH 100 103
ATOM    103  S   UNL A   1      43.710  39.655  29.448  1.00  0.00     0.127 S 
ATOM    104  O   UNL A   1      44.853  39.666  28.538  1.00  0.00    -0.237 OA
ATOM    105  O   UNL A   1      42.427  39.347  28.815  1.00  0.00    -0.237 OA
ATOM    106  O   UNL A   1      43.663  40.753  30.405  1.00  0.00    -0.744 OA
ENDBRANCH 100 103
ENDBRANCH  73  96
ENDBRANCH  47  48
ENDBRANCH  40  42
ENDBRANCH  39  40
ENDBRANCH  38  39
ENDBRANCH  37  38
ENDBRANCH  36  37
ENDBRANCH  35  36
ENDBRANCH  34  35
ENDBRANCH  33  34
ENDBRANCH   1  33
TORSDOF 30
ENDMDL
MODEL 3
REMARK VINA RESULT:      -8.6      2.307      5.249
REMARK SMILES CCC[C@]1(C(=O)OCCOCCOCCOCCOC(=O)c2ccc(-c3c4nc(c(-c5cccc(S(=O)(=O)[O-])c5F)c5ccc([nH]5)c(-c5cccc(S(=O)(=O)[O-])c5F)c5nc(c(-c6cccc(S(=O)(=O)[O-])c6F)c6ccc3[nH]6)C=C5)C=C4)cc2)CCCN(C(=O)c2ccc(NS(=O)(=O)CC)cc2)C1
REMARK SMILES IDX 12 1 11 2 10 3 9 4 8 5 7 6 5 7 6 8 4 9 85 10 103 11 86 12
REMARK SMILES IDX 88 13 87 14 3 15 2 16 1 17 89 18 90 19 91 20 92 21 102 22
REMARK SMILES IDX 93 23 101 24 94 25 95 26 96 28 97 29 98 30 99 31 100 32
REMARK SMILES IDX 13 33 14 34 15 35 16 36 17 37 18 38 19 39 20 40 21 41 22 42
REMARK SMILES IDX 23 43 84 44 24 45 83 46 25 47 26 48 27 49 77 50 28 51 82 52
REMARK SMILES IDX 76 53 78 54 29 55 81 56 75 57 74 58 30 60 62 61 42 62 61 63
REMARK SMILES IDX 43 64 46 65 60 66 79 67 44 68 45 69 59 71 80 72 47 73 31 74
REMARK SMILES IDX 32 75 40 76 33 77 35 78 41 79 34 80 36 81 37 82 38 83 39 84
REMARK SMILES IDX 63 85 64 86 72 87 65 88 67 89 73 90 66 91 68 92 69 93 70 94
REMARK SMILES IDX 71 95 48 96 49 97 57 98 50 99 52 100 58 101 51 102 53 103
REMARK SMILES IDX 54 104 55 105 56 106
REMARK H PARENT 95 27 78 59 46 70
REMARK Flexibility Score: inf
ROOT
ATOM      1  C   UNL A   1      37.750  23.251  25.763  1.00  0.00     0.188 C 
ENDROOT
BRANCH   1   2
ATOM      2  C   UNL A   1      36.311  23.720  26.025  1.00  0.00     0.188 C 
BRANCH   2   3
ATOM      3  O   UNL A   1      35.236  22.799  26.103  1.00  0.00    -0.376 OA
BRANCH   3   4
ATOM      4  C   UNL A   1      34.040  23.109  26.802  1.00  0.00     0.202 C 
BRANCH   4   5
ATOM      5  C   UNL A   1      32.973  24.065  26.239  1.00  0.00     0.261 C 
BRANCH   5   6
ATOM      6  O   UNL A   1      33.244  25.476  26.312  1.00  0.00    -0.463 OA
BRANCH   6   7
ATOM      7  C   UNL A   1      32.156  26.281  26.340  1.00  0.00     0.313 C 
ATOM      8  O   UNL A   1      31.025  25.879  26.601  1.00  0.00    -0.252 OA
BRANCH   7   9
ATOM      9  C   UNL A   1      32.443  27.733  25.922  1.00  0.00     0.086 C 
ATOM     10  C   UNL A   1      31.254  28.617  25.450  1.00  0.00     0.022 C 
ATOM     11  C   UNL A   1      32.852  28.312  27.301  1.00  0.00     0.138 C 
ATOM     12  C   UNL A   1      31.645  30.098  25.351  1.00  0.00     0.023 C 
ATOM     13  N   UNL A   1      33.233  29.708  27.180  1.00  0.00    -0.338 N 
ATOM     14  C   UNL A   1      32.192  30.608  26.677  1.00  0.00     0.120 C 
BRANCH   9  15
ATOM     15  C   UNL A   1      33.670  27.748  24.925  1.00  0.00     0.020 C 
BRANCH  15  16
ATOM     16  C   UNL A   1      33.498  27.463  23.417  1.00  0.00    -0.002 C 
ATOM     17  C   UNL A   1      32.360  26.531  23.020  1.00  0.00     0.004 C 
ENDBRANCH  15  16
ENDBRANCH   9  15
BRANCH  13  18
ATOM     18  C   UNL A   1      34.569  30.006  27.362  1.00  0.00     0.253 C 
ATOM     19  O   UNL A   1      35.505  29.327  26.951  1.00  0.00    -0.269 OA
BRANCH  18  20
ATOM     20  C   UNL A   1      34.910  31.270  28.002  1.00  0.00     0.040 A 
ATOM     21  C   UNL A   1      36.188  31.772  27.786  1.00  0.00     0.016 A 
ATOM     22  C   UNL A   1      34.011  31.899  28.857  1.00  0.00     0.016 A 
ATOM     23  C   UNL A   1      36.595  32.905  28.479  1.00  0.00     0.027 A 
ATOM     24  C   UNL A   1      34.441  33.012  29.573  1.00  0.00     0.027 A 
ATOM     25  C   UNL A   1      35.753  33.489  29.428  1.00  0.00     0.049 A 
BRANCH  25  26
ATOM     26  N   UNL A   1      36.235  34.300  30.495  1.00  0.00    -0.284 N 
ATOM     27  H   UNL A   1      36.368  35.256  30.298  1.00  0.00     0.180 HD
BRANCH  26  28
ATOM     28  S   UNL A   1      36.597  33.801  32.032  1.00  0.00     0.232 S 
ATOM     29  O   UNL A   1      37.030  32.423  31.968  1.00  0.00    -0.207 OA
ATOM     30  O   UNL A   1      37.488  34.822  32.546  1.00  0.00    -0.207 OA
BRANCH  28  31
ATOM     31  C   UNL A   1      35.085  33.874  33.002  1.00  0.00     0.156 C 
ATOM     32  C   UNL A   1      35.057  34.883  34.130  1.00  0.00     0.023 C 
ENDBRANCH  28  31
ENDBRANCH  26  28
ENDBRANCH  25  26
ENDBRANCH  18  20
ENDBRANCH  13  18
ENDBRANCH   7   9
ENDBRANCH   6   7
ENDBRANCH   5   6
ENDBRANCH   4   5
ENDBRANCH   3   4
ENDBRANCH   2   3
ENDBRANCH   1   2
BRANCH   1  33
ATOM     33  O   UNL A   1      38.015  21.887  25.994  1.00  0.00    -0.377 OA
BRANCH  33  34
ATOM     34  C   UNL A   1      39.335  21.432  25.744  1.00  0.00     0.188 C 
BRANCH  34  35
ATOM     35  C   UNL A   1      40.306  21.370  26.938  1.00  0.00     0.188 C 
BRANCH  35  36
ATOM     36  O   UNL A   1      40.471  20.071  27.495  1.00  0.00    -0.376 OA
BRANCH  36  37
ATOM     37  C   UNL A   1      41.766  19.494  27.555  1.00  0.00     0.202 C 
BRANCH  37  38
ATOM     38  C   UNL A   1      42.295  18.742  26.320  1.00  0.00     0.261 C 
BRANCH  38  39
ATOM     39  O   UNL A   1      42.536  19.523  25.141  1.00  0.00    -0.460 OA
BRANCH  39  40
ATOM     40  C   UNL A   1      43.782  19.999  24.944  1.00  0.00     0.338 C 
ATOM     41  O   UNL A   1      44.665  19.480  24.276  1.00  0.00    -0.246 OA
BRANCH  40  42
ATOM     42  C   UNL A   1      43.845  21.372  25.485  1.00  0.00     0.060 A 
ATOM     43  C   UNL A   1      43.479  22.434  24.648  1.00  0.00     0.016 A 
ATOM     44  C   UNL A   1      44.265  21.617  26.795  1.00  0.00     0.016 A 
ATOM     45  C   UNL A   1      43.586  23.747  25.099  1.00  0.00     0.010 A 
ATOM     46  C   UNL A   1      44.397  22.938  27.237  1.00  0.00     0.010 A 
ATOM     47  C   UNL A   1      44.102  24.008  26.374  1.00  0.00    -0.014 A 
BRANCH  47  48
ATOM     48  C   UNL A   1      44.530  25.392  26.693  1.00  0.00     0.031 A 
ATOM     49  C   UNL A   1      43.534  26.313  27.349  1.00  0.00     0.074 A 
ATOM     50  C   UNL A   1      45.795  25.798  26.483  1.00  0.00     0.049 A 
ATOM     51  N   UNL A   1      43.689  27.542  27.764  1.00  0.00    -0.248 NA
ATOM     52  C   UNL A   1      42.182  25.771  27.574  1.00  0.00     0.031 C 
ATOM     53  C   UNL A   1      46.856  24.991  25.883  1.00  0.00     0.029 A 
ATOM     54  N   UNL A   1      46.398  27.001  26.752  1.00  0.00    -0.354 N 
ATOM     55  C   UNL A   1      42.459  27.923  28.289  1.00  0.00     0.074 A 
ATOM     56  C   UNL A   1      41.558  26.806  28.114  1.00  0.00     0.031 C 
ATOM     57  C   UNL A   1      47.978  25.728  25.815  1.00  0.00     0.029 A 
ATOM     58  C   UNL A   1      47.710  27.064  26.345  1.00  0.00     0.049 A 
ATOM     59  H   UNL A   1      45.935  27.749  27.195  1.00  0.00     0.167 HD
ATOM     60  C   UNL A   1      42.115  29.086  28.889  1.00  0.00     0.034 A 
ATOM     61  C   UNL A   1      48.584  28.089  26.384  1.00  0.00     0.034 A 
ATOM     62  C   UNL A   1      43.012  30.195  29.068  1.00  0.00     0.049 A 
ATOM     63  C   UNL A   1      48.152  29.397  27.000  1.00  0.00     0.074 A 
ATOM     64  C   UNL A   1      42.761  31.417  29.665  1.00  0.00     0.029 A 
ATOM     65  N   UNL A   1      44.332  30.219  28.647  1.00  0.00    -0.354 N 
ATOM     66  N   UNL A   1      47.013  29.710  27.571  1.00  0.00    -0.248 NA
ATOM     67  C   UNL A   1      49.143  30.484  27.011  1.00  0.00     0.031 C 
ATOM     68  C   UNL A   1      43.922  32.192  29.579  1.00  0.00     0.029 A 
ATOM     69  C   UNL A   1      44.908  31.437  28.967  1.00  0.00     0.049 A 
ATOM     70  H   UNL A   1      44.793  29.480  28.189  1.00  0.00     0.167 HD
ATOM     71  C   UNL A   1      47.169  31.007  28.049  1.00  0.00     0.074 A 
ATOM     72  C   UNL A   1      48.520  31.412  27.725  1.00  0.00     0.031 C 
ATOM     73  C   UNL A   1      46.273  31.801  28.689  1.00  0.00     0.034 A 
BRANCH  60  74
ATOM     74  C   UNL A   1      40.712  29.211  29.423  1.00  0.00     0.023 A 
ATOM     75  C   UNL A   1      39.633  29.334  28.523  1.00  0.00     0.012 A 
ATOM     76  C   UNL A   1      40.453  29.141  30.806  1.00  0.00     0.148 A 
ATOM     77  C   UNL A   1      38.323  29.415  28.991  1.00  0.00     0.002 A 
ATOM     78  C   UNL A   1      39.141  29.175  31.262  1.00  0.00     0.091 A 
ATOM     79  F   UNL A   1      41.493  29.044  31.645  1.00  0.00    -0.205 F 
ATOM     80  C   UNL A   1      38.076  29.322  30.358  1.00  0.00     0.022 A 
BRANCH  78  81
ATOM     81  S   UNL A   1      38.710  28.989  32.996  1.00  0.00     0.127 S 
ATOM     82  O   UNL A   1      37.334  28.503  32.906  1.00  0.00    -0.237 OA
ATOM     83  O   UNL A   1      39.681  27.990  33.445  1.00  0.00    -0.237 OA
ATOM     84  O   UNL A   1      38.864  30.306  33.595  1.00  0.00    -0.744 OA
ENDBRANCH  78  81
ENDBRANCH  60  74
BRANCH  61  85
ATOM     85  C   UNL A   1      49.966  27.935  25.843  1.00  0.00     0.023 A 
ATOM     86  C   UNL A   1      50.201  28.097  24.462  1.00  0.00     0.012 A 
ATOM     87  C   UNL A   1      51.041  27.584  26.683  1.00  0.00     0.148 A 
ATOM     88  C   UNL A   1      51.466  27.857  23.922  1.00  0.00     0.002 A 
ATOM     89  C   UNL A   1      52.312  27.408  26.147  1.00  0.00     0.091 A 
ATOM     90  F   UNL A   1      50.798  27.417  27.991  1.00  0.00    -0.205 F 
ATOM     91  C   UNL A   1      52.522  27.521  24.764  1.00  0.00     0.022 A 
BRANCH  89  92
ATOM     92  S   UNL A   1      53.751  27.098  27.173  1.00  0.00     0.127 S 
ATOM     93  O   UNL A   1      53.201  26.219  28.203  1.00  0.00    -0.237 OA
ATOM     94  O   UNL A   1      54.661  26.448  26.230  1.00  0.00    -0.237 OA
ATOM     95  O   UNL A   1      54.197  28.408  27.630  1.00  0.00    -0.744 OA
ENDBRANCH  89  92
ENDBRANCH  61  85
BRANCH  73  96
ATOM     96  C   UNL A   1      46.742  33.163  29.135  1.00  0.00     0.023 A 
ATOM     97  C   UNL A   1      47.443  33.311  30.348  1.00  0.00     0.012 A 
ATOM     98  C   UNL A   1      46.523  34.295  28.323  1.00  0.00     0.148 A 
ATOM     99  C   UNL A   1      47.873  34.569  30.770  1.00  0.00     0.002 A 
ATOM    100  C   UNL A   1      47.004  35.535  28.723  1.00  0.00     0.091 A 
ATOM    101  F   UNL A   1      45.841  34.139  27.178  1.00  0.00    -0.205 F 
ATOM    102  C   UNL A   1      47.662  35.677  29.955  1.00  0.00     0.022 A 
BRANCH 100 103
ATOM    103  S   UNL A   1      46.868  37.000  27.693  1.00  0.00     0.127 S 
ATOM    104  O   UNL A   1      45.730  37.686  28.300  1.00  0.00    -0.237 OA
ATOM    105  O   UNL A   1      48.160  37.651  27.910  1.00  0.00    -0.237 OA
ATOM    106  O   UNL A   1      46.655  36.517  26.335  1.00  0.00    -0.744 OA
ENDBRANCH 100 103
ENDBRANCH  73  96
ENDBRANCH  47  48
ENDBRANCH  40  42
ENDBRANCH  39  40
ENDBRANCH  38  39
ENDBRANCH  37  38
ENDBRANCH  36  37
ENDBRANCH  35  36
ENDBRANCH  34  35
ENDBRANCH  33  34
ENDBRANCH   1  33
TORSDOF 30
ENDMDL
