MODEL 1
REMARK VINA RESULT:     -10.5      0.000      0.000
REMARK SMILES CC[C@](C)(NC(=O)N[C@@H]1C=CS(=O)(=O)C1)C(=O)OCCOCCOCCOCCOC(=O)c1ccc(-c2c3nc(c(-c4cccc(S(=O)(=O)[O-])c4F)c4ccc([nH]4)c(-c4cccc(S(=O)(=O)[O-])c4F)c4nc(c(-c5cccc(S(=O)(=O)[O-])c5F)c5ccc2[nH]5)C=C4)C=C3)cc1
REMARK SMILES IDX 25 1 24 2 23 3 22 4 21 5 20 6 19 7 18 8 16 9 17 10 3 11 4 12
REMARK SMILES IDX 2 13 1 14 5 15 6 16 7 18 8 19 9 21 10 22 15 23 11 24 12 25
REMARK SMILES IDX 13 26 14 27 26 28 27 29 28 30 29 31 30 32 31 33 32 34 33 35
REMARK SMILES IDX 34 36 95 37 35 38 94 39 36 40 37 41 38 42 88 43 39 44 93 45
REMARK SMILES IDX 87 46 89 47 40 48 92 49 86 50 85 51 41 53 73 54 53 55 72 56
REMARK SMILES IDX 54 57 57 58 71 59 90 60 55 61 56 62 70 64 91 65 58 66 42 67
REMARK SMILES IDX 43 68 51 69 44 70 46 71 52 72 45 73 47 74 48 75 49 76 50 77
REMARK SMILES IDX 74 78 75 79 83 80 76 81 78 82 84 83 77 84 79 85 80 86 81 87
REMARK SMILES IDX 82 88 59 89 60 90 68 91 61 92 63 93 69 94 62 95 64 96 65 97
REMARK SMILES IDX 66 98 67 99
REMARK H PARENT 5 17 8 20 89 52 57 63
REMARK Flexibility Score: inf
ROOT
ATOM      1  C   UNL A   1      34.684  29.965  27.505  1.00  0.00     0.188 C 
ENDROOT
BRANCH   1   2
ATOM      2  O   UNL A   1      33.854  28.845  27.359  1.00  0.00    -0.377 OA
BRANCH   2   3
ATOM      3  C   UNL A   1      33.520  28.400  26.064  1.00  0.00     0.188 C 
BRANCH   3   4
ATOM      4  C   UNL A   1      33.688  29.318  24.834  1.00  0.00     0.188 C 
BRANCH   4   5
ATOM      5  O   UNL A   1      32.883  29.234  23.659  1.00  0.00    -0.376 OA
BRANCH   5   6
ATOM      6  C   UNL A   1      33.243  28.814  22.345  1.00  0.00     0.202 C 
BRANCH   6   7
ATOM      7  C   UNL A   1      33.886  27.276  21.980  1.00  0.00     0.261 C 
BRANCH   7   8
ATOM      8  O   UNL A   1      33.741  25.490  22.963  1.00  0.00    -0.462 OA
BRANCH   8   9
ATOM      9  C   UNL A   1      33.649  23.946  22.876  1.00  0.00     0.331 C 
ATOM     10  O   UNL A   1      33.280  23.456  21.806  1.00  0.00    -0.249 OA
BRANCH   9  11
ATOM     11  C   UNL A   1      34.183  22.906  24.179  1.00  0.00     0.136 C 
ATOM     12  C   UNL A   1      34.119  23.666  25.542  1.00  0.00     0.047 C 
BRANCH  11  13
ATOM     13  C   UNL A   1      35.704  22.779  23.819  1.00  0.00     0.037 C 
ATOM     14  C   UNL A   1      36.397  21.642  24.566  1.00  0.00     0.007 C 
ENDBRANCH  11  13
BRANCH  11  15
ATOM     15  N   UNL A   1      33.819  21.438  24.559  1.00  0.00    -0.322 N 
ATOM     16  C   UNL A   1      32.863  20.787  25.278  1.00  0.00     0.316 C 
ATOM     17  H   UNL A   1      34.463  20.801  24.170  1.00  0.00     0.166 HD
ATOM     18  O   UNL A   1      33.011  19.611  25.587  1.00  0.00    -0.249 OA
ATOM     19  N   UNL A   1      31.719  21.457  25.559  1.00  0.00    -0.331 N 
ATOM     20  H   UNL A   1      31.000  21.061  26.102  1.00  0.00     0.166 HD
BRANCH  19  21
ATOM     21  C   UNL A   1      31.625  22.743  25.029  1.00  0.00     0.123 C 
ATOM     22  C   UNL A   1      31.557  24.103  26.503  1.00  0.00     0.011 C 
ATOM     23  C   UNL A   1      30.701  23.488  23.405  1.00  0.00     0.170 C 
ATOM     24  C   UNL A   1      30.917  25.531  26.141  1.00  0.00     0.104 C 
ATOM     25  S   UNL A   1      30.182  25.703  24.013  1.00  0.00     0.173 S 
ATOM     26  O   UNL A   1      31.037  26.683  23.374  1.00  0.00    -0.224 OA
ATOM     27  O   UNL A   1      28.757  25.966  24.136  1.00  0.00    -0.224 OA
ENDBRANCH  19  21
ENDBRANCH  11  15
ENDBRANCH   9  11
ENDBRANCH   8   9
ENDBRANCH   7   8
ENDBRANCH   6   7
ENDBRANCH   5   6
ENDBRANCH   4   5
ENDBRANCH   3   4
ENDBRANCH   2   3
ENDBRANCH   1   2
BRANCH   1  28
ATOM     28  C   UNL A   1      33.949  31.264  27.860  1.00  0.00     0.188 C 
BRANCH  28  29
ATOM     29  O   UNL A   1      32.669  31.568  27.316  1.00  0.00    -0.376 OA
BRANCH  29  30
ATOM     30  C   UNL A   1      32.223  32.909  27.208  1.00  0.00     0.202 C 
BRANCH  30  31
ATOM     31  C   UNL A   1      33.099  34.018  27.810  1.00  0.00     0.261 C 
BRANCH  31  32
ATOM     32  O   UNL A   1      32.523  34.778  28.880  1.00  0.00    -0.460 OA
BRANCH  32  33
ATOM     33  C   UNL A   1      33.393  35.215  29.822  1.00  0.00     0.338 C 
ATOM     34  O   UNL A   1      33.254  36.168  30.569  1.00  0.00    -0.246 OA
BRANCH  33  35
ATOM     35  C   UNL A   1      34.517  34.257  29.935  1.00  0.00     0.060 A 
ATOM     36  C   UNL A   1      34.396  33.155  30.798  1.00  0.00     0.016 A 
ATOM     37  C   UNL A   1      35.713  34.495  29.260  1.00  0.00     0.016 A 
ATOM     38  C   UNL A   1      35.491  32.329  31.046  1.00  0.00     0.010 A 
ATOM     39  C   UNL A   1      36.821  33.693  29.538  1.00  0.00     0.010 A 
ATOM     40  C   UNL A   1      36.727  32.649  30.478  1.00  0.00    -0.014 A 
BRANCH  40  41
ATOM     41  C   UNL A   1      37.971  32.124  31.087  1.00  0.00     0.031 A 
ATOM     42  C   UNL A   1      38.730  31.077  30.316  1.00  0.00     0.074 A 
ATOM     43  C   UNL A   1      38.403  32.528  32.293  1.00  0.00     0.049 A 
ATOM     44  N   UNL A   1      39.736  30.335  30.691  1.00  0.00    -0.248 NA
ATOM     45  C   UNL A   1      38.275  30.824  28.937  1.00  0.00     0.031 C 
ATOM     46  C   UNL A   1      37.783  33.566  33.112  1.00  0.00     0.029 A 
ATOM     47  N   UNL A   1      39.448  32.069  33.054  1.00  0.00    -0.354 N 
ATOM     48  C   UNL A   1      39.997  29.489  29.619  1.00  0.00     0.074 A 
ATOM     49  C   UNL A   1      39.048  29.812  28.579  1.00  0.00     0.031 C 
ATOM     50  C   UNL A   1      38.430  33.629  34.289  1.00  0.00     0.029 A 
ATOM     51  C   UNL A   1      39.477  32.609  34.318  1.00  0.00     0.049 A 
ATOM     52  H   UNL A   1      40.111  31.418  32.728  1.00  0.00     0.167 HD
ATOM     53  C   UNL A   1      40.943  28.527  29.511  1.00  0.00     0.034 A 
ATOM     54  C   UNL A   1      40.230  32.278  35.387  1.00  0.00     0.034 A 
ATOM     55  C   UNL A   1      41.893  28.221  30.542  1.00  0.00     0.049 A 
ATOM     56  C   UNL A   1      41.252  31.176  35.260  1.00  0.00     0.074 A 
ATOM     57  C   UNL A   1      42.919  27.295  30.519  1.00  0.00     0.029 A 
ATOM     58  N   UNL A   1      41.923  28.824  31.791  1.00  0.00    -0.354 N 
ATOM     59  N   UNL A   1      41.543  30.434  34.219  1.00  0.00    -0.248 NA
ATOM     60  C   UNL A   1      42.069  30.886  36.448  1.00  0.00     0.031 C 
ATOM     61  C   UNL A   1      43.545  27.310  31.769  1.00  0.00     0.029 A 
ATOM     62  C   UNL A   1      42.941  28.282  32.553  1.00  0.00     0.049 A 
ATOM     63  H   UNL A   1      41.310  29.534  32.090  1.00  0.00     0.167 HD
ATOM     64  C   UNL A   1      42.606  29.624  34.609  1.00  0.00     0.074 A 
ATOM     65  C   UNL A   1      42.909  29.970  35.983  1.00  0.00     0.031 C 
ATOM     66  C   UNL A   1      43.268  28.678  33.899  1.00  0.00     0.034 A 
BRANCH  53  67
ATOM     67  C   UNL A   1      40.983  27.732  28.232  1.00  0.00     0.023 A 
ATOM     68  C   UNL A   1      41.688  28.223  27.113  1.00  0.00     0.012 A 
ATOM     69  C   UNL A   1      40.342  26.480  28.149  1.00  0.00     0.148 A 
ATOM     70  C   UNL A   1      41.717  27.502  25.920  1.00  0.00     0.002 A 
ATOM     71  C   UNL A   1      40.419  25.743  26.974  1.00  0.00     0.091 A 
ATOM     72  F   UNL A   1      39.655  26.042  29.214  1.00  0.00    -0.205 F 
ATOM     73  C   UNL A   1      41.093  26.258  25.855  1.00  0.00     0.022 A 
BRANCH  71  74
ATOM     74  S   UNL A   1      39.722  24.096  26.819  1.00  0.00     0.127 S 
ATOM     75  O   UNL A   1      39.187  23.875  28.162  1.00  0.00    -0.237 OA
ATOM     76  O   UNL A   1      38.707  24.289  25.782  1.00  0.00    -0.237 OA
ATOM     77  O   UNL A   1      40.825  23.227  26.435  1.00  0.00    -0.744 OA
ENDBRANCH  71  74
ENDBRANCH  53  67
BRANCH  54  78
ATOM     78  C   UNL A   1      40.048  33.007  36.673  1.00  0.00     0.023 A 
ATOM     79  C   UNL A   1      40.779  34.186  36.915  1.00  0.00     0.012 A 
ATOM     80  C   UNL A   1      39.136  32.552  37.646  1.00  0.00     0.148 A 
ATOM     81  C   UNL A   1      40.624  34.885  38.113  1.00  0.00     0.002 A 
ATOM     82  C   UNL A   1      38.943  33.285  38.810  1.00  0.00     0.091 A 
ATOM     83  F   UNL A   1      38.459  31.422  37.400  1.00  0.00    -0.205 F 
ATOM     84  C   UNL A   1      39.700  34.441  39.055  1.00  0.00     0.022 A 
BRANCH  82  85
ATOM     85  S   UNL A   1      37.677  32.868  40.014  1.00  0.00     0.127 S 
ATOM     86  O   UNL A   1      38.150  31.578  40.513  1.00  0.00    -0.237 OA
ATOM     87  O   UNL A   1      37.795  33.978  40.962  1.00  0.00    -0.237 OA
ATOM     88  O   UNL A   1      36.422  32.837  39.277  1.00  0.00    -0.744 OA
ENDBRANCH  82  85
ENDBRANCH  54  78
BRANCH  66  89
ATOM     89  C   UNL A   1      44.440  27.989  34.552  1.00  0.00     0.023 A 
ATOM     90  C   UNL A   1      45.720  28.573  34.512  1.00  0.00     0.012 A 
ATOM     91  C   UNL A   1      44.240  26.805  35.290  1.00  0.00     0.148 A 
ATOM     92  C   UNL A   1      46.792  27.971  35.174  1.00  0.00     0.002 A 
ATOM     93  C   UNL A   1      45.299  26.243  35.991  1.00  0.00     0.091 A 
ATOM     94  F   UNL A   1      43.016  26.258  35.302  1.00  0.00    -0.205 F 
ATOM     95  C   UNL A   1      46.578  26.816  35.924  1.00  0.00     0.022 A 
BRANCH  93  96
ATOM     96  S   UNL A   1      45.095  24.817  37.065  1.00  0.00     0.127 S 
ATOM     97  O   UNL A   1      46.478  24.523  37.436  1.00  0.00    -0.237 OA
ATOM     98  O   UNL A   1      44.275  25.360  38.148  1.00  0.00    -0.237 OA
ATOM     99  O   UNL A   1      44.437  23.796  36.261  1.00  0.00    -0.744 OA
ENDBRANCH  93  96
ENDBRANCH  66  89
ENDBRANCH  40  41
ENDBRANCH  33  35
ENDBRANCH  32  33
ENDBRANCH  31  32
ENDBRANCH  30  31
ENDBRANCH  29  30
ENDBRANCH  28  29
ENDBRANCH   1  28
TORSDOF 26
ENDMDL
MODEL 2
REMARK VINA RESULT:     -10.5      1.842      2.166
REMARK SMILES CC[C@](C)(NC(=O)N[C@@H]1C=CS(=O)(=O)C1)C(=O)OCCOCCOCCOCCOC(=O)c1ccc(-c2c3nc(c(-c4cccc(S(=O)(=O)[O-])c4F)c4ccc([nH]4)c(-c4cccc(S(=O)(=O)[O-])c4F)c4nc(c(-c5cccc(S(=O)(=O)[O-])c5F)c5ccc2[nH]5)C=C4)C=C3)cc1
REMARK SMILES IDX 25 1 24 2 23 3 22 4 21 5 20 6 19 7 18 8 16 9 17 10 3 11 4 12
REMARK SMILES IDX 2 13 1 14 5 15 6 16 7 18 8 19 9 21 10 22 15 23 11 24 12 25
REMARK SMILES IDX 13 26 14 27 26 28 27 29 28 30 29 31 30 32 31 33 32 34 33 35
REMARK SMILES IDX 34 36 95 37 35 38 94 39 36 40 37 41 38 42 88 43 39 44 93 45
REMARK SMILES IDX 87 46 89 47 40 48 92 49 86 50 85 51 41 53 73 54 53 55 72 56
REMARK SMILES IDX 54 57 57 58 71 59 90 60 55 61 56 62 70 64 91 65 58 66 42 67
REMARK SMILES IDX 43 68 51 69 44 70 46 71 52 72 45 73 47 74 48 75 49 76 50 77
REMARK SMILES IDX 74 78 75 79 83 80 76 81 78 82 84 83 77 84 79 85 80 86 81 87
REMARK SMILES IDX 82 88 59 89 60 90 68 91 61 92 63 93 69 94 62 95 64 96 65 97
REMARK SMILES IDX 66 98 67 99
REMARK H PARENT 5 17 8 20 89 52 57 63
REMARK Flexibility Score: inf
ROOT
ATOM      1  C   UNL A   1      34.698  30.012  27.446  1.00  0.00     0.188 C 
ENDROOT
BRANCH   1   2
ATOM      2  O   UNL A   1      33.906  28.865  27.296  1.00  0.00    -0.377 OA
BRANCH   2   3
ATOM      3  C   UNL A   1      33.560  28.433  25.999  1.00  0.00     0.188 C 
BRANCH   3   4
ATOM      4  C   UNL A   1      33.532  29.415  24.809  1.00  0.00     0.188 C 
BRANCH   4   5
ATOM      5  O   UNL A   1      32.743  29.224  23.635  1.00  0.00    -0.376 OA
BRANCH   5   6
ATOM      6  C   UNL A   1      33.143  28.785  22.339  1.00  0.00     0.202 C 
BRANCH   6   7
ATOM      7  C   UNL A   1      33.951  27.312  22.040  1.00  0.00     0.261 C 
BRANCH   7   8
ATOM      8  O   UNL A   1      33.822  25.495  22.969  1.00  0.00    -0.462 OA
BRANCH   8   9
ATOM      9  C   UNL A   1      33.701  23.956  22.835  1.00  0.00     0.331 C 
ATOM     10  O   UNL A   1      33.342  23.506  21.744  1.00  0.00    -0.249 OA
BRANCH   9  11
ATOM     11  C   UNL A   1      34.191  22.868  24.115  1.00  0.00     0.136 C 
ATOM     12  C   UNL A   1      34.073  23.575  25.503  1.00  0.00     0.047 C 
BRANCH  11  13
ATOM     13  C   UNL A   1      35.725  22.760  23.807  1.00  0.00     0.037 C 
ATOM     14  C   UNL A   1      36.373  21.535  24.448  1.00  0.00     0.007 C 
ENDBRANCH  11  13
BRANCH  11  15
ATOM     15  N   UNL A   1      33.821  21.385  24.424  1.00  0.00    -0.322 N 
ATOM     16  C   UNL A   1      32.881  20.706  25.139  1.00  0.00     0.316 C 
ATOM     17  H   UNL A   1      34.441  20.764  23.977  1.00  0.00     0.166 HD
ATOM     18  O   UNL A   1      33.023  19.513  25.376  1.00  0.00    -0.249 OA
ATOM     19  N   UNL A   1      31.757  21.373  25.499  1.00  0.00    -0.331 N 
ATOM     20  H   UNL A   1      31.053  20.955  26.044  1.00  0.00     0.166 HD
BRANCH  19  21
ATOM     21  C   UNL A   1      31.663  22.688  25.046  1.00  0.00     0.123 C 
ATOM     22  C   UNL A   1      31.680  23.963  26.596  1.00  0.00     0.011 C 
ATOM     23  C   UNL A   1      30.685  23.537  23.508  1.00  0.00     0.170 C 
ATOM     24  C   UNL A   1      31.050  25.418  26.342  1.00  0.00     0.104 C 
ATOM     25  S   UNL A   1      30.229  25.721  24.261  1.00  0.00     0.173 S 
ATOM     26  O   UNL A   1      31.072  26.723  23.642  1.00  0.00    -0.224 OA
ATOM     27  O   UNL A   1      28.815  25.998  24.460  1.00  0.00    -0.224 OA
ENDBRANCH  19  21
ENDBRANCH  11  15
ENDBRANCH   9  11
ENDBRANCH   8   9
ENDBRANCH   7   8
ENDBRANCH   6   7
ENDBRANCH   5   6
ENDBRANCH   4   5
ENDBRANCH   3   4
ENDBRANCH   2   3
ENDBRANCH   1   2
BRANCH   1  28
ATOM     28  C   UNL A   1      33.920  31.285  27.800  1.00  0.00     0.188 C 
BRANCH  28  29
ATOM     29  O   UNL A   1      32.617  31.531  27.280  1.00  0.00    -0.376 OA
BRANCH  29  30
ATOM     30  C   UNL A   1      32.094  32.847  27.217  1.00  0.00     0.202 C 
BRANCH  30  31
ATOM     31  C   UNL A   1      32.937  33.994  27.797  1.00  0.00     0.261 C 
BRANCH  31  32
ATOM     32  O   UNL A   1      32.431  34.625  28.980  1.00  0.00    -0.460 OA
BRANCH  32  33
ATOM     33  C   UNL A   1      33.358  35.221  29.768  1.00  0.00     0.338 C 
ATOM     34  O   UNL A   1      33.263  36.296  30.335  1.00  0.00    -0.246 OA
BRANCH  33  35
ATOM     35  C   UNL A   1      34.492  34.293  29.981  1.00  0.00     0.060 A 
ATOM     36  C   UNL A   1      34.359  33.247  30.909  1.00  0.00     0.016 A 
ATOM     37  C   UNL A   1      35.707  34.508  29.332  1.00  0.00     0.016 A 
ATOM     38  C   UNL A   1      35.457  32.458  31.247  1.00  0.00     0.010 A 
ATOM     39  C   UNL A   1      36.817  33.746  29.698  1.00  0.00     0.010 A 
ATOM     40  C   UNL A   1      36.707  32.762  30.701  1.00  0.00    -0.014 A 
BRANCH  40  41
ATOM     41  C   UNL A   1      37.938  32.301  31.384  1.00  0.00     0.031 A 
ATOM     42  C   UNL A   1      38.700  31.170  30.746  1.00  0.00     0.074 A 
ATOM     43  C   UNL A   1      38.354  32.833  32.545  1.00  0.00     0.049 A 
ATOM     44  N   UNL A   1      39.694  30.467  31.217  1.00  0.00    -0.248 NA
ATOM     45  C   UNL A   1      38.264  30.769  29.396  1.00  0.00     0.031 C 
ATOM     46  C   UNL A   1      37.730  33.959  33.234  1.00  0.00     0.029 A 
ATOM     47  N   UNL A   1      39.384  32.455  33.369  1.00  0.00    -0.354 N 
ATOM     48  C   UNL A   1      39.965  29.507  30.250  1.00  0.00     0.074 A 
ATOM     49  C   UNL A   1      39.034  29.719  29.164  1.00  0.00     0.031 C 
ATOM     50  C   UNL A   1      38.359  34.148  34.407  1.00  0.00     0.029 A 
ATOM     51  C   UNL A   1      39.398  33.130  34.565  1.00  0.00     0.049 A 
ATOM     52  H   UNL A   1      40.046  31.767  33.128  1.00  0.00     0.167 HD
ATOM     53  C   UNL A   1      40.904  28.533  30.263  1.00  0.00     0.034 A 
ATOM     54  C   UNL A   1      40.131  32.915  35.676  1.00  0.00     0.034 A 
ATOM     55  C   UNL A   1      41.836  28.337  31.337  1.00  0.00     0.049 A 
ATOM     56  C   UNL A   1      41.146  31.800  35.689  1.00  0.00     0.074 A 
ATOM     57  C   UNL A   1      42.855  27.408  31.433  1.00  0.00     0.029 A 
ATOM     58  N   UNL A   1      41.851  29.074  32.512  1.00  0.00    -0.354 N 
ATOM     59  N   UNL A   1      41.447  30.945  34.741  1.00  0.00    -0.248 NA
ATOM     60  C   UNL A   1      41.943  31.637  36.915  1.00  0.00     0.031 C 
ATOM     61  C   UNL A   1      43.461  27.556  32.684  1.00  0.00     0.029 A 
ATOM     62  C   UNL A   1      42.854  28.613  33.346  1.00  0.00     0.049 A 
ATOM     63  H   UNL A   1      41.239  29.816  32.721  1.00  0.00     0.167 HD
ATOM     64  C   UNL A   1      42.497  30.177  35.235  1.00  0.00     0.074 A 
ATOM     65  C   UNL A   1      42.783  30.671  36.567  1.00  0.00     0.031 C 
ATOM     66  C   UNL A   1      43.162  29.153  34.645  1.00  0.00     0.034 A 
BRANCH  53  67
ATOM     67  C   UNL A   1      40.958  27.601  29.081  1.00  0.00     0.023 A 
ATOM     68  C   UNL A   1      40.127  26.462  29.036  1.00  0.00     0.012 A 
ATOM     69  C   UNL A   1      41.817  27.872  27.998  1.00  0.00     0.148 A 
ATOM     70  C   UNL A   1      40.182  25.585  27.953  1.00  0.00     0.002 A 
ATOM     71  C   UNL A   1      41.828  27.022  26.898  1.00  0.00     0.091 A 
ATOM     72  F   UNL A   1      42.618  28.944  28.069  1.00  0.00    -0.205 F 
ATOM     73  C   UNL A   1      41.023  25.871  26.881  1.00  0.00     0.022 A 
BRANCH  71  74
ATOM     74  S   UNL A   1      42.813  27.350  25.434  1.00  0.00     0.127 S 
ATOM     75  O   UNL A   1      44.145  27.531  26.008  1.00  0.00    -0.237 OA
ATOM     76  O   UNL A   1      42.642  26.116  24.666  1.00  0.00    -0.237 OA
ATOM     77  O   UNL A   1      42.233  28.534  24.815  1.00  0.00    -0.744 OA
ENDBRANCH  71  74
ENDBRANCH  53  67
BRANCH  54  78
ATOM     78  C   UNL A   1      39.935  33.783  36.871  1.00  0.00     0.023 A 
ATOM     79  C   UNL A   1      38.876  33.517  37.760  1.00  0.00     0.012 A 
ATOM     80  C   UNL A   1      40.809  34.854  37.144  1.00  0.00     0.148 A 
ATOM     81  C   UNL A   1      38.675  34.318  38.885  1.00  0.00     0.002 A 
ATOM     82  C   UNL A   1      40.639  35.610  38.297  1.00  0.00     0.091 A 
ATOM     83  F   UNL A   1      41.804  35.097  36.280  1.00  0.00    -0.205 F 
ATOM     84  C   UNL A   1      39.561  35.356  39.160  1.00  0.00     0.022 A 
BRANCH  82  85
ATOM     85  S   UNL A   1      41.809  36.874  38.805  1.00  0.00     0.127 S 
ATOM     86  O   UNL A   1      42.554  37.108  37.570  1.00  0.00    -0.237 OA
ATOM     87  O   UNL A   1      40.914  37.962  39.203  1.00  0.00    -0.237 OA
ATOM     88  O   UNL A   1      42.573  36.292  39.900  1.00  0.00    -0.744 OA
ENDBRANCH  82  85
ENDBRANCH  54  78
BRANCH  66  89
ATOM     89  C   UNL A   1      44.319  28.534  35.389  1.00  0.00     0.023 A 
ATOM     90  C   UNL A   1      45.620  29.049  35.237  1.00  0.00     0.012 A 
ATOM     91  C   UNL A   1      44.087  27.497  36.315  1.00  0.00     0.148 A 
ATOM     92  C   UNL A   1      46.680  28.522  35.977  1.00  0.00     0.002 A 
ATOM     93  C   UNL A   1      45.136  27.015  37.087  1.00  0.00     0.091 A 
ATOM     94  F   UNL A   1      42.843  27.011  36.432  1.00  0.00    -0.205 F 
ATOM     95  C   UNL A   1      46.435  27.516  36.911  1.00  0.00     0.022 A 
BRANCH  93  96
ATOM     96  S   UNL A   1      44.897  25.795  38.384  1.00  0.00     0.127 S 
ATOM     97  O   UNL A   1      43.874  24.932  37.797  1.00  0.00    -0.237 OA
ATOM     98  O   UNL A   1      46.225  25.188  38.486  1.00  0.00    -0.237 OA
ATOM     99  O   UNL A   1      44.480  26.539  39.566  1.00  0.00    -0.744 OA
ENDBRANCH  93  96
ENDBRANCH  66  89
ENDBRANCH  40  41
ENDBRANCH  33  35
ENDBRANCH  32  33
ENDBRANCH  31  32
ENDBRANCH  30  31
ENDBRANCH  29  30
ENDBRANCH  28  29
ENDBRANCH   1  28
TORSDOF 26
ENDMDL
MODEL 3
REMARK VINA RESULT:     -10.2      6.166      9.853
REMARK SMILES CC[C@](C)(NC(=O)N[C@@H]1C=CS(=O)(=O)C1)C(=O)OCCOCCOCCOCCOC(=O)c1ccc(-c2c3nc(c(-c4cccc(S(=O)(=O)[O-])c4F)c4ccc([nH]4)c(-c4cccc(S(=O)(=O)[O-])c4F)c4nc(c(-c5cccc(S(=O)(=O)[O-])c5F)c5ccc2[nH]5)C=C4)C=C3)cc1
REMARK SMILES IDX 25 1 24 2 23 3 22 4 21 5 20 6 19 7 18 8 16 9 17 10 3 11 4 12
REMARK SMILES IDX 2 13 1 14 5 15 6 16 7 18 8 19 9 21 10 22 15 23 11 24 12 25
REMARK SMILES IDX 13 26 14 27 26 28 27 29 28 30 29 31 30 32 31 33 32 34 33 35
REMARK SMILES IDX 34 36 95 37 35 38 94 39 36 40 37 41 38 42 88 43 39 44 93 45
REMARK SMILES IDX 87 46 89 47 40 48 92 49 86 50 85 51 41 53 73 54 53 55 72 56
REMARK SMILES IDX 54 57 57 58 71 59 90 60 55 61 56 62 70 64 91 65 58 66 42 67
REMARK SMILES IDX 43 68 51 69 44 70 46 71 52 72 45 73 47 74 48 75 49 76 50 77
REMARK SMILES IDX 74 78 75 79 83 80 76 81 78 82 84 83 77 84 79 85 80 86 81 87
REMARK SMILES IDX 82 88 59 89 60 90 68 91 61 92 63 93 69 94 62 95 64 96 65 97
REMARK SMILES IDX 66 98 67 99
REMARK H PARENT 5 17 8 20 89 52 57 63
REMARK Flexibility Score: inf
ROOT
ATOM      1  C   UNL A   1      41.482  19.727  26.463  1.00  0.00     0.188 C 
ENDROOT
BRANCH   1   2
ATOM      2  O   UNL A   1      41.023  20.997  26.090  1.00  0.00    -0.377 OA
BRANCH   2   3
ATOM      3  C   UNL A   1      39.647  21.286  26.182  1.00  0.00     0.188 C 
BRANCH   3   4
ATOM      4  C   UNL A   1      39.133  22.741  26.197  1.00  0.00     0.188 C 
BRANCH   4   5
ATOM      5  O   UNL A   1      37.754  23.102  26.153  1.00  0.00    -0.376 OA
BRANCH   5   6
ATOM      6  C   UNL A   1      37.016  23.729  25.106  1.00  0.00     0.202 C 
BRANCH   6   7
ATOM      7  C   UNL A   1      36.240  22.879  23.846  1.00  0.00     0.261 C 
BRANCH   7   8
ATOM      8  O   UNL A   1      34.270  22.432  23.541  1.00  0.00    -0.462 OA
BRANCH   8   9
ATOM      9  C   UNL A   1      32.889  22.089  24.157  1.00  0.00     0.331 C 
ATOM     10  O   UNL A   1      32.077  21.498  23.442  1.00  0.00    -0.249 OA
BRANCH   9  11
ATOM     11  C   UNL A   1      32.522  22.384  25.843  1.00  0.00     0.136 C 
ATOM     12  C   UNL A   1      33.155  23.734  26.308  1.00  0.00     0.047 C 
BRANCH  11  13
ATOM     13  C   UNL A   1      33.375  21.248  26.509  1.00  0.00     0.037 C 
ATOM     14  C   UNL A   1      34.471  21.789  27.423  1.00  0.00     0.007 C 
ENDBRANCH  11  13
BRANCH  11  15
ATOM     15  N   UNL A   1      31.191  22.303  26.652  1.00  0.00    -0.322 N 
ATOM     16  C   UNL A   1      30.137  23.113  26.946  1.00  0.00     0.316 C 
ATOM     17  H   UNL A   1      31.083  21.416  27.067  1.00  0.00     0.166 HD
ATOM     18  O   UNL A   1      29.350  22.810  27.835  1.00  0.00    -0.249 OA
ATOM     19  N   UNL A   1      29.945  24.207  26.169  1.00  0.00    -0.331 N 
ATOM     20  H   UNL A   1      29.223  24.853  26.345  1.00  0.00     0.166 HD
BRANCH  19  21
ATOM     21  C   UNL A   1      30.834  24.358  25.106  1.00  0.00     0.123 C 
ATOM     22  C   UNL A   1      31.946  26.010  25.355  1.00  0.00     0.011 C 
ATOM     23  C   UNL A   1      30.698  23.948  23.143  1.00  0.00     0.170 C 
ATOM     24  C   UNL A   1      32.610  26.640  24.036  1.00  0.00     0.104 C 
ATOM     25  S   UNL A   1      32.115  25.533  22.132  1.00  0.00     0.173 S 
ATOM     26  O   UNL A   1      33.364  24.964  21.666  1.00  0.00    -0.224 OA
ATOM     27  O   UNL A   1      31.422  26.510  21.307  1.00  0.00    -0.224 OA
ENDBRANCH  19  21
ENDBRANCH  11  15
ENDBRANCH   9  11
ENDBRANCH   8   9
ENDBRANCH   7   8
ENDBRANCH   6   7
ENDBRANCH   5   6
ENDBRANCH   4   5
ENDBRANCH   3   4
ENDBRANCH   2   3
ENDBRANCH   1   2
BRANCH   1  28
ATOM     28  C   UNL A   1      42.926  19.419  26.046  1.00  0.00     0.188 C 
BRANCH  28  29
ATOM     29  O   UNL A   1      43.486  19.956  24.851  1.00  0.00    -0.376 OA
BRANCH  29  30
ATOM     30  C   UNL A   1      44.418  21.022  24.899  1.00  0.00     0.202 C 
BRANCH  30  31
ATOM     31  C   UNL A   1      44.306  22.036  26.049  1.00  0.00     0.261 C 
BRANCH  31  32
ATOM     32  O   UNL A   1      44.556  23.408  25.720  1.00  0.00    -0.460 OA
BRANCH  32  33
ATOM     33  C   UNL A   1      43.475  24.223  25.749  1.00  0.00     0.338 C 
ATOM     34  O   UNL A   1      42.312  23.915  25.553  1.00  0.00    -0.246 OA
BRANCH  33  35
ATOM     35  C   UNL A   1      43.887  25.567  26.217  1.00  0.00     0.060 A 
ATOM     36  C   UNL A   1      44.441  25.708  27.500  1.00  0.00     0.016 A 
ATOM     37  C   UNL A   1      43.646  26.690  25.427  1.00  0.00     0.016 A 
ATOM     38  C   UNL A   1      44.689  26.975  28.027  1.00  0.00     0.010 A 
ATOM     39  C   UNL A   1      43.856  27.959  25.967  1.00  0.00     0.010 A 
ATOM     40  C   UNL A   1      44.319  28.103  27.290  1.00  0.00    -0.014 A 
BRANCH  40  41
ATOM     41  C   UNL A   1      44.102  29.393  27.984  1.00  0.00     0.031 A 
ATOM     42  C   UNL A   1      45.289  30.310  28.125  1.00  0.00     0.074 A 
ATOM     43  C   UNL A   1      42.913  29.735  28.506  1.00  0.00     0.049 A 
ATOM     44  N   UNL A   1      45.418  31.400  28.830  1.00  0.00    -0.248 NA
ATOM     45  C   UNL A   1      46.501  29.928  27.377  1.00  0.00     0.031 C 
ATOM     46  C   UNL A   1      41.682  28.957  28.394  1.00  0.00     0.029 A 
ATOM     47  N   UNL A   1      42.566  30.815  29.277  1.00  0.00    -0.354 N 
ATOM     48  C   UNL A   1      46.737  31.803  28.658  1.00  0.00     0.074 A 
ATOM     49  C   UNL A   1      47.366  30.843  27.780  1.00  0.00     0.031 C 
ATOM     50  C   UNL A   1      40.724  29.559  29.119  1.00  0.00     0.029 A 
ATOM     51  C   UNL A   1      41.287  30.738  29.775  1.00  0.00     0.049 A 
ATOM     52  H   UNL A   1      43.172  31.571  29.455  1.00  0.00     0.167 HD
ATOM     53  C   UNL A   1      47.370  32.876  29.186  1.00  0.00     0.034 A 
ATOM     54  C   UNL A   1      40.666  31.504  30.695  1.00  0.00     0.034 A 
ATOM     55  C   UNL A   1      46.735  33.835  30.045  1.00  0.00     0.049 A 
ATOM     56  C   UNL A   1      41.399  32.673  31.303  1.00  0.00     0.074 A 
ATOM     57  C   UNL A   1      47.273  34.981  30.601  1.00  0.00     0.029 A 
ATOM     58  N   UNL A   1      45.424  33.750  30.489  1.00  0.00    -0.354 N 
ATOM     59  N   UNL A   1      42.622  33.090  31.077  1.00  0.00    -0.248 NA
ATOM     60  C   UNL A   1      40.658  33.494  32.272  1.00  0.00     0.031 C 
ATOM     61  C   UNL A   1      46.299  35.568  31.413  1.00  0.00     0.029 A 
ATOM     62  C   UNL A   1      45.137  34.816  31.322  1.00  0.00     0.049 A 
ATOM     63  H   UNL A   1      44.791  33.036  30.245  1.00  0.00     0.167 HD
ATOM     64  C   UNL A   1      42.780  34.246  31.836  1.00  0.00     0.074 A 
ATOM     65  C   UNL A   1      41.525  34.465  32.526  1.00  0.00     0.031 C 
ATOM     66  C   UNL A   1      43.865  35.051  31.956  1.00  0.00     0.034 A 
BRANCH  53  67
ATOM     67  C   UNL A   1      48.828  33.059  28.852  1.00  0.00     0.023 A 
ATOM     68  C   UNL A   1      49.819  32.440  29.641  1.00  0.00     0.012 A 
ATOM     69  C   UNL A   1      49.213  33.825  27.734  1.00  0.00     0.148 A 
ATOM     70  C   UNL A   1      51.171  32.617  29.349  1.00  0.00     0.002 A 
ATOM     71  C   UNL A   1      50.560  33.952  27.418  1.00  0.00     0.091 A 
ATOM     72  F   UNL A   1      48.258  34.426  27.010  1.00  0.00    -0.205 F 
ATOM     73  C   UNL A   1      51.540  33.363  28.233  1.00  0.00     0.022 A 
BRANCH  71  74
ATOM     74  S   UNL A   1      51.131  34.820  25.954  1.00  0.00     0.127 S 
ATOM     75  O   UNL A   1      50.668  36.182  26.220  1.00  0.00    -0.237 OA
ATOM     76  O   UNL A   1      52.581  34.642  26.037  1.00  0.00    -0.237 OA
ATOM     77  O   UNL A   1      50.501  34.156  24.821  1.00  0.00    -0.744 OA
ENDBRANCH  71  74
ENDBRANCH  53  67
BRANCH  54  78
ATOM     78  C   UNL A   1      39.265  31.191  31.093  1.00  0.00     0.023 A 
ATOM     79  C   UNL A   1      39.024  30.259  32.121  1.00  0.00     0.012 A 
ATOM     80  C   UNL A   1      38.172  31.831  30.475  1.00  0.00     0.148 A 
ATOM     81  C   UNL A   1      37.719  29.952  32.510  1.00  0.00     0.002 A 
ATOM     82  C   UNL A   1      36.879  31.564  30.908  1.00  0.00     0.091 A 
ATOM     83  F   UNL A   1      38.423  32.706  29.491  1.00  0.00    -0.205 F 
ATOM     84  C   UNL A   1      36.649  30.611  31.912  1.00  0.00     0.022 A 
BRANCH  82  85
ATOM     85  S   UNL A   1      35.451  32.465  30.295  1.00  0.00     0.127 S 
ATOM     86  O   UNL A   1      34.490  32.277  31.379  1.00  0.00    -0.237 OA
ATOM     87  O   UNL A   1      35.988  33.821  30.171  1.00  0.00    -0.237 OA
ATOM     88  O   UNL A   1      35.101  31.839  29.028  1.00  0.00    -0.744 OA
ENDBRANCH  82  85
ENDBRANCH  54  78
BRANCH  66  89
ATOM     89  C   UNL A   1      43.739  36.292  32.803  1.00  0.00     0.023 A 
ATOM     90  C   UNL A   1      43.866  36.214  34.203  1.00  0.00     0.012 A 
ATOM     91  C   UNL A   1      43.592  37.553  32.189  1.00  0.00     0.148 A 
ATOM     92  C   UNL A   1      43.818  37.370  34.983  1.00  0.00     0.002 A 
ATOM     93  C   UNL A   1      43.600  38.703  32.967  1.00  0.00     0.091 A 
ATOM     94  F   UNL A   1      43.457  37.603  30.857  1.00  0.00    -0.205 F 
ATOM     95  C   UNL A   1      43.700  38.614  34.364  1.00  0.00     0.022 A 
BRANCH  93  96
ATOM     96  S   UNL A   1      43.557  40.351  32.252  1.00  0.00     0.127 S 
ATOM     97  O   UNL A   1      42.480  40.978  33.014  1.00  0.00    -0.237 OA
ATOM     98  O   UNL A   1      44.897  40.855  32.558  1.00  0.00    -0.237 OA
ATOM     99  O   UNL A   1      43.289  40.168  30.832  1.00  0.00    -0.744 OA
ENDBRANCH  93  96
ENDBRANCH  66  89
ENDBRANCH  40  41
ENDBRANCH  33  35
ENDBRANCH  32  33
ENDBRANCH  31  32
ENDBRANCH  30  31
ENDBRANCH  29  30
ENDBRANCH  28  29
ENDBRANCH   1  28
TORSDOF 26
ENDMDL
