MODEL 1
REMARK VINA RESULT:     -10.0      0.000      0.000
REMARK SMILES C[C@H]1Cc2ccccc2N1/C=C\C(=O)OCCOCCOCCOCCOC(=O)c1ccc(-c2c3nc(c(-c4cccc(S(=O)(=O)[O-])c4F)c4ccc([nH]4)c(-c4cccc(S(=O)(=O)[O-])c4F)c4nc(c(-c5cccc(S(=O)(=O)[O-])c5F)c5ccc2[nH]5)C=C4)C=C3)cc1
REMARK SMILES IDX 22 1 21 2 20 3 19 4 18 5 17 6 16 7 15 8 13 9 14 10 12 11
REMARK SMILES IDX 11 12 10 13 1 14 2 15 3 16 4 17 9 18 5 19 8 20 6 21 7 22
REMARK SMILES IDX 23 23 24 24 25 25 26 26 27 27 28 28 29 29 30 30 31 31 92 32
REMARK SMILES IDX 32 33 91 34 33 35 34 36 35 37 85 38 36 39 90 40 84 41 86 42
REMARK SMILES IDX 37 43 89 44 83 45 82 46 38 48 70 49 50 50 69 51 51 52 54 53
REMARK SMILES IDX 68 54 87 55 52 56 53 57 67 59 88 60 55 61 39 62 40 63 48 64
REMARK SMILES IDX 41 65 43 66 49 67 42 68 44 69 45 70 46 71 47 72 71 73 72 74
REMARK SMILES IDX 80 75 73 76 75 77 81 78 74 79 76 80 77 81 78 82 79 83 56 84
REMARK SMILES IDX 57 85 65 86 58 87 60 88 66 89 59 90 61 91 62 92 63 93 64 94
REMARK H PARENT 86 47 54 58
REMARK Flexibility Score: inf
ROOT
ATOM      1  C   UNL A   1      32.570  28.798  25.026  1.00  0.00     0.188 C 
ENDROOT
BRANCH   1   2
ATOM      2  O   UNL A   1      31.974  29.263  23.830  1.00  0.00    -0.377 OA
BRANCH   2   3
ATOM      3  C   UNL A   1      30.562  29.374  23.880  1.00  0.00     0.188 C 
BRANCH   3   4
ATOM      4  C   UNL A   1      29.743  28.383  23.027  1.00  0.00     0.188 C 
BRANCH   4   5
ATOM      5  O   UNL A   1      28.911  27.440  23.673  1.00  0.00    -0.376 OA
BRANCH   5   6
ATOM      6  C   UNL A   1      29.116  26.040  23.691  1.00  0.00     0.202 C 
BRANCH   6   7
ATOM      7  C   UNL A   1      30.330  25.328  24.293  1.00  0.00     0.261 C 
BRANCH   7   8
ATOM      8  O   UNL A   1      31.588  25.729  23.770  1.00  0.00    -0.460 OA
BRANCH   8   9
ATOM      9  C   UNL A   1      32.687  25.352  24.453  1.00  0.00     0.332 C 
ATOM     10  O   UNL A   1      32.740  25.078  25.642  1.00  0.00    -0.247 OA
BRANCH   9  11
ATOM     11  C   UNL A   1      33.828  25.130  23.550  1.00  0.00     0.111 C 
ATOM     12  C   UNL A   1      34.712  24.126  23.453  1.00  0.00     0.094 C 
BRANCH  12  13
ATOM     13  N   UNL A   1      34.931  22.915  24.078  1.00  0.00    -0.344 N 
ATOM     14  C   UNL A   1      35.677  23.270  26.423  1.00  0.00     0.032 C 
ATOM     15  C   UNL A   1      35.945  22.545  25.100  1.00  0.00     0.088 C 
ATOM     16  C   UNL A   1      35.878  21.015  25.318  1.00  0.00     0.062 C 
ATOM     17  C   UNL A   1      34.556  20.688  24.725  1.00  0.00    -0.022 A 
ATOM     18  C   UNL A   1      34.087  21.770  23.976  1.00  0.00     0.044 A 
ATOM     19  C   UNL A   1      33.863  19.490  24.822  1.00  0.00     0.006 A 
ATOM     20  C   UNL A   1      32.897  21.633  23.271  1.00  0.00     0.026 A 
ATOM     21  C   UNL A   1      32.658  19.370  24.137  1.00  0.00     0.000 A 
ATOM     22  C   UNL A   1      32.182  20.432  23.356  1.00  0.00     0.002 A 
ENDBRANCH  12  13
ENDBRANCH   9  11
ENDBRANCH   8   9
ENDBRANCH   7   8
ENDBRANCH   6   7
ENDBRANCH   5   6
ENDBRANCH   4   5
ENDBRANCH   3   4
ENDBRANCH   2   3
ENDBRANCH   1   2
BRANCH   1  23
ATOM     23  C   UNL A   1      33.040  29.925  25.966  1.00  0.00     0.188 C 
BRANCH  23  24
ATOM     24  O   UNL A   1      32.161  30.557  26.890  1.00  0.00    -0.376 OA
BRANCH  24  25
ATOM     25  C   UNL A   1      31.416  31.706  26.527  1.00  0.00     0.202 C 
BRANCH  25  26
ATOM     26  C   UNL A   1      31.794  33.091  27.079  1.00  0.00     0.261 C 
BRANCH  26  27
ATOM     27  O   UNL A   1      33.162  33.484  26.947  1.00  0.00    -0.460 OA
BRANCH  27  28
ATOM     28  C   UNL A   1      33.728  34.012  28.059  1.00  0.00     0.338 C 
ATOM     29  O   UNL A   1      33.308  34.936  28.734  1.00  0.00    -0.246 OA
BRANCH  28  30
ATOM     30  C   UNL A   1      34.882  33.165  28.430  1.00  0.00     0.060 A 
ATOM     31  C   UNL A   1      36.179  33.680  28.408  1.00  0.00     0.016 A 
ATOM     32  C   UNL A   1      34.653  31.833  28.804  1.00  0.00     0.016 A 
ATOM     33  C   UNL A   1      37.245  32.870  28.802  1.00  0.00     0.010 A 
ATOM     34  C   UNL A   1      35.720  31.017  29.178  1.00  0.00     0.010 A 
ATOM     35  C   UNL A   1      37.018  31.543  29.216  1.00  0.00    -0.014 A 
BRANCH  35  36
ATOM     36  C   UNL A   1      38.092  30.815  29.929  1.00  0.00     0.031 A 
ATOM     37  C   UNL A   1      38.951  29.784  29.268  1.00  0.00     0.074 A 
ATOM     38  C   UNL A   1      38.262  31.106  31.234  1.00  0.00     0.049 A 
ATOM     39  N   UNL A   1      40.013  29.189  29.745  1.00  0.00    -0.248 NA
ATOM     40  C   UNL A   1      38.576  29.353  27.913  1.00  0.00     0.031 C 
ATOM     41  C   UNL A   1      37.418  32.030  31.998  1.00  0.00     0.029 A 
ATOM     42  N   UNL A   1      39.189  30.671  32.144  1.00  0.00    -0.354 N 
ATOM     43  C   UNL A   1      40.441  28.315  28.755  1.00  0.00     0.074 A 
ATOM     44  C   UNL A   1      39.508  28.440  27.655  1.00  0.00     0.031 C 
ATOM     45  C   UNL A   1      37.887  32.118  33.250  1.00  0.00     0.029 A 
ATOM     46  C   UNL A   1      39.055  31.253  33.381  1.00  0.00     0.049 A 
ATOM     47  H   UNL A   1      39.883  30.006  31.931  1.00  0.00     0.167 HD
ATOM     48  C   UNL A   1      41.526  27.506  28.767  1.00  0.00     0.034 A 
ATOM     49  C   UNL A   1      39.799  31.127  34.495  1.00  0.00     0.034 A 
ATOM     50  C   UNL A   1      42.447  27.401  29.869  1.00  0.00     0.049 A 
ATOM     51  C   UNL A   1      41.017  30.252  34.465  1.00  0.00     0.074 A 
ATOM     52  C   UNL A   1      43.618  26.665  29.936  1.00  0.00     0.029 A 
ATOM     53  N   UNL A   1      42.297  28.029  31.095  1.00  0.00    -0.354 N 
ATOM     54  N   UNL A   1      41.499  29.560  33.464  1.00  0.00    -0.248 NA
ATOM     55  C   UNL A   1      41.810  30.165  35.698  1.00  0.00     0.031 C 
ATOM     56  C   UNL A   1      44.166  26.832  31.210  1.00  0.00     0.029 A 
ATOM     57  C   UNL A   1      43.349  27.690  31.929  1.00  0.00     0.049 A 
ATOM     58  H   UNL A   1      41.554  28.627  31.337  1.00  0.00     0.167 HD
ATOM     59  C   UNL A   1      42.665  28.972  33.935  1.00  0.00     0.074 A 
ATOM     60  C   UNL A   1      42.822  29.395  35.313  1.00  0.00     0.031 C 
ATOM     61  C   UNL A   1      43.520  28.151  33.282  1.00  0.00     0.034 A 
BRANCH  48  62
ATOM     62  C   UNL A   1      41.844  26.712  27.530  1.00  0.00     0.023 A 
ATOM     63  C   UNL A   1      42.505  27.353  26.464  1.00  0.00     0.012 A 
ATOM     64  C   UNL A   1      41.641  25.319  27.486  1.00  0.00     0.148 A 
ATOM     65  C   UNL A   1      42.960  26.621  25.369  1.00  0.00     0.002 A 
ATOM     66  C   UNL A   1      42.120  24.591  26.402  1.00  0.00     0.091 A 
ATOM     67  F   UNL A   1      41.008  24.734  28.512  1.00  0.00    -0.205 F 
ATOM     68  C   UNL A   1      42.778  25.240  25.344  1.00  0.00     0.022 A 
BRANCH  66  69
ATOM     69  S   UNL A   1      41.985  22.803  26.290  1.00  0.00     0.127 S 
ATOM     70  O   UNL A   1      42.638  22.541  25.008  1.00  0.00    -0.237 OA
ATOM     71  O   UNL A   1      42.742  22.364  27.463  1.00  0.00    -0.237 OA
ATOM     72  O   UNL A   1      40.561  22.502  26.330  1.00  0.00    -0.744 OA
ENDBRANCH  66  69
ENDBRANCH  48  62
BRANCH  49  73
ATOM     73  C   UNL A   1      39.445  31.933  35.691  1.00  0.00     0.023 A 
ATOM     74  C   UNL A   1      39.841  33.281  35.754  1.00  0.00     0.012 A 
ATOM     75  C   UNL A   1      38.629  31.400  36.708  1.00  0.00     0.148 A 
ATOM     76  C   UNL A   1      39.437  34.087  36.818  1.00  0.00     0.002 A 
ATOM     77  C   UNL A   1      38.200  32.218  37.745  1.00  0.00     0.091 A 
ATOM     78  F   UNL A   1      38.261  30.115  36.615  1.00  0.00    -0.205 F 
ATOM     79  C   UNL A   1      38.609  33.560  37.807  1.00  0.00     0.022 A 
BRANCH  77  80
ATOM     80  S   UNL A   1      37.054  31.659  39.009  1.00  0.00     0.127 S 
ATOM     81  O   UNL A   1      35.977  32.639  38.887  1.00  0.00    -0.237 OA
ATOM     82  O   UNL A   1      36.721  30.315  38.537  1.00  0.00    -0.237 OA
ATOM     83  O   UNL A   1      37.794  31.697  40.262  1.00  0.00    -0.744 OA
ENDBRANCH  77  80
ENDBRANCH  49  73
BRANCH  61  84
ATOM     84  C   UNL A   1      44.727  27.644  34.019  1.00  0.00     0.023 A 
ATOM     85  C   UNL A   1      45.889  28.436  34.071  1.00  0.00     0.012 A 
ATOM     86  C   UNL A   1      44.645  26.472  34.796  1.00  0.00     0.148 A 
ATOM     87  C   UNL A   1      46.954  28.071  34.892  1.00  0.00     0.002 A 
ATOM     88  C   UNL A   1      45.696  26.133  35.638  1.00  0.00     0.091 A 
ATOM     89  F   UNL A   1      43.526  25.736  34.723  1.00  0.00    -0.205 F 
ATOM     90  C   UNL A   1      46.851  26.930  35.686  1.00  0.00     0.022 A 
BRANCH  88  91
ATOM     91  S   UNL A   1      45.630  24.728  36.756  1.00  0.00     0.127 S 
ATOM     92  O   UNL A   1      46.952  24.781  37.380  1.00  0.00    -0.237 OA
ATOM     93  O   UNL A   1      44.523  25.092  37.639  1.00  0.00    -0.237 OA
ATOM     94  O   UNL A   1      45.391  23.557  35.923  1.00  0.00    -0.744 OA
ENDBRANCH  88  91
ENDBRANCH  61  84
ENDBRANCH  35  36
ENDBRANCH  28  30
ENDBRANCH  27  28
ENDBRANCH  26  27
ENDBRANCH  25  26
ENDBRANCH  24  25
ENDBRANCH  23  24
ENDBRANCH   1  23
TORSDOF 24
ENDMDL
MODEL 2
REMARK VINA RESULT:      -9.7      2.061      7.906
REMARK SMILES C[C@H]1Cc2ccccc2N1/C=C\C(=O)OCCOCCOCCOCCOC(=O)c1ccc(-c2c3nc(c(-c4cccc(S(=O)(=O)[O-])c4F)c4ccc([nH]4)c(-c4cccc(S(=O)(=O)[O-])c4F)c4nc(c(-c5cccc(S(=O)(=O)[O-])c5F)c5ccc2[nH]5)C=C4)C=C3)cc1
REMARK SMILES IDX 22 1 21 2 20 3 19 4 18 5 17 6 16 7 15 8 13 9 14 10 12 11
REMARK SMILES IDX 11 12 10 13 1 14 2 15 3 16 4 17 9 18 5 19 8 20 6 21 7 22
REMARK SMILES IDX 23 23 24 24 25 25 26 26 27 27 28 28 29 29 30 30 31 31 92 32
REMARK SMILES IDX 32 33 91 34 33 35 34 36 35 37 85 38 36 39 90 40 84 41 86 42
REMARK SMILES IDX 37 43 89 44 83 45 82 46 38 48 70 49 50 50 69 51 51 52 54 53
REMARK SMILES IDX 68 54 87 55 52 56 53 57 67 59 88 60 55 61 39 62 40 63 48 64
REMARK SMILES IDX 41 65 43 66 49 67 42 68 44 69 45 70 46 71 47 72 71 73 72 74
REMARK SMILES IDX 80 75 73 76 75 77 81 78 74 79 76 80 77 81 78 82 79 83 56 84
REMARK SMILES IDX 57 85 65 86 58 87 60 88 66 89 59 90 61 91 62 92 63 93 64 94
REMARK H PARENT 86 47 54 58
REMARK Flexibility Score: inf
ROOT
ATOM      1  C   UNL A   1      31.771  28.917  24.682  1.00  0.00     0.188 C 
ENDROOT
BRANCH   1   2
ATOM      2  O   UNL A   1      31.990  29.393  23.368  1.00  0.00    -0.377 OA
BRANCH   2   3
ATOM      3  C   UNL A   1      31.082  28.893  22.402  1.00  0.00     0.188 C 
BRANCH   3   4
ATOM      4  C   UNL A   1      30.551  27.458  22.603  1.00  0.00     0.188 C 
BRANCH   4   5
ATOM      5  O   UNL A   1      29.259  27.269  23.144  1.00  0.00    -0.376 OA
BRANCH   5   6
ATOM      6  C   UNL A   1      28.926  26.364  24.180  1.00  0.00     0.202 C 
BRANCH   6   7
ATOM      7  C   UNL A   1      29.764  26.100  25.434  1.00  0.00     0.261 C 
BRANCH   7   8
ATOM      8  O   UNL A   1      30.198  24.758  25.599  1.00  0.00    -0.460 OA
BRANCH   8   9
ATOM      9  C   UNL A   1      31.124  24.525  26.550  1.00  0.00     0.332 C 
ATOM     10  O   UNL A   1      31.141  23.584  27.328  1.00  0.00    -0.247 OA
BRANCH   9  11
ATOM     11  C   UNL A   1      32.253  25.464  26.439  1.00  0.00     0.111 C 
ATOM     12  C   UNL A   1      33.368  25.440  25.696  1.00  0.00     0.094 C 
BRANCH  12  13
ATOM     13  N   UNL A   1      33.923  24.613  24.741  1.00  0.00    -0.344 N 
ATOM     14  C   UNL A   1      33.641  25.592  22.473  1.00  0.00     0.032 C 
ATOM     15  C   UNL A   1      33.481  24.344  23.347  1.00  0.00     0.088 C 
ATOM     16  C   UNL A   1      34.344  23.192  22.779  1.00  0.00     0.062 C 
ATOM     17  C   UNL A   1      35.485  23.177  23.730  1.00  0.00    -0.022 A 
ATOM     18  C   UNL A   1      35.176  23.942  24.858  1.00  0.00     0.044 A 
ATOM     19  C   UNL A   1      36.682  22.489  23.599  1.00  0.00     0.006 A 
ATOM     20  C   UNL A   1      36.086  23.989  25.907  1.00  0.00     0.026 A 
ATOM     21  C   UNL A   1      37.601  22.564  24.640  1.00  0.00     0.000 A 
ATOM     22  C   UNL A   1      37.301  23.301  25.794  1.00  0.00     0.002 A 
ENDBRANCH  12  13
ENDBRANCH   9  11
ENDBRANCH   8   9
ENDBRANCH   7   8
ENDBRANCH   6   7
ENDBRANCH   5   6
ENDBRANCH   4   5
ENDBRANCH   3   4
ENDBRANCH   2   3
ENDBRANCH   1   2
BRANCH   1  23
ATOM     23  C   UNL A   1      32.780  29.454  25.714  1.00  0.00     0.188 C 
BRANCH  23  24
ATOM     24  O   UNL A   1      32.395  30.335  26.765  1.00  0.00    -0.376 OA
BRANCH  24  25
ATOM     25  C   UNL A   1      31.632  31.500  26.503  1.00  0.00     0.202 C 
BRANCH  25  26
ATOM     26  C   UNL A   1      32.072  32.865  27.059  1.00  0.00     0.261 C 
BRANCH  26  27
ATOM     27  O   UNL A   1      32.797  32.854  28.289  1.00  0.00    -0.460 OA
BRANCH  27  28
ATOM     28  C   UNL A   1      33.347  34.037  28.654  1.00  0.00     0.338 C 
ATOM     29  O   UNL A   1      32.883  35.151  28.480  1.00  0.00    -0.246 OA
BRANCH  28  30
ATOM     30  C   UNL A   1      34.553  33.752  29.460  1.00  0.00     0.060 A 
ATOM     31  C   UNL A   1      34.457  33.046  30.660  1.00  0.00     0.016 A 
ATOM     32  C   UNL A   1      35.798  34.205  29.001  1.00  0.00     0.016 A 
ATOM     33  C   UNL A   1      35.617  32.756  31.380  1.00  0.00     0.010 A 
ATOM     34  C   UNL A   1      36.955  33.934  29.730  1.00  0.00     0.010 A 
ATOM     35  C   UNL A   1      36.875  33.175  30.904  1.00  0.00    -0.014 A 
BRANCH  35  36
ATOM     36  C   UNL A   1      38.101  32.590  31.494  1.00  0.00     0.031 A 
ATOM     37  C   UNL A   1      38.720  33.103  32.756  1.00  0.00     0.074 A 
ATOM     38  C   UNL A   1      38.668  31.565  30.828  1.00  0.00     0.049 A 
ATOM     39  N   UNL A   1      39.701  32.584  33.445  1.00  0.00    -0.248 NA
ATOM     40  C   UNL A   1      38.187  34.356  33.313  1.00  0.00     0.031 C 
ATOM     41  C   UNL A   1      38.196  31.046  29.540  1.00  0.00     0.029 A 
ATOM     42  N   UNL A   1      39.744  30.775  31.131  1.00  0.00    -0.354 N 
ATOM     43  C   UNL A   1      39.909  33.437  34.520  1.00  0.00     0.074 A 
ATOM     44  C   UNL A   1      38.963  34.525  34.380  1.00  0.00     0.031 C 
ATOM     45  C   UNL A   1      38.958  30.003  29.182  1.00  0.00     0.029 A 
ATOM     46  C   UNL A   1      39.975  29.786  30.205  1.00  0.00     0.049 A 
ATOM     47  H   UNL A   1      40.299  30.903  31.935  1.00  0.00     0.167 HD
ATOM     48  C   UNL A   1      40.795  33.303  35.535  1.00  0.00     0.034 A 
ATOM     49  C   UNL A   1      40.888  28.797  30.187  1.00  0.00     0.034 A 
ATOM     50  C   UNL A   1      41.723  32.209  35.660  1.00  0.00     0.049 A 
ATOM     51  C   UNL A   1      41.830  28.651  31.343  1.00  0.00     0.074 A 
ATOM     52  C   UNL A   1      42.603  31.950  36.698  1.00  0.00     0.029 A 
ATOM     53  N   UNL A   1      41.909  31.209  34.719  1.00  0.00    -0.354 N 
ATOM     54  N   UNL A   1      41.902  29.373  32.434  1.00  0.00    -0.248 NA
ATOM     55  C   UNL A   1      42.793  27.542  31.289  1.00  0.00     0.031 C 
ATOM     56  C   UNL A   1      43.334  30.804  36.375  1.00  0.00     0.029 A 
ATOM     57  C   UNL A   1      42.894  30.336  35.147  1.00  0.00     0.049 A 
ATOM     58  H   UNL A   1      41.413  31.130  33.872  1.00  0.00     0.167 HD
ATOM     59  C   UNL A   1      42.898  28.795  33.208  1.00  0.00     0.074 A 
ATOM     60  C   UNL A   1      43.400  27.656  32.464  1.00  0.00     0.031 C 
ATOM     61  C   UNL A   1      43.356  29.182  34.421  1.00  0.00     0.034 A 
BRANCH  48  62
ATOM     62  C   UNL A   1      40.772  34.313  36.648  1.00  0.00     0.023 A 
ATOM     63  C   UNL A   1      41.327  35.587  36.419  1.00  0.00     0.012 A 
ATOM     64  C   UNL A   1      40.069  34.064  37.843  1.00  0.00     0.148 A 
ATOM     65  C   UNL A   1      41.186  36.602  37.365  1.00  0.00     0.002 A 
ATOM     66  C   UNL A   1      39.910  35.088  38.770  1.00  0.00     0.091 A 
ATOM     67  F   UNL A   1      39.552  32.842  38.037  1.00  0.00    -0.205 F 
ATOM     68  C   UNL A   1      40.468  36.356  38.533  1.00  0.00     0.022 A 
BRANCH  66  69
ATOM     69  S   UNL A   1      38.962  34.897  40.285  1.00  0.00     0.127 S 
ATOM     70  O   UNL A   1      39.978  34.375  41.200  1.00  0.00    -0.237 OA
ATOM     71  O   UNL A   1      38.542  36.270  40.559  1.00  0.00    -0.237 OA
ATOM     72  O   UNL A   1      37.882  33.973  39.971  1.00  0.00    -0.744 OA
ENDBRANCH  66  69
ENDBRANCH  48  62
BRANCH  49  73
ATOM     73  C   UNL A   1      40.869  27.824  29.065  1.00  0.00     0.023 A 
ATOM     74  C   UNL A   1      39.871  26.833  29.031  1.00  0.00     0.012 A 
ATOM     75  C   UNL A   1      41.766  27.944  27.987  1.00  0.00     0.148 A 
ATOM     76  C   UNL A   1      39.770  25.970  27.940  1.00  0.00     0.002 A 
ATOM     77  C   UNL A   1      41.638  27.105  26.887  1.00  0.00     0.091 A 
ATOM     78  F   UNL A   1      42.700  28.904  28.045  1.00  0.00    -0.205 F 
ATOM     79  C   UNL A   1      40.645  26.112  26.865  1.00  0.00     0.022 A 
BRANCH  77  80
ATOM     80  S   UNL A   1      42.650  27.276  25.414  1.00  0.00     0.127 S 
ATOM     81  O   UNL A   1      42.359  26.031  24.708  1.00  0.00    -0.237 OA
ATOM     82  O   UNL A   1      42.087  28.479  24.802  1.00  0.00    -0.237 OA
ATOM     83  O   UNL A   1      44.020  27.420  25.888  1.00  0.00    -0.744 OA
ENDBRANCH  77  80
ENDBRANCH  49  73
BRANCH  61  84
ATOM     84  C   UNL A   1      44.452  28.378  35.061  1.00  0.00     0.023 A 
ATOM     85  C   UNL A   1      45.795  28.700  34.790  1.00  0.00     0.012 A 
ATOM     86  C   UNL A   1      44.148  27.426  36.055  1.00  0.00     0.148 A 
ATOM     87  C   UNL A   1      46.824  28.089  35.505  1.00  0.00     0.002 A 
ATOM     88  C   UNL A   1      45.176  26.847  36.787  1.00  0.00     0.091 A 
ATOM     89  F   UNL A   1      42.859  27.138  36.288  1.00  0.00    -0.205 F 
ATOM     90  C   UNL A   1      46.514  27.175  36.512  1.00  0.00     0.022 A 
BRANCH  88  91
ATOM     91  S   UNL A   1      44.879  25.720  38.153  1.00  0.00     0.127 S 
ATOM     92  O   UNL A   1      46.228  25.541  38.691  1.00  0.00    -0.237 OA
ATOM     93  O   UNL A   1      43.982  26.500  39.004  1.00  0.00    -0.237 OA
ATOM     94  O   UNL A   1      44.288  24.522  37.571  1.00  0.00    -0.744 OA
ENDBRANCH  88  91
ENDBRANCH  61  84
ENDBRANCH  35  36
ENDBRANCH  28  30
ENDBRANCH  27  28
ENDBRANCH  26  27
ENDBRANCH  25  26
ENDBRANCH  24  25
ENDBRANCH  23  24
ENDBRANCH   1  23
TORSDOF 24
ENDMDL
MODEL 3
REMARK VINA RESULT:      -9.5      1.665      2.286
REMARK SMILES C[C@H]1Cc2ccccc2N1/C=C\C(=O)OCCOCCOCCOCCOC(=O)c1ccc(-c2c3nc(c(-c4cccc(S(=O)(=O)[O-])c4F)c4ccc([nH]4)c(-c4cccc(S(=O)(=O)[O-])c4F)c4nc(c(-c5cccc(S(=O)(=O)[O-])c5F)c5ccc2[nH]5)C=C4)C=C3)cc1
REMARK SMILES IDX 22 1 21 2 20 3 19 4 18 5 17 6 16 7 15 8 13 9 14 10 12 11
REMARK SMILES IDX 11 12 10 13 1 14 2 15 3 16 4 17 9 18 5 19 8 20 6 21 7 22
REMARK SMILES IDX 23 23 24 24 25 25 26 26 27 27 28 28 29 29 30 30 31 31 92 32
REMARK SMILES IDX 32 33 91 34 33 35 34 36 35 37 85 38 36 39 90 40 84 41 86 42
REMARK SMILES IDX 37 43 89 44 83 45 82 46 38 48 70 49 50 50 69 51 51 52 54 53
REMARK SMILES IDX 68 54 87 55 52 56 53 57 67 59 88 60 55 61 39 62 40 63 48 64
REMARK SMILES IDX 41 65 43 66 49 67 42 68 44 69 45 70 46 71 47 72 71 73 72 74
REMARK SMILES IDX 80 75 73 76 75 77 81 78 74 79 76 80 77 81 78 82 79 83 56 84
REMARK SMILES IDX 57 85 65 86 58 87 60 88 66 89 59 90 61 91 62 92 63 93 64 94
REMARK H PARENT 86 47 54 58
REMARK Flexibility Score: inf
ROOT
ATOM      1  C   UNL A   1      32.610  28.543  24.854  1.00  0.00     0.188 C 
ENDROOT
BRANCH   1   2
ATOM      2  O   UNL A   1      31.924  29.025  23.715  1.00  0.00    -0.377 OA
BRANCH   2   3
ATOM      3  C   UNL A   1      30.582  28.585  23.606  1.00  0.00     0.188 C 
BRANCH   3   4
ATOM      4  C   UNL A   1      30.323  27.285  22.816  1.00  0.00     0.188 C 
BRANCH   4   5
ATOM      5  O   UNL A   1      30.148  26.073  23.520  1.00  0.00    -0.376 OA
BRANCH   5   6
ATOM      6  C   UNL A   1      30.901  24.891  23.323  1.00  0.00     0.202 C 
BRANCH   6   7
ATOM      7  C   UNL A   1      30.950  23.698  24.281  1.00  0.00     0.261 C 
BRANCH   7   8
ATOM      8  O   UNL A   1      30.998  24.032  25.660  1.00  0.00    -0.460 OA
BRANCH   8   9
ATOM      9  C   UNL A   1      30.657  23.067  26.538  1.00  0.00     0.332 C 
ATOM     10  O   UNL A   1      29.685  22.332  26.463  1.00  0.00    -0.247 OA
BRANCH   9  11
ATOM     11  C   UNL A   1      31.710  22.867  27.547  1.00  0.00     0.111 C 
ATOM     12  C   UNL A   1      32.942  22.344  27.465  1.00  0.00     0.094 C 
BRANCH  12  13
ATOM     13  N   UNL A   1      33.749  21.824  26.475  1.00  0.00    -0.344 N 
ATOM     14  C   UNL A   1      32.596  19.960  25.304  1.00  0.00     0.032 C 
ATOM     15  C   UNL A   1      33.881  20.422  25.997  1.00  0.00     0.088 C 
ATOM     16  C   UNL A   1      35.066  20.357  25.004  1.00  0.00     0.062 C 
ATOM     17  C   UNL A   1      35.250  21.792  24.667  1.00  0.00    -0.022 A 
ATOM     18  C   UNL A   1      34.539  22.590  25.567  1.00  0.00     0.044 A 
ATOM     19  C   UNL A   1      36.036  22.325  23.656  1.00  0.00     0.006 A 
ATOM     20  C   UNL A   1      34.648  23.972  25.471  1.00  0.00     0.026 A 
ATOM     21  C   UNL A   1      36.117  23.710  23.547  1.00  0.00     0.000 A 
ATOM     22  C   UNL A   1      35.436  24.530  24.456  1.00  0.00     0.002 A 
ENDBRANCH  12  13
ENDBRANCH   9  11
ENDBRANCH   8   9
ENDBRANCH   7   8
ENDBRANCH   6   7
ENDBRANCH   5   6
ENDBRANCH   4   5
ENDBRANCH   3   4
ENDBRANCH   2   3
ENDBRANCH   1   2
BRANCH   1  23
ATOM     23  C   UNL A   1      33.057  29.651  25.827  1.00  0.00     0.188 C 
BRANCH  23  24
ATOM     24  O   UNL A   1      32.147  30.292  26.715  1.00  0.00    -0.376 OA
BRANCH  24  25
ATOM     25  C   UNL A   1      31.390  31.417  26.303  1.00  0.00     0.202 C 
BRANCH  25  26
ATOM     26  C   UNL A   1      31.537  32.767  27.026  1.00  0.00     0.261 C 
BRANCH  26  27
ATOM     27  O   UNL A   1      32.781  33.450  26.864  1.00  0.00    -0.460 OA
BRANCH  27  28
ATOM     28  C   UNL A   1      33.302  33.989  27.992  1.00  0.00     0.338 C 
ATOM     29  O   UNL A   1      32.836  34.895  28.661  1.00  0.00    -0.246 OA
BRANCH  28  30
ATOM     30  C   UNL A   1      34.474  33.177  28.387  1.00  0.00     0.060 A 
ATOM     31  C   UNL A   1      35.754  33.733  28.396  1.00  0.00     0.016 A 
ATOM     32  C   UNL A   1      34.278  31.838  28.751  1.00  0.00     0.016 A 
ATOM     33  C   UNL A   1      36.835  32.955  28.812  1.00  0.00     0.010 A 
ATOM     34  C   UNL A   1      35.362  31.054  29.148  1.00  0.00     0.010 A 
ATOM     35  C   UNL A   1      36.641  31.620  29.217  1.00  0.00    -0.014 A 
BRANCH  35  36
ATOM     36  C   UNL A   1      37.721  30.923  29.952  1.00  0.00     0.031 A 
ATOM     37  C   UNL A   1      38.597  29.888  29.320  1.00  0.00     0.074 A 
ATOM     38  C   UNL A   1      37.880  31.246  31.251  1.00  0.00     0.049 A 
ATOM     39  N   UNL A   1      39.664  29.320  29.815  1.00  0.00    -0.248 NA
ATOM     40  C   UNL A   1      38.235  29.422  27.973  1.00  0.00     0.031 C 
ATOM     41  C   UNL A   1      37.019  32.176  31.989  1.00  0.00     0.029 A 
ATOM     42  N   UNL A   1      38.807  30.845  32.175  1.00  0.00    -0.354 N 
ATOM     43  C   UNL A   1      40.109  28.429  28.849  1.00  0.00     0.074 A 
ATOM     44  C   UNL A   1      39.180  28.516  27.740  1.00  0.00     0.031 C 
ATOM     45  C   UNL A   1      37.480  32.300  33.241  1.00  0.00     0.029 A 
ATOM     46  C   UNL A   1      38.658  31.454  33.398  1.00  0.00     0.049 A 
ATOM     47  H   UNL A   1      39.512  30.185  31.981  1.00  0.00     0.167 HD
ATOM     48  C   UNL A   1      41.205  27.635  28.884  1.00  0.00     0.034 A 
ATOM     49  C   UNL A   1      39.399  31.363  34.519  1.00  0.00     0.034 A 
ATOM     50  C   UNL A   1      42.121  27.568  29.993  1.00  0.00     0.049 A 
ATOM     51  C   UNL A   1      40.628  30.505  34.515  1.00  0.00     0.074 A 
ATOM     52  C   UNL A   1      43.302  26.850  30.084  1.00  0.00     0.029 A 
ATOM     53  N   UNL A   1      41.956  28.221  31.204  1.00  0.00    -0.354 N 
ATOM     54  N   UNL A   1      41.125  29.796  33.532  1.00  0.00    -0.248 NA
ATOM     55  C   UNL A   1      41.416  30.457  35.754  1.00  0.00     0.031 C 
ATOM     56  C   UNL A   1      43.841  27.053  31.356  1.00  0.00     0.029 A 
ATOM     57  C   UNL A   1      43.008  27.916  32.050  1.00  0.00     0.049 A 
ATOM     58  H   UNL A   1      41.204  28.815  31.428  1.00  0.00     0.167 HD
ATOM     59  C   UNL A   1      42.296  29.235  34.023  1.00  0.00     0.074 A 
ATOM     60  C   UNL A   1      42.440  29.692  35.391  1.00  0.00     0.031 C 
ATOM     61  C   UNL A   1      43.165  28.411  33.394  1.00  0.00     0.034 A 
BRANCH  48  62
ATOM     62  C   UNL A   1      41.540  26.817  27.668  1.00  0.00     0.023 A 
ATOM     63  C   UNL A   1      42.234  27.432  26.608  1.00  0.00     0.012 A 
ATOM     64  C   UNL A   1      41.320  25.426  27.642  1.00  0.00     0.148 A 
ATOM     65  C   UNL A   1      42.703  26.676  25.534  1.00  0.00     0.002 A 
ATOM     66  C   UNL A   1      41.813  24.674  26.580  1.00  0.00     0.091 A 
ATOM     67  F   UNL A   1      40.656  24.866  28.662  1.00  0.00    -0.205 F 
ATOM     68  C   UNL A   1      42.504  25.298  25.527  1.00  0.00     0.022 A 
BRANCH  66  69
ATOM     69  S   UNL A   1      41.657  22.886  26.494  1.00  0.00     0.127 S 
ATOM     70  O   UNL A   1      42.306  22.477  27.739  1.00  0.00    -0.237 OA
ATOM     71  O   UNL A   1      40.206  22.706  26.474  1.00  0.00    -0.237 OA
ATOM     72  O   UNL A   1      42.344  22.479  25.277  1.00  0.00    -0.744 OA
ENDBRANCH  66  69
ENDBRANCH  48  62
BRANCH  49  73
ATOM     73  C   UNL A   1      39.027  32.192  35.693  1.00  0.00     0.023 A 
ATOM     74  C   UNL A   1      38.078  31.701  36.610  1.00  0.00     0.012 A 
ATOM     75  C   UNL A   1      39.685  33.408  35.959  1.00  0.00     0.148 A 
ATOM     76  C   UNL A   1      37.785  32.414  37.772  1.00  0.00     0.002 A 
ATOM     77  C   UNL A   1      39.415  34.094  37.136  1.00  0.00     0.091 A 
ATOM     78  F   UNL A   1      40.589  33.844  35.072  1.00  0.00    -0.205 F 
ATOM     79  C   UNL A   1      38.459  33.603  38.040  1.00  0.00     0.022 A 
BRANCH  77  80
ATOM     80  S   UNL A   1      40.302  35.579  37.618  1.00  0.00     0.127 S 
ATOM     81  O   UNL A   1      39.932  35.702  39.025  1.00  0.00    -0.237 OA
ATOM     82  O   UNL A   1      41.691  35.188  37.376  1.00  0.00    -0.237 OA
ATOM     83  O   UNL A   1      39.809  36.637  36.747  1.00  0.00    -0.744 OA
ENDBRANCH  77  80
ENDBRANCH  49  73
BRANCH  61  84
ATOM     84  C   UNL A   1      44.375  27.938  34.148  1.00  0.00     0.023 A 
ATOM     85  C   UNL A   1      45.636  28.483  33.846  1.00  0.00     0.012 A 
ATOM     86  C   UNL A   1      44.230  27.087  35.263  1.00  0.00     0.148 A 
ATOM     87  C   UNL A   1      46.739  28.195  34.648  1.00  0.00     0.002 A 
ATOM     88  C   UNL A   1      45.326  26.831  36.077  1.00  0.00     0.091 A 
ATOM     89  F   UNL A   1      43.016  26.580  35.523  1.00  0.00    -0.205 F 
ATOM     90  C   UNL A   1      46.581  27.382  35.770  1.00  0.00     0.022 A 
BRANCH  88  91
ATOM     91  S   UNL A   1      45.209  25.862  37.585  1.00  0.00     0.127 S 
ATOM     92  O   UNL A   1      44.868  24.539  37.063  1.00  0.00    -0.237 OA
ATOM     93  O   UNL A   1      46.563  25.975  38.126  1.00  0.00    -0.237 OA
ATOM     94  O   UNL A   1      44.170  26.490  38.391  1.00  0.00    -0.744 OA
ENDBRANCH  88  91
ENDBRANCH  61  84
ENDBRANCH  35  36
ENDBRANCH  28  30
ENDBRANCH  27  28
ENDBRANCH  26  27
ENDBRANCH  25  26
ENDBRANCH  24  25
ENDBRANCH  23  24
ENDBRANCH   1  23
TORSDOF 24
ENDMDL
