MODEL 1
REMARK VINA RESULT:      -8.5      0.000      0.000
REMARK SMILES C=CCc1cccc(-c2ccc([C@@H](C)C(=O)OCCOCCOCCOCCOC(=O)c3ccc(-c4c5nc(c(-c6cccc(S(=O)(=O)[O-])c6F)c6ccc([nH]6)c(-c6cccc(S(=O)(=O)[O-])c6F)c6nc(c(-c7cccc(S(=O)(=O)[O-])c7F)c7ccc4[nH]7)C=C6)C=C5)cc3)cc2)c1
REMARK SMILES IDX 22 1 21 2 20 3 19 4 18 5 17 6 15 7 16 8 13 9 14 10 12 11
REMARK SMILES IDX 9 12 10 13 96 14 11 15 95 16 8 17 4 18 5 19 97 20 6 21 7 22
REMARK SMILES IDX 3 23 2 24 1 25 23 26 24 27 25 28 26 29 27 30 28 31 29 32
REMARK SMILES IDX 30 33 31 34 32 35 33 36 94 37 34 38 93 39 35 40 36 41 37 42
REMARK SMILES IDX 87 43 38 44 92 45 86 46 88 47 39 48 91 49 85 50 84 51 40 53
REMARK SMILES IDX 72 54 52 55 71 56 53 57 56 58 70 59 89 60 54 61 55 62 69 64
REMARK SMILES IDX 90 65 57 66 41 67 42 68 50 69 43 70 45 71 51 72 44 73 46 74
REMARK SMILES IDX 47 75 48 76 49 77 73 78 74 79 82 80 75 81 77 82 83 83 76 84
REMARK SMILES IDX 78 85 79 86 80 87 81 88 58 89 59 90 67 91 60 92 62 93 68 94
REMARK SMILES IDX 61 95 63 96 64 97 65 98 66 99
REMARK H PARENT 88 52 56 63
REMARK Flexibility Score: inf
ROOT
ATOM      1  C   UNL A   1      40.111  23.863  26.822  1.00  0.00     0.188 C 
ENDROOT
BRANCH   1   2
ATOM      2  C   UNL A   1      38.696  24.318  26.435  1.00  0.00     0.188 C 
BRANCH   2   3
ATOM      3  O   UNL A   1      37.668  23.377  26.157  1.00  0.00    -0.376 OA
BRANCH   3   4
ATOM      4  C   UNL A   1      37.909  22.276  25.292  1.00  0.00     0.202 C 
BRANCH   4   5
ATOM      5  C   UNL A   1      36.934  21.082  25.228  1.00  0.00     0.261 C 
BRANCH   5   6
ATOM      6  O   UNL A   1      35.591  21.357  24.783  1.00  0.00    -0.463 OA
BRANCH   6   7
ATOM      7  C   UNL A   1      34.662  21.550  25.746  1.00  0.00     0.313 C 
ATOM      8  O   UNL A   1      34.863  21.313  26.937  1.00  0.00    -0.252 OA
BRANCH   7   9
ATOM      9  C   UNL A   1      33.305  22.075  25.277  1.00  0.00     0.126 C 
ATOM     10  C   UNL A   1      33.018  21.501  23.895  1.00  0.00     0.025 C 
BRANCH   9  11
ATOM     11  C   UNL A   1      32.956  23.563  25.343  1.00  0.00    -0.034 A 
ATOM     12  C   UNL A   1      32.180  26.327  25.439  1.00  0.00    -0.018 A 
ATOM     13  C   UNL A   1      33.524  25.928  25.564  1.00  0.00     0.009 A 
ATOM     14  C   UNL A   1      31.227  25.314  25.280  1.00  0.00     0.009 A 
ATOM     15  C   UNL A   1      33.909  24.573  25.512  1.00  0.00     0.005 A 
ATOM     16  C   UNL A   1      31.607  23.962  25.220  1.00  0.00     0.005 A 
BRANCH  12  17
ATOM     17  C   UNL A   1      31.800  27.755  25.389  1.00  0.00    -0.018 A 
ATOM     18  C   UNL A   1      30.633  29.659  24.354  1.00  0.00    -0.044 A 
ATOM     19  C   UNL A   1      31.177  30.513  25.321  1.00  0.00     0.004 A 
ATOM     20  C   UNL A   1      30.956  28.285  24.393  1.00  0.00     0.012 A 
ATOM     21  C   UNL A   1      32.015  30.009  26.311  1.00  0.00     0.001 A 
ATOM     22  C   UNL A   1      32.320  28.647  26.343  1.00  0.00     0.009 A 
BRANCH  18  23
ATOM     23  C   UNL A   1      29.740  30.228  23.275  1.00  0.00     0.062 C 
BRANCH  23  24
ATOM     24  C   UNL A   1      28.857  31.333  23.788  1.00  0.00    -0.030 C 
ATOM     25  C   UNL A   1      27.546  31.436  23.537  1.00  0.00     0.004 C 
ENDBRANCH  23  24
ENDBRANCH  18  23
ENDBRANCH  12  17
ENDBRANCH   9  11
ENDBRANCH   7   9
ENDBRANCH   6   7
ENDBRANCH   5   6
ENDBRANCH   4   5
ENDBRANCH   3   4
ENDBRANCH   2   3
ENDBRANCH   1   2
BRANCH   1  26
ATOM     26  O   UNL A   1      40.955  24.882  27.311  1.00  0.00    -0.377 OA
BRANCH  26  27
ATOM     27  C   UNL A   1      40.762  26.181  26.781  1.00  0.00     0.188 C 
BRANCH  27  28
ATOM     28  C   UNL A   1      40.783  27.348  27.783  1.00  0.00     0.188 C 
BRANCH  28  29
ATOM     29  O   UNL A   1      40.471  26.971  29.120  1.00  0.00    -0.376 OA
BRANCH  29  30
ATOM     30  C   UNL A   1      39.107  26.828  29.489  1.00  0.00     0.202 C 
BRANCH  30  31
ATOM     31  C   UNL A   1      38.711  27.030  30.964  1.00  0.00     0.261 C 
BRANCH  31  32
ATOM     32  O   UNL A   1      37.923  28.187  31.282  1.00  0.00    -0.460 OA
BRANCH  32  33
ATOM     33  C   UNL A   1      38.341  29.000  32.272  1.00  0.00     0.338 C 
ATOM     34  O   UNL A   1      38.098  28.885  33.463  1.00  0.00    -0.246 OA
BRANCH  33  35
ATOM     35  C   UNL A   1      39.327  29.945  31.701  1.00  0.00     0.060 A 
ATOM     36  C   UNL A   1      39.236  30.276  30.342  1.00  0.00     0.016 A 
ATOM     37  C   UNL A   1      40.328  30.507  32.497  1.00  0.00     0.016 A 
ATOM     38  C   UNL A   1      40.172  31.134  29.764  1.00  0.00     0.010 A 
ATOM     39  C   UNL A   1      41.282  31.345  31.910  1.00  0.00     0.010 A 
ATOM     40  C   UNL A   1      41.230  31.632  30.534  1.00  0.00    -0.014 A 
BRANCH  40  41
ATOM     41  C   UNL A   1      42.385  32.278  29.862  1.00  0.00     0.031 A 
ATOM     42  C   UNL A   1      43.573  31.422  29.507  1.00  0.00     0.074 A 
ATOM     43  C   UNL A   1      42.384  33.589  29.562  1.00  0.00     0.049 A 
ATOM     44  N   UNL A   1      44.706  31.764  28.955  1.00  0.00    -0.248 NA
ATOM     45  C   UNL A   1      43.464  29.987  29.820  1.00  0.00     0.031 C 
ATOM     46  C   UNL A   1      41.290  34.518  29.833  1.00  0.00     0.029 A 
ATOM     47  N   UNL A   1      43.355  34.368  28.982  1.00  0.00    -0.354 N 
ATOM     48  C   UNL A   1      45.459  30.598  28.885  1.00  0.00     0.074 A 
ATOM     49  C   UNL A   1      44.656  29.540  29.459  1.00  0.00     0.031 C 
ATOM     50  C   UNL A   1      41.662  35.752  29.449  1.00  0.00     0.029 A 
ATOM     51  C   UNL A   1      43.030  35.704  28.933  1.00  0.00     0.049 A 
ATOM     52  H   UNL A   1      44.202  34.006  28.635  1.00  0.00     0.167 HD
ATOM     53  C   UNL A   1      46.703  30.419  28.382  1.00  0.00     0.034 A 
ATOM     54  C   UNL A   1      43.765  36.766  28.544  1.00  0.00     0.034 A 
ATOM     55  C   UNL A   1      47.496  31.469  27.804  1.00  0.00     0.049 A 
ATOM     56  C   UNL A   1      45.165  36.547  28.027  1.00  0.00     0.074 A 
ATOM     57  C   UNL A   1      48.751  31.380  27.227  1.00  0.00     0.029 A 
ATOM     58  N   UNL A   1      47.124  32.803  27.748  1.00  0.00    -0.354 N 
ATOM     59  N   UNL A   1      45.822  35.424  27.868  1.00  0.00    -0.248 NA
ATOM     60  C   UNL A   1      45.913  37.742  27.606  1.00  0.00     0.031 C 
ATOM     61  C   UNL A   1      49.155  32.668  26.863  1.00  0.00     0.029 A 
ATOM     62  C   UNL A   1      48.132  33.551  27.165  1.00  0.00     0.049 A 
ATOM     63  H   UNL A   1      46.269  33.165  28.075  1.00  0.00     0.167 HD
ATOM     64  C   UNL A   1      47.041  35.772  27.292  1.00  0.00     0.074 A 
ATOM     65  C   UNL A   1      47.023  37.208  27.115  1.00  0.00     0.031 C 
ATOM     66  C   UNL A   1      48.083  34.974  26.947  1.00  0.00     0.034 A 
BRANCH  53  67
ATOM     67  C   UNL A   1      47.286  29.031  28.433  1.00  0.00     0.023 A 
ATOM     68  C   UNL A   1      48.071  28.635  29.535  1.00  0.00     0.012 A 
ATOM     69  C   UNL A   1      47.012  28.101  27.410  1.00  0.00     0.148 A 
ATOM     70  C   UNL A   1      48.604  27.349  29.602  1.00  0.00     0.002 A 
ATOM     71  C   UNL A   1      47.505  26.806  27.507  1.00  0.00     0.091 A 
ATOM     72  F   UNL A   1      46.283  28.504  26.360  1.00  0.00    -0.205 F 
ATOM     73  C   UNL A   1      48.312  26.432  28.595  1.00  0.00     0.022 A 
BRANCH  71  74
ATOM     74  S   UNL A   1      47.119  25.531  26.304  1.00  0.00     0.127 S 
ATOM     75  O   UNL A   1      48.053  24.473  26.686  1.00  0.00    -0.237 OA
ATOM     76  O   UNL A   1      45.716  25.242  26.605  1.00  0.00    -0.237 OA
ATOM     77  O   UNL A   1      47.352  26.125  24.996  1.00  0.00    -0.744 OA
ENDBRANCH  71  74
ENDBRANCH  53  67
BRANCH  54  78
ATOM     78  C   UNL A   1      43.189  38.141  28.613  1.00  0.00     0.023 A 
ATOM     79  C   UNL A   1      42.409  38.625  27.545  1.00  0.00     0.012 A 
ATOM     80  C   UNL A   1      43.418  38.970  29.727  1.00  0.00     0.148 A 
ATOM     81  C   UNL A   1      41.896  39.923  27.570  1.00  0.00     0.002 A 
ATOM     82  C   UNL A   1      42.856  40.241  29.772  1.00  0.00     0.091 A 
ATOM     83  F   UNL A   1      44.178  38.498  30.726  1.00  0.00    -0.205 F 
ATOM     84  C   UNL A   1      42.111  40.727  28.686  1.00  0.00     0.022 A 
BRANCH  82  85
ATOM     85  S   UNL A   1      42.978  41.300  31.217  1.00  0.00     0.127 S 
ATOM     86  O   UNL A   1      44.404  41.612  31.241  1.00  0.00    -0.237 OA
ATOM     87  O   UNL A   1      42.107  42.416  30.843  1.00  0.00    -0.237 OA
ATOM     88  O   UNL A   1      42.488  40.503  32.334  1.00  0.00    -0.744 OA
ENDBRANCH  82  85
ENDBRANCH  54  78
BRANCH  66  89
ATOM     89  C   UNL A   1      49.278  35.620  26.291  1.00  0.00     0.023 A 
ATOM     90  C   UNL A   1      49.358  35.706  24.888  1.00  0.00     0.012 A 
ATOM     91  C   UNL A   1      50.288  36.212  27.077  1.00  0.00     0.148 A 
ATOM     92  C   UNL A   1      50.442  36.336  24.276  1.00  0.00     0.002 A 
ATOM     93  C   UNL A   1      51.336  36.886  26.463  1.00  0.00     0.091 A 
ATOM     94  F   UNL A   1      50.202  36.109  28.412  1.00  0.00    -0.205 F 
ATOM     95  C   UNL A   1      51.423  36.936  25.063  1.00  0.00     0.022 A 
BRANCH  93  96
ATOM     96  S   UNL A   1      52.590  37.775  27.393  1.00  0.00     0.127 S 
ATOM     97  O   UNL A   1      51.916  37.988  28.673  1.00  0.00    -0.237 OA
ATOM     98  O   UNL A   1      53.687  36.809  27.435  1.00  0.00    -0.237 OA
ATOM     99  O   UNL A   1      52.876  38.984  26.632  1.00  0.00    -0.744 OA
ENDBRANCH  93  96
ENDBRANCH  66  89
ENDBRANCH  40  41
ENDBRANCH  33  35
ENDBRANCH  32  33
ENDBRANCH  31  32
ENDBRANCH  30  31
ENDBRANCH  29  30
ENDBRANCH  28  29
ENDBRANCH  27  28
ENDBRANCH  26  27
ENDBRANCH   1  26
TORSDOF 27
ENDMDL
MODEL 2
REMARK VINA RESULT:      -7.8      6.447      8.628
REMARK SMILES C=CCc1cccc(-c2ccc([C@@H](C)C(=O)OCCOCCOCCOCCOC(=O)c3ccc(-c4c5nc(c(-c6cccc(S(=O)(=O)[O-])c6F)c6ccc([nH]6)c(-c6cccc(S(=O)(=O)[O-])c6F)c6nc(c(-c7cccc(S(=O)(=O)[O-])c7F)c7ccc4[nH]7)C=C6)C=C5)cc3)cc2)c1
REMARK SMILES IDX 22 1 21 2 20 3 19 4 18 5 17 6 15 7 16 8 13 9 14 10 12 11
REMARK SMILES IDX 9 12 10 13 96 14 11 15 95 16 8 17 4 18 5 19 97 20 6 21 7 22
REMARK SMILES IDX 3 23 2 24 1 25 23 26 24 27 25 28 26 29 27 30 28 31 29 32
REMARK SMILES IDX 30 33 31 34 32 35 33 36 94 37 34 38 93 39 35 40 36 41 37 42
REMARK SMILES IDX 87 43 38 44 92 45 86 46 88 47 39 48 91 49 85 50 84 51 40 53
REMARK SMILES IDX 72 54 52 55 71 56 53 57 56 58 70 59 89 60 54 61 55 62 69 64
REMARK SMILES IDX 90 65 57 66 41 67 42 68 50 69 43 70 45 71 51 72 44 73 46 74
REMARK SMILES IDX 47 75 48 76 49 77 73 78 74 79 82 80 75 81 77 82 83 83 76 84
REMARK SMILES IDX 78 85 79 86 80 87 81 88 58 89 59 90 67 91 60 92 62 93 68 94
REMARK SMILES IDX 61 95 63 96 64 97 65 98 66 99
REMARK H PARENT 88 52 56 63
REMARK Flexibility Score: inf
ROOT
ATOM      1  C   UNL A   1      39.272  24.027  27.281  1.00  0.00     0.188 C 
ENDROOT
BRANCH   1   2
ATOM      2  C   UNL A   1      38.155  24.452  26.316  1.00  0.00     0.188 C 
BRANCH   2   3
ATOM      3  O   UNL A   1      37.229  23.506  25.797  1.00  0.00    -0.376 OA
BRANCH   3   4
ATOM      4  C   UNL A   1      37.676  22.249  25.307  1.00  0.00     0.202 C 
BRANCH   4   5
ATOM      5  C   UNL A   1      36.781  20.996  25.391  1.00  0.00     0.261 C 
BRANCH   5   6
ATOM      6  O   UNL A   1      35.388  21.163  25.057  1.00  0.00    -0.463 OA
BRANCH   6   7
ATOM      7  C   UNL A   1      34.568  21.550  26.060  1.00  0.00     0.313 C 
ATOM      8  O   UNL A   1      34.863  21.452  27.251  1.00  0.00    -0.252 OA
BRANCH   7   9
ATOM      9  C   UNL A   1      33.211  22.117  25.640  1.00  0.00     0.126 C 
ATOM     10  C   UNL A   1      32.848  21.536  24.279  1.00  0.00     0.025 C 
BRANCH   9  11
ATOM     11  C   UNL A   1      32.918  23.617  25.700  1.00  0.00    -0.034 A 
ATOM     12  C   UNL A   1      32.241  26.405  25.819  1.00  0.00    -0.018 A 
ATOM     13  C   UNL A   1      33.562  25.970  25.603  1.00  0.00     0.009 A 
ATOM     14  C   UNL A   1      31.264  25.417  25.990  1.00  0.00     0.009 A 
ATOM     15  C   UNL A   1      33.897  24.603  25.538  1.00  0.00     0.005 A 
ATOM     16  C   UNL A   1      31.592  24.052  25.919  1.00  0.00     0.005 A 
BRANCH  12  17
ATOM     17  C   UNL A   1      31.885  27.840  25.779  1.00  0.00    -0.018 A 
ATOM     18  C   UNL A   1      30.895  29.804  24.675  1.00  0.00    -0.044 A 
ATOM     19  C   UNL A   1      31.302  30.608  25.748  1.00  0.00     0.004 A 
ATOM     20  C   UNL A   1      31.197  28.426  24.697  1.00  0.00     0.012 A 
ATOM     21  C   UNL A   1      31.984  30.049  26.824  1.00  0.00     0.001 A 
ATOM     22  C   UNL A   1      32.269  28.682  26.837  1.00  0.00     0.009 A 
BRANCH  18  23
ATOM     23  C   UNL A   1      30.172  30.433  23.505  1.00  0.00     0.062 C 
BRANCH  23  24
ATOM     24  C   UNL A   1      28.701  30.117  23.507  1.00  0.00    -0.030 C 
ATOM     25  C   UNL A   1      27.988  29.820  22.413  1.00  0.00     0.004 C 
ENDBRANCH  23  24
ENDBRANCH  18  23
ENDBRANCH  12  17
ENDBRANCH   9  11
ENDBRANCH   7   9
ENDBRANCH   6   7
ENDBRANCH   5   6
ENDBRANCH   4   5
ENDBRANCH   3   4
ENDBRANCH   2   3
ENDBRANCH   1   2
BRANCH   1  26
ATOM     26  O   UNL A   1      39.920  25.087  27.949  1.00  0.00    -0.377 OA
BRANCH  26  27
ATOM     27  C   UNL A   1      40.270  26.217  27.169  1.00  0.00     0.188 C 
BRANCH  27  28
ATOM     28  C   UNL A   1      40.048  27.597  27.811  1.00  0.00     0.188 C 
BRANCH  28  29
ATOM     29  O   UNL A   1      38.790  27.739  28.462  1.00  0.00    -0.376 OA
BRANCH  29  30
ATOM     30  C   UNL A   1      37.893  28.740  28.004  1.00  0.00     0.202 C 
BRANCH  30  31
ATOM     31  C   UNL A   1      36.883  29.345  28.999  1.00  0.00     0.261 C 
BRANCH  31  32
ATOM     32  O   UNL A   1      37.384  30.300  29.946  1.00  0.00    -0.460 OA
BRANCH  32  33
ATOM     33  C   UNL A   1      37.209  30.058  31.260  1.00  0.00     0.338 C 
ATOM     34  O   UNL A   1      36.154  30.085  31.873  1.00  0.00    -0.246 OA
BRANCH  33  35
ATOM     35  C   UNL A   1      38.485  29.540  31.803  1.00  0.00     0.060 A 
ATOM     36  C   UNL A   1      39.521  30.446  32.070  1.00  0.00     0.016 A 
ATOM     37  C   UNL A   1      38.659  28.177  32.054  1.00  0.00     0.016 A 
ATOM     38  C   UNL A   1      40.749  29.987  32.546  1.00  0.00     0.010 A 
ATOM     39  C   UNL A   1      39.900  27.716  32.506  1.00  0.00     0.010 A 
ATOM     40  C   UNL A   1      40.962  28.614  32.718  1.00  0.00    -0.014 A 
BRANCH  40  41
ATOM     41  C   UNL A   1      42.341  28.105  32.918  1.00  0.00     0.031 A 
ATOM     42  C   UNL A   1      43.135  27.701  31.704  1.00  0.00     0.074 A 
ATOM     43  C   UNL A   1      42.888  28.011  34.143  1.00  0.00     0.049 A 
ATOM     44  N   UNL A   1      44.337  27.195  31.628  1.00  0.00    -0.248 NA
ATOM     45  C   UNL A   1      42.480  27.892  30.399  1.00  0.00     0.031 C 
ATOM     46  C   UNL A   1      42.233  28.389  35.393  1.00  0.00     0.029 A 
ATOM     47  N   UNL A   1      44.117  27.539  34.534  1.00  0.00    -0.354 N 
ATOM     48  C   UNL A   1      44.571  26.975  30.277  1.00  0.00     0.074 A 
ATOM     49  C   UNL A   1      43.382  27.396  29.567  1.00  0.00     0.031 C 
ATOM     50  C   UNL A   1      43.056  28.106  36.419  1.00  0.00     0.029 A 
ATOM     51  C   UNL A   1      44.281  27.499  35.899  1.00  0.00     0.049 A 
ATOM     52  H   UNL A   1      44.814  27.258  33.899  1.00  0.00     0.167 HD
ATOM     53  C   UNL A   1      45.677  26.477  29.675  1.00  0.00     0.034 A 
ATOM     54  C   UNL A   1      45.292  27.001  36.642  1.00  0.00     0.034 A 
ATOM     55  C   UNL A   1      46.861  26.068  30.381  1.00  0.00     0.049 A 
ATOM     56  C   UNL A   1      46.496  26.412  35.951  1.00  0.00     0.074 A 
ATOM     57  C   UNL A   1      48.051  25.592  29.859  1.00  0.00     0.029 A 
ATOM     58  N   UNL A   1      47.000  26.066  31.760  1.00  0.00    -0.354 N 
ATOM     59  N   UNL A   1      46.746  26.310  34.668  1.00  0.00    -0.248 NA
ATOM     60  C   UNL A   1      47.571  25.896  36.812  1.00  0.00     0.031 C 
ATOM     61  C   UNL A   1      48.892  25.260  30.925  1.00  0.00     0.029 A 
ATOM     62  C   UNL A   1      48.247  25.578  32.108  1.00  0.00     0.049 A 
ATOM     63  H   UNL A   1      46.313  26.368  32.397  1.00  0.00     0.167 HD
ATOM     64  C   UNL A   1      48.021  25.759  34.569  1.00  0.00     0.074 A 
ATOM     65  C   UNL A   1      48.497  25.565  35.922  1.00  0.00     0.031 C 
ATOM     66  C   UNL A   1      48.731  25.436  33.458  1.00  0.00     0.034 A 
BRANCH  53  67
ATOM     67  C   UNL A   1      45.660  26.346  28.175  1.00  0.00     0.023 A 
ATOM     68  C   UNL A   1      46.009  27.447  27.367  1.00  0.00     0.012 A 
ATOM     69  C   UNL A   1      45.344  25.116  27.567  1.00  0.00     0.148 A 
ATOM     70  C   UNL A   1      46.012  27.335  25.978  1.00  0.00     0.002 A 
ATOM     71  C   UNL A   1      45.396  24.997  26.184  1.00  0.00     0.091 A 
ATOM     72  F   UNL A   1      44.991  24.088  28.352  1.00  0.00    -0.205 F 
ATOM     73  C   UNL A   1      45.717  26.109  25.387  1.00  0.00     0.022 A 
BRANCH  71  74
ATOM     74  S   UNL A   1      45.111  23.442  25.334  1.00  0.00     0.127 S 
ATOM     75  O   UNL A   1      46.462  23.094  24.895  1.00  0.00    -0.237 OA
ATOM     76  O   UNL A   1      44.584  22.599  26.407  1.00  0.00    -0.237 OA
ATOM     77  O   UNL A   1      44.166  23.732  24.266  1.00  0.00    -0.744 OA
ENDBRANCH  71  74
ENDBRANCH  53  67
BRANCH  54  78
ATOM     78  C   UNL A   1      45.221  27.049  38.131  1.00  0.00     0.023 A 
ATOM     79  C   UNL A   1      44.674  25.962  38.840  1.00  0.00     0.012 A 
ATOM     80  C   UNL A   1      45.689  28.169  38.845  1.00  0.00     0.148 A 
ATOM     81  C   UNL A   1      44.560  26.004  40.230  1.00  0.00     0.002 A 
ATOM     82  C   UNL A   1      45.626  28.180  40.234  1.00  0.00     0.091 A 
ATOM     83  F   UNL A   1      46.190  29.201  38.152  1.00  0.00    -0.205 F 
ATOM     84  C   UNL A   1      45.044  27.108  40.928  1.00  0.00     0.022 A 
BRANCH  82  85
ATOM     85  S   UNL A   1      46.334  29.503  41.222  1.00  0.00     0.127 S 
ATOM     86  O   UNL A   1      46.081  29.030  42.580  1.00  0.00    -0.237 OA
ATOM     87  O   UNL A   1      47.736  29.468  40.806  1.00  0.00    -0.237 OA
ATOM     88  O   UNL A   1      45.620  30.712  40.832  1.00  0.00    -0.744 OA
ENDBRANCH  82  85
ENDBRANCH  54  78
BRANCH  66  89
ATOM     89  C   UNL A   1      50.123  24.888  33.646  1.00  0.00     0.023 A 
ATOM     90  C   UNL A   1      50.378  23.516  33.464  1.00  0.00     0.012 A 
ATOM     91  C   UNL A   1      51.198  25.757  33.928  1.00  0.00     0.148 A 
ATOM     92  C   UNL A   1      51.670  23.009  33.598  1.00  0.00     0.002 A 
ATOM     93  C   UNL A   1      52.490  25.255  34.006  1.00  0.00     0.091 A 
ATOM     94  F   UNL A   1      50.935  27.060  34.111  1.00  0.00    -0.205 F 
ATOM     95  C   UNL A   1      52.728  23.879  33.856  1.00  0.00     0.022 A 
BRANCH  93  96
ATOM     96  S   UNL A   1      53.925  26.312  34.234  1.00  0.00     0.127 S 
ATOM     97  O   UNL A   1      53.542  27.082  35.416  1.00  0.00    -0.237 OA
ATOM     98  O   UNL A   1      54.994  25.339  34.459  1.00  0.00    -0.237 OA
ATOM     99  O   UNL A   1      54.057  27.084  33.005  1.00  0.00    -0.744 OA
ENDBRANCH  93  96
ENDBRANCH  66  89
ENDBRANCH  40  41
ENDBRANCH  33  35
ENDBRANCH  32  33
ENDBRANCH  31  32
ENDBRANCH  30  31
ENDBRANCH  29  30
ENDBRANCH  28  29
ENDBRANCH  27  28
ENDBRANCH  26  27
ENDBRANCH   1  26
TORSDOF 27
ENDMDL
MODEL 3
REMARK VINA RESULT:      -7.7      6.959     12.662
REMARK SMILES C=CCc1cccc(-c2ccc([C@@H](C)C(=O)OCCOCCOCCOCCOC(=O)c3ccc(-c4c5nc(c(-c6cccc(S(=O)(=O)[O-])c6F)c6ccc([nH]6)c(-c6cccc(S(=O)(=O)[O-])c6F)c6nc(c(-c7cccc(S(=O)(=O)[O-])c7F)c7ccc4[nH]7)C=C6)C=C5)cc3)cc2)c1
REMARK SMILES IDX 22 1 21 2 20 3 19 4 18 5 17 6 15 7 16 8 13 9 14 10 12 11
REMARK SMILES IDX 9 12 10 13 96 14 11 15 95 16 8 17 4 18 5 19 97 20 6 21 7 22
REMARK SMILES IDX 3 23 2 24 1 25 23 26 24 27 25 28 26 29 27 30 28 31 29 32
REMARK SMILES IDX 30 33 31 34 32 35 33 36 94 37 34 38 93 39 35 40 36 41 37 42
REMARK SMILES IDX 87 43 38 44 92 45 86 46 88 47 39 48 91 49 85 50 84 51 40 53
REMARK SMILES IDX 72 54 52 55 71 56 53 57 56 58 70 59 89 60 54 61 55 62 69 64
REMARK SMILES IDX 90 65 57 66 41 67 42 68 50 69 43 70 45 71 51 72 44 73 46 74
REMARK SMILES IDX 47 75 48 76 49 77 73 78 74 79 82 80 75 81 77 82 83 83 76 84
REMARK SMILES IDX 78 85 79 86 80 87 81 88 58 89 59 90 67 91 60 92 62 93 68 94
REMARK SMILES IDX 61 95 63 96 64 97 65 98 66 99
REMARK H PARENT 88 52 56 63
REMARK Flexibility Score: inf
ROOT
ATOM      1  C   UNL A   1      50.611  20.415  39.920  1.00  0.00     0.188 C 
ENDROOT
BRANCH   1   2
ATOM      2  C   UNL A   1      49.856  19.594  38.864  1.00  0.00     0.188 C 
BRANCH   2   3
ATOM      3  O   UNL A   1      48.688  18.856  39.199  1.00  0.00    -0.376 OA
BRANCH   3   4
ATOM      4  C   UNL A   1      47.400  19.335  38.838  1.00  0.00     0.202 C 
BRANCH   4   5
ATOM      5  C   UNL A   1      47.174  20.814  38.466  1.00  0.00     0.261 C 
BRANCH   5   6
ATOM      6  O   UNL A   1      46.779  21.095  37.108  1.00  0.00    -0.463 OA
BRANCH   6   7
ATOM      7  C   UNL A   1      45.907  22.112  36.929  1.00  0.00     0.313 C 
ATOM      8  O   UNL A   1      45.705  22.987  37.771  1.00  0.00    -0.252 OA
BRANCH   7   9
ATOM      9  C   UNL A   1      45.144  22.121  35.604  1.00  0.00     0.126 C 
ATOM     10  C   UNL A   1      45.111  20.698  35.059  1.00  0.00     0.025 C 
BRANCH   9  11
ATOM     11  C   UNL A   1      45.468  23.130  34.501  1.00  0.00    -0.034 A 
ATOM     12  C   UNL A   1      45.966  24.994  32.374  1.00  0.00    -0.018 A 
ATOM     13  C   UNL A   1      46.924  24.730  33.369  1.00  0.00     0.009 A 
ATOM     14  C   UNL A   1      44.743  24.319  32.471  1.00  0.00     0.009 A 
ATOM     15  C   UNL A   1      46.686  23.812  34.411  1.00  0.00     0.005 A 
ATOM     16  C   UNL A   1      44.504  23.396  33.504  1.00  0.00     0.005 A 
BRANCH  12  17
ATOM     17  C   UNL A   1      46.266  25.880  31.228  1.00  0.00    -0.018 A 
ATOM     18  C   UNL A   1      47.066  28.002  30.271  1.00  0.00    -0.044 A 
ATOM     19  C   UNL A   1      46.748  27.539  28.988  1.00  0.00     0.004 A 
ATOM     20  C   UNL A   1      46.815  27.168  31.383  1.00  0.00     0.012 A 
ATOM     21  C   UNL A   1      46.203  26.270  28.815  1.00  0.00     0.001 A 
ATOM     22  C   UNL A   1      45.968  25.453  29.923  1.00  0.00     0.009 A 
BRANCH  18  23
ATOM     23  C   UNL A   1      47.639  29.390  30.442  1.00  0.00     0.062 C 
BRANCH  23  24
ATOM     24  C   UNL A   1      49.139  29.377  30.567  1.00  0.00    -0.030 C 
ATOM     25  C   UNL A   1      49.949  28.544  29.901  1.00  0.00     0.004 C 
ENDBRANCH  23  24
ENDBRANCH  18  23
ENDBRANCH  12  17
ENDBRANCH   9  11
ENDBRANCH   7   9
ENDBRANCH   6   7
ENDBRANCH   5   6
ENDBRANCH   4   5
ENDBRANCH   3   4
ENDBRANCH   2   3
ENDBRANCH   1   2
BRANCH   1  26
ATOM     26  O   UNL A   1      49.801  21.235  40.732  1.00  0.00    -0.377 OA
BRANCH  26  27
ATOM     27  C   UNL A   1      49.787  22.619  40.431  1.00  0.00     0.188 C 
BRANCH  27  28
ATOM     28  C   UNL A   1      50.322  23.032  39.048  1.00  0.00     0.188 C 
BRANCH  28  29
ATOM     29  O   UNL A   1      49.388  23.760  38.258  1.00  0.00    -0.376 OA
BRANCH  29  30
ATOM     30  C   UNL A   1      49.528  23.741  36.845  1.00  0.00     0.202 C 
BRANCH  30  31
ATOM     31  C   UNL A   1      49.406  25.067  36.068  1.00  0.00     0.261 C 
BRANCH  31  32
ATOM     32  O   UNL A   1      48.377  25.979  36.482  1.00  0.00    -0.460 OA
BRANCH  32  33
ATOM     33  C   UNL A   1      48.534  27.290  36.216  1.00  0.00     0.338 C 
ATOM     34  O   UNL A   1      49.555  27.946  36.352  1.00  0.00    -0.246 OA
BRANCH  33  35
ATOM     35  C   UNL A   1      47.314  27.765  35.526  1.00  0.00     0.060 A 
ATOM     36  C   UNL A   1      47.427  28.810  34.598  1.00  0.00     0.016 A 
ATOM     37  C   UNL A   1      46.070  27.183  35.783  1.00  0.00     0.016 A 
ATOM     38  C   UNL A   1      46.291  29.306  33.958  1.00  0.00     0.010 A 
ATOM     39  C   UNL A   1      44.928  27.700  35.161  1.00  0.00     0.010 A 
ATOM     40  C   UNL A   1      45.029  28.789  34.275  1.00  0.00    -0.014 A 
BRANCH  40  41
ATOM     41  C   UNL A   1      43.809  29.513  33.841  1.00  0.00     0.031 A 
ATOM     42  C   UNL A   1      43.073  29.008  32.629  1.00  0.00     0.074 A 
ATOM     43  C   UNL A   1      43.353  30.589  34.508  1.00  0.00     0.049 A 
ATOM     44  N   UNL A   1      42.013  29.492  32.039  1.00  0.00    -0.248 NA
ATOM     45  C   UNL A   1      43.610  27.791  31.996  1.00  0.00     0.031 C 
ATOM     46  C   UNL A   1      43.961  31.163  35.706  1.00  0.00     0.029 A 
ATOM     47  N   UNL A   1      42.279  31.405  34.249  1.00  0.00    -0.354 N 
ATOM     48  C   UNL A   1      41.775  28.665  30.949  1.00  0.00     0.074 A 
ATOM     49  C   UNL A   1      42.806  27.650  30.954  1.00  0.00     0.031 C 
ATOM     50  C   UNL A   1      43.269  32.260  36.063  1.00  0.00     0.029 A 
ATOM     51  C   UNL A   1      42.189  32.481  35.101  1.00  0.00     0.049 A 
ATOM     52  H   UNL A   1      41.635  31.236  33.524  1.00  0.00     0.167 HD
ATOM     53  C   UNL A   1      40.783  28.734  30.030  1.00  0.00     0.034 A 
ATOM     54  C   UNL A   1      41.350  33.537  35.086  1.00  0.00     0.034 A 
ATOM     55  C   UNL A   1      39.753  29.737  30.033  1.00  0.00     0.049 A 
ATOM     56  C   UNL A   1      40.279  33.616  34.027  1.00  0.00     0.074 A 
ATOM     57  C   UNL A   1      38.679  29.867  29.170  1.00  0.00     0.029 A 
ATOM     58  N   UNL A   1      39.680  30.795  30.925  1.00  0.00    -0.354 N 
ATOM     59  N   UNL A   1      40.001  32.767  33.067  1.00  0.00    -0.248 NA
ATOM     60  C   UNL A   1      39.386  34.784  34.069  1.00  0.00     0.031 C 
ATOM     61  C   UNL A   1      37.981  31.029  29.515  1.00  0.00     0.029 A 
ATOM     62  C   UNL A   1      38.590  31.593  30.623  1.00  0.00     0.049 A 
ATOM     63  H   UNL A   1      40.309  30.954  31.665  1.00  0.00     0.167 HD
ATOM     64  C   UNL A   1      38.880  33.276  32.418  1.00  0.00     0.074 A 
ATOM     65  C   UNL A   1      38.519  34.497  33.107  1.00  0.00     0.031 C 
ATOM     66  C   UNL A   1      38.211  32.781  31.346  1.00  0.00     0.034 A 
BRANCH  53  67
ATOM     67  C   UNL A   1      40.762  27.693  28.942  1.00  0.00     0.023 A 
ATOM     68  C   UNL A   1      39.789  26.673  28.960  1.00  0.00     0.012 A 
ATOM     69  C   UNL A   1      41.679  27.755  27.875  1.00  0.00     0.148 A 
ATOM     70  C   UNL A   1      39.750  25.712  27.951  1.00  0.00     0.002 A 
ATOM     71  C   UNL A   1      41.604  26.823  26.847  1.00  0.00     0.091 A 
ATOM     72  F   UNL A   1      42.612  28.718  27.889  1.00  0.00    -0.205 F 
ATOM     73  C   UNL A   1      40.649  25.794  26.890  1.00  0.00     0.022 A 
BRANCH  71  74
ATOM     74  S   UNL A   1      42.662  26.891  25.399  1.00  0.00     0.127 S 
ATOM     75  O   UNL A   1      43.993  26.851  26.004  1.00  0.00    -0.237 OA
ATOM     76  O   UNL A   1      42.282  25.671  24.685  1.00  0.00    -0.237 OA
ATOM     77  O   UNL A   1      42.328  28.129  24.711  1.00  0.00    -0.744 OA
ENDBRANCH  71  74
ENDBRANCH  53  67
BRANCH  54  78
ATOM     78  C   UNL A   1      41.473  34.607  36.119  1.00  0.00     0.023 A 
ATOM     79  C   UNL A   1      42.241  35.756  35.844  1.00  0.00     0.012 A 
ATOM     80  C   UNL A   1      40.840  34.487  37.370  1.00  0.00     0.148 A 
ATOM     81  C   UNL A   1      42.404  36.749  36.811  1.00  0.00     0.002 A 
ATOM     82  C   UNL A   1      40.959  35.506  38.307  1.00  0.00     0.091 A 
ATOM     83  F   UNL A   1      40.128  33.378  37.618  1.00  0.00    -0.205 F 
ATOM     84  C   UNL A   1      41.756  36.630  38.038  1.00  0.00     0.022 A 
BRANCH  82  85
ATOM     85  S   UNL A   1      40.063  35.496  39.864  1.00  0.00     0.127 S 
ATOM     86  O   UNL A   1      40.446  36.783  40.438  1.00  0.00    -0.237 OA
ATOM     87  O   UNL A   1      38.675  35.410  39.409  1.00  0.00    -0.237 OA
ATOM     88  O   UNL A   1      40.535  34.320  40.583  1.00  0.00    -0.744 OA
ENDBRANCH  82  85
ENDBRANCH  54  78
BRANCH  66  89
ATOM     89  C   UNL A   1      36.986  33.523  30.873  1.00  0.00     0.023 A 
ATOM     90  C   UNL A   1      36.820  33.822  29.508  1.00  0.00     0.012 A 
ATOM     91  C   UNL A   1      35.961  33.856  31.782  1.00  0.00     0.148 A 
ATOM     92  C   UNL A   1      35.672  34.474  29.059  1.00  0.00     0.002 A 
ATOM     93  C   UNL A   1      34.796  34.455  31.321  1.00  0.00     0.091 A 
ATOM     94  F   UNL A   1      36.143  33.575  33.081  1.00  0.00    -0.205 F 
ATOM     95  C   UNL A   1      34.655  34.779  29.962  1.00  0.00     0.022 A 
BRANCH  93  96
ATOM     96  S   UNL A   1      33.394  34.792  32.392  1.00  0.00     0.127 S 
ATOM     97  O   UNL A   1      32.353  35.130  31.422  1.00  0.00    -0.237 OA
ATOM     98  O   UNL A   1      33.205  33.509  33.067  1.00  0.00    -0.237 OA
ATOM     99  O   UNL A   1      33.807  35.882  33.267  1.00  0.00    -0.744 OA
ENDBRANCH  93  96
ENDBRANCH  66  89
ENDBRANCH  40  41
ENDBRANCH  33  35
ENDBRANCH  32  33
ENDBRANCH  31  32
ENDBRANCH  30  31
ENDBRANCH  29  30
ENDBRANCH  28  29
ENDBRANCH  27  28
ENDBRANCH  26  27
ENDBRANCH   1  26
TORSDOF 27
ENDMDL
