MODEL 1
REMARK VINA RESULT:      -7.8      0.000      0.000
REMARK SMILES CC(C)[C@H](Nc1cc(C#N)ccn1)C(=O)OCCOCCOCCOCCOC(=O)c1ccc(-c2c3nc(c(-c4cccc(S(=O)(=O)[O-])c4F)c4ccc([nH]4)c(-c4cccc(S(=O)(=O)[O-])c4F)c4nc(c(-c5cccc(S(=O)(=O)[O-])c5F)c5ccc2[nH]5)C=C4)C=C3)cc1
REMARK SMILES IDX 22 1 21 2 20 3 19 4 18 5 17 6 16 7 14 8 15 9 4 10 2 11 1 12
REMARK SMILES IDX 3 13 5 14 6 16 7 17 13 18 8 19 12 20 11 21 9 22 10 23 23 24
REMARK SMILES IDX 24 25 25 26 26 27 27 28 28 29 29 30 30 31 31 32 32 33 93 34
REMARK SMILES IDX 33 35 92 36 34 37 35 38 36 39 86 40 37 41 91 42 85 43 87 44
REMARK SMILES IDX 38 45 90 46 84 47 83 48 39 50 71 51 51 52 70 53 52 54 55 55
REMARK SMILES IDX 69 56 88 57 53 58 54 59 68 61 89 62 56 63 40 64 41 65 49 66
REMARK SMILES IDX 42 67 44 68 50 69 43 70 45 71 46 72 47 73 48 74 72 75 73 76
REMARK SMILES IDX 81 77 74 78 76 79 82 80 75 81 77 82 78 83 79 84 80 85 57 86
REMARK SMILES IDX 58 87 66 88 59 89 61 90 67 91 60 92 62 93 63 94 64 95 65 96
REMARK H PARENT 5 15 87 49 55 60
REMARK Flexibility Score: inf
ROOT
ATOM      1  O   UNL A   1      34.372  36.755  32.939  1.00  0.00    -0.377 OA
ENDROOT
BRANCH   1   2
ATOM      2  C   UNL A   1      35.160  35.613  32.684  1.00  0.00     0.188 C 
BRANCH   2   3
ATOM      3  C   UNL A   1      35.212  34.549  33.780  1.00  0.00     0.188 C 
BRANCH   3   4
ATOM      4  O   UNL A   1      36.377  34.491  34.576  1.00  0.00    -0.376 OA
BRANCH   4   5
ATOM      5  C   UNL A   1      36.283  34.063  35.933  1.00  0.00     0.202 C 
BRANCH   5   6
ATOM      6  C   UNL A   1      37.429  33.339  36.668  1.00  0.00     0.261 C 
BRANCH   6   7
ATOM      7  O   UNL A   1      37.042  32.509  37.779  1.00  0.00    -0.462 OA
BRANCH   7   8
ATOM      8  C   UNL A   1      37.940  32.360  38.783  1.00  0.00     0.328 C 
ATOM      9  O   UNL A   1      39.142  32.170  38.585  1.00  0.00    -0.250 OA
BRANCH   8  10
ATOM     10  C   UNL A   1      37.396  32.431  40.223  1.00  0.00     0.193 C 
BRANCH  10  11
ATOM     11  C   UNL A   1      38.019  33.635  40.965  1.00  0.00     0.017 C 
ATOM     12  C   UNL A   1      38.491  34.739  40.018  1.00  0.00     0.010 C 
ATOM     13  C   UNL A   1      37.130  34.220  42.064  1.00  0.00     0.010 C 
ENDBRANCH  10  11
BRANCH  10  14
ATOM     14  N   UNL A   1      37.258  31.233  41.054  1.00  0.00    -0.357 N 
ATOM     15  H   UNL A   1      36.501  30.663  40.787  1.00  0.00     0.163 HD
BRANCH  14  16
ATOM     16  C   UNL A   1      37.951  30.738  42.111  1.00  0.00     0.127 A 
ATOM     17  C   UNL A   1      37.382  30.354  43.302  1.00  0.00     0.066 A 
ATOM     18  N   UNL A   1      39.292  30.715  41.938  1.00  0.00    -0.239 NA
ATOM     19  C   UNL A   1      38.202  30.072  44.391  1.00  0.00     0.057 A 
ATOM     20  C   UNL A   1      40.075  30.386  42.994  1.00  0.00     0.115 A 
ATOM     21  C   UNL A   1      39.581  30.076  44.243  1.00  0.00     0.040 A 
BRANCH  19  22
ATOM     22  C   UNL A   1      37.580  29.924  45.664  1.00  0.00     0.099 C 
ATOM     23  N   UNL A   1      36.954  29.780  46.633  1.00  0.00    -0.192 NA
ENDBRANCH  19  22
ENDBRANCH  14  16
ENDBRANCH  10  14
ENDBRANCH   8  10
ENDBRANCH   7   8
ENDBRANCH   6   7
ENDBRANCH   5   6
ENDBRANCH   4   5
ENDBRANCH   3   4
ENDBRANCH   2   3
ENDBRANCH   1   2
BRANCH   1  24
ATOM     24  C   UNL A   1      33.414  37.219  31.999  1.00  0.00     0.188 C 
BRANCH  24  25
ATOM     25  C   UNL A   1      32.839  36.234  30.986  1.00  0.00     0.188 C 
BRANCH  25  26
ATOM     26  O   UNL A   1      33.583  35.962  29.795  1.00  0.00    -0.376 OA
BRANCH  26  27
ATOM     27  C   UNL A   1      33.113  34.963  28.893  1.00  0.00     0.202 C 
BRANCH  27  28
ATOM     28  C   UNL A   1      34.154  33.952  28.430  1.00  0.00     0.261 C 
BRANCH  28  29
ATOM     29  O   UNL A   1      35.261  33.861  29.333  1.00  0.00    -0.460 OA
BRANCH  29  30
ATOM     30  C   UNL A   1      35.159  32.858  30.234  1.00  0.00     0.338 C 
ATOM     31  O   UNL A   1      34.211  32.596  30.954  1.00  0.00    -0.246 OA
BRANCH  30  32
ATOM     32  C   UNL A   1      36.356  32.010  30.149  1.00  0.00     0.060 A 
ATOM     33  C   UNL A   1      36.342  30.789  30.828  1.00  0.00     0.016 A 
ATOM     34  C   UNL A   1      37.510  32.462  29.501  1.00  0.00     0.016 A 
ATOM     35  C   UNL A   1      37.511  30.049  30.932  1.00  0.00     0.010 A 
ATOM     36  C   UNL A   1      38.681  31.711  29.601  1.00  0.00     0.010 A 
ATOM     37  C   UNL A   1      38.698  30.534  30.368  1.00  0.00    -0.014 A 
BRANCH  37  38
ATOM     38  C   UNL A   1      39.972  29.876  30.733  1.00  0.00     0.031 A 
ATOM     39  C   UNL A   1      40.683  30.292  31.990  1.00  0.00     0.074 A 
ATOM     40  C   UNL A   1      40.449  28.868  29.985  1.00  0.00     0.049 A 
ATOM     41  N   UNL A   1      41.768  29.798  32.522  1.00  0.00    -0.248 NA
ATOM     42  C   UNL A   1      40.098  31.412  32.746  1.00  0.00     0.031 C 
ATOM     43  C   UNL A   1      39.833  28.379  28.757  1.00  0.00     0.029 A 
ATOM     44  N   UNL A   1      41.560  28.082  30.141  1.00  0.00    -0.354 N 
ATOM     45  C   UNL A   1      42.015  30.562  33.655  1.00  0.00     0.074 A 
ATOM     46  C   UNL A   1      40.978  31.568  33.723  1.00  0.00     0.031 C 
ATOM     47  C   UNL A   1      40.580  27.385  28.254  1.00  0.00     0.029 A 
ATOM     48  C   UNL A   1      41.739  27.183  29.117  1.00  0.00     0.049 A 
ATOM     49  H   UNL A   1      42.169  28.153  30.911  1.00  0.00     0.167 HD
ATOM     50  C   UNL A   1      43.010  30.428  34.563  1.00  0.00     0.034 A 
ATOM     51  C   UNL A   1      42.736  26.309  28.892  1.00  0.00     0.034 A 
ATOM     52  C   UNL A   1      44.033  29.420  34.487  1.00  0.00     0.049 A 
ATOM     53  C   UNL A   1      43.836  26.192  29.907  1.00  0.00     0.074 A 
ATOM     54  C   UNL A   1      45.057  29.166  35.381  1.00  0.00     0.029 A 
ATOM     55  N   UNL A   1      44.179  28.515  33.446  1.00  0.00    -0.354 N 
ATOM     56  N   UNL A   1      44.002  26.853  31.028  1.00  0.00    -0.248 NA
ATOM     57  C   UNL A   1      44.866  25.177  29.651  1.00  0.00     0.031 C 
ATOM     58  C   UNL A   1      45.861  28.154  34.849  1.00  0.00     0.029 A 
ATOM     59  C   UNL A   1      45.293  27.720  33.662  1.00  0.00     0.049 A 
ATOM     60  H   UNL A   1      43.580  28.448  32.667  1.00  0.00     0.167 HD
ATOM     61  C   UNL A   1      45.129  26.307  31.631  1.00  0.00     0.074 A 
ATOM     62  C   UNL A   1      45.590  25.246  30.758  1.00  0.00     0.031 C 
ATOM     63  C   UNL A   1      45.729  26.652  32.796  1.00  0.00     0.034 A 
BRANCH  50  64
ATOM     64  C   UNL A   1      43.051  31.410  35.705  1.00  0.00     0.023 A 
ATOM     65  C   UNL A   1      42.469  31.086  36.949  1.00  0.00     0.012 A 
ATOM     66  C   UNL A   1      43.707  32.646  35.552  1.00  0.00     0.148 A 
ATOM     67  C   UNL A   1      42.507  31.993  38.008  1.00  0.00     0.002 A 
ATOM     68  C   UNL A   1      43.789  33.521  36.628  1.00  0.00     0.091 A 
ATOM     69  F   UNL A   1      44.231  32.947  34.356  1.00  0.00    -0.205 F 
ATOM     70  C   UNL A   1      43.177  33.204  37.851  1.00  0.00     0.022 A 
BRANCH  68  71
ATOM     71  S   UNL A   1      44.698  35.067  36.549  1.00  0.00     0.127 S 
ATOM     72  O   UNL A   1      43.933  35.906  37.469  1.00  0.00    -0.237 OA
ATOM     73  O   UNL A   1      46.018  34.669  37.039  1.00  0.00    -0.237 OA
ATOM     74  O   UNL A   1      44.667  35.485  35.154  1.00  0.00    -0.744 OA
ENDBRANCH  68  71
ENDBRANCH  50  64
BRANCH  51  75
ATOM     75  C   UNL A   1      42.721  25.466  27.666  1.00  0.00     0.023 A 
ATOM     76  C   UNL A   1      43.227  25.972  26.453  1.00  0.00     0.012 A 
ATOM     77  C   UNL A   1      42.215  24.151  27.706  1.00  0.00     0.148 A 
ATOM     78  C   UNL A   1      43.195  25.197  25.293  1.00  0.00     0.002 A 
ATOM     79  C   UNL A   1      42.240  23.365  26.563  1.00  0.00     0.091 A 
ATOM     80  F   UNL A   1      41.727  23.696  28.869  1.00  0.00    -0.205 F 
ATOM     81  C   UNL A   1      42.711  23.891  25.350  1.00  0.00     0.022 A 
BRANCH  79  82
ATOM     82  S   UNL A   1      41.737  21.642  26.567  1.00  0.00     0.127 S 
ATOM     83  O   UNL A   1      42.305  21.163  25.310  1.00  0.00    -0.237 OA
ATOM     84  O   UNL A   1      42.400  21.139  27.771  1.00  0.00    -0.237 OA
ATOM     85  O   UNL A   1      40.282  21.648  26.635  1.00  0.00    -0.744 OA
ENDBRANCH  79  82
ENDBRANCH  51  75
BRANCH  63  86
ATOM     86  C   UNL A   1      46.920  25.833  33.230  1.00  0.00     0.023 A 
ATOM     87  C   UNL A   1      48.226  26.217  32.865  1.00  0.00     0.012 A 
ATOM     88  C   UNL A   1      46.736  24.681  34.020  1.00  0.00     0.148 A 
ATOM     89  C   UNL A   1      49.322  25.432  33.223  1.00  0.00     0.002 A 
ATOM     90  C   UNL A   1      47.837  23.940  34.427  1.00  0.00     0.091 A 
ATOM     91  F   UNL A   1      45.486  24.322  34.349  1.00  0.00    -0.205 F 
ATOM     92  C   UNL A   1      49.128  24.299  34.010  1.00  0.00     0.022 A 
BRANCH  90  93
ATOM     93  S   UNL A   1      47.691  22.527  35.526  1.00  0.00     0.127 S 
ATOM     94  O   UNL A   1      47.326  23.168  36.788  1.00  0.00    -0.237 OA
ATOM     95  O   UNL A   1      46.617  21.758  34.898  1.00  0.00    -0.237 OA
ATOM     96  O   UNL A   1      48.991  21.870  35.512  1.00  0.00    -0.744 OA
ENDBRANCH  90  93
ENDBRANCH  63  86
ENDBRANCH  37  38
ENDBRANCH  30  32
ENDBRANCH  29  30
ENDBRANCH  28  29
ENDBRANCH  27  28
ENDBRANCH  26  27
ENDBRANCH  25  26
ENDBRANCH  24  25
ENDBRANCH   1  24
TORSDOF 27
ENDMDL
MODEL 2
REMARK VINA RESULT:      -7.4      5.421     12.184
REMARK SMILES CC(C)[C@H](Nc1cc(C#N)ccn1)C(=O)OCCOCCOCCOCCOC(=O)c1ccc(-c2c3nc(c(-c4cccc(S(=O)(=O)[O-])c4F)c4ccc([nH]4)c(-c4cccc(S(=O)(=O)[O-])c4F)c4nc(c(-c5cccc(S(=O)(=O)[O-])c5F)c5ccc2[nH]5)C=C4)C=C3)cc1
REMARK SMILES IDX 22 1 21 2 20 3 19 4 18 5 17 6 16 7 14 8 15 9 4 10 2 11 1 12
REMARK SMILES IDX 3 13 5 14 6 16 7 17 13 18 8 19 12 20 11 21 9 22 10 23 23 24
REMARK SMILES IDX 24 25 25 26 26 27 27 28 28 29 29 30 30 31 31 32 32 33 93 34
REMARK SMILES IDX 33 35 92 36 34 37 35 38 36 39 86 40 37 41 91 42 85 43 87 44
REMARK SMILES IDX 38 45 90 46 84 47 83 48 39 50 71 51 51 52 70 53 52 54 55 55
REMARK SMILES IDX 69 56 88 57 53 58 54 59 68 61 89 62 56 63 40 64 41 65 49 66
REMARK SMILES IDX 42 67 44 68 50 69 43 70 45 71 46 72 47 73 48 74 72 75 73 76
REMARK SMILES IDX 81 77 74 78 76 79 82 80 75 81 77 82 78 83 79 84 80 85 57 86
REMARK SMILES IDX 58 87 66 88 59 89 61 90 67 91 60 92 62 93 63 94 64 95 65 96
REMARK H PARENT 5 15 87 49 55 60
REMARK Flexibility Score: inf
ROOT
ATOM      1  O   UNL A   1      33.503  30.721  27.809  1.00  0.00    -0.377 OA
ENDROOT
BRANCH   1   2
ATOM      2  C   UNL A   1      33.401  29.870  26.688  1.00  0.00     0.188 C 
BRANCH   2   3
ATOM      3  C   UNL A   1      34.030  28.483  26.813  1.00  0.00     0.188 C 
BRANCH   3   4
ATOM      4  O   UNL A   1      33.323  27.396  26.252  1.00  0.00    -0.376 OA
BRANCH   4   5
ATOM      5  C   UNL A   1      33.091  27.358  24.845  1.00  0.00     0.202 C 
BRANCH   5   6
ATOM      6  C   UNL A   1      32.582  26.101  24.110  1.00  0.00     0.261 C 
BRANCH   6   7
ATOM      7  O   UNL A   1      32.918  24.837  24.713  1.00  0.00    -0.462 OA
BRANCH   7   8
ATOM      8  C   UNL A   1      32.456  23.718  24.105  1.00  0.00     0.328 C 
ATOM      9  O   UNL A   1      32.649  23.475  22.912  1.00  0.00    -0.250 OA
BRANCH   8  10
ATOM     10  C   UNL A   1      31.651  22.732  24.973  1.00  0.00     0.193 C 
BRANCH  10  11
ATOM     11  C   UNL A   1      31.415  23.335  26.377  1.00  0.00     0.017 C 
ATOM     12  C   UNL A   1      29.993  23.107  26.892  1.00  0.00     0.010 C 
ATOM     13  C   UNL A   1      32.438  22.897  27.426  1.00  0.00     0.010 C 
ENDBRANCH  10  11
BRANCH  10  14
ATOM     14  N   UNL A   1      31.952  21.299  24.990  1.00  0.00    -0.357 N 
ATOM     15  H   UNL A   1      31.168  20.743  25.203  1.00  0.00     0.163 HD
BRANCH  14  16
ATOM     16  C   UNL A   1      33.078  20.573  24.774  1.00  0.00     0.127 A 
ATOM     17  C   UNL A   1      33.090  19.254  24.389  1.00  0.00     0.066 A 
ATOM     18  N   UNL A   1      34.228  21.233  25.042  1.00  0.00    -0.239 NA
ATOM     19  C   UNL A   1      34.289  18.547  24.411  1.00  0.00     0.057 A 
ATOM     20  C   UNL A   1      35.393  20.544  25.007  1.00  0.00     0.115 A 
ATOM     21  C   UNL A   1      35.475  19.198  24.717  1.00  0.00     0.040 A 
BRANCH  19  22
ATOM     22  C   UNL A   1      34.224  17.133  24.252  1.00  0.00     0.099 C 
ATOM     23  N   UNL A   1      34.267  15.994  24.022  1.00  0.00    -0.192 NA
ENDBRANCH  19  22
ENDBRANCH  14  16
ENDBRANCH  10  14
ENDBRANCH   8  10
ENDBRANCH   7   8
ENDBRANCH   6   7
ENDBRANCH   5   6
ENDBRANCH   4   5
ENDBRANCH   3   4
ENDBRANCH   2   3
ENDBRANCH   1   2
BRANCH   1  24
ATOM     24  C   UNL A   1      33.741  32.113  27.664  1.00  0.00     0.188 C 
BRANCH  24  25
ATOM     25  C   UNL A   1      34.274  32.898  28.859  1.00  0.00     0.188 C 
BRANCH  25  26
ATOM     26  O   UNL A   1      35.510  32.489  29.453  1.00  0.00    -0.376 OA
BRANCH  26  27
ATOM     27  C   UNL A   1      35.492  31.842  30.722  1.00  0.00     0.202 C 
BRANCH  27  28
ATOM     28  C   UNL A   1      36.536  30.751  30.921  1.00  0.00     0.261 C 
BRANCH  28  29
ATOM     29  O   UNL A   1      37.732  31.250  31.530  1.00  0.00    -0.460 OA
BRANCH  29  30
ATOM     30  C   UNL A   1      38.765  31.410  30.672  1.00  0.00     0.338 C 
ATOM     31  O   UNL A   1      38.769  32.019  29.616  1.00  0.00    -0.246 OA
BRANCH  30  32
ATOM     32  C   UNL A   1      39.976  30.820  31.259  1.00  0.00     0.060 A 
ATOM     33  C   UNL A   1      41.170  31.536  31.150  1.00  0.00     0.016 A 
ATOM     34  C   UNL A   1      39.953  29.535  31.810  1.00  0.00     0.016 A 
ATOM     35  C   UNL A   1      42.366  30.936  31.518  1.00  0.00     0.010 A 
ATOM     36  C   UNL A   1      41.155  28.938  32.187  1.00  0.00     0.010 A 
ATOM     37  C   UNL A   1      42.370  29.615  31.984  1.00  0.00    -0.014 A 
BRANCH  37  38
ATOM     38  C   UNL A   1      43.667  28.912  32.098  1.00  0.00     0.031 A 
ATOM     39  C   UNL A   1      44.265  28.268  30.879  1.00  0.00     0.074 A 
ATOM     40  C   UNL A   1      44.334  28.911  33.263  1.00  0.00     0.049 A 
ATOM     41  N   UNL A   1      45.417  27.666  30.749  1.00  0.00    -0.248 NA
ATOM     42  C   UNL A   1      43.463  28.304  29.645  1.00  0.00     0.031 C 
ATOM     43  C   UNL A   1      43.851  29.516  34.499  1.00  0.00     0.029 A 
ATOM     44  N   UNL A   1      45.552  28.384  33.600  1.00  0.00    -0.354 N 
ATOM     45  C   UNL A   1      45.467  27.225  29.434  1.00  0.00     0.074 A 
ATOM     46  C   UNL A   1      44.219  27.610  28.810  1.00  0.00     0.031 C 
ATOM     47  C   UNL A   1      44.752  29.312  35.471  1.00  0.00     0.029 A 
ATOM     48  C   UNL A   1      45.867  28.545  34.928  1.00  0.00     0.049 A 
ATOM     49  H   UNL A   1      46.144  27.934  32.955  1.00  0.00     0.167 HD
ATOM     50  C   UNL A   1      46.467  26.569  28.801  1.00  0.00     0.034 A 
ATOM     51  C   UNL A   1      46.928  28.106  35.629  1.00  0.00     0.034 A 
ATOM     52  C   UNL A   1      47.705  26.196  29.432  1.00  0.00     0.049 A 
ATOM     53  C   UNL A   1      48.016  27.367  34.906  1.00  0.00     0.074 A 
ATOM     54  C   UNL A   1      48.803  25.574  28.867  1.00  0.00     0.029 A 
ATOM     55  N   UNL A   1      48.000  26.386  30.774  1.00  0.00    -0.354 N 
ATOM     56  N   UNL A   1      48.096  27.045  33.637  1.00  0.00    -0.248 NA
ATOM     57  C   UNL A   1      49.184  26.967  35.701  1.00  0.00     0.031 C 
ATOM     58  C   UNL A   1      49.734  25.327  29.881  1.00  0.00     0.029 A 
ATOM     59  C   UNL A   1      49.252  25.868  31.061  1.00  0.00     0.049 A 
ATOM     60  H   UNL A   1      47.407  26.823  31.426  1.00  0.00     0.167 HD
ATOM     61  C   UNL A   1      49.337  26.443  33.472  1.00  0.00     0.074 A 
ATOM     62  C   UNL A   1      49.982  26.467  34.770  1.00  0.00     0.031 C 
ATOM     63  C   UNL A   1      49.892  25.917  32.353  1.00  0.00     0.034 A 
BRANCH  50  64
ATOM     64  C   UNL A   1      46.254  26.195  27.358  1.00  0.00     0.023 A 
ATOM     65  C   UNL A   1      46.528  27.121  26.330  1.00  0.00     0.012 A 
ATOM     66  C   UNL A   1      45.817  24.899  27.019  1.00  0.00     0.148 A 
ATOM     67  C   UNL A   1      46.332  26.776  24.992  1.00  0.00     0.002 A 
ATOM     68  C   UNL A   1      45.678  24.545  25.683  1.00  0.00     0.091 A 
ATOM     69  F   UNL A   1      45.537  24.041  28.010  1.00  0.00    -0.205 F 
ATOM     70  C   UNL A   1      45.919  25.486  24.669  1.00  0.00     0.022 A 
BRANCH  68  71
ATOM     71  S   UNL A   1      45.231  22.886  25.165  1.00  0.00     0.127 S 
ATOM     72  O   UNL A   1      45.428  22.966  23.719  1.00  0.00    -0.237 OA
ATOM     73  O   UNL A   1      46.218  22.069  25.872  1.00  0.00    -0.237 OA
ATOM     74  O   UNL A   1      43.854  22.684  25.595  1.00  0.00    -0.744 OA
ENDBRANCH  68  71
ENDBRANCH  50  64
BRANCH  51  75
ATOM     75  C   UNL A   1      47.014  28.377  37.090  1.00  0.00     0.023 A 
ATOM     76  C   UNL A   1      47.706  29.510  37.560  1.00  0.00     0.012 A 
ATOM     77  C   UNL A   1      46.396  27.515  38.017  1.00  0.00     0.148 A 
ATOM     78  C   UNL A   1      47.812  29.759  38.929  1.00  0.00     0.002 A 
ATOM     79  C   UNL A   1      46.454  27.799  39.374  1.00  0.00     0.091 A 
ATOM     80  F   UNL A   1      45.754  26.436  37.546  1.00  0.00    -0.205 F 
ATOM     81  C   UNL A   1      47.178  28.910  39.834  1.00  0.00     0.022 A 
BRANCH  79  82
ATOM     82  S   UNL A   1      45.581  26.824  40.602  1.00  0.00     0.127 S 
ATOM     83  O   UNL A   1      46.127  25.490  40.365  1.00  0.00    -0.237 OA
ATOM     84  O   UNL A   1      46.016  27.454  41.849  1.00  0.00    -0.237 OA
ATOM     85  O   UNL A   1      44.163  26.982  40.306  1.00  0.00    -0.744 OA
ENDBRANCH  79  82
ENDBRANCH  51  75
BRANCH  63  86
ATOM     86  C   UNL A   1      51.296  25.375  32.467  1.00  0.00     0.023 A 
ATOM     87  C   UNL A   1      52.409  26.228  32.318  1.00  0.00     0.012 A 
ATOM     88  C   UNL A   1      51.507  24.009  32.741  1.00  0.00     0.148 A 
ATOM     89  C   UNL A   1      53.705  25.717  32.373  1.00  0.00     0.002 A 
ATOM     90  C   UNL A   1      52.800  23.520  32.858  1.00  0.00     0.091 A 
ATOM     91  F   UNL A   1      50.439  23.209  32.868  1.00  0.00    -0.205 F 
ATOM     92  C   UNL A   1      53.901  24.366  32.651  1.00  0.00     0.022 A 
BRANCH  90  93
ATOM     93  S   UNL A   1      53.147  21.819  33.317  1.00  0.00     0.127 S 
ATOM     94  O   UNL A   1      54.592  21.857  33.534  1.00  0.00    -0.237 OA
ATOM     95  O   UNL A   1      52.349  21.659  34.533  1.00  0.00    -0.237 OA
ATOM     96  O   UNL A   1      52.705  21.001  32.194  1.00  0.00    -0.744 OA
ENDBRANCH  90  93
ENDBRANCH  63  86
ENDBRANCH  37  38
ENDBRANCH  30  32
ENDBRANCH  29  30
ENDBRANCH  28  29
ENDBRANCH  27  28
ENDBRANCH  26  27
ENDBRANCH  25  26
ENDBRANCH  24  25
ENDBRANCH   1  24
TORSDOF 27
ENDMDL
MODEL 3
REMARK VINA RESULT:      -7.2      7.220     13.864
REMARK SMILES CC(C)[C@H](Nc1cc(C#N)ccn1)C(=O)OCCOCCOCCOCCOC(=O)c1ccc(-c2c3nc(c(-c4cccc(S(=O)(=O)[O-])c4F)c4ccc([nH]4)c(-c4cccc(S(=O)(=O)[O-])c4F)c4nc(c(-c5cccc(S(=O)(=O)[O-])c5F)c5ccc2[nH]5)C=C4)C=C3)cc1
REMARK SMILES IDX 22 1 21 2 20 3 19 4 18 5 17 6 16 7 14 8 15 9 4 10 2 11 1 12
REMARK SMILES IDX 3 13 5 14 6 16 7 17 13 18 8 19 12 20 11 21 9 22 10 23 23 24
REMARK SMILES IDX 24 25 25 26 26 27 27 28 28 29 29 30 30 31 31 32 32 33 93 34
REMARK SMILES IDX 33 35 92 36 34 37 35 38 36 39 86 40 37 41 91 42 85 43 87 44
REMARK SMILES IDX 38 45 90 46 84 47 83 48 39 50 71 51 51 52 70 53 52 54 55 55
REMARK SMILES IDX 69 56 88 57 53 58 54 59 68 61 89 62 56 63 40 64 41 65 49 66
REMARK SMILES IDX 42 67 44 68 50 69 43 70 45 71 46 72 47 73 48 74 72 75 73 76
REMARK SMILES IDX 81 77 74 78 76 79 82 80 75 81 77 82 78 83 79 84 80 85 57 86
REMARK SMILES IDX 58 87 66 88 59 89 61 90 67 91 60 92 62 93 63 94 64 95 65 96
REMARK H PARENT 5 15 87 49 55 60
REMARK Flexibility Score: inf
ROOT
ATOM      1  O   UNL A   1      35.512  30.193  27.308  1.00  0.00    -0.377 OA
ENDROOT
BRANCH   1   2
ATOM      2  C   UNL A   1      34.965  28.896  27.206  1.00  0.00     0.188 C 
BRANCH   2   3
ATOM      3  C   UNL A   1      33.787  28.715  26.249  1.00  0.00     0.188 C 
BRANCH   3   4
ATOM      4  O   UNL A   1      34.057  28.786  24.865  1.00  0.00    -0.376 OA
BRANCH   4   5
ATOM      5  C   UNL A   1      33.252  28.043  23.952  1.00  0.00     0.202 C 
BRANCH   5   6
ATOM      6  C   UNL A   1      33.561  26.586  23.552  1.00  0.00     0.261 C 
BRANCH   6   7
ATOM      7  O   UNL A   1      32.433  25.791  23.140  1.00  0.00    -0.462 OA
BRANCH   7   8
ATOM      8  C   UNL A   1      31.505  26.391  22.356  1.00  0.00     0.328 C 
ATOM      9  O   UNL A   1      31.511  26.308  21.126  1.00  0.00    -0.250 OA
BRANCH   8  10
ATOM     10  C   UNL A   1      30.413  27.211  23.070  1.00  0.00     0.193 C 
BRANCH  10  11
ATOM     11  C   UNL A   1      29.512  26.275  23.907  1.00  0.00     0.017 C 
ATOM     12  C   UNL A   1      30.019  26.081  25.337  1.00  0.00     0.010 C 
ATOM     13  C   UNL A   1      28.034  26.672  23.916  1.00  0.00     0.010 C 
ENDBRANCH  10  11
BRANCH  10  14
ATOM     14  N   UNL A   1      29.680  28.277  22.385  1.00  0.00    -0.357 N 
ATOM     15  H   UNL A   1      29.367  28.017  21.489  1.00  0.00     0.163 HD
BRANCH  14  16
ATOM     16  C   UNL A   1      29.338  29.548  22.720  1.00  0.00     0.127 A 
ATOM     17  C   UNL A   1      28.593  30.387  21.928  1.00  0.00     0.066 A 
ATOM     18  N   UNL A   1      29.858  29.974  23.894  1.00  0.00    -0.239 NA
ATOM     19  C   UNL A   1      28.490  31.733  22.266  1.00  0.00     0.057 A 
ATOM     20  C   UNL A   1      29.702  31.275  24.236  1.00  0.00     0.115 A 
ATOM     21  C   UNL A   1      29.045  32.197  23.450  1.00  0.00     0.040 A 
BRANCH  19  22
ATOM     22  C   UNL A   1      27.928  32.616  21.299  1.00  0.00     0.099 C 
ATOM     23  N   UNL A   1      27.469  33.432  20.611  1.00  0.00    -0.192 NA
ENDBRANCH  19  22
ENDBRANCH  14  16
ENDBRANCH  10  14
ENDBRANCH   8  10
ENDBRANCH   7   8
ENDBRANCH   6   7
ENDBRANCH   5   6
ENDBRANCH   4   5
ENDBRANCH   3   4
ENDBRANCH   2   3
ENDBRANCH   1   2
BRANCH   1  24
ATOM     24  C   UNL A   1      36.831  30.406  27.788  1.00  0.00     0.188 C 
BRANCH  24  25
ATOM     25  C   UNL A   1      37.453  29.367  28.717  1.00  0.00     0.188 C 
BRANCH  25  26
ATOM     26  O   UNL A   1      38.877  29.227  28.735  1.00  0.00    -0.376 OA
BRANCH  26  27
ATOM     27  C   UNL A   1      39.553  28.828  27.546  1.00  0.00     0.202 C 
BRANCH  27  28
ATOM     28  C   UNL A   1      40.200  27.450  27.586  1.00  0.00     0.261 C 
BRANCH  28  29
ATOM     29  O   UNL A   1      40.842  27.116  26.350  1.00  0.00    -0.460 OA
BRANCH  29  30
ATOM     30  C   UNL A   1      42.180  26.948  26.451  1.00  0.00     0.338 C 
ATOM     31  O   UNL A   1      42.851  26.029  26.012  1.00  0.00    -0.246 OA
BRANCH  30  32
ATOM     32  C   UNL A   1      42.769  28.131  27.092  1.00  0.00     0.060 A 
ATOM     33  C   UNL A   1      43.328  27.976  28.362  1.00  0.00     0.016 A 
ATOM     34  C   UNL A   1      42.671  29.392  26.496  1.00  0.00     0.016 A 
ATOM     35  C   UNL A   1      43.721  29.097  29.080  1.00  0.00     0.010 A 
ATOM     36  C   UNL A   1      43.074  30.516  27.217  1.00  0.00     0.010 A 
ATOM     37  C   UNL A   1      43.542  30.375  28.534  1.00  0.00    -0.014 A 
BRANCH  37  38
ATOM     38  C   UNL A   1      43.701  31.549  29.420  1.00  0.00     0.031 A 
ATOM     39  C   UNL A   1      44.891  32.449  29.245  1.00  0.00     0.074 A 
ATOM     40  C   UNL A   1      42.754  31.844  30.325  1.00  0.00     0.049 A 
ATOM     41  N   UNL A   1      45.180  33.560  29.867  1.00  0.00    -0.248 NA
ATOM     42  C   UNL A   1      45.888  32.047  28.239  1.00  0.00     0.031 C 
ATOM     43  C   UNL A   1      41.557  31.047  30.567  1.00  0.00     0.029 A 
ATOM     44  N   UNL A   1      42.650  32.885  31.210  1.00  0.00    -0.354 N 
ATOM     45  C   UNL A   1      46.402  33.974  29.355  1.00  0.00     0.074 A 
ATOM     46  C   UNL A   1      46.812  32.983  28.383  1.00  0.00     0.031 C 
ATOM     47  C   UNL A   1      40.842  31.612  31.551  1.00  0.00     0.029 A 
ATOM     48  C   UNL A   1      41.543  32.802  32.020  1.00  0.00     0.049 A 
ATOM     49  H   UNL A   1      43.303  33.619  31.260  1.00  0.00     0.167 HD
ATOM     50  C   UNL A   1      47.112  35.086  29.658  1.00  0.00     0.034 A 
ATOM     51  C   UNL A   1      41.150  33.590  33.037  1.00  0.00     0.034 A 
ATOM     52  C   UNL A   1      46.691  36.066  30.623  1.00  0.00     0.049 A 
ATOM     53  C   UNL A   1      41.964  34.809  33.363  1.00  0.00     0.074 A 
ATOM     54  C   UNL A   1      47.312  37.253  30.968  1.00  0.00     0.029 A 
ATOM     55  N   UNL A   1      45.558  35.962  31.417  1.00  0.00    -0.354 N 
ATOM     56  N   UNL A   1      43.066  35.243  32.800  1.00  0.00    -0.248 NA
ATOM     57  C   UNL A   1      41.458  35.673  34.437  1.00  0.00     0.031 C 
ATOM     58  C   UNL A   1      46.591  37.833  32.016  1.00  0.00     0.029 A 
ATOM     59  C   UNL A   1      45.476  37.051  32.270  1.00  0.00     0.049 A 
ATOM     60  H   UNL A   1      44.908  35.224  31.380  1.00  0.00     0.167 HD
ATOM     61  C   UNL A   1      43.363  36.450  33.421  1.00  0.00     0.074 A 
ATOM     62  C   UNL A   1      42.310  36.686  34.388  1.00  0.00     0.031 C 
ATOM     63  C   UNL A   1      44.411  37.285  33.213  1.00  0.00     0.034 A 
BRANCH  50  64
ATOM     64  C   UNL A   1      48.427  35.289  28.953  1.00  0.00     0.023 A 
ATOM     65  C   UNL A   1      49.642  34.966  29.594  1.00  0.00     0.012 A 
ATOM     66  C   UNL A   1      48.454  35.768  27.629  1.00  0.00     0.148 A 
ATOM     67  C   UNL A   1      50.861  35.153  28.942  1.00  0.00     0.002 A 
ATOM     68  C   UNL A   1      49.668  35.900  26.967  1.00  0.00     0.091 A 
ATOM     69  F   UNL A   1      47.292  36.095  27.045  1.00  0.00    -0.205 F 
ATOM     70  C   UNL A   1      50.872  35.608  27.626  1.00  0.00     0.022 A 
BRANCH  68  71
ATOM     71  S   UNL A   1      49.781  36.400  25.246  1.00  0.00     0.127 S 
ATOM     72  O   UNL A   1      49.346  35.187  24.558  1.00  0.00    -0.237 OA
ATOM     73  O   UNL A   1      48.829  37.510  25.188  1.00  0.00    -0.237 OA
ATOM     74  O   UNL A   1      51.170  36.777  25.025  1.00  0.00    -0.744 OA
ENDBRANCH  68  71
ENDBRANCH  50  64
BRANCH  51  75
ATOM     75  C   UNL A   1      39.916  33.256  33.799  1.00  0.00     0.023 A 
ATOM     76  C   UNL A   1      40.002  32.526  35.000  1.00  0.00     0.012 A 
ATOM     77  C   UNL A   1      38.653  33.677  33.338  1.00  0.00     0.148 A 
ATOM     78  C   UNL A   1      38.849  32.188  35.709  1.00  0.00     0.002 A 
ATOM     79  C   UNL A   1      37.515  33.389  34.078  1.00  0.00     0.091 A 
ATOM     80  F   UNL A   1      38.595  34.360  32.186  1.00  0.00    -0.205 F 
ATOM     81  C   UNL A   1      37.608  32.627  35.254  1.00  0.00     0.022 A 
BRANCH  79  82
ATOM     82  S   UNL A   1      35.890  34.003  33.626  1.00  0.00     0.127 S 
ATOM     83  O   UNL A   1      35.516  33.091  32.548  1.00  0.00    -0.237 OA
ATOM     84  O   UNL A   1      35.143  33.822  34.871  1.00  0.00    -0.237 OA
ATOM     85  O   UNL A   1      36.081  35.392  33.232  1.00  0.00    -0.744 OA
ENDBRANCH  79  82
ENDBRANCH  51  75
BRANCH  63  86
ATOM     86  C   UNL A   1      44.440  38.568  34.007  1.00  0.00     0.023 A 
ATOM     87  C   UNL A   1      45.163  38.649  35.215  1.00  0.00     0.012 A 
ATOM     88  C   UNL A   1      43.755  39.706  33.537  1.00  0.00     0.148 A 
ATOM     89  C   UNL A   1      45.147  39.819  35.973  1.00  0.00     0.002 A 
ATOM     90  C   UNL A   1      43.797  40.887  34.265  1.00  0.00     0.091 A 
ATOM     91  F   UNL A   1      43.063  39.611  32.392  1.00  0.00    -0.205 F 
ATOM     92  C   UNL A   1      44.472  40.939  35.495  1.00  0.00     0.022 A 
BRANCH  90  93
ATOM     93  S   UNL A   1      43.045  42.407  33.675  1.00  0.00     0.127 S 
ATOM     94  O   UNL A   1      42.749  42.073  32.283  1.00  0.00    -0.237 OA
ATOM     95  O   UNL A   1      41.870  42.525  34.539  1.00  0.00    -0.237 OA
ATOM     96  O   UNL A   1      44.043  43.452  33.868  1.00  0.00    -0.744 OA
ENDBRANCH  90  93
ENDBRANCH  63  86
ENDBRANCH  37  38
ENDBRANCH  30  32
ENDBRANCH  29  30
ENDBRANCH  28  29
ENDBRANCH  27  28
ENDBRANCH  26  27
ENDBRANCH  25  26
ENDBRANCH  24  25
ENDBRANCH   1  24
TORSDOF 27
ENDMDL
