MODEL 1
REMARK VINA RESULT:      -9.7      0.000      0.000
REMARK SMILES Cc1cc(C(=O)N2CCC[C@H]2C(=O)OCCOCCOCCOCCOC(=O)c2ccc(-c3c4nc(c(-c5cccc(S(=O)(=O)[O-])c5F)c5ccc([nH]5)c(-c5cccc(S(=O)(=O)[O-])c5F)c5nc(c(-c6cccc(S(=O)(=O)[O-])c6F)c6ccc3[nH]6)C=C5)C=C4)cc2)c2c(C)noc2n1
REMARK SMILES IDX 21 1 20 2 19 3 18 4 17 5 16 6 15 7 14 8 12 9 13 10 11 11
REMARK SMILES IDX 7 12 8 13 9 14 10 15 5 16 6 17 4 18 1 19 2 20 3 21 98 22
REMARK SMILES IDX 97 23 92 24 96 25 93 26 95 27 94 28 22 29 23 30 24 31 25 32
REMARK SMILES IDX 26 33 27 34 28 35 29 36 30 37 91 38 31 39 90 40 32 41 33 42
REMARK SMILES IDX 34 43 84 44 35 45 89 46 83 47 85 48 36 49 88 50 82 51 81 52
REMARK SMILES IDX 37 54 69 55 49 56 68 57 50 58 53 59 67 60 86 61 51 62 52 63
REMARK SMILES IDX 66 65 87 66 54 67 38 68 39 69 47 70 40 71 42 72 48 73 41 74
REMARK SMILES IDX 43 75 44 76 45 77 46 78 70 79 71 80 79 81 72 82 74 83 80 84
REMARK SMILES IDX 73 85 75 86 76 87 77 88 78 89 55 90 56 91 64 92 57 93 59 94
REMARK SMILES IDX 65 95 58 96 60 97 61 98 62 99 63 100
REMARK H PARENT 85 53 53 64
REMARK Flexibility Score: inf
ROOT
ATOM      1  C   UNL A   1      35.748  22.264  26.440  1.00  0.00     0.188 C 
ENDROOT
BRANCH   1   2
ATOM      2  O   UNL A   1      35.082  23.377  25.858  1.00  0.00    -0.377 OA
BRANCH   2   3
ATOM      3  C   UNL A   1      35.635  23.852  24.646  1.00  0.00     0.188 C 
BRANCH   3   4
ATOM      4  C   UNL A   1      34.704  23.765  23.417  1.00  0.00     0.188 C 
BRANCH   4   5
ATOM      5  O   UNL A   1      34.175  22.513  22.980  1.00  0.00    -0.376 OA
BRANCH   5   6
ATOM      6  C   UNL A   1      33.111  21.906  23.700  1.00  0.00     0.202 C 
BRANCH   6   7
ATOM      7  C   UNL A   1      31.746  22.599  23.654  1.00  0.00     0.261 C 
BRANCH   7   8
ATOM      8  O   UNL A   1      31.827  24.017  23.867  1.00  0.00    -0.462 OA
BRANCH   8   9
ATOM      9  C   UNL A   1      30.950  24.785  23.173  1.00  0.00     0.328 C 
ATOM     10  O   UNL A   1      29.770  24.497  22.997  1.00  0.00    -0.250 OA
BRANCH   9  11
ATOM     11  C   UNL A   1      31.580  26.093  22.652  1.00  0.00     0.195 C 
ATOM     12  N   UNL A   1      32.155  27.016  23.646  1.00  0.00    -0.325 N 
ATOM     13  C   UNL A   1      33.515  27.404  23.296  1.00  0.00     0.121 C 
ATOM     14  C   UNL A   1      33.614  27.117  21.808  1.00  0.00     0.024 C 
ATOM     15  C   UNL A   1      32.675  25.929  21.587  1.00  0.00     0.039 C 
BRANCH  12  16
ATOM     16  C   UNL A   1      31.315  27.606  24.575  1.00  0.00     0.255 C 
ATOM     17  O   UNL A   1      30.848  26.978  25.518  1.00  0.00    -0.269 OA
BRANCH  16  18
ATOM     18  C   UNL A   1      30.804  28.973  24.336  1.00  0.00     0.056 A 
ATOM     19  C   UNL A   1      28.105  30.605  22.237  1.00  0.00     0.067 C 
ATOM     20  C   UNL A   1      29.171  30.417  23.280  1.00  0.00     0.042 A 
ATOM     21  C   UNL A   1      29.788  29.177  23.390  1.00  0.00     0.038 A 
ATOM     22  N   UNL A   1      29.457  31.470  24.067  1.00  0.00    -0.216 NA
ATOM     23  C   UNL A   1      30.407  31.226  24.990  1.00  0.00     0.258 A 
ATOM     24  C   UNL A   1      31.121  30.050  25.187  1.00  0.00     0.077 A 
ATOM     25  O   UNL A   1      30.796  32.146  25.912  1.00  0.00    -0.336 OA
ATOM     26  C   UNL A   1      31.981  30.363  26.278  1.00  0.00     0.091 A 
ATOM     27  N   UNL A   1      31.779  31.613  26.723  1.00  0.00    -0.082 NA
ATOM     28  C   UNL A   1      33.019  29.536  26.942  1.00  0.00     0.071 C 
ENDBRANCH  16  18
ENDBRANCH  12  16
ENDBRANCH   9  11
ENDBRANCH   8   9
ENDBRANCH   7   8
ENDBRANCH   6   7
ENDBRANCH   5   6
ENDBRANCH   4   5
ENDBRANCH   3   4
ENDBRANCH   2   3
ENDBRANCH   1   2
BRANCH   1  29
ATOM     29  C   UNL A   1      36.223  21.197  25.445  1.00  0.00     0.188 C 
BRANCH  29  30
ATOM     30  O   UNL A   1      37.603  20.865  25.630  1.00  0.00    -0.376 OA
BRANCH  30  31
ATOM     31  C   UNL A   1      38.541  21.906  25.362  1.00  0.00     0.202 C 
BRANCH  31  32
ATOM     32  C   UNL A   1      39.386  22.340  26.570  1.00  0.00     0.261 C 
BRANCH  32  33
ATOM     33  O   UNL A   1      40.080  21.279  27.248  1.00  0.00    -0.460 OA
BRANCH  33  34
ATOM     34  C   UNL A   1      41.416  21.430  27.401  1.00  0.00     0.338 C 
ATOM     35  O   UNL A   1      42.243  20.554  27.526  1.00  0.00    -0.246 OA
BRANCH  34  36
ATOM     36  C   UNL A   1      41.719  22.857  27.260  1.00  0.00     0.060 A 
ATOM     37  C   UNL A   1      42.329  23.341  26.096  1.00  0.00     0.016 A 
ATOM     38  C   UNL A   1      41.464  23.696  28.335  1.00  0.00     0.016 A 
ATOM     39  C   UNL A   1      42.704  24.684  26.013  1.00  0.00     0.010 A 
ATOM     40  C   UNL A   1      41.874  25.021  28.259  1.00  0.00     0.010 A 
ATOM     41  C   UNL A   1      42.515  25.531  27.111  1.00  0.00    -0.014 A 
BRANCH  41  42
ATOM     42  C   UNL A   1      43.078  26.912  27.107  1.00  0.00     0.031 A 
ATOM     43  C   UNL A   1      42.079  28.012  27.167  1.00  0.00     0.074 A 
ATOM     44  C   UNL A   1      44.245  27.179  27.746  1.00  0.00     0.049 A 
ATOM     45  N   UNL A   1      41.568  28.323  28.318  1.00  0.00    -0.248 NA
ATOM     46  C   UNL A   1      41.375  28.610  26.037  1.00  0.00     0.031 C 
ATOM     47  C   UNL A   1      44.908  26.229  28.655  1.00  0.00     0.029 A 
ATOM     48  N   UNL A   1      44.921  28.370  27.953  1.00  0.00    -0.354 N 
ATOM     49  C   UNL A   1      40.375  28.965  28.082  1.00  0.00     0.074 A 
ATOM     50  C   UNL A   1      40.350  29.226  26.658  1.00  0.00     0.031 C 
ATOM     51  C   UNL A   1      45.757  26.906  29.450  1.00  0.00     0.029 A 
ATOM     52  C   UNL A   1      45.815  28.292  29.017  1.00  0.00     0.049 A 
ATOM     53  H   UNL A   1      44.784  29.179  27.409  1.00  0.00     0.167 HD
ATOM     54  C   UNL A   1      39.463  29.150  29.076  1.00  0.00     0.034 A 
ATOM     55  C   UNL A   1      46.287  29.316  29.774  1.00  0.00     0.034 A 
ATOM     56  C   UNL A   1      39.753  28.610  30.395  1.00  0.00     0.049 A 
ATOM     57  C   UNL A   1      45.157  29.570  30.739  1.00  0.00     0.074 A 
ATOM     58  C   UNL A   1      39.047  28.148  31.492  1.00  0.00     0.029 A 
ATOM     59  N   UNL A   1      41.064  28.415  30.735  1.00  0.00    -0.354 N 
ATOM     60  N   UNL A   1      44.848  28.834  31.779  1.00  0.00    -0.248 NA
ATOM     61  C   UNL A   1      44.141  30.572  30.377  1.00  0.00     0.031 C 
ATOM     62  C   UNL A   1      39.993  27.853  32.534  1.00  0.00     0.029 A 
ATOM     63  C   UNL A   1      41.250  28.195  32.073  1.00  0.00     0.049 A 
ATOM     64  H   UNL A   1      41.801  28.431  30.083  1.00  0.00     0.167 HD
ATOM     65  C   UNL A   1      43.497  29.081  31.987  1.00  0.00     0.074 A 
ATOM     66  C   UNL A   1      43.161  30.258  31.214  1.00  0.00     0.031 C 
ATOM     67  C   UNL A   1      42.618  28.191  32.531  1.00  0.00     0.034 A 
BRANCH  54  68
ATOM     68  C   UNL A   1      38.301  30.051  28.886  1.00  0.00     0.023 A 
ATOM     69  C   UNL A   1      37.275  29.550  28.058  1.00  0.00     0.012 A 
ATOM     70  C   UNL A   1      38.232  31.370  29.356  1.00  0.00     0.148 A 
ATOM     71  C   UNL A   1      36.199  30.349  27.689  1.00  0.00     0.002 A 
ATOM     72  C   UNL A   1      37.151  32.168  28.982  1.00  0.00     0.091 A 
ATOM     73  F   UNL A   1      39.223  31.827  30.136  1.00  0.00    -0.205 F 
ATOM     74  C   UNL A   1      36.139  31.660  28.147  1.00  0.00     0.022 A 
BRANCH  72  75
ATOM     75  S   UNL A   1      36.964  33.880  29.495  1.00  0.00     0.127 S 
ATOM     76  O   UNL A   1      35.847  34.327  28.664  1.00  0.00    -0.237 OA
ATOM     77  O   UNL A   1      36.647  33.735  30.916  1.00  0.00    -0.237 OA
ATOM     78  O   UNL A   1      38.240  34.524  29.218  1.00  0.00    -0.744 OA
ENDBRANCH  72  75
ENDBRANCH  54  68
BRANCH  55  79
ATOM     79  C   UNL A   1      47.046  30.390  29.056  1.00  0.00     0.023 A 
ATOM     80  C   UNL A   1      47.015  30.365  27.638  1.00  0.00     0.012 A 
ATOM     81  C   UNL A   1      47.840  31.378  29.664  1.00  0.00     0.148 A 
ATOM     82  C   UNL A   1      47.651  31.338  26.865  1.00  0.00     0.002 A 
ATOM     83  C   UNL A   1      48.420  32.386  28.895  1.00  0.00     0.091 A 
ATOM     84  F   UNL A   1      48.038  31.331  30.986  1.00  0.00    -0.205 F 
ATOM     85  C   UNL A   1      48.330  32.369  27.497  1.00  0.00     0.022 A 
BRANCH  83  86
ATOM     86  S   UNL A   1      49.244  33.804  29.633  1.00  0.00     0.127 S 
ATOM     87  O   UNL A   1      48.216  34.325  30.532  1.00  0.00    -0.237 OA
ATOM     88  O   UNL A   1      50.375  33.161  30.298  1.00  0.00    -0.237 OA
ATOM     89  O   UNL A   1      49.590  34.682  28.524  1.00  0.00    -0.744 OA
ENDBRANCH  83  86
ENDBRANCH  55  79
BRANCH  67  90
ATOM     90  C   UNL A   1      43.149  27.185  33.487  1.00  0.00     0.023 A 
ATOM     91  C   UNL A   1      43.892  26.113  32.949  1.00  0.00     0.012 A 
ATOM     92  C   UNL A   1      43.000  27.290  34.881  1.00  0.00     0.148 A 
ATOM     93  C   UNL A   1      44.480  25.160  33.775  1.00  0.00     0.002 A 
ATOM     94  C   UNL A   1      43.594  26.334  35.703  1.00  0.00     0.091 A 
ATOM     95  F   UNL A   1      42.296  28.315  35.381  1.00  0.00    -0.205 F 
ATOM     96  C   UNL A   1      44.333  25.272  35.152  1.00  0.00     0.022 A 
BRANCH  94  97
ATOM     97  S   UNL A   1      43.478  26.378  37.495  1.00  0.00     0.127 S 
ATOM     98  O   UNL A   1      42.031  26.315  37.712  1.00  0.00    -0.237 OA
ATOM     99  O   UNL A   1      44.200  25.163  37.873  1.00  0.00    -0.237 OA
ATOM    100  O   UNL A   1      44.097  27.628  37.909  1.00  0.00    -0.744 OA
ENDBRANCH  94  97
ENDBRANCH  67  90
ENDBRANCH  41  42
ENDBRANCH  34  36
ENDBRANCH  33  34
ENDBRANCH  32  33
ENDBRANCH  31  32
ENDBRANCH  30  31
ENDBRANCH  29  30
ENDBRANCH   1  29
TORSDOF 25
ENDMDL
MODEL 2
REMARK VINA RESULT:      -9.6      1.974      2.641
REMARK SMILES Cc1cc(C(=O)N2CCC[C@H]2C(=O)OCCOCCOCCOCCOC(=O)c2ccc(-c3c4nc(c(-c5cccc(S(=O)(=O)[O-])c5F)c5ccc([nH]5)c(-c5cccc(S(=O)(=O)[O-])c5F)c5nc(c(-c6cccc(S(=O)(=O)[O-])c6F)c6ccc3[nH]6)C=C5)C=C4)cc2)c2c(C)noc2n1
REMARK SMILES IDX 21 1 20 2 19 3 18 4 17 5 16 6 15 7 14 8 12 9 13 10 11 11
REMARK SMILES IDX 7 12 8 13 9 14 10 15 5 16 6 17 4 18 1 19 2 20 3 21 98 22
REMARK SMILES IDX 97 23 92 24 96 25 93 26 95 27 94 28 22 29 23 30 24 31 25 32
REMARK SMILES IDX 26 33 27 34 28 35 29 36 30 37 91 38 31 39 90 40 32 41 33 42
REMARK SMILES IDX 34 43 84 44 35 45 89 46 83 47 85 48 36 49 88 50 82 51 81 52
REMARK SMILES IDX 37 54 69 55 49 56 68 57 50 58 53 59 67 60 86 61 51 62 52 63
REMARK SMILES IDX 66 65 87 66 54 67 38 68 39 69 47 70 40 71 42 72 48 73 41 74
REMARK SMILES IDX 43 75 44 76 45 77 46 78 70 79 71 80 79 81 72 82 74 83 80 84
REMARK SMILES IDX 73 85 75 86 76 87 77 88 78 89 55 90 56 91 64 92 57 93 59 94
REMARK SMILES IDX 65 95 58 96 60 97 61 98 62 99 63 100
REMARK H PARENT 85 53 53 64
REMARK Flexibility Score: inf
ROOT
ATOM      1  C   UNL A   1      35.776  24.052  25.004  1.00  0.00     0.188 C 
ENDROOT
BRANCH   1   2
ATOM      2  O   UNL A   1      34.648  23.482  25.655  1.00  0.00    -0.377 OA
BRANCH   2   3
ATOM      3  C   UNL A   1      34.924  22.780  26.851  1.00  0.00     0.188 C 
BRANCH   3   4
ATOM      4  C   UNL A   1      34.263  21.390  26.970  1.00  0.00     0.188 C 
BRANCH   4   5
ATOM      5  O   UNL A   1      33.378  20.907  25.959  1.00  0.00    -0.376 OA
BRANCH   5   6
ATOM      6  C   UNL A   1      33.748  21.005  24.590  1.00  0.00     0.202 C 
BRANCH   6   7
ATOM      7  C   UNL A   1      32.726  21.619  23.629  1.00  0.00     0.261 C 
BRANCH   7   8
ATOM      8  O   UNL A   1      31.495  21.982  24.272  1.00  0.00    -0.462 OA
BRANCH   8   9
ATOM      9  C   UNL A   1      30.962  23.181  23.927  1.00  0.00     0.328 C 
ATOM     10  O   UNL A   1      30.226  23.357  22.962  1.00  0.00    -0.250 OA
BRANCH   9  11
ATOM     11  C   UNL A   1      31.347  24.312  24.905  1.00  0.00     0.195 C 
ATOM     12  N   UNL A   1      30.495  25.513  24.929  1.00  0.00    -0.325 N 
ATOM     13  C   UNL A   1      30.081  25.851  26.285  1.00  0.00     0.121 C 
ATOM     14  C   UNL A   1      31.095  25.147  27.171  1.00  0.00     0.024 C 
ATOM     15  C   UNL A   1      31.492  23.900  26.377  1.00  0.00     0.039 C 
BRANCH  12  16
ATOM     16  C   UNL A   1      30.421  26.304  23.795  1.00  0.00     0.255 C 
ATOM     17  O   UNL A   1      29.358  26.754  23.387  1.00  0.00    -0.269 OA
BRANCH  16  18
ATOM     18  C   UNL A   1      31.614  26.461  22.934  1.00  0.00     0.056 A 
ATOM     19  C   UNL A   1      32.689  25.416  19.456  1.00  0.00     0.067 C 
ATOM     20  C   UNL A   1      32.672  26.121  20.783  1.00  0.00     0.042 A 
ATOM     21  C   UNL A   1      31.647  25.839  21.676  1.00  0.00     0.038 A 
ATOM     22  N   UNL A   1      33.656  27.007  21.023  1.00  0.00    -0.216 NA
ATOM     23  C   UNL A   1      33.569  27.614  22.222  1.00  0.00     0.258 A 
ATOM     24  C   UNL A   1      32.620  27.405  23.216  1.00  0.00     0.077 A 
ATOM     25  O   UNL A   1      34.438  28.579  22.627  1.00  0.00    -0.336 OA
ATOM     26  C   UNL A   1      33.018  28.302  24.249  1.00  0.00     0.091 A 
ATOM     27  N   UNL A   1      34.098  29.015  23.893  1.00  0.00    -0.082 NA
ATOM     28  C   UNL A   1      32.433  28.530  25.592  1.00  0.00     0.071 C 
ENDBRANCH  16  18
ENDBRANCH  12  16
ENDBRANCH   9  11
ENDBRANCH   8   9
ENDBRANCH   7   8
ENDBRANCH   6   7
ENDBRANCH   5   6
ENDBRANCH   4   5
ENDBRANCH   3   4
ENDBRANCH   2   3
ENDBRANCH   1   2
BRANCH   1  29
ATOM     29  C   UNL A   1      36.777  23.040  24.432  1.00  0.00     0.188 C 
BRANCH  29  30
ATOM     30  O   UNL A   1      38.053  23.123  25.076  1.00  0.00    -0.376 OA
BRANCH  30  31
ATOM     31  C   UNL A   1      38.260  22.237  26.177  1.00  0.00     0.202 C 
BRANCH  31  32
ATOM     32  C   UNL A   1      39.585  21.459  26.137  1.00  0.00     0.261 C 
BRANCH  32  33
ATOM     33  O   UNL A   1      40.278  21.358  27.392  1.00  0.00    -0.460 OA
BRANCH  33  34
ATOM     34  C   UNL A   1      41.602  21.635  27.376  1.00  0.00     0.338 C 
ATOM     35  O   UNL A   1      42.517  20.840  27.376  1.00  0.00    -0.246 OA
BRANCH  34  36
ATOM     36  C   UNL A   1      41.751  23.085  27.225  1.00  0.00     0.060 A 
ATOM     37  C   UNL A   1      42.377  23.621  26.093  1.00  0.00     0.016 A 
ATOM     38  C   UNL A   1      41.330  23.902  28.264  1.00  0.00     0.016 A 
ATOM     39  C   UNL A   1      42.602  24.996  26.008  1.00  0.00     0.010 A 
ATOM     40  C   UNL A   1      41.590  25.265  28.188  1.00  0.00     0.010 A 
ATOM     41  C   UNL A   1      42.244  25.831  27.073  1.00  0.00    -0.014 A 
BRANCH  41  42
ATOM     42  C   UNL A   1      42.645  27.267  27.078  1.00  0.00     0.031 A 
ATOM     43  C   UNL A   1      41.531  28.244  27.204  1.00  0.00     0.074 A 
ATOM     44  C   UNL A   1      43.801  27.655  27.675  1.00  0.00     0.049 A 
ATOM     45  N   UNL A   1      41.039  28.473  28.382  1.00  0.00    -0.248 NA
ATOM     46  C   UNL A   1      40.716  28.777  26.117  1.00  0.00     0.031 C 
ATOM     47  C   UNL A   1      44.607  26.771  28.534  1.00  0.00     0.029 A 
ATOM     48  N   UNL A   1      44.345  28.912  27.880  1.00  0.00    -0.354 N 
ATOM     49  C   UNL A   1      39.771  28.977  28.210  1.00  0.00     0.074 A 
ATOM     50  C   UNL A   1      39.655  29.259  26.794  1.00  0.00     0.031 C 
ATOM     51  C   UNL A   1      45.407  27.527  29.308  1.00  0.00     0.029 A 
ATOM     52  C   UNL A   1      45.288  28.918  28.905  1.00  0.00     0.049 A 
ATOM     53  H   UNL A   1      44.094  29.709  27.361  1.00  0.00     0.167 HD
ATOM     54  C   UNL A   1      38.888  29.039  29.244  1.00  0.00     0.034 A 
ATOM     55  C   UNL A   1      45.672  29.976  29.665  1.00  0.00     0.034 A 
ATOM     56  C   UNL A   1      39.294  28.512  30.537  1.00  0.00     0.049 A 
ATOM     57  C   UNL A   1      44.564  30.081  30.681  1.00  0.00     0.074 A 
ATOM     58  C   UNL A   1      38.694  27.953  31.651  1.00  0.00     0.029 A 
ATOM     59  N   UNL A   1      40.633  28.464  30.819  1.00  0.00    -0.354 N 
ATOM     60  N   UNL A   1      44.386  29.296  31.715  1.00  0.00    -0.248 NA
ATOM     61  C   UNL A   1      43.425  30.966  30.384  1.00  0.00     0.031 C 
ATOM     62  C   UNL A   1      39.712  27.750  32.647  1.00  0.00     0.029 A 
ATOM     63  C   UNL A   1      40.901  28.243  32.143  1.00  0.00     0.049 A 
ATOM     64  H   UNL A   1      41.334  28.576  30.137  1.00  0.00     0.167 HD
ATOM     65  C   UNL A   1      43.026  29.382  31.985  1.00  0.00     0.074 A 
ATOM     66  C   UNL A   1      42.525  30.527  31.253  1.00  0.00     0.031 C 
ATOM     67  C   UNL A   1      42.278  28.387  32.544  1.00  0.00     0.034 A 
BRANCH  54  68
ATOM     68  C   UNL A   1      37.624  29.803  29.122  1.00  0.00     0.023 A 
ATOM     69  C   UNL A   1      36.643  29.224  28.291  1.00  0.00     0.012 A 
ATOM     70  C   UNL A   1      37.412  31.082  29.659  1.00  0.00     0.148 A 
ATOM     71  C   UNL A   1      35.471  29.907  27.983  1.00  0.00     0.002 A 
ATOM     72  C   UNL A   1      36.236  31.763  29.347  1.00  0.00     0.091 A 
ATOM     73  F   UNL A   1      38.362  31.615  30.441  1.00  0.00    -0.205 F 
ATOM     74  C   UNL A   1      35.269  31.178  28.507  1.00  0.00     0.022 A 
BRANCH  72  75
ATOM     75  S   UNL A   1      35.861  33.414  29.949  1.00  0.00     0.127 S 
ATOM     76  O   UNL A   1      36.832  34.231  29.223  1.00  0.00    -0.237 OA
ATOM     77  O   UNL A   1      34.474  33.585  29.516  1.00  0.00    -0.237 OA
ATOM     78  O   UNL A   1      36.047  33.365  31.393  1.00  0.00    -0.744 OA
ENDBRANCH  72  75
ENDBRANCH  54  68
BRANCH  55  79
ATOM     79  C   UNL A   1      46.272  31.142  28.941  1.00  0.00     0.023 A 
ATOM     80  C   UNL A   1      47.595  31.511  29.295  1.00  0.00     0.012 A 
ATOM     81  C   UNL A   1      45.615  31.944  27.992  1.00  0.00     0.148 A 
ATOM     82  C   UNL A   1      48.270  32.554  28.659  1.00  0.00     0.002 A 
ATOM     83  C   UNL A   1      46.310  32.942  27.311  1.00  0.00     0.091 A 
ATOM     84  F   UNL A   1      44.313  31.741  27.758  1.00  0.00    -0.205 F 
ATOM     85  C   UNL A   1      47.636  33.252  27.643  1.00  0.00     0.022 A 
BRANCH  83  86
ATOM     86  S   UNL A   1      45.596  33.837  25.925  1.00  0.00     0.127 S 
ATOM     87  O   UNL A   1      44.692  34.771  26.594  1.00  0.00    -0.237 OA
ATOM     88  O   UNL A   1      46.786  34.447  25.336  1.00  0.00    -0.237 OA
ATOM     89  O   UNL A   1      44.938  32.833  25.102  1.00  0.00    -0.744 OA
ENDBRANCH  83  86
ENDBRANCH  55  79
BRANCH  67  90
ATOM     90  C   UNL A   1      42.962  27.432  33.454  1.00  0.00     0.023 A 
ATOM     91  C   UNL A   1      43.776  26.445  32.860  1.00  0.00     0.012 A 
ATOM     92  C   UNL A   1      42.884  27.510  34.855  1.00  0.00     0.148 A 
ATOM     93  C   UNL A   1      44.502  25.549  33.638  1.00  0.00     0.002 A 
ATOM     94  C   UNL A   1      43.617  26.612  35.629  1.00  0.00     0.091 A 
ATOM     95  F   UNL A   1      42.111  28.455  35.409  1.00  0.00    -0.205 F 
ATOM     96  C   UNL A   1      44.425  25.634  35.022  1.00  0.00     0.022 A 
BRANCH  94  97
ATOM     97  S   UNL A   1      43.601  26.630  37.425  1.00  0.00     0.127 S 
ATOM     98  O   UNL A   1      42.189  26.379  37.724  1.00  0.00    -0.237 OA
ATOM     99  O   UNL A   1      44.494  25.516  37.745  1.00  0.00    -0.237 OA
ATOM    100  O   UNL A   1      44.077  27.947  37.820  1.00  0.00    -0.744 OA
ENDBRANCH  94  97
ENDBRANCH  67  90
ENDBRANCH  41  42
ENDBRANCH  34  36
ENDBRANCH  33  34
ENDBRANCH  32  33
ENDBRANCH  31  32
ENDBRANCH  30  31
ENDBRANCH  29  30
ENDBRANCH   1  29
TORSDOF 25
ENDMDL
MODEL 3
REMARK VINA RESULT:      -9.5      2.204      3.320
REMARK SMILES Cc1cc(C(=O)N2CCC[C@H]2C(=O)OCCOCCOCCOCCOC(=O)c2ccc(-c3c4nc(c(-c5cccc(S(=O)(=O)[O-])c5F)c5ccc([nH]5)c(-c5cccc(S(=O)(=O)[O-])c5F)c5nc(c(-c6cccc(S(=O)(=O)[O-])c6F)c6ccc3[nH]6)C=C5)C=C4)cc2)c2c(C)noc2n1
REMARK SMILES IDX 21 1 20 2 19 3 18 4 17 5 16 6 15 7 14 8 12 9 13 10 11 11
REMARK SMILES IDX 7 12 8 13 9 14 10 15 5 16 6 17 4 18 1 19 2 20 3 21 98 22
REMARK SMILES IDX 97 23 92 24 96 25 93 26 95 27 94 28 22 29 23 30 24 31 25 32
REMARK SMILES IDX 26 33 27 34 28 35 29 36 30 37 91 38 31 39 90 40 32 41 33 42
REMARK SMILES IDX 34 43 84 44 35 45 89 46 83 47 85 48 36 49 88 50 82 51 81 52
REMARK SMILES IDX 37 54 69 55 49 56 68 57 50 58 53 59 67 60 86 61 51 62 52 63
REMARK SMILES IDX 66 65 87 66 54 67 38 68 39 69 47 70 40 71 42 72 48 73 41 74
REMARK SMILES IDX 43 75 44 76 45 77 46 78 70 79 71 80 79 81 72 82 74 83 80 84
REMARK SMILES IDX 73 85 75 86 76 87 77 88 78 89 55 90 56 91 64 92 57 93 59 94
REMARK SMILES IDX 65 95 58 96 60 97 61 98 62 99 63 100
REMARK H PARENT 85 53 53 64
REMARK Flexibility Score: inf
ROOT
ATOM      1  C   UNL A   1      35.867  20.381  25.034  1.00  0.00     0.188 C 
ENDROOT
BRANCH   1   2
ATOM      2  O   UNL A   1      35.431  21.491  25.807  1.00  0.00    -0.377 OA
BRANCH   2   3
ATOM      3  C   UNL A   1      34.321  21.249  26.651  1.00  0.00     0.188 C 
BRANCH   3   4
ATOM      4  C   UNL A   1      34.003  22.372  27.662  1.00  0.00     0.188 C 
BRANCH   4   5
ATOM      5  O   UNL A   1      32.846  23.194  27.510  1.00  0.00    -0.376 OA
BRANCH   5   6
ATOM      6  C   UNL A   1      31.586  22.597  27.232  1.00  0.00     0.202 C 
BRANCH   6   7
ATOM      7  C   UNL A   1      30.715  23.262  26.163  1.00  0.00     0.261 C 
BRANCH   7   8
ATOM      8  O   UNL A   1      30.293  24.586  26.524  1.00  0.00    -0.462 OA
BRANCH   8   9
ATOM      9  C   UNL A   1      30.797  25.606  25.783  1.00  0.00     0.328 C 
ATOM     10  O   UNL A   1      30.453  25.860  24.634  1.00  0.00    -0.250 OA
BRANCH   9  11
ATOM     11  C   UNL A   1      31.834  26.451  26.554  1.00  0.00     0.195 C 
ATOM     12  N   UNL A   1      33.067  26.830  25.845  1.00  0.00    -0.325 N 
ATOM     13  C   UNL A   1      33.323  28.262  25.940  1.00  0.00     0.121 C 
ATOM     14  C   UNL A   1      32.511  28.707  27.144  1.00  0.00     0.024 C 
ATOM     15  C   UNL A   1      31.308  27.760  27.162  1.00  0.00     0.039 C 
BRANCH  12  16
ATOM     16  C   UNL A   1      33.942  25.835  25.445  1.00  0.00     0.255 C 
ATOM     17  O   UNL A   1      34.993  25.618  26.037  1.00  0.00    -0.269 OA
BRANCH  16  18
ATOM     18  C   UNL A   1      33.716  25.134  24.162  1.00  0.00     0.056 A 
ATOM     19  C   UNL A   1      32.610  21.691  23.032  1.00  0.00     0.067 C 
ATOM     20  C   UNL A   1      32.964  23.151  22.991  1.00  0.00     0.042 A 
ATOM     21  C   UNL A   1      33.356  23.777  24.168  1.00  0.00     0.038 A 
ATOM     22  N   UNL A   1      32.864  23.778  21.805  1.00  0.00    -0.216 NA
ATOM     23  C   UNL A   1      33.177  25.087  21.845  1.00  0.00     0.258 A 
ATOM     24  C   UNL A   1      33.610  25.826  22.940  1.00  0.00     0.077 A 
ATOM     25  O   UNL A   1      33.087  25.903  20.761  1.00  0.00    -0.336 OA
ATOM     26  C   UNL A   1      33.795  27.133  22.405  1.00  0.00     0.091 A 
ATOM     27  N   UNL A   1      33.469  27.185  21.104  1.00  0.00    -0.082 NA
ATOM     28  C   UNL A   1      34.282  28.372  23.061  1.00  0.00     0.071 C 
ENDBRANCH  16  18
ENDBRANCH  12  16
ENDBRANCH   9  11
ENDBRANCH   8   9
ENDBRANCH   7   8
ENDBRANCH   6   7
ENDBRANCH   5   6
ENDBRANCH   4   5
ENDBRANCH   3   4
ENDBRANCH   2   3
ENDBRANCH   1   2
BRANCH   1  29
ATOM     29  C   UNL A   1      37.364  20.372  24.697  1.00  0.00     0.188 C 
BRANCH  29  30
ATOM     30  O   UNL A   1      38.180  20.299  25.872  1.00  0.00    -0.376 OA
BRANCH  30  31
ATOM     31  C   UNL A   1      39.275  21.213  25.934  1.00  0.00     0.202 C 
BRANCH  31  32
ATOM     32  C   UNL A   1      40.637  20.613  25.551  1.00  0.00     0.261 C 
BRANCH  32  33
ATOM     33  O   UNL A   1      41.710  20.887  26.466  1.00  0.00    -0.460 OA
BRANCH  33  34
ATOM     34  C   UNL A   1      41.379  21.521  27.615  1.00  0.00     0.338 C 
ATOM     35  O   UNL A   1      41.009  21.013  28.651  1.00  0.00    -0.246 OA
BRANCH  34  36
ATOM     36  C   UNL A   1      41.670  22.946  27.435  1.00  0.00     0.060 A 
ATOM     37  C   UNL A   1      42.402  23.386  26.326  1.00  0.00     0.016 A 
ATOM     38  C   UNL A   1      41.275  23.830  28.428  1.00  0.00     0.016 A 
ATOM     39  C   UNL A   1      42.759  24.732  26.217  1.00  0.00     0.010 A 
ATOM     40  C   UNL A   1      41.665  25.160  28.332  1.00  0.00     0.010 A 
ATOM     41  C   UNL A   1      42.426  25.628  27.240  1.00  0.00    -0.014 A 
BRANCH  41  42
ATOM     42  C   UNL A   1      42.960  27.021  27.230  1.00  0.00     0.031 A 
ATOM     43  C   UNL A   1      41.936  28.100  27.256  1.00  0.00     0.074 A 
ATOM     44  C   UNL A   1      44.108  27.321  27.888  1.00  0.00     0.049 A 
ATOM     45  N   UNL A   1      41.396  28.414  28.393  1.00  0.00    -0.248 NA
ATOM     46  C   UNL A   1      41.243  28.668  26.104  1.00  0.00     0.031 C 
ATOM     47  C   UNL A   1      44.773  26.397  28.822  1.00  0.00     0.029 A 
ATOM     48  N   UNL A   1      44.754  28.529  28.093  1.00  0.00    -0.354 N 
ATOM     49  C   UNL A   1      40.195  29.026  28.125  1.00  0.00     0.074 A 
ATOM     50  C   UNL A   1      40.192  29.269  26.697  1.00  0.00     0.031 C 
ATOM     51  C   UNL A   1      45.591  27.102  29.624  1.00  0.00     0.029 A 
ATOM     52  C   UNL A   1      45.628  28.484  29.175  1.00  0.00     0.049 A 
ATOM     53  H   UNL A   1      44.611  29.328  27.536  1.00  0.00     0.167 HD
ATOM     54  C   UNL A   1      39.260  29.204  29.099  1.00  0.00     0.034 A 
ATOM     55  C   UNL A   1      46.062  29.527  29.928  1.00  0.00     0.034 A 
ATOM     56  C   UNL A   1      39.534  28.687  30.429  1.00  0.00     0.049 A 
ATOM     57  C   UNL A   1      44.909  29.768  30.868  1.00  0.00     0.074 A 
ATOM     58  C   UNL A   1      38.816  28.224  31.518  1.00  0.00     0.029 A 
ATOM     59  N   UNL A   1      40.843  28.525  30.798  1.00  0.00    -0.354 N 
ATOM     60  N   UNL A   1      44.595  29.039  31.910  1.00  0.00    -0.248 NA
ATOM     61  C   UNL A   1      43.879  30.744  30.473  1.00  0.00     0.031 C 
ATOM     62  C   UNL A   1      39.748  27.962  32.582  1.00  0.00     0.029 A 
ATOM     63  C   UNL A   1      41.006  28.326  32.142  1.00  0.00     0.049 A 
ATOM     64  H   UNL A   1      41.592  28.549  30.160  1.00  0.00     0.167 HD
ATOM     65  C   UNL A   1      43.235  29.259  32.089  1.00  0.00     0.074 A 
ATOM     66  C   UNL A   1      42.890  30.419  31.294  1.00  0.00     0.031 C 
ATOM     67  C   UNL A   1      42.364  28.357  32.627  1.00  0.00     0.034 A 
BRANCH  54  68
ATOM     68  C   UNL A   1      38.083  30.077  28.873  1.00  0.00     0.023 A 
ATOM     69  C   UNL A   1      37.094  29.553  28.015  1.00  0.00     0.012 A 
ATOM     70  C   UNL A   1      37.967  31.394  29.343  1.00  0.00     0.148 A 
ATOM     71  C   UNL A   1      36.011  30.327  27.614  1.00  0.00     0.002 A 
ATOM     72  C   UNL A   1      36.879  32.166  28.936  1.00  0.00     0.091 A 
ATOM     73  F   UNL A   1      38.923  31.873  30.152  1.00  0.00    -0.205 F 
ATOM     74  C   UNL A   1      35.905  31.635  28.070  1.00  0.00     0.022 A 
BRANCH  72  75
ATOM     75  S   UNL A   1      36.635  33.872  29.446  1.00  0.00     0.127 S 
ATOM     76  O   UNL A   1      35.450  34.253  28.678  1.00  0.00    -0.237 OA
ATOM     77  O   UNL A   1      36.409  33.728  30.884  1.00  0.00    -0.237 OA
ATOM     78  O   UNL A   1      37.859  34.576  29.089  1.00  0.00    -0.744 OA
ENDBRANCH  72  75
ENDBRANCH  54  68
BRANCH  55  79
ATOM     79  C   UNL A   1      46.813  30.608  29.212  1.00  0.00     0.023 A 
ATOM     80  C   UNL A   1      46.207  31.889  29.161  1.00  0.00     0.012 A 
ATOM     81  C   UNL A   1      48.031  30.445  28.529  1.00  0.00     0.148 A 
ATOM     82  C   UNL A   1      46.832  32.982  28.556  1.00  0.00     0.002 A 
ATOM     83  C   UNL A   1      48.685  31.550  27.984  1.00  0.00     0.091 A 
ATOM     84  F   UNL A   1      48.548  29.218  28.403  1.00  0.00    -0.205 F 
ATOM     85  C   UNL A   1      48.088  32.818  27.993  1.00  0.00     0.022 A 
BRANCH  83  86
ATOM     86  S   UNL A   1      50.349  31.446  27.312  1.00  0.00     0.127 S 
ATOM     87  O   UNL A   1      50.587  32.817  26.864  1.00  0.00    -0.237 OA
ATOM     88  O   UNL A   1      51.108  31.042  28.494  1.00  0.00    -0.237 OA
ATOM     89  O   UNL A   1      50.284  30.456  26.245  1.00  0.00    -0.744 OA
ENDBRANCH  83  86
ENDBRANCH  55  79
BRANCH  67  90
ATOM     90  C   UNL A   1      42.898  27.375  33.606  1.00  0.00     0.023 A 
ATOM     91  C   UNL A   1      42.629  27.615  34.970  1.00  0.00     0.012 A 
ATOM     92  C   UNL A   1      43.588  26.209  33.234  1.00  0.00     0.148 A 
ATOM     93  C   UNL A   1      43.036  26.715  35.952  1.00  0.00     0.002 A 
ATOM     94  C   UNL A   1      43.990  25.311  34.220  1.00  0.00     0.091 A 
ATOM     95  F   UNL A   1      43.833  25.990  31.934  1.00  0.00    -0.205 F 
ATOM     96  C   UNL A   1      43.714  25.563  35.577  1.00  0.00     0.022 A 
BRANCH  94  97
ATOM     97  S   UNL A   1      44.866  23.785  33.856  1.00  0.00     0.127 S 
ATOM     98  O   UNL A   1      46.143  24.280  33.338  1.00  0.00    -0.237 OA
ATOM     99  O   UNL A   1      44.949  23.164  35.178  1.00  0.00    -0.237 OA
ATOM    100  O   UNL A   1      44.052  23.076  32.881  1.00  0.00    -0.744 OA
ENDBRANCH  94  97
ENDBRANCH  67  90
ENDBRANCH  41  42
ENDBRANCH  34  36
ENDBRANCH  33  34
ENDBRANCH  32  33
ENDBRANCH  31  32
ENDBRANCH  30  31
ENDBRANCH  29  30
ENDBRANCH   1  29
TORSDOF 25
ENDMDL
