MODEL 1
REMARK VINA RESULT:      -9.3      0.000      0.000
REMARK SMILES O=C(Cc1ccc(CBr)cc1)OCCOCCOCCOCCOC(=O)c1ccc(-c2c3nc(c(-c4cccc(S(=O)(=O)[O-])c4F)c4ccc([nH]4)c(-c4cccc(S(=O)(=O)[O-])c4F)c4nc(c(-c5cccc(S(=O)(=O)[O-])c5F)c5ccc2[nH]5)C=C4)C=C3)cc1
REMARK SMILES IDX 19 1 18 2 17 3 16 4 15 5 14 6 13 7 12 8 2 9 1 10 3 11 4 12
REMARK SMILES IDX 5 13 11 14 6 15 10 16 7 17 8 18 9 19 20 20 21 21 22 22 23 23
REMARK SMILES IDX 24 24 25 25 26 26 27 27 28 28 89 29 29 30 88 31 30 32 31 33
REMARK SMILES IDX 32 34 82 35 33 36 87 37 81 38 83 39 34 40 86 41 80 42 79 43
REMARK SMILES IDX 35 45 67 46 47 47 66 48 48 49 51 50 65 51 84 52 49 53 50 54
REMARK SMILES IDX 64 56 85 57 52 58 36 59 37 60 45 61 38 62 40 63 46 64 39 65
REMARK SMILES IDX 41 66 42 67 43 68 44 69 68 70 69 71 77 72 70 73 72 74 78 75
REMARK SMILES IDX 71 76 73 77 74 78 75 79 76 80 53 81 54 82 62 83 55 84 57 85
REMARK SMILES IDX 63 86 56 87 58 88 59 89 60 90 61 91
REMARK H PARENT 83 44 51 55
REMARK Flexibility Score: inf
ROOT
ATOM      1  C   UNL A   1      34.777  23.056  23.585  1.00  0.00     0.188 C 
ENDROOT
BRANCH   1   2
ATOM      2  O   UNL A   1      34.366  24.135  22.764  1.00  0.00    -0.377 OA
BRANCH   2   3
ATOM      3  C   UNL A   1      32.991  24.118  22.419  1.00  0.00     0.188 C 
BRANCH   3   4
ATOM      4  C   UNL A   1      32.442  25.374  21.736  1.00  0.00     0.188 C 
BRANCH   4   5
ATOM      5  O   UNL A   1      32.589  26.646  22.338  1.00  0.00    -0.376 OA
BRANCH   5   6
ATOM      6  C   UNL A   1      33.620  27.584  22.119  1.00  0.00     0.202 C 
BRANCH   6   7
ATOM      7  C   UNL A   1      34.091  28.598  23.156  1.00  0.00     0.261 C 
BRANCH   7   8
ATOM      8  O   UNL A   1      33.105  29.361  23.866  1.00  0.00    -0.463 OA
BRANCH   8   9
ATOM      9  C   UNL A   1      32.762  29.299  25.166  1.00  0.00     0.310 C 
ATOM     10  O   UNL A   1      33.515  29.795  26.005  1.00  0.00    -0.252 OA
BRANCH   9  11
ATOM     11  C   UNL A   1      31.547  28.519  25.603  1.00  0.00     0.158 C 
BRANCH  11  12
ATOM     12  C   UNL A   1      31.729  27.043  25.789  1.00  0.00    -0.037 A 
ATOM     13  C   UNL A   1      33.017  26.524  25.977  1.00  0.00     0.004 A 
ATOM     14  C   UNL A   1      30.631  26.181  25.793  1.00  0.00     0.004 A 
ATOM     15  C   UNL A   1      33.208  25.152  26.114  1.00  0.00     0.005 A 
ATOM     16  C   UNL A   1      30.825  24.810  25.924  1.00  0.00     0.005 A 
ATOM     17  C   UNL A   1      32.113  24.280  26.082  1.00  0.00    -0.037 A 
BRANCH  17  18
ATOM     18  C   UNL A   1      32.293  22.805  26.271  1.00  0.00     0.116 C 
ATOM     19  Br  UNL A   1      33.714  22.438  27.541  1.00  0.00    -0.088 Br
ENDBRANCH  17  18
ENDBRANCH  11  12
ENDBRANCH   9  11
ENDBRANCH   8   9
ENDBRANCH   7   8
ENDBRANCH   6   7
ENDBRANCH   5   6
ENDBRANCH   4   5
ENDBRANCH   3   4
ENDBRANCH   2   3
ENDBRANCH   1   2
BRANCH   1  20
ATOM     20  C   UNL A   1      36.261  22.696  23.412  1.00  0.00     0.188 C 
BRANCH  20  21
ATOM     21  O   UNL A   1      36.982  22.181  24.512  1.00  0.00    -0.376 OA
BRANCH  21  22
ATOM     22  C   UNL A   1      36.991  20.804  24.854  1.00  0.00     0.202 C 
BRANCH  22  23
ATOM     23  C   UNL A   1      38.205  19.931  25.229  1.00  0.00     0.261 C 
BRANCH  23  24
ATOM     24  O   UNL A   1      39.498  20.521  25.243  1.00  0.00    -0.460 OA
BRANCH  24  25
ATOM     25  C   UNL A   1      40.199  20.359  26.378  1.00  0.00     0.338 C 
ATOM     26  O   UNL A   1      40.702  19.325  26.795  1.00  0.00    -0.246 OA
BRANCH  25  27
ATOM     27  C   UNL A   1      40.468  21.697  26.934  1.00  0.00     0.060 A 
ATOM     28  C   UNL A   1      39.864  22.794  26.306  1.00  0.00     0.016 A 
ATOM     29  C   UNL A   1      41.286  21.875  28.054  1.00  0.00     0.016 A 
ATOM     30  C   UNL A   1      40.134  24.079  26.745  1.00  0.00     0.010 A 
ATOM     31  C   UNL A   1      41.590  23.172  28.473  1.00  0.00     0.010 A 
ATOM     32  C   UNL A   1      41.063  24.272  27.773  1.00  0.00    -0.014 A 
BRANCH  32  33
ATOM     33  C   UNL A   1      41.706  25.600  27.862  1.00  0.00     0.031 A 
ATOM     34  C   UNL A   1      40.943  26.691  28.567  1.00  0.00     0.074 A 
ATOM     35  C   UNL A   1      42.957  25.807  27.421  1.00  0.00     0.049 A 
ATOM     36  N   UNL A   1      41.309  27.914  28.842  1.00  0.00    -0.248 NA
ATOM     37  C   UNL A   1      39.585  26.351  29.032  1.00  0.00     0.031 C 
ATOM     38  C   UNL A   1      43.798  24.811  26.759  1.00  0.00     0.029 A 
ATOM     39  N   UNL A   1      43.734  26.934  27.467  1.00  0.00    -0.354 N 
ATOM     40  C   UNL A   1      40.219  28.497  29.477  1.00  0.00     0.074 A 
ATOM     41  C   UNL A   1      39.174  27.503  29.538  1.00  0.00     0.031 C 
ATOM     42  C   UNL A   1      44.975  25.381  26.443  1.00  0.00     0.029 A 
ATOM     43  C   UNL A   1      44.958  26.782  26.863  1.00  0.00     0.049 A 
ATOM     44  H   UNL A   1      43.443  27.772  27.893  1.00  0.00     0.167 HD
ATOM     45  C   UNL A   1      40.101  29.748  29.976  1.00  0.00     0.034 A 
ATOM     46  C   UNL A   1      45.941  27.681  26.665  1.00  0.00     0.034 A 
ATOM     47  C   UNL A   1      41.150  30.727  29.926  1.00  0.00     0.049 A 
ATOM     48  C   UNL A   1      45.772  29.079  27.204  1.00  0.00     0.074 A 
ATOM     49  C   UNL A   1      41.151  32.012  30.435  1.00  0.00     0.029 A 
ATOM     50  N   UNL A   1      42.379  30.534  29.314  1.00  0.00    -0.354 N 
ATOM     51  N   UNL A   1      44.775  29.590  27.889  1.00  0.00    -0.248 NA
ATOM     52  C   UNL A   1      46.884  30.014  26.979  1.00  0.00     0.031 C 
ATOM     53  C   UNL A   1      42.365  32.613  30.090  1.00  0.00     0.029 A 
ATOM     54  C   UNL A   1      43.142  31.683  29.418  1.00  0.00     0.049 A 
ATOM     55  H   UNL A   1      42.666  29.703  28.872  1.00  0.00     0.167 HD
ATOM     56  C   UNL A   1      45.161  30.884  28.218  1.00  0.00     0.074 A 
ATOM     57  C   UNL A   1      46.489  31.074  27.670  1.00  0.00     0.031 C 
ATOM     58  C   UNL A   1      44.481  31.834  28.909  1.00  0.00     0.034 A 
BRANCH  45  59
ATOM     59  C   UNL A   1      38.787  30.127  30.606  1.00  0.00     0.023 A 
ATOM     60  C   UNL A   1      38.522  29.799  31.952  1.00  0.00     0.012 A 
ATOM     61  C   UNL A   1      37.825  30.841  29.866  1.00  0.00     0.148 A 
ATOM     62  C   UNL A   1      37.304  30.145  32.539  1.00  0.00     0.002 A 
ATOM     63  C   UNL A   1      36.638  31.228  30.472  1.00  0.00     0.091 A 
ATOM     64  F   UNL A   1      38.085  31.117  28.580  1.00  0.00    -0.205 F 
ATOM     65  C   UNL A   1      36.369  30.869  31.804  1.00  0.00     0.022 A 
BRANCH  63  66
ATOM     66  S   UNL A   1      35.409  32.235  29.636  1.00  0.00     0.127 S 
ATOM     67  O   UNL A   1      34.401  32.400  30.682  1.00  0.00    -0.237 OA
ATOM     68  O   UNL A   1      36.169  33.446  29.323  1.00  0.00    -0.237 OA
ATOM     69  O   UNL A   1      34.981  31.468  28.475  1.00  0.00    -0.744 OA
ENDBRANCH  63  66
ENDBRANCH  45  59
BRANCH  46  70
ATOM     70  C   UNL A   1      47.187  27.284  25.952  1.00  0.00     0.023 A 
ATOM     71  C   UNL A   1      47.305  27.511  24.567  1.00  0.00     0.012 A 
ATOM     72  C   UNL A   1      48.255  26.678  26.642  1.00  0.00     0.148 A 
ATOM     73  C   UNL A   1      48.446  27.104  23.875  1.00  0.00     0.002 A 
ATOM     74  C   UNL A   1      49.411  26.327  25.957  1.00  0.00     0.091 A 
ATOM     75  F   UNL A   1      48.118  26.461  27.958  1.00  0.00    -0.205 F 
ATOM     76  C   UNL A   1      49.501  26.521  24.570  1.00  0.00     0.022 A 
BRANCH  74  77
ATOM     77  S   UNL A   1      50.868  25.683  26.787  1.00  0.00     0.127 S 
ATOM     78  O   UNL A   1      51.785  25.483  25.668  1.00  0.00    -0.237 OA
ATOM     79  O   UNL A   1      51.214  26.788  27.681  1.00  0.00    -0.237 OA
ATOM     80  O   UNL A   1      50.431  24.472  27.468  1.00  0.00    -0.744 OA
ENDBRANCH  74  77
ENDBRANCH  46  70
BRANCH  58  81
ATOM     81  C   UNL A   1      45.182  33.141  29.177  1.00  0.00     0.023 A 
ATOM     82  C   UNL A   1      45.925  33.323  30.361  1.00  0.00     0.012 A 
ATOM     83  C   UNL A   1      45.150  34.171  28.217  1.00  0.00     0.148 A 
ATOM     84  C   UNL A   1      46.581  34.531  30.605  1.00  0.00     0.002 A 
ATOM     85  C   UNL A   1      45.855  35.347  28.440  1.00  0.00     0.091 A 
ATOM     86  F   UNL A   1      44.427  33.987  27.102  1.00  0.00    -0.205 F 
ATOM     87  C   UNL A   1      46.556  35.536  29.642  1.00  0.00     0.022 A 
BRANCH  85  88
ATOM     88  S   UNL A   1      45.964  36.650  27.208  1.00  0.00     0.127 S 
ATOM     89  O   UNL A   1      44.706  37.364  27.417  1.00  0.00    -0.237 OA
ATOM     90  O   UNL A   1      47.158  37.380  27.634  1.00  0.00    -0.237 OA
ATOM     91  O   UNL A   1      46.096  35.976  25.923  1.00  0.00    -0.744 OA
ENDBRANCH  85  88
ENDBRANCH  58  81
ENDBRANCH  32  33
ENDBRANCH  25  27
ENDBRANCH  24  25
ENDBRANCH  23  24
ENDBRANCH  22  23
ENDBRANCH  21  22
ENDBRANCH  20  21
ENDBRANCH   1  20
TORSDOF 25
ENDMDL
MODEL 2
REMARK VINA RESULT:      -9.3      4.757      7.918
REMARK SMILES O=C(Cc1ccc(CBr)cc1)OCCOCCOCCOCCOC(=O)c1ccc(-c2c3nc(c(-c4cccc(S(=O)(=O)[O-])c4F)c4ccc([nH]4)c(-c4cccc(S(=O)(=O)[O-])c4F)c4nc(c(-c5cccc(S(=O)(=O)[O-])c5F)c5ccc2[nH]5)C=C4)C=C3)cc1
REMARK SMILES IDX 19 1 18 2 17 3 16 4 15 5 14 6 13 7 12 8 2 9 1 10 3 11 4 12
REMARK SMILES IDX 5 13 11 14 6 15 10 16 7 17 8 18 9 19 20 20 21 21 22 22 23 23
REMARK SMILES IDX 24 24 25 25 26 26 27 27 28 28 89 29 29 30 88 31 30 32 31 33
REMARK SMILES IDX 32 34 82 35 33 36 87 37 81 38 83 39 34 40 86 41 80 42 79 43
REMARK SMILES IDX 35 45 67 46 47 47 66 48 48 49 51 50 65 51 84 52 49 53 50 54
REMARK SMILES IDX 64 56 85 57 52 58 36 59 37 60 45 61 38 62 40 63 46 64 39 65
REMARK SMILES IDX 41 66 42 67 43 68 44 69 68 70 69 71 77 72 70 73 72 74 78 75
REMARK SMILES IDX 71 76 73 77 74 78 75 79 76 80 53 81 54 82 62 83 55 84 57 85
REMARK SMILES IDX 63 86 56 87 58 88 59 89 60 90 61 91
REMARK H PARENT 83 44 51 55
REMARK Flexibility Score: inf
ROOT
ATOM      1  C   UNL A   1      33.132  26.786  25.827  1.00  0.00     0.188 C 
ENDROOT
BRANCH   1   2
ATOM      2  O   UNL A   1      32.022  26.358  26.595  1.00  0.00    -0.377 OA
BRANCH   2   3
ATOM      3  C   UNL A   1      30.772  26.481  25.938  1.00  0.00     0.188 C 
BRANCH   3   4
ATOM      4  C   UNL A   1      30.108  25.178  25.483  1.00  0.00     0.188 C 
BRANCH   4   5
ATOM      5  O   UNL A   1      30.348  24.660  24.189  1.00  0.00    -0.376 OA
BRANCH   5   6
ATOM      6  C   UNL A   1      31.366  23.762  23.801  1.00  0.00     0.202 C 
BRANCH   6   7
ATOM      7  C   UNL A   1      32.457  23.247  24.733  1.00  0.00     0.261 C 
BRANCH   7   8
ATOM      8  O   UNL A   1      32.747  21.842  24.740  1.00  0.00    -0.463 OA
BRANCH   8   9
ATOM      9  C   UNL A   1      33.721  21.182  25.394  1.00  0.00     0.310 C 
ATOM     10  O   UNL A   1      33.553  20.895  26.580  1.00  0.00    -0.252 OA
BRANCH   9  11
ATOM     11  C   UNL A   1      35.050  20.919  24.731  1.00  0.00     0.158 C 
BRANCH  11  12
ATOM     12  C   UNL A   1      36.207  21.754  25.190  1.00  0.00    -0.037 A 
ATOM     13  C   UNL A   1      37.466  21.161  25.349  1.00  0.00     0.004 A 
ATOM     14  C   UNL A   1      36.050  23.117  25.445  1.00  0.00     0.004 A 
ATOM     15  C   UNL A   1      38.543  21.912  25.810  1.00  0.00     0.005 A 
ATOM     16  C   UNL A   1      37.125  23.865  25.912  1.00  0.00     0.005 A 
ATOM     17  C   UNL A   1      38.381  23.273  26.103  1.00  0.00    -0.037 A 
BRANCH  17  18
ATOM     18  C   UNL A   1      39.537  24.108  26.559  1.00  0.00     0.116 C 
ATOM     19  Br  UNL A   1      39.132  24.993  28.238  1.00  0.00    -0.088 Br
ENDBRANCH  17  18
ENDBRANCH  11  12
ENDBRANCH   9  11
ENDBRANCH   8   9
ENDBRANCH   7   8
ENDBRANCH   6   7
ENDBRANCH   5   6
ENDBRANCH   4   5
ENDBRANCH   3   4
ENDBRANCH   2   3
ENDBRANCH   1   2
BRANCH   1  20
ATOM     20  C   UNL A   1      32.737  27.328  24.444  1.00  0.00     0.188 C 
BRANCH  20  21
ATOM     21  O   UNL A   1      32.427  28.699  24.300  1.00  0.00    -0.376 OA
BRANCH  21  22
ATOM     22  C   UNL A   1      32.932  29.701  25.167  1.00  0.00     0.202 C 
BRANCH  22  23
ATOM     23  C   UNL A   1      32.247  30.311  26.408  1.00  0.00     0.261 C 
BRANCH  23  24
ATOM     24  O   UNL A   1      33.001  30.468  27.602  1.00  0.00    -0.460 OA
BRANCH  24  25
ATOM     25  C   UNL A   1      33.722  31.600  27.689  1.00  0.00     0.338 C 
ATOM     26  O   UNL A   1      33.295  32.742  27.776  1.00  0.00    -0.246 OA
BRANCH  25  27
ATOM     27  C   UNL A   1      35.130  31.220  27.902  1.00  0.00     0.060 A 
ATOM     28  C   UNL A   1      35.437  29.854  27.922  1.00  0.00     0.016 A 
ATOM     29  C   UNL A   1      36.131  32.182  28.068  1.00  0.00     0.016 A 
ATOM     30  C   UNL A   1      36.733  29.439  28.183  1.00  0.00     0.010 A 
ATOM     31  C   UNL A   1      37.429  31.764  28.370  1.00  0.00     0.010 A 
ATOM     32  C   UNL A   1      37.709  30.392  28.492  1.00  0.00    -0.014 A 
BRANCH  32  33
ATOM     33  C   UNL A   1      38.889  29.928  29.251  1.00  0.00     0.031 A 
ATOM     34  C   UNL A   1      38.966  30.301  30.708  1.00  0.00     0.074 A 
ATOM     35  C   UNL A   1      39.811  29.124  28.695  1.00  0.00     0.049 A 
ATOM     36  N   UNL A   1      39.851  29.962  31.606  1.00  0.00    -0.248 NA
ATOM     37  C   UNL A   1      37.890  31.170  31.223  1.00  0.00     0.031 C 
ATOM     38  C   UNL A   1      39.814  28.671  27.306  1.00  0.00     0.029 A 
ATOM     39  N   UNL A   1      40.928  28.551  29.244  1.00  0.00    -0.354 N 
ATOM     40  C   UNL A   1      39.461  30.602  32.776  1.00  0.00     0.074 A 
ATOM     41  C   UNL A   1      38.268  31.357  32.477  1.00  0.00     0.031 C 
ATOM     42  C   UNL A   1      40.897  27.898  27.106  1.00  0.00     0.029 A 
ATOM     43  C   UNL A   1      41.668  27.823  28.345  1.00  0.00     0.049 A 
ATOM     44  H   UNL A   1      41.175  28.650  30.191  1.00  0.00     0.167 HD
ATOM     45  C   UNL A   1      40.039  30.555  33.998  1.00  0.00     0.034 A 
ATOM     46  C   UNL A   1      42.842  27.183  28.511  1.00  0.00     0.034 A 
ATOM     47  C   UNL A   1      41.216  29.789  34.293  1.00  0.00     0.049 A 
ATOM     48  C   UNL A   1      43.482  27.172  29.876  1.00  0.00     0.074 A 
ATOM     49  C   UNL A   1      41.864  29.641  35.505  1.00  0.00     0.029 A 
ATOM     50  N   UNL A   1      41.934  29.058  33.360  1.00  0.00    -0.354 N 
ATOM     51  N   UNL A   1      43.052  27.700  30.998  1.00  0.00    -0.248 NA
ATOM     52  C   UNL A   1      44.750  26.441  30.007  1.00  0.00     0.031 C 
ATOM     53  C   UNL A   1      43.001  28.856  35.295  1.00  0.00     0.029 A 
ATOM     54  C   UNL A   1      43.029  28.467  33.964  1.00  0.00     0.049 A 
ATOM     55  H   UNL A   1      41.700  28.971  32.407  1.00  0.00     0.167 HD
ATOM     56  C   UNL A   1      43.967  27.322  31.974  1.00  0.00     0.074 A 
ATOM     57  C   UNL A   1      44.968  26.510  31.312  1.00  0.00     0.031 C 
ATOM     58  C   UNL A   1      43.984  27.621  33.298  1.00  0.00     0.034 A 
BRANCH  45  59
ATOM     59  C   UNL A   1      39.410  31.367  35.099  1.00  0.00     0.023 A 
ATOM     60  C   UNL A   1      38.435  30.791  35.940  1.00  0.00     0.012 A 
ATOM     61  C   UNL A   1      39.812  32.698  35.318  1.00  0.00     0.148 A 
ATOM     62  C   UNL A   1      37.846  31.540  36.959  1.00  0.00     0.002 A 
ATOM     63  C   UNL A   1      39.260  33.421  36.367  1.00  0.00     0.091 A 
ATOM     64  F   UNL A   1      40.718  33.236  34.489  1.00  0.00    -0.205 F 
ATOM     65  C   UNL A   1      38.267  32.849  37.180  1.00  0.00     0.022 A 
BRANCH  63  66
ATOM     66  S   UNL A   1      39.798  35.082  36.785  1.00  0.00     0.127 S 
ATOM     67  O   UNL A   1      39.343  35.841  35.621  1.00  0.00    -0.237 OA
ATOM     68  O   UNL A   1      39.051  35.344  38.015  1.00  0.00    -0.237 OA
ATOM     69  O   UNL A   1      41.243  35.008  36.954  1.00  0.00    -0.744 OA
ENDBRANCH  63  66
ENDBRANCH  45  59
BRANCH  46  70
ATOM     70  C   UNL A   1      43.475  26.470  27.367  1.00  0.00     0.023 A 
ATOM     71  C   UNL A   1      44.300  27.178  26.470  1.00  0.00     0.012 A 
ATOM     72  C   UNL A   1      43.258  25.094  27.160  1.00  0.00     0.148 A 
ATOM     73  C   UNL A   1      44.864  26.537  25.367  1.00  0.00     0.002 A 
ATOM     74  C   UNL A   1      43.870  24.450  26.092  1.00  0.00     0.091 A 
ATOM     75  F   UNL A   1      42.461  24.441  28.018  1.00  0.00    -0.205 F 
ATOM     76  C   UNL A   1      44.656  25.174  25.182  1.00  0.00     0.022 A 
BRANCH  74  77
ATOM     77  S   UNL A   1      43.759  22.675  25.843  1.00  0.00     0.127 S 
ATOM     78  O   UNL A   1      42.623  22.571  24.931  1.00  0.00    -0.237 OA
ATOM     79  O   UNL A   1      45.061  22.376  25.245  1.00  0.00    -0.237 OA
ATOM     80  O   UNL A   1      43.559  22.102  27.166  1.00  0.00    -0.744 OA
ENDBRANCH  74  77
ENDBRANCH  46  70
BRANCH  58  81
ATOM     81  C   UNL A   1      45.077  27.010  34.139  1.00  0.00     0.023 A 
ATOM     82  C   UNL A   1      46.336  27.634  34.236  1.00  0.00     0.012 A 
ATOM     83  C   UNL A   1      44.826  25.840  34.883  1.00  0.00     0.148 A 
ATOM     84  C   UNL A   1      47.345  27.074  35.021  1.00  0.00     0.002 A 
ATOM     85  C   UNL A   1      45.815  25.321  35.709  1.00  0.00     0.091 A 
ATOM     86  F   UNL A   1      43.627  25.252  34.769  1.00  0.00    -0.205 F 
ATOM     87  C   UNL A   1      47.081  25.926  35.765  1.00  0.00     0.022 A 
BRANCH  85  88
ATOM     88  S   UNL A   1      45.528  23.911  36.783  1.00  0.00     0.127 S 
ATOM     89  O   UNL A   1      44.552  24.450  37.728  1.00  0.00    -0.237 OA
ATOM     90  O   UNL A   1      44.992  22.917  35.853  1.00  0.00    -0.237 OA
ATOM     91  O   UNL A   1      46.825  23.568  37.350  1.00  0.00    -0.744 OA
ENDBRANCH  85  88
ENDBRANCH  58  81
ENDBRANCH  32  33
ENDBRANCH  25  27
ENDBRANCH  24  25
ENDBRANCH  23  24
ENDBRANCH  22  23
ENDBRANCH  21  22
ENDBRANCH  20  21
ENDBRANCH   1  20
TORSDOF 25
ENDMDL
MODEL 3
REMARK VINA RESULT:      -9.2      1.783      8.209
REMARK SMILES O=C(Cc1ccc(CBr)cc1)OCCOCCOCCOCCOC(=O)c1ccc(-c2c3nc(c(-c4cccc(S(=O)(=O)[O-])c4F)c4ccc([nH]4)c(-c4cccc(S(=O)(=O)[O-])c4F)c4nc(c(-c5cccc(S(=O)(=O)[O-])c5F)c5ccc2[nH]5)C=C4)C=C3)cc1
REMARK SMILES IDX 19 1 18 2 17 3 16 4 15 5 14 6 13 7 12 8 2 9 1 10 3 11 4 12
REMARK SMILES IDX 5 13 11 14 6 15 10 16 7 17 8 18 9 19 20 20 21 21 22 22 23 23
REMARK SMILES IDX 24 24 25 25 26 26 27 27 28 28 89 29 29 30 88 31 30 32 31 33
REMARK SMILES IDX 32 34 82 35 33 36 87 37 81 38 83 39 34 40 86 41 80 42 79 43
REMARK SMILES IDX 35 45 67 46 47 47 66 48 48 49 51 50 65 51 84 52 49 53 50 54
REMARK SMILES IDX 64 56 85 57 52 58 36 59 37 60 45 61 38 62 40 63 46 64 39 65
REMARK SMILES IDX 41 66 42 67 43 68 44 69 68 70 69 71 77 72 70 73 72 74 78 75
REMARK SMILES IDX 71 76 73 77 74 78 75 79 76 80 53 81 54 82 62 83 55 84 57 85
REMARK SMILES IDX 63 86 56 87 58 88 59 89 60 90 61 91
REMARK H PARENT 83 44 51 55
REMARK Flexibility Score: inf
ROOT
ATOM      1  C   UNL A   1      34.989  22.578  24.030  1.00  0.00     0.188 C 
ENDROOT
BRANCH   1   2
ATOM      2  O   UNL A   1      35.712  23.369  24.956  1.00  0.00    -0.377 OA
BRANCH   2   3
ATOM      3  C   UNL A   1      35.090  24.598  25.290  1.00  0.00     0.188 C 
BRANCH   3   4
ATOM      4  C   UNL A   1      33.753  24.508  26.032  1.00  0.00     0.188 C 
BRANCH   4   5
ATOM      5  O   UNL A   1      33.468  23.407  26.874  1.00  0.00    -0.376 OA
BRANCH   5   6
ATOM      6  C   UNL A   1      32.272  22.659  26.931  1.00  0.00     0.202 C 
BRANCH   6   7
ATOM      7  C   UNL A   1      31.479  22.215  25.707  1.00  0.00     0.261 C 
BRANCH   7   8
ATOM      8  O   UNL A   1      30.805  23.213  24.928  1.00  0.00    -0.463 OA
BRANCH   8   9
ATOM      9  C   UNL A   1      31.082  23.646  23.683  1.00  0.00     0.310 C 
ATOM     10  O   UNL A   1      31.838  22.978  22.975  1.00  0.00    -0.252 OA
BRANCH   9  11
ATOM     11  C   UNL A   1      30.589  24.990  23.210  1.00  0.00     0.158 C 
BRANCH  11  12
ATOM     12  C   UNL A   1      31.222  26.195  23.836  1.00  0.00    -0.037 A 
ATOM     13  C   UNL A   1      32.523  26.563  23.466  1.00  0.00     0.004 A 
ATOM     14  C   UNL A   1      30.528  26.966  24.769  1.00  0.00     0.004 A 
ATOM     15  C   UNL A   1      33.140  27.657  24.064  1.00  0.00     0.005 A 
ATOM     16  C   UNL A   1      31.148  28.055  25.371  1.00  0.00     0.005 A 
ATOM     17  C   UNL A   1      32.461  28.412  25.029  1.00  0.00    -0.037 A 
BRANCH  17  18
ATOM     18  C   UNL A   1      33.092  29.618  25.653  1.00  0.00     0.116 C 
ATOM     19  Br  UNL A   1      34.554  29.108  26.823  1.00  0.00    -0.088 Br
ENDBRANCH  17  18
ENDBRANCH  11  12
ENDBRANCH   9  11
ENDBRANCH   8   9
ENDBRANCH   7   8
ENDBRANCH   6   7
ENDBRANCH   5   6
ENDBRANCH   4   5
ENDBRANCH   3   4
ENDBRANCH   2   3
ENDBRANCH   1   2
BRANCH   1  20
ATOM     20  C   UNL A   1      34.738  21.145  24.525  1.00  0.00     0.188 C 
BRANCH  20  21
ATOM     21  O   UNL A   1      35.700  20.518  25.348  1.00  0.00    -0.376 OA
BRANCH  21  22
ATOM     22  C   UNL A   1      36.679  19.620  24.848  1.00  0.00     0.202 C 
BRANCH  22  23
ATOM     23  C   UNL A   1      38.213  19.736  24.959  1.00  0.00     0.261 C 
BRANCH  23  24
ATOM     24  O   UNL A   1      38.776  20.930  25.484  1.00  0.00    -0.460 OA
BRANCH  24  25
ATOM     25  C   UNL A   1      39.934  20.783  26.152  1.00  0.00     0.338 C 
ATOM     26  O   UNL A   1      40.740  19.871  26.040  1.00  0.00    -0.246 OA
BRANCH  25  27
ATOM     27  C   UNL A   1      40.192  22.036  26.883  1.00  0.00     0.060 A 
ATOM     28  C   UNL A   1      39.448  23.165  26.518  1.00  0.00     0.016 A 
ATOM     29  C   UNL A   1      41.135  22.103  27.913  1.00  0.00     0.016 A 
ATOM     30  C   UNL A   1      39.695  24.385  27.127  1.00  0.00     0.010 A 
ATOM     31  C   UNL A   1      41.412  23.339  28.499  1.00  0.00     0.010 A 
ATOM     32  C   UNL A   1      40.736  24.489  28.056  1.00  0.00    -0.014 A 
BRANCH  32  33
ATOM     33  C   UNL A   1      41.304  25.834  28.285  1.00  0.00     0.031 A 
ATOM     34  C   UNL A   1      42.669  26.114  27.714  1.00  0.00     0.074 A 
ATOM     35  C   UNL A   1      40.598  26.801  28.892  1.00  0.00     0.049 A 
ATOM     36  N   UNL A   1      43.355  27.225  27.711  1.00  0.00    -0.248 NA
ATOM     37  C   UNL A   1      43.349  24.987  27.047  1.00  0.00     0.031 C 
ATOM     38  C   UNL A   1      39.255  26.649  29.448  1.00  0.00     0.029 A 
ATOM     39  N   UNL A   1      40.925  28.108  29.141  1.00  0.00    -0.354 N 
ATOM     40  C   UNL A   1      44.555  26.923  27.079  1.00  0.00     0.074 A 
ATOM     41  C   UNL A   1      44.513  25.526  26.720  1.00  0.00     0.031 C 
ATOM     42  C   UNL A   1      38.877  27.820  29.991  1.00  0.00     0.029 A 
ATOM     43  C   UNL A   1      39.959  28.792  29.838  1.00  0.00     0.049 A 
ATOM     44  H   UNL A   1      41.770  28.518  28.848  1.00  0.00     0.167 HD
ATOM     45  C   UNL A   1      45.598  27.741  26.810  1.00  0.00     0.034 A 
ATOM     46  C   UNL A   1      39.963  30.055  30.307  1.00  0.00     0.034 A 
ATOM     47  C   UNL A   1      45.627  29.134  27.155  1.00  0.00     0.049 A 
ATOM     48  C   UNL A   1      41.152  30.936  30.019  1.00  0.00     0.074 A 
ATOM     49  C   UNL A   1      46.617  30.063  26.896  1.00  0.00     0.029 A 
ATOM     50  N   UNL A   1      44.628  29.793  27.853  1.00  0.00    -0.354 N 
ATOM     51  N   UNL A   1      42.239  30.667  29.335  1.00  0.00    -0.248 NA
ATOM     52  C   UNL A   1      41.095  32.312  30.535  1.00  0.00     0.031 C 
ATOM     53  C   UNL A   1      46.236  31.275  27.478  1.00  0.00     0.029 A 
ATOM     54  C   UNL A   1      44.983  31.115  28.048  1.00  0.00     0.049 A 
ATOM     55  H   UNL A   1      43.789  29.382  28.163  1.00  0.00     0.167 HD
ATOM     56  C   UNL A   1      42.969  31.850  29.296  1.00  0.00     0.074 A 
ATOM     57  C   UNL A   1      42.192  32.841  30.013  1.00  0.00     0.031 C 
ATOM     58  C   UNL A   1      44.173  32.098  28.721  1.00  0.00     0.034 A 
BRANCH  45  59
ATOM     59  C   UNL A   1      46.794  27.141  26.120  1.00  0.00     0.023 A 
ATOM     60  C   UNL A   1      46.876  27.138  24.712  1.00  0.00     0.012 A 
ATOM     61  C   UNL A   1      47.856  26.608  26.875  1.00  0.00     0.148 A 
ATOM     62  C   UNL A   1      47.981  26.580  24.067  1.00  0.00     0.002 A 
ATOM     63  C   UNL A   1      48.976  26.103  26.228  1.00  0.00     0.091 A 
ATOM     64  F   UNL A   1      47.745  26.595  28.210  1.00  0.00    -0.205 F 
ATOM     65  C   UNL A   1      49.035  26.075  24.825  1.00  0.00     0.022 A 
BRANCH  63  66
ATOM     66  S   UNL A   1      50.419  25.509  27.116  1.00  0.00     0.127 S 
ATOM     67  O   UNL A   1      49.923  24.255  27.681  1.00  0.00    -0.237 OA
ATOM     68  O   UNL A   1      51.396  25.349  26.038  1.00  0.00    -0.237 OA
ATOM     69  O   UNL A   1      50.748  26.542  28.088  1.00  0.00    -0.744 OA
ENDBRANCH  63  66
ENDBRANCH  45  59
BRANCH  46  70
ATOM     70  C   UNL A   1      38.793  30.576  31.067  1.00  0.00     0.023 A 
ATOM     71  C   UNL A   1      38.743  30.424  32.466  1.00  0.00     0.012 A 
ATOM     72  C   UNL A   1      37.727  31.217  30.407  1.00  0.00     0.148 A 
ATOM     73  C   UNL A   1      37.634  30.864  33.190  1.00  0.00     0.002 A 
ATOM     74  C   UNL A   1      36.652  31.704  31.140  1.00  0.00     0.091 A 
ATOM     75  F   UNL A   1      37.789  31.341  29.073  1.00  0.00    -0.205 F 
ATOM     76  C   UNL A   1      36.594  31.511  32.529  1.00  0.00     0.022 A 
BRANCH  74  77
ATOM     77  S   UNL A   1      35.326  32.657  30.392  1.00  0.00     0.127 S 
ATOM     78  O   UNL A   1      36.044  33.822  29.884  1.00  0.00    -0.237 OA
ATOM     79  O   UNL A   1      34.840  31.735  29.365  1.00  0.00    -0.237 OA
ATOM     80  O   UNL A   1      34.376  32.920  31.463  1.00  0.00    -0.744 OA
ENDBRANCH  74  77
ENDBRANCH  46  70
BRANCH  58  81
ATOM     81  C   UNL A   1      44.698  33.510  28.778  1.00  0.00     0.023 A 
ATOM     82  C   UNL A   1      44.370  34.435  27.768  1.00  0.00     0.012 A 
ATOM     83  C   UNL A   1      45.474  33.932  29.876  1.00  0.00     0.148 A 
ATOM     84  C   UNL A   1      44.850  35.745  27.825  1.00  0.00     0.002 A 
ATOM     85  C   UNL A   1      45.898  35.253  29.957  1.00  0.00     0.091 A 
ATOM     86  F   UNL A   1      45.789  33.034  30.822  1.00  0.00    -0.205 F 
ATOM     87  C   UNL A   1      45.602  36.156  28.923  1.00  0.00     0.022 A 
BRANCH  85  88
ATOM     88  S   UNL A   1      46.779  35.893  31.384  1.00  0.00     0.127 S 
ATOM     89  O   UNL A   1      47.912  34.974  31.472  1.00  0.00    -0.237 OA
ATOM     90  O   UNL A   1      47.123  37.248  30.954  1.00  0.00    -0.237 OA
ATOM     91  O   UNL A   1      45.838  35.834  32.496  1.00  0.00    -0.744 OA
ENDBRANCH  85  88
ENDBRANCH  58  81
ENDBRANCH  32  33
ENDBRANCH  25  27
ENDBRANCH  24  25
ENDBRANCH  23  24
ENDBRANCH  22  23
ENDBRANCH  21  22
ENDBRANCH  20  21
ENDBRANCH   1  20
TORSDOF 25
ENDMDL
