MODEL 1
REMARK VINA RESULT:      -9.8      0.000      0.000
REMARK SMILES C[C@@H](Sc1nc2ccccc2c(=O)n1N)C(=O)OCCOCCOCCOCCOC(=O)c1ccc(-c2c3nc(c(-c4cccc(S(=O)(=O)[O-])c4F)c4ccc([nH]4)c(-c4cccc(S(=O)(=O)[O-])c4F)c4nc(c(-c5cccc(S(=O)(=O)[O-])c5F)c5ccc2[nH]5)C=C4)C=C3)cc1
REMARK SMILES IDX 24 1 23 2 22 3 21 4 20 5 19 6 18 7 16 8 17 9 2 10 1 11 3 12
REMARK SMILES IDX 4 13 5 14 14 15 6 16 12 17 7 18 11 19 13 20 8 21 10 22 9 23
REMARK SMILES IDX 15 24 25 27 26 28 27 29 28 30 29 31 30 32 31 33 32 34 33 35
REMARK SMILES IDX 34 36 95 37 35 38 94 39 36 40 37 41 38 42 88 43 39 44 93 45
REMARK SMILES IDX 87 46 89 47 40 48 92 49 86 50 85 51 41 53 73 54 53 55 72 56
REMARK SMILES IDX 54 57 57 58 71 59 90 60 55 61 56 62 70 64 91 65 58 66 42 67
REMARK SMILES IDX 43 68 51 69 44 70 46 71 52 72 45 73 47 74 48 75 49 76 50 77
REMARK SMILES IDX 74 78 75 79 83 80 76 81 78 82 84 83 77 84 79 85 80 86 81 87
REMARK SMILES IDX 82 88 59 89 60 90 68 91 61 92 63 93 69 94 62 95 64 96 65 97
REMARK SMILES IDX 66 98 67 99
REMARK H PARENT 15 25 15 26 89 52 57 63
REMARK Flexibility Score: inf
ROOT
ATOM      1  O   UNL A   1      32.766  19.893  23.865  1.00  0.00    -0.377 OA
ENDROOT
BRANCH   1   2
ATOM      2  C   UNL A   1      32.304  21.215  24.026  1.00  0.00     0.188 C 
BRANCH   2   3
ATOM      3  C   UNL A   1      32.389  22.099  22.773  1.00  0.00     0.188 C 
BRANCH   3   4
ATOM      4  O   UNL A   1      32.472  23.506  22.880  1.00  0.00    -0.376 OA
BRANCH   4   5
ATOM      5  C   UNL A   1      33.277  24.312  22.031  1.00  0.00     0.202 C 
BRANCH   5   6
ATOM      6  C   UNL A   1      32.797  25.476  21.148  1.00  0.00     0.261 C 
BRANCH   6   7
ATOM      7  O   UNL A   1      32.997  26.798  21.636  1.00  0.00    -0.462 OA
BRANCH   7   8
ATOM      8  C   UNL A   1      32.016  27.282  22.428  1.00  0.00     0.319 C 
ATOM      9  O   UNL A   1      30.843  27.389  22.074  1.00  0.00    -0.251 OA
BRANCH   8  10
ATOM     10  C   UNL A   1      32.485  27.634  23.839  1.00  0.00     0.161 C 
ATOM     11  C   UNL A   1      33.058  29.033  24.079  1.00  0.00     0.032 C 
BRANCH  10  12
ATOM     12  S   UNL A   1      31.044  27.277  24.905  1.00  0.00    -0.071 SA
BRANCH  12  13
ATOM     13  C   UNL A   1      31.525  25.743  25.562  1.00  0.00     0.191 A 
ATOM     14  N   UNL A   1      32.786  25.479  25.532  1.00  0.00    -0.222 NA
ATOM     15  N   UNL A   1      30.568  24.924  26.150  1.00  0.00    -0.202 N 
ATOM     16  C   UNL A   1      33.233  24.316  26.156  1.00  0.00     0.079 A 
ATOM     17  C   UNL A   1      30.938  23.785  26.866  1.00  0.00     0.280 A 
ATOM     18  C   UNL A   1      34.597  24.029  26.112  1.00  0.00     0.029 A 
ATOM     19  C   UNL A   1      32.382  23.476  26.874  1.00  0.00     0.068 A 
ATOM     20  O   UNL A   1      30.140  23.079  27.483  1.00  0.00    -0.267 OA
ATOM     21  C   UNL A   1      35.111  22.941  26.815  1.00  0.00     0.002 A 
ATOM     22  C   UNL A   1      32.888  22.388  27.590  1.00  0.00     0.016 A 
ATOM     23  C   UNL A   1      34.259  22.129  27.566  1.00  0.00     0.001 A 
BRANCH  15  24
ATOM     24  N   UNL A   1      29.162  25.213  26.069  1.00  0.00    -0.334 N 
ATOM     25  H   UNL A   1      28.813  25.750  25.322  1.00  0.00     0.178 HD
ATOM     26  H   UNL A   1      28.550  24.873  26.761  1.00  0.00     0.178 HD
ENDBRANCH  15  24
ENDBRANCH  12  13
ENDBRANCH  10  12
ENDBRANCH   8  10
ENDBRANCH   7   8
ENDBRANCH   6   7
ENDBRANCH   5   6
ENDBRANCH   4   5
ENDBRANCH   3   4
ENDBRANCH   2   3
ENDBRANCH   1   2
BRANCH   1  27
ATOM     27  C   UNL A   1      33.560  19.307  24.891  1.00  0.00     0.188 C 
BRANCH  27  28
ATOM     28  C   UNL A   1      35.057  19.657  25.019  1.00  0.00     0.188 C 
BRANCH  28  29
ATOM     29  O   UNL A   1      35.446  20.857  24.368  1.00  0.00    -0.376 OA
BRANCH  29  30
ATOM     30  C   UNL A   1      36.829  21.170  24.307  1.00  0.00     0.202 C 
BRANCH  30  31
ATOM     31  C   UNL A   1      37.810  20.184  24.959  1.00  0.00     0.261 C 
BRANCH  31  32
ATOM     32  O   UNL A   1      38.358  20.570  26.230  1.00  0.00    -0.460 OA
BRANCH  32  33
ATOM     33  C   UNL A   1      39.698  20.577  26.383  1.00  0.00     0.338 C 
ATOM     34  O   UNL A   1      40.471  19.666  26.137  1.00  0.00    -0.246 OA
BRANCH  33  35
ATOM     35  C   UNL A   1      40.098  21.962  26.711  1.00  0.00     0.060 A 
ATOM     36  C   UNL A   1      39.385  23.033  26.154  1.00  0.00     0.016 A 
ATOM     37  C   UNL A   1      41.157  22.200  27.589  1.00  0.00     0.016 A 
ATOM     38  C   UNL A   1      39.739  24.348  26.466  1.00  0.00     0.010 A 
ATOM     39  C   UNL A   1      41.525  23.515  27.879  1.00  0.00     0.010 A 
ATOM     40  C   UNL A   1      40.833  24.596  27.304  1.00  0.00    -0.014 A 
BRANCH  40  41
ATOM     41  C   UNL A   1      41.359  25.973  27.476  1.00  0.00     0.031 A 
ATOM     42  C   UNL A   1      42.752  26.275  26.997  1.00  0.00     0.074 A 
ATOM     43  C   UNL A   1      40.638  26.923  28.101  1.00  0.00     0.049 A 
ATOM     44  N   UNL A   1      43.468  27.355  27.159  1.00  0.00    -0.248 NA
ATOM     45  C   UNL A   1      43.430  25.209  26.238  1.00  0.00     0.031 C 
ATOM     46  C   UNL A   1      39.274  26.759  28.600  1.00  0.00     0.029 A 
ATOM     47  N   UNL A   1      40.979  28.204  28.465  1.00  0.00    -0.354 N 
ATOM     48  C   UNL A   1      44.697  27.084  26.572  1.00  0.00     0.074 A 
ATOM     49  C   UNL A   1      44.625  25.744  26.032  1.00  0.00     0.031 C 
ATOM     50  C   UNL A   1      38.912  27.877  29.254  1.00  0.00     0.029 A 
ATOM     51  C   UNL A   1      40.032  28.818  29.254  1.00  0.00     0.049 A 
ATOM     52  H   UNL A   1      41.817  28.641  28.188  1.00  0.00     0.167 HD
ATOM     53  C   UNL A   1      45.789  27.879  26.495  1.00  0.00     0.034 A 
ATOM     54  C   UNL A   1      40.086  29.978  29.942  1.00  0.00     0.034 A 
ATOM     55  C   UNL A   1      45.851  29.217  27.014  1.00  0.00     0.049 A 
ATOM     56  C   UNL A   1      41.330  30.828  29.865  1.00  0.00     0.074 A 
ATOM     57  C   UNL A   1      46.888  30.128  26.910  1.00  0.00     0.029 A 
ATOM     58  N   UNL A   1      44.856  29.825  27.761  1.00  0.00    -0.354 N 
ATOM     59  N   UNL A   1      42.432  30.622  29.185  1.00  0.00    -0.248 NA
ATOM     60  C   UNL A   1      41.331  32.082  30.635  1.00  0.00     0.031 C 
ATOM     61  C   UNL A   1      46.540  31.267  27.641  1.00  0.00     0.029 A 
ATOM     62  C   UNL A   1      45.268  31.084  28.157  1.00  0.00     0.049 A 
ATOM     63  H   UNL A   1      43.985  29.419  27.977  1.00  0.00     0.167 HD
ATOM     64  C   UNL A   1      43.240  31.729  29.420  1.00  0.00     0.074 A 
ATOM     65  C   UNL A   1      42.493  32.617  30.284  1.00  0.00     0.031 C 
ATOM     66  C   UNL A   1      44.495  31.983  28.975  1.00  0.00     0.034 A 
BRANCH  53  67
ATOM     67  C   UNL A   1      47.024  27.329  25.835  1.00  0.00     0.023 A 
ATOM     68  C   UNL A   1      47.228  27.507  24.453  1.00  0.00     0.012 A 
ATOM     69  C   UNL A   1      48.028  26.717  26.612  1.00  0.00     0.148 A 
ATOM     70  C   UNL A   1      48.407  27.070  23.850  1.00  0.00     0.002 A 
ATOM     71  C   UNL A   1      49.219  26.327  26.014  1.00  0.00     0.091 A 
ATOM     72  F   UNL A   1      47.800  26.538  27.921  1.00  0.00    -0.205 F 
ATOM     73  C   UNL A   1      49.406  26.493  24.632  1.00  0.00     0.022 A 
BRANCH  71  74
ATOM     74  S   UNL A   1      50.596  25.653  26.947  1.00  0.00     0.127 S 
ATOM     75  O   UNL A   1      50.865  26.732  27.897  1.00  0.00    -0.237 OA
ATOM     76  O   UNL A   1      50.004  24.452  27.539  1.00  0.00    -0.237 OA
ATOM     77  O   UNL A   1      51.656  25.400  25.982  1.00  0.00    -0.744 OA
ENDBRANCH  71  74
ENDBRANCH  53  67
BRANCH  54  78
ATOM     78  C   UNL A   1      38.936  30.402  30.794  1.00  0.00     0.023 A 
ATOM     79  C   UNL A   1      38.802  29.886  32.098  1.00  0.00     0.012 A 
ATOM     80  C   UNL A   1      37.960  31.292  30.306  1.00  0.00     0.148 A 
ATOM     81  C   UNL A   1      37.696  30.217  32.883  1.00  0.00     0.002 A 
ATOM     82  C   UNL A   1      36.894  31.664  31.115  1.00  0.00     0.091 A 
ATOM     83  F   UNL A   1      38.092  31.756  29.054  1.00  0.00    -0.205 F 
ATOM     84  C   UNL A   1      36.749  31.112  32.396  1.00  0.00     0.022 A 
BRANCH  82  85
ATOM     85  S   UNL A   1      35.695  32.906  30.616  1.00  0.00     0.127 S 
ATOM     86  O   UNL A   1      35.100  33.278  31.896  1.00  0.00    -0.237 OA
ATOM     87  O   UNL A   1      36.553  33.927  30.013  1.00  0.00    -0.237 OA
ATOM     88  O   UNL A   1      34.806  32.236  29.675  1.00  0.00    -0.744 OA
ENDBRANCH  82  85
ENDBRANCH  54  78
BRANCH  66  89
ATOM     89  C   UNL A   1      45.142  33.286  29.373  1.00  0.00     0.023 A 
ATOM     90  C   UNL A   1      46.003  33.333  30.486  1.00  0.00     0.012 A 
ATOM     91  C   UNL A   1      44.971  34.438  28.580  1.00  0.00     0.148 A 
ATOM     92  C   UNL A   1      46.664  34.515  30.820  1.00  0.00     0.002 A 
ATOM     93  C   UNL A   1      45.674  35.598  28.887  1.00  0.00     0.091 A 
ATOM     94  F   UNL A   1      44.139  34.375  27.530  1.00  0.00    -0.205 F 
ATOM     95  C   UNL A   1      46.510  35.641  30.015  1.00  0.00     0.022 A 
BRANCH  93  96
ATOM     96  S   UNL A   1      45.618  37.066  27.855  1.00  0.00     0.127 S 
ATOM     97  O   UNL A   1      46.782  37.812  28.334  1.00  0.00    -0.237 OA
ATOM     98  O   UNL A   1      45.763  36.504  26.513  1.00  0.00    -0.237 OA
ATOM     99  O   UNL A   1      44.331  37.696  28.114  1.00  0.00    -0.744 OA
ENDBRANCH  93  96
ENDBRANCH  66  89
ENDBRANCH  40  41
ENDBRANCH  33  35
ENDBRANCH  32  33
ENDBRANCH  31  32
ENDBRANCH  30  31
ENDBRANCH  29  30
ENDBRANCH  28  29
ENDBRANCH  27  28
ENDBRANCH   1  27
TORSDOF 26
ENDMDL
MODEL 2
REMARK VINA RESULT:      -9.7      2.567      4.470
REMARK SMILES C[C@@H](Sc1nc2ccccc2c(=O)n1N)C(=O)OCCOCCOCCOCCOC(=O)c1ccc(-c2c3nc(c(-c4cccc(S(=O)(=O)[O-])c4F)c4ccc([nH]4)c(-c4cccc(S(=O)(=O)[O-])c4F)c4nc(c(-c5cccc(S(=O)(=O)[O-])c5F)c5ccc2[nH]5)C=C4)C=C3)cc1
REMARK SMILES IDX 24 1 23 2 22 3 21 4 20 5 19 6 18 7 16 8 17 9 2 10 1 11 3 12
REMARK SMILES IDX 4 13 5 14 14 15 6 16 12 17 7 18 11 19 13 20 8 21 10 22 9 23
REMARK SMILES IDX 15 24 25 27 26 28 27 29 28 30 29 31 30 32 31 33 32 34 33 35
REMARK SMILES IDX 34 36 95 37 35 38 94 39 36 40 37 41 38 42 88 43 39 44 93 45
REMARK SMILES IDX 87 46 89 47 40 48 92 49 86 50 85 51 41 53 73 54 53 55 72 56
REMARK SMILES IDX 54 57 57 58 71 59 90 60 55 61 56 62 70 64 91 65 58 66 42 67
REMARK SMILES IDX 43 68 51 69 44 70 46 71 52 72 45 73 47 74 48 75 49 76 50 77
REMARK SMILES IDX 74 78 75 79 83 80 76 81 78 82 84 83 77 84 79 85 80 86 81 87
REMARK SMILES IDX 82 88 59 89 60 90 68 91 61 92 63 93 69 94 62 95 64 96 65 97
REMARK SMILES IDX 66 98 67 99
REMARK H PARENT 15 25 15 26 89 52 57 63
REMARK Flexibility Score: inf
ROOT
ATOM      1  O   UNL A   1      38.213  23.634  26.351  1.00  0.00    -0.377 OA
ENDROOT
BRANCH   1   2
ATOM      2  C   UNL A   1      37.791  22.746  25.343  1.00  0.00     0.188 C 
BRANCH   2   3
ATOM      3  C   UNL A   1      36.619  21.829  25.722  1.00  0.00     0.188 C 
BRANCH   3   4
ATOM      4  O   UNL A   1      35.822  21.217  24.726  1.00  0.00    -0.376 OA
BRANCH   4   5
ATOM      5  C   UNL A   1      35.100  20.012  24.931  1.00  0.00     0.202 C 
BRANCH   5   6
ATOM      6  C   UNL A   1      33.579  19.822  24.803  1.00  0.00     0.261 C 
BRANCH   6   7
ATOM      7  O   UNL A   1      32.745  20.599  25.655  1.00  0.00    -0.462 OA
BRANCH   7   8
ATOM      8  C   UNL A   1      32.403  21.818  25.184  1.00  0.00     0.319 C 
ATOM      9  O   UNL A   1      31.997  22.018  24.039  1.00  0.00    -0.251 OA
BRANCH   8  10
ATOM     10  C   UNL A   1      32.510  22.930  26.225  1.00  0.00     0.161 C 
ATOM     11  C   UNL A   1      33.419  24.122  25.914  1.00  0.00     0.032 C 
BRANCH  10  12
ATOM     12  S   UNL A   1      30.781  23.434  26.540  1.00  0.00    -0.071 SA
BRANCH  12  13
ATOM     13  C   UNL A   1      30.841  25.083  26.001  1.00  0.00     0.191 A 
ATOM     14  N   UNL A   1      31.128  25.966  26.896  1.00  0.00    -0.222 NA
ATOM     15  N   UNL A   1      30.665  25.366  24.652  1.00  0.00    -0.202 N 
ATOM     16  C   UNL A   1      31.307  27.286  26.489  1.00  0.00     0.079 A 
ATOM     17  C   UNL A   1      30.906  26.646  24.148  1.00  0.00     0.280 A 
ATOM     18  C   UNL A   1      31.607  28.239  27.462  1.00  0.00     0.029 A 
ATOM     19  C   UNL A   1      31.268  27.669  25.149  1.00  0.00     0.068 A 
ATOM     20  O   UNL A   1      30.856  26.926  22.950  1.00  0.00    -0.267 OA
ATOM     21  C   UNL A   1      31.908  29.550  27.095  1.00  0.00     0.002 A 
ATOM     22  C   UNL A   1      31.576  28.979  24.769  1.00  0.00     0.016 A 
ATOM     23  C   UNL A   1      31.907  29.916  25.749  1.00  0.00     0.001 A 
BRANCH  15  24
ATOM     24  N   UNL A   1      30.247  24.365  23.710  1.00  0.00    -0.334 N 
ATOM     25  H   UNL A   1      29.292  24.258  23.497  1.00  0.00     0.178 HD
ATOM     26  H   UNL A   1      30.915  23.786  23.278  1.00  0.00     0.178 HD
ENDBRANCH  15  24
ENDBRANCH  12  13
ENDBRANCH  10  12
ENDBRANCH   8  10
ENDBRANCH   7   8
ENDBRANCH   6   7
ENDBRANCH   5   6
ENDBRANCH   4   5
ENDBRANCH   3   4
ENDBRANCH   2   3
ENDBRANCH   1   2
BRANCH   1  27
ATOM     27  C   UNL A   1      39.427  23.368  27.045  1.00  0.00     0.188 C 
BRANCH  27  28
ATOM     28  C   UNL A   1      40.485  22.423  26.436  1.00  0.00     0.188 C 
BRANCH  28  29
ATOM     29  O   UNL A   1      40.621  21.175  27.100  1.00  0.00    -0.376 OA
BRANCH  29  30
ATOM     30  C   UNL A   1      40.554  19.990  26.323  1.00  0.00     0.202 C 
BRANCH  30  31
ATOM     31  C   UNL A   1      41.857  19.203  26.113  1.00  0.00     0.261 C 
BRANCH  31  32
ATOM     32  O   UNL A   1      42.599  19.499  24.919  1.00  0.00    -0.460 OA
BRANCH  32  33
ATOM     33  C   UNL A   1      43.943  19.582  24.995  1.00  0.00     0.338 C 
ATOM     34  O   UNL A   1      44.751  18.706  24.736  1.00  0.00    -0.246 OA
BRANCH  33  35
ATOM     35  C   UNL A   1      44.284  20.998  25.254  1.00  0.00     0.060 A 
ATOM     36  C   UNL A   1      44.355  21.456  26.578  1.00  0.00     0.016 A 
ATOM     37  C   UNL A   1      44.561  21.862  24.194  1.00  0.00     0.016 A 
ATOM     38  C   UNL A   1      44.691  22.786  26.842  1.00  0.00     0.010 A 
ATOM     39  C   UNL A   1      44.873  23.197  24.459  1.00  0.00     0.010 A 
ATOM     40  C   UNL A   1      44.919  23.672  25.782  1.00  0.00    -0.014 A 
BRANCH  40  41
ATOM     41  C   UNL A   1      45.063  25.128  26.029  1.00  0.00     0.031 A 
ATOM     42  C   UNL A   1      46.444  25.723  26.024  1.00  0.00     0.074 A 
ATOM     43  C   UNL A   1      43.997  25.898  26.312  1.00  0.00     0.049 A 
ATOM     44  N   UNL A   1      46.828  26.930  26.345  1.00  0.00    -0.248 NA
ATOM     45  C   UNL A   1      47.542  24.832  25.608  1.00  0.00     0.031 C 
ATOM     46  C   UNL A   1      42.608  25.443  26.336  1.00  0.00     0.029 A 
ATOM     47  N   UNL A   1      43.925  27.220  26.684  1.00  0.00    -0.354 N 
ATOM     48  C   UNL A   1      48.211  26.931  26.223  1.00  0.00     0.074 A 
ATOM     49  C   UNL A   1      48.601  25.611  25.779  1.00  0.00     0.031 C 
ATOM     50  C   UNL A   1      41.826  26.453  26.755  1.00  0.00     0.029 A 
ATOM     51  C   UNL A   1      42.663  27.611  27.068  1.00  0.00     0.049 A 
ATOM     52  H   UNL A   1      44.700  27.826  26.675  1.00  0.00     0.167 HD
ATOM     53  C   UNL A   1      49.079  27.942  26.464  1.00  0.00     0.034 A 
ATOM     54  C   UNL A   1      42.242  28.751  27.656  1.00  0.00     0.034 A 
ATOM     55  C   UNL A   1      48.687  29.258  26.884  1.00  0.00     0.049 A 
ATOM     56  C   UNL A   1      43.238  29.847  27.945  1.00  0.00     0.074 A 
ATOM     57  C   UNL A   1      49.489  30.370  27.074  1.00  0.00     0.029 A 
ATOM     58  N   UNL A   1      47.396  29.634  27.213  1.00  0.00    -0.354 N 
ATOM     59  N   UNL A   1      44.523  29.886  27.688  1.00  0.00    -0.248 NA
ATOM     60  C   UNL A   1      42.722  31.067  28.586  1.00  0.00     0.031 C 
ATOM     61  C   UNL A   1      48.690  31.403  27.569  1.00  0.00     0.029 A 
ATOM     62  C   UNL A   1      47.383  30.949  27.641  1.00  0.00     0.049 A 
ATOM     63  H   UNL A   1      46.604  29.051  27.151  1.00  0.00     0.167 HD
ATOM     64  C   UNL A   1      44.960  31.138  28.107  1.00  0.00     0.074 A 
ATOM     65  C   UNL A   1      43.800  31.840  28.611  1.00  0.00     0.031 C 
ATOM     66  C   UNL A   1      46.213  31.656  28.092  1.00  0.00     0.034 A 
BRANCH  53  67
ATOM     67  C   UNL A   1      50.549  27.672  26.293  1.00  0.00     0.023 A 
ATOM     68  C   UNL A   1      51.330  27.280  27.397  1.00  0.00     0.012 A 
ATOM     69  C   UNL A   1      51.131  27.716  25.010  1.00  0.00     0.148 A 
ATOM     70  C   UNL A   1      52.675  26.951  27.230  1.00  0.00     0.002 A 
ATOM     71  C   UNL A   1      52.458  27.342  24.844  1.00  0.00     0.091 A 
ATOM     72  F   UNL A   1      50.372  28.114  23.979  1.00  0.00    -0.205 F 
ATOM     73  C   UNL A   1      53.234  26.969  25.954  1.00  0.00     0.022 A 
BRANCH  71  74
ATOM     74  S   UNL A   1      53.244  27.252  23.233  1.00  0.00     0.127 S 
ATOM     75  O   UNL A   1      53.470  28.666  22.936  1.00  0.00    -0.237 OA
ATOM     76  O   UNL A   1      54.457  26.489  23.528  1.00  0.00    -0.237 OA
ATOM     77  O   UNL A   1      52.296  26.580  22.356  1.00  0.00    -0.744 OA
ENDBRANCH  71  74
ENDBRANCH  53  67
BRANCH  54  78
ATOM     78  C   UNL A   1      40.810  28.914  28.045  1.00  0.00     0.023 A 
ATOM     79  C   UNL A   1      39.857  29.275  27.074  1.00  0.00     0.012 A 
ATOM     80  C   UNL A   1      40.397  28.741  29.381  1.00  0.00     0.148 A 
ATOM     81  C   UNL A   1      38.527  29.501  27.433  1.00  0.00     0.002 A 
ATOM     82  C   UNL A   1      39.060  28.908  29.720  1.00  0.00     0.091 A 
ATOM     83  F   UNL A   1      41.323  28.418  30.296  1.00  0.00    -0.205 F 
ATOM     84  C   UNL A   1      38.127  29.308  28.753  1.00  0.00     0.022 A 
BRANCH  82  85
ATOM     85  S   UNL A   1      38.436  28.560  31.368  1.00  0.00     0.127 S 
ATOM     86  O   UNL A   1      38.729  27.136  31.504  1.00  0.00    -0.237 OA
ATOM     87  O   UNL A   1      39.260  29.442  32.195  1.00  0.00    -0.237 OA
ATOM     88  O   UNL A   1      37.023  28.915  31.335  1.00  0.00    -0.744 OA
ENDBRANCH  82  85
ENDBRANCH  54  78
BRANCH  66  89
ATOM     89  C   UNL A   1      46.406  33.064  28.596  1.00  0.00     0.023 A 
ATOM     90  C   UNL A   1      46.789  33.287  29.933  1.00  0.00     0.012 A 
ATOM     91  C   UNL A   1      46.305  34.159  27.714  1.00  0.00     0.148 A 
ATOM     92  C   UNL A   1      47.043  34.579  30.392  1.00  0.00     0.002 A 
ATOM     93  C   UNL A   1      46.610  35.439  28.164  1.00  0.00     0.091 A 
ATOM     94  F   UNL A   1      45.928  33.927  26.448  1.00  0.00    -0.205 F 
ATOM     95  C   UNL A   1      46.966  35.651  29.506  1.00  0.00     0.022 A 
BRANCH  93  96
ATOM     96  S   UNL A   1      46.636  36.867  27.076  1.00  0.00     0.127 S 
ATOM     97  O   UNL A   1      45.209  37.123  26.886  1.00  0.00    -0.237 OA
ATOM     98  O   UNL A   1      47.332  37.862  27.891  1.00  0.00    -0.237 OA
ATOM     99  O   UNL A   1      47.354  36.452  25.879  1.00  0.00    -0.744 OA
ENDBRANCH  93  96
ENDBRANCH  66  89
ENDBRANCH  40  41
ENDBRANCH  33  35
ENDBRANCH  32  33
ENDBRANCH  31  32
ENDBRANCH  30  31
ENDBRANCH  29  30
ENDBRANCH  28  29
ENDBRANCH  27  28
ENDBRANCH   1  27
TORSDOF 26
ENDMDL
MODEL 3
REMARK VINA RESULT:      -9.5      3.301      4.816
REMARK SMILES C[C@@H](Sc1nc2ccccc2c(=O)n1N)C(=O)OCCOCCOCCOCCOC(=O)c1ccc(-c2c3nc(c(-c4cccc(S(=O)(=O)[O-])c4F)c4ccc([nH]4)c(-c4cccc(S(=O)(=O)[O-])c4F)c4nc(c(-c5cccc(S(=O)(=O)[O-])c5F)c5ccc2[nH]5)C=C4)C=C3)cc1
REMARK SMILES IDX 24 1 23 2 22 3 21 4 20 5 19 6 18 7 16 8 17 9 2 10 1 11 3 12
REMARK SMILES IDX 4 13 5 14 14 15 6 16 12 17 7 18 11 19 13 20 8 21 10 22 9 23
REMARK SMILES IDX 15 24 25 27 26 28 27 29 28 30 29 31 30 32 31 33 32 34 33 35
REMARK SMILES IDX 34 36 95 37 35 38 94 39 36 40 37 41 38 42 88 43 39 44 93 45
REMARK SMILES IDX 87 46 89 47 40 48 92 49 86 50 85 51 41 53 73 54 53 55 72 56
REMARK SMILES IDX 54 57 57 58 71 59 90 60 55 61 56 62 70 64 91 65 58 66 42 67
REMARK SMILES IDX 43 68 51 69 44 70 46 71 52 72 45 73 47 74 48 75 49 76 50 77
REMARK SMILES IDX 74 78 75 79 83 80 76 81 78 82 84 83 77 84 79 85 80 86 81 87
REMARK SMILES IDX 82 88 59 89 60 90 68 91 61 92 63 93 69 94 62 95 64 96 65 97
REMARK SMILES IDX 66 98 67 99
REMARK H PARENT 15 25 15 26 89 52 57 63
REMARK Flexibility Score: inf
ROOT
ATOM      1  O   UNL A   1      33.369  19.739  24.347  1.00  0.00    -0.377 OA
ENDROOT
BRANCH   1   2
ATOM      2  C   UNL A   1      32.395  20.291  25.203  1.00  0.00     0.188 C 
BRANCH   2   3
ATOM      3  C   UNL A   1      32.046  21.763  24.940  1.00  0.00     0.188 C 
BRANCH   3   4
ATOM      4  O   UNL A   1      31.530  22.583  25.970  1.00  0.00    -0.376 OA
BRANCH   4   5
ATOM      5  C   UNL A   1      32.315  23.514  26.700  1.00  0.00     0.202 C 
BRANCH   5   6
ATOM      6  C   UNL A   1      33.549  24.275  26.186  1.00  0.00     0.261 C 
BRANCH   6   7
ATOM      7  O   UNL A   1      33.323  25.442  25.404  1.00  0.00    -0.462 OA
BRANCH   7   8
ATOM      8  C   UNL A   1      33.569  25.315  24.082  1.00  0.00     0.319 C 
ATOM      9  O   UNL A   1      34.557  24.742  23.623  1.00  0.00    -0.251 OA
BRANCH   8  10
ATOM     10  C   UNL A   1      32.472  25.900  23.195  1.00  0.00     0.161 C 
ATOM     11  C   UNL A   1      32.136  25.174  21.891  1.00  0.00     0.032 C 
BRANCH  10  12
ATOM     12  S   UNL A   1      31.023  26.059  24.299  1.00  0.00    -0.071 SA
BRANCH  12  13
ATOM     13  C   UNL A   1      30.649  27.739  24.069  1.00  0.00     0.191 A 
ATOM     14  N   UNL A   1      29.727  28.006  23.208  1.00  0.00    -0.222 NA
ATOM     15  N   UNL A   1      31.279  28.692  24.860  1.00  0.00    -0.202 N 
ATOM     16  C   UNL A   1      29.308  29.328  23.077  1.00  0.00     0.079 A 
ATOM     17  C   UNL A   1      30.863  30.025  24.851  1.00  0.00     0.280 A 
ATOM     18  C   UNL A   1      28.318  29.613  22.136  1.00  0.00     0.029 A 
ATOM     19  C   UNL A   1      29.787  30.351  23.894  1.00  0.00     0.068 A 
ATOM     20  O   UNL A   1      31.325  30.887  25.598  1.00  0.00    -0.267 OA
ATOM     21  C   UNL A   1      27.782  30.897  22.044  1.00  0.00     0.002 A 
ATOM     22  C   UNL A   1      29.250  31.639  23.817  1.00  0.00     0.016 A 
ATOM     23  C   UNL A   1      28.237  31.906  22.895  1.00  0.00     0.001 A 
BRANCH  15  24
ATOM     24  N   UNL A   1      32.371  28.359  25.733  1.00  0.00    -0.334 N 
ATOM     25  H   UNL A   1      32.198  27.875  26.574  1.00  0.00     0.178 HD
ATOM     26  H   UNL A   1      33.290  28.614  25.492  1.00  0.00     0.178 HD
ENDBRANCH  15  24
ENDBRANCH  12  13
ENDBRANCH  10  12
ENDBRANCH   8  10
ENDBRANCH   7   8
ENDBRANCH   6   7
ENDBRANCH   5   6
ENDBRANCH   4   5
ENDBRANCH   3   4
ENDBRANCH   2   3
ENDBRANCH   1   2
BRANCH   1  27
ATOM     27  C   UNL A   1      34.586  19.256  24.905  1.00  0.00     0.188 C 
BRANCH  27  28
ATOM     28  C   UNL A   1      35.831  20.166  24.976  1.00  0.00     0.188 C 
BRANCH  28  29
ATOM     29  O   UNL A   1      35.662  21.452  24.399  1.00  0.00    -0.376 OA
BRANCH  29  30
ATOM     30  C   UNL A   1      36.758  22.352  24.431  1.00  0.00     0.202 C 
BRANCH  30  31
ATOM     31  C   UNL A   1      38.005  21.924  25.221  1.00  0.00     0.261 C 
BRANCH  31  32
ATOM     32  O   UNL A   1      38.422  22.797  26.283  1.00  0.00    -0.460 OA
BRANCH  32  33
ATOM     33  C   UNL A   1      39.742  22.961  26.506  1.00  0.00     0.338 C 
ATOM     34  O   UNL A   1      40.639  22.185  26.223  1.00  0.00    -0.246 OA
BRANCH  33  35
ATOM     35  C   UNL A   1      39.941  24.350  26.977  1.00  0.00     0.060 A 
ATOM     36  C   UNL A   1      40.481  25.301  26.099  1.00  0.00     0.016 A 
ATOM     37  C   UNL A   1      39.568  24.715  28.270  1.00  0.00     0.016 A 
ATOM     38  C   UNL A   1      40.661  26.621  26.521  1.00  0.00     0.010 A 
ATOM     39  C   UNL A   1      39.771  26.029  28.698  1.00  0.00     0.010 A 
ATOM     40  C   UNL A   1      40.338  26.983  27.834  1.00  0.00    -0.014 A 
BRANCH  40  41
ATOM     41  C   UNL A   1      40.718  28.315  28.368  1.00  0.00     0.031 A 
ATOM     42  C   UNL A   1      42.175  28.605  28.603  1.00  0.00     0.074 A 
ATOM     43  C   UNL A   1      39.786  29.228  28.695  1.00  0.00     0.049 A 
ATOM     44  N   UNL A   1      42.732  29.634  29.182  1.00  0.00    -0.248 NA
ATOM     45  C   UNL A   1      43.131  27.591  28.125  1.00  0.00     0.031 C 
ATOM     46  C   UNL A   1      38.345  29.072  28.506  1.00  0.00     0.029 A 
ATOM     47  N   UNL A   1      39.915  30.454  29.306  1.00  0.00    -0.354 N 
ATOM     48  C   UNL A   1      44.096  29.371  29.188  1.00  0.00     0.074 A 
ATOM     49  C   UNL A   1      44.287  28.094  28.537  1.00  0.00     0.031 C 
ATOM     50  C   UNL A   1      37.718  30.136  29.038  1.00  0.00     0.029 A 
ATOM     51  C   UNL A   1      38.709  31.026  29.641  1.00  0.00     0.049 A 
ATOM     52  H   UNL A   1      40.784  30.880  29.483  1.00  0.00     0.167 HD
ATOM     53  C   UNL A   1      45.098  30.126  29.696  1.00  0.00     0.034 A 
ATOM     54  C   UNL A   1      38.436  32.111  30.397  1.00  0.00     0.034 A 
ATOM     55  C   UNL A   1      44.908  31.404  30.323  1.00  0.00     0.049 A 
ATOM     56  C   UNL A   1      39.574  32.913  30.979  1.00  0.00     0.074 A 
ATOM     57  C   UNL A   1      45.872  32.278  30.794  1.00  0.00     0.029 A 
ATOM     58  N   UNL A   1      43.678  31.976  30.600  1.00  0.00    -0.354 N 
ATOM     59  N   UNL A   1      40.866  32.729  30.852  1.00  0.00    -0.248 NA
ATOM     60  C   UNL A   1      39.217  34.087  31.792  1.00  0.00     0.031 C 
ATOM     61  C   UNL A   1      45.223  33.354  31.404  1.00  0.00     0.029 A 
ATOM     62  C   UNL A   1      43.856  33.174  31.268  1.00  0.00     0.049 A 
ATOM     63  H   UNL A   1      42.807  31.587  30.356  1.00  0.00     0.167 HD
ATOM     64  C   UNL A   1      41.472  33.776  31.540  1.00  0.00     0.074 A 
ATOM     65  C   UNL A   1      40.407  34.606  32.062  1.00  0.00     0.031 C 
ATOM     66  C   UNL A   1      42.790  34.019  31.738  1.00  0.00     0.034 A 
BRANCH  53  67
ATOM     67  C   UNL A   1      46.502  29.592  29.610  1.00  0.00     0.023 A 
ATOM     68  C   UNL A   1      47.027  28.809  30.657  1.00  0.00     0.012 A 
ATOM     69  C   UNL A   1      47.264  29.791  28.441  1.00  0.00     0.148 A 
ATOM     70  C   UNL A   1      48.299  28.245  30.548  1.00  0.00     0.002 A 
ATOM     71  C   UNL A   1      48.509  29.187  28.321  1.00  0.00     0.091 A 
ATOM     72  F   UNL A   1      46.751  30.558  27.469  1.00  0.00    -0.205 F 
ATOM     73  C   UNL A   1      49.031  28.423  29.377  1.00  0.00     0.022 A 
BRANCH  71  74
ATOM     74  S   UNL A   1      49.492  29.287  26.823  1.00  0.00     0.127 S 
ATOM     75  O   UNL A   1      48.592  28.686  25.839  1.00  0.00    -0.237 OA
ATOM     76  O   UNL A   1      49.679  30.731  26.676  1.00  0.00    -0.237 OA
ATOM     77  O   UNL A   1      50.710  28.535  27.086  1.00  0.00    -0.744 OA
ENDBRANCH  71  74
ENDBRANCH  53  67
BRANCH  54  78
ATOM     78  C   UNL A   1      37.022  32.497  30.678  1.00  0.00     0.023 A 
ATOM     79  C   UNL A   1      36.451  32.201  31.930  1.00  0.00     0.012 A 
ATOM     80  C   UNL A   1      36.234  33.130  29.697  1.00  0.00     0.148 A 
ATOM     81  C   UNL A   1      35.109  32.491  32.186  1.00  0.00     0.002 A 
ATOM     82  C   UNL A   1      34.917  33.471  29.980  1.00  0.00     0.091 A 
ATOM     83  F   UNL A   1      36.788  33.384  28.503  1.00  0.00    -0.205 F 
ATOM     84  C   UNL A   1      34.346  33.134  31.216  1.00  0.00     0.022 A 
BRANCH  82  85
ATOM     85  S   UNL A   1      33.900  34.410  28.835  1.00  0.00     0.127 S 
ATOM     86  O   UNL A   1      33.544  33.393  27.848  1.00  0.00    -0.237 OA
ATOM     87  O   UNL A   1      32.801  34.845  29.696  1.00  0.00    -0.237 OA
ATOM     88  O   UNL A   1      34.749  35.491  28.351  1.00  0.00    -0.744 OA
ENDBRANCH  82  85
ENDBRANCH  54  78
BRANCH  66  89
ATOM     89  C   UNL A   1      43.176  35.251  32.519  1.00  0.00     0.023 A 
ATOM     90  C   UNL A   1      43.504  36.440  31.840  1.00  0.00     0.012 A 
ATOM     91  C   UNL A   1      43.116  35.251  33.927  1.00  0.00     0.148 A 
ATOM     92  C   UNL A   1      43.792  37.605  32.551  1.00  0.00     0.002 A 
ATOM     93  C   UNL A   1      43.352  36.429  34.628  1.00  0.00     0.091 A 
ATOM     94  F   UNL A   1      42.812  34.106  34.554  1.00  0.00    -0.205 F 
ATOM     95  C   UNL A   1      43.703  37.603  33.941  1.00  0.00     0.022 A 
BRANCH  93  96
ATOM     96  S   UNL A   1      43.165  36.550  36.409  1.00  0.00     0.127 S 
ATOM     97  O   UNL A   1      41.713  36.658  36.550  1.00  0.00    -0.237 OA
ATOM     98  O   UNL A   1      43.729  35.279  36.865  1.00  0.00    -0.237 OA
ATOM     99  O   UNL A   1      43.916  37.729  36.818  1.00  0.00    -0.744 OA
ENDBRANCH  93  96
ENDBRANCH  66  89
ENDBRANCH  40  41
ENDBRANCH  33  35
ENDBRANCH  32  33
ENDBRANCH  31  32
ENDBRANCH  30  31
ENDBRANCH  29  30
ENDBRANCH  28  29
ENDBRANCH  27  28
ENDBRANCH   1  27
TORSDOF 26
ENDMDL
