MODEL 1
REMARK VINA RESULT:      -9.8      0.000      0.000
REMARK SMILES CC(C)(C)Nc1ncnc(N2CCC(C(=O)OCCOCCOCCOCCOC(=O)c3ccc(-c4c5nc(c(-c6cccc(S(=O)(=O)[O-])c6F)c6ccc([nH]6)c(-c6cccc(S(=O)(=O)[O-])c6F)c6nc(c(-c7cccc(S(=O)(=O)[O-])c7F)c7ccc4[nH]7)C=C6)C=C5)cc3)CC2)c1N
REMARK SMILES IDX 23 1 22 2 21 3 20 4 19 5 18 6 17 7 15 8 16 9 14 10 11 11
REMARK SMILES IDX 12 12 96 13 13 14 95 15 10 16 6 17 7 18 97 19 8 20 9 21 5 22
REMARK SMILES IDX 2 24 1 25 3 26 4 27 98 28 24 31 25 32 26 33 27 34 28 35
REMARK SMILES IDX 29 36 30 37 31 38 32 39 33 40 94 41 34 42 93 43 35 44 36 45
REMARK SMILES IDX 37 46 87 47 38 48 92 49 86 50 88 51 39 52 91 53 85 54 84 55
REMARK SMILES IDX 40 57 72 58 52 59 71 60 53 61 56 62 70 63 89 64 54 65 55 66
REMARK SMILES IDX 69 68 90 69 57 70 41 71 42 72 50 73 43 74 45 75 51 76 44 77
REMARK SMILES IDX 46 78 47 79 48 80 49 81 73 82 74 83 82 84 75 85 77 86 83 87
REMARK SMILES IDX 76 88 78 89 79 90 80 91 81 92 58 93 59 94 67 95 60 96 62 97
REMARK SMILES IDX 68 98 61 99 63 100 64 101 65 102 66 103
REMARK H PARENT 5 23 98 29 98 30 88 56 56 67
REMARK Flexibility Score: inf
ROOT
ATOM      1  O   UNL A   1      34.565  24.357  23.236  1.00  0.00    -0.377 OA
ENDROOT
BRANCH   1   2
ATOM      2  C   UNL A   1      33.213  24.530  22.877  1.00  0.00     0.188 C 
BRANCH   2   3
ATOM      3  C   UNL A   1      32.940  25.490  21.715  1.00  0.00     0.188 C 
BRANCH   3   4
ATOM      4  O   UNL A   1      32.406  26.788  21.921  1.00  0.00    -0.376 OA
BRANCH   4   5
ATOM      5  C   UNL A   1      32.796  27.588  23.028  1.00  0.00     0.202 C 
BRANCH   5   6
ATOM      6  C   UNL A   1      31.945  27.684  24.303  1.00  0.00     0.261 C 
BRANCH   6   7
ATOM      7  O   UNL A   1      32.533  27.177  25.510  1.00  0.00    -0.463 OA
BRANCH   7   8
ATOM      8  C   UNL A   1      31.664  26.745  26.445  1.00  0.00     0.309 C 
ATOM      9  O   UNL A   1      30.983  27.478  27.159  1.00  0.00    -0.252 OA
BRANCH   8  10
ATOM     10  C   UNL A   1      31.633  25.244  26.617  1.00  0.00     0.103 C 
ATOM     11  N   UNL A   1      32.172  22.501  26.158  1.00  0.00    -0.355 N 
ATOM     12  C   UNL A   1      30.791  22.925  26.184  1.00  0.00     0.119 C 
ATOM     13  C   UNL A   1      33.194  23.313  26.800  1.00  0.00     0.119 C 
ATOM     14  C   UNL A   1      30.670  24.386  25.784  1.00  0.00     0.037 C 
ATOM     15  C   UNL A   1      33.060  24.762  26.376  1.00  0.00     0.037 C 
BRANCH  11  16
ATOM     16  C   UNL A   1      32.532  21.559  25.205  1.00  0.00     0.157 A 
ATOM     17  C   UNL A   1      33.706  19.607  24.575  1.00  0.00     0.155 A 
ATOM     18  N   UNL A   1      33.090  19.595  23.383  1.00  0.00    -0.217 NA
ATOM     19  C   UNL A   1      33.530  20.628  25.505  1.00  0.00     0.118 A 
ATOM     20  C   UNL A   1      32.203  20.578  23.171  1.00  0.00     0.226 A 
ATOM     21  N   UNL A   1      31.847  21.524  24.048  1.00  0.00    -0.217 NA
BRANCH  17  22
ATOM     22  N   UNL A   1      34.481  18.483  24.838  1.00  0.00    -0.364 N 
ATOM     23  H   UNL A   1      35.399  18.616  25.172  1.00  0.00     0.162 HD
BRANCH  22  24
ATOM     24  C   UNL A   1      33.998  17.100  24.645  1.00  0.00     0.030 C 
ATOM     25  C   UNL A   1      34.117  16.534  23.217  1.00  0.00     0.034 C 
ATOM     26  C   UNL A   1      32.541  17.021  25.129  1.00  0.00     0.034 C 
ATOM     27  C   UNL A   1      34.850  16.191  25.555  1.00  0.00     0.034 C 
ENDBRANCH  22  24
ENDBRANCH  17  22
BRANCH  19  28
ATOM     28  N   UNL A   1      34.272  20.694  26.687  1.00  0.00    -0.393 N 
ATOM     29  H   UNL A   1      35.254  20.632  26.656  1.00  0.00     0.156 HD
ATOM     30  H   UNL A   1      33.813  20.802  27.551  1.00  0.00     0.156 HD
ENDBRANCH  19  28
ENDBRANCH  11  16
ENDBRANCH   8  10
ENDBRANCH   7   8
ENDBRANCH   6   7
ENDBRANCH   5   6
ENDBRANCH   4   5
ENDBRANCH   3   4
ENDBRANCH   2   3
ENDBRANCH   1   2
BRANCH   1  31
ATOM     31  C   UNL A   1      35.161  23.098  22.950  1.00  0.00     0.188 C 
BRANCH  31  32
ATOM     32  C   UNL A   1      36.547  22.817  23.561  1.00  0.00     0.188 C 
BRANCH  32  33
ATOM     33  O   UNL A   1      36.503  22.230  24.857  1.00  0.00    -0.376 OA
BRANCH  33  34
ATOM     34  C   UNL A   1      37.393  21.164  25.159  1.00  0.00     0.202 C 
BRANCH  34  35
ATOM     35  C   UNL A   1      38.786  21.503  25.720  1.00  0.00     0.261 C 
BRANCH  35  36
ATOM     36  O   UNL A   1      39.445  20.482  26.483  1.00  0.00    -0.460 OA
BRANCH  36  37
ATOM     37  C   UNL A   1      40.778  20.331  26.330  1.00  0.00     0.338 C 
ATOM     38  O   UNL A   1      41.358  19.384  25.842  1.00  0.00    -0.246 OA
BRANCH  37  39
ATOM     39  C   UNL A   1      41.417  21.621  26.669  1.00  0.00     0.060 A 
ATOM     40  C   UNL A   1      41.463  22.016  28.013  1.00  0.00     0.016 A 
ATOM     41  C   UNL A   1      41.947  22.440  25.669  1.00  0.00     0.016 A 
ATOM     42  C   UNL A   1      41.996  23.257  28.358  1.00  0.00     0.010 A 
ATOM     43  C   UNL A   1      42.453  23.695  26.013  1.00  0.00     0.010 A 
ATOM     44  C   UNL A   1      42.439  24.123  27.353  1.00  0.00    -0.014 A 
BRANCH  44  45
ATOM     45  C   UNL A   1      42.681  25.549  27.669  1.00  0.00     0.031 A 
ATOM     46  C   UNL A   1      44.084  26.075  27.529  1.00  0.00     0.074 A 
ATOM     47  C   UNL A   1      41.684  26.357  28.070  1.00  0.00     0.049 A 
ATOM     48  N   UNL A   1      44.562  27.251  27.833  1.00  0.00    -0.248 NA
ATOM     49  C   UNL A   1      45.084  25.149  26.965  1.00  0.00     0.031 C 
ATOM     50  C   UNL A   1      40.281  25.967  28.202  1.00  0.00     0.029 A 
ATOM     51  N   UNL A   1      41.710  27.671  28.466  1.00  0.00    -0.354 N 
ATOM     52  C   UNL A   1      45.917  27.199  27.529  1.00  0.00     0.074 A 
ATOM     53  C   UNL A   1      46.190  25.876  27.015  1.00  0.00     0.031 C 
ATOM     54  C   UNL A   1      39.585  27.012  28.685  1.00  0.00     0.029 A 
ATOM     55  C   UNL A   1      40.497  28.127  28.929  1.00  0.00     0.049 A 
ATOM     56  H   UNL A   1      42.517  28.233  28.423  1.00  0.00     0.167 HD
ATOM     57  C   UNL A   1      46.846  28.172  27.657  1.00  0.00     0.034 A 
ATOM     58  C   UNL A   1      40.175  29.299  29.513  1.00  0.00     0.034 A 
ATOM     59  C   UNL A   1      46.562  29.492  28.153  1.00  0.00     0.049 A 
ATOM     60  C   UNL A   1      41.244  30.351  29.685  1.00  0.00     0.074 A 
ATOM     61  C   UNL A   1      47.434  30.554  28.306  1.00  0.00     0.029 A 
ATOM     62  N   UNL A   1      45.318  29.927  28.578  1.00  0.00    -0.354 N 
ATOM     63  N   UNL A   1      42.505  30.313  29.328  1.00  0.00    -0.248 NA
ATOM     64  C   UNL A   1      40.838  31.618  30.310  1.00  0.00     0.031 C 
ATOM     65  C   UNL A   1      46.723  31.624  28.854  1.00  0.00     0.029 A 
ATOM     66  C   UNL A   1      45.399  31.243  28.996  1.00  0.00     0.049 A 
ATOM     67  H   UNL A   1      44.498  29.382  28.582  1.00  0.00     0.167 HD
ATOM     68  C   UNL A   1      43.029  31.565  29.640  1.00  0.00     0.074 A 
ATOM     69  C   UNL A   1      41.944  32.342  30.199  1.00  0.00     0.031 C 
ATOM     70  C   UNL A   1      44.294  32.026  29.488  1.00  0.00     0.034 A 
BRANCH  57  71
ATOM     71  C   UNL A   1      48.260  27.877  27.234  1.00  0.00     0.023 A 
ATOM     72  C   UNL A   1      48.655  28.126  25.905  1.00  0.00     0.012 A 
ATOM     73  C   UNL A   1      49.223  27.485  28.183  1.00  0.00     0.148 A 
ATOM     74  C   UNL A   1      49.990  27.989  25.526  1.00  0.00     0.002 A 
ATOM     75  C   UNL A   1      50.559  27.398  27.810  1.00  0.00     0.091 A 
ATOM     76  F   UNL A   1      48.819  27.230  29.435  1.00  0.00    -0.205 F 
ATOM     77  C   UNL A   1      50.943  27.643  26.481  1.00  0.00     0.022 A 
BRANCH  75  78
ATOM     78  S   UNL A   1      51.875  27.055  28.983  1.00  0.00     0.127 S 
ATOM     79  O   UNL A   1      53.040  26.966  28.101  1.00  0.00    -0.237 OA
ATOM     80  O   UNL A   1      51.844  28.244  29.832  1.00  0.00    -0.237 OA
ATOM     81  O   UNL A   1      51.511  25.812  29.649  1.00  0.00    -0.744 OA
ENDBRANCH  75  78
ENDBRANCH  57  71
BRANCH  58  82
ATOM     82  C   UNL A   1      38.775  29.555  29.960  1.00  0.00     0.023 A 
ATOM     83  C   UNL A   1      38.365  29.137  31.242  1.00  0.00     0.012 A 
ATOM     84  C   UNL A   1      37.850  30.215  29.128  1.00  0.00     0.148 A 
ATOM     85  C   UNL A   1      37.052  29.339  31.671  1.00  0.00     0.002 A 
ATOM     86  C   UNL A   1      36.563  30.470  29.586  1.00  0.00     0.091 A 
ATOM     87  F   UNL A   1      38.249  30.587  27.903  1.00  0.00    -0.205 F 
ATOM     88  C   UNL A   1      36.155  30.015  30.849  1.00  0.00     0.022 A 
BRANCH  86  89
ATOM     89  S   UNL A   1      35.384  31.454  28.653  1.00  0.00     0.127 S 
ATOM     90  O   UNL A   1      34.657  30.426  27.912  1.00  0.00    -0.237 OA
ATOM     91  O   UNL A   1      34.622  32.102  29.722  1.00  0.00    -0.237 OA
ATOM     92  O   UNL A   1      36.185  32.367  27.848  1.00  0.00    -0.744 OA
ENDBRANCH  86  89
ENDBRANCH  58  82
BRANCH  70  93
ATOM     93  C   UNL A   1      44.582  33.456  29.869  1.00  0.00     0.023 A 
ATOM     94  C   UNL A   1      45.097  33.759  31.144  1.00  0.00     0.012 A 
ATOM     95  C   UNL A   1      44.436  34.489  28.920  1.00  0.00     0.148 A 
ATOM     96  C   UNL A   1      45.427  35.071  31.481  1.00  0.00     0.002 A 
ATOM     97  C   UNL A   1      44.822  35.783  29.244  1.00  0.00     0.091 A 
ATOM     98  F   UNL A   1      43.932  34.184  27.715  1.00  0.00    -0.205 F 
ATOM     99  C   UNL A   1      45.303  36.079  30.529  1.00  0.00     0.022 A 
BRANCH  97 100
ATOM    100  S   UNL A   1      44.807  37.121  28.044  1.00  0.00     0.127 S 
ATOM    101  O   UNL A   1      45.443  38.201  28.795  1.00  0.00    -0.237 OA
ATOM    102  O   UNL A   1      45.619  36.573  26.958  1.00  0.00    -0.237 OA
ATOM    103  O   UNL A   1      43.408  37.338  27.702  1.00  0.00    -0.744 OA
ENDBRANCH  97 100
ENDBRANCH  70  93
ENDBRANCH  44  45
ENDBRANCH  37  39
ENDBRANCH  36  37
ENDBRANCH  35  36
ENDBRANCH  34  35
ENDBRANCH  33  34
ENDBRANCH  32  33
ENDBRANCH  31  32
ENDBRANCH   1  31
TORSDOF 27
ENDMDL
MODEL 2
REMARK VINA RESULT:      -9.3      6.124     10.726
REMARK SMILES CC(C)(C)Nc1ncnc(N2CCC(C(=O)OCCOCCOCCOCCOC(=O)c3ccc(-c4c5nc(c(-c6cccc(S(=O)(=O)[O-])c6F)c6ccc([nH]6)c(-c6cccc(S(=O)(=O)[O-])c6F)c6nc(c(-c7cccc(S(=O)(=O)[O-])c7F)c7ccc4[nH]7)C=C6)C=C5)cc3)CC2)c1N
REMARK SMILES IDX 23 1 22 2 21 3 20 4 19 5 18 6 17 7 15 8 16 9 14 10 11 11
REMARK SMILES IDX 12 12 96 13 13 14 95 15 10 16 6 17 7 18 97 19 8 20 9 21 5 22
REMARK SMILES IDX 2 24 1 25 3 26 4 27 98 28 24 31 25 32 26 33 27 34 28 35
REMARK SMILES IDX 29 36 30 37 31 38 32 39 33 40 94 41 34 42 93 43 35 44 36 45
REMARK SMILES IDX 37 46 87 47 38 48 92 49 86 50 88 51 39 52 91 53 85 54 84 55
REMARK SMILES IDX 40 57 72 58 52 59 71 60 53 61 56 62 70 63 89 64 54 65 55 66
REMARK SMILES IDX 69 68 90 69 57 70 41 71 42 72 50 73 43 74 45 75 51 76 44 77
REMARK SMILES IDX 46 78 47 79 48 80 49 81 73 82 74 83 82 84 75 85 77 86 83 87
REMARK SMILES IDX 76 88 78 89 79 90 80 91 81 92 58 93 59 94 67 95 60 96 62 97
REMARK SMILES IDX 68 98 61 99 63 100 64 101 65 102 66 103
REMARK H PARENT 5 23 98 29 98 30 88 56 56 67
REMARK Flexibility Score: inf
ROOT
ATOM      1  O   UNL A   1      34.049  30.647  26.929  1.00  0.00    -0.377 OA
ENDROOT
BRANCH   1   2
ATOM      2  C   UNL A   1      32.687  30.492  27.260  1.00  0.00     0.188 C 
BRANCH   2   3
ATOM      3  C   UNL A   1      31.702  31.390  26.507  1.00  0.00     0.188 C 
BRANCH   3   4
ATOM      4  O   UNL A   1      30.821  30.879  25.520  1.00  0.00    -0.376 OA
BRANCH   4   5
ATOM      5  C   UNL A   1      30.112  31.737  24.637  1.00  0.00     0.202 C 
BRANCH   5   6
ATOM      6  C   UNL A   1      28.985  31.221  23.731  1.00  0.00     0.261 C 
BRANCH   6   7
ATOM      7  O   UNL A   1      29.329  30.183  22.802  1.00  0.00    -0.463 OA
BRANCH   7   8
ATOM      8  C   UNL A   1      28.786  28.975  23.050  1.00  0.00     0.309 C 
ATOM      9  O   UNL A   1      27.627  28.662  22.790  1.00  0.00    -0.252 OA
BRANCH   8  10
ATOM     10  C   UNL A   1      29.709  28.014  23.763  1.00  0.00     0.103 C 
ATOM     11  N   UNL A   1      31.835  26.192  24.196  1.00  0.00    -0.355 N 
ATOM     12  C   UNL A   1      30.495  25.759  24.523  1.00  0.00     0.119 C 
ATOM     13  C   UNL A   1      32.141  27.611  24.114  1.00  0.00     0.119 C 
ATOM     14  C   UNL A   1      29.472  26.499  23.677  1.00  0.00     0.037 C 
ATOM     15  C   UNL A   1      31.115  28.324  23.257  1.00  0.00     0.037 C 
BRANCH  11  16
ATOM     16  C   UNL A   1      32.675  25.264  23.597  1.00  0.00     0.157 A 
ATOM     17  C   UNL A   1      34.520  23.790  23.691  1.00  0.00     0.155 A 
ATOM     18  N   UNL A   1      34.215  23.297  22.481  1.00  0.00    -0.217 NA
ATOM     19  C   UNL A   1      33.829  24.851  24.269  1.00  0.00     0.118 A 
ATOM     20  C   UNL A   1      33.128  23.818  21.892  1.00  0.00     0.226 A 
ATOM     21  N   UNL A   1      32.306  24.733  22.418  1.00  0.00    -0.217 NA
BRANCH  17  22
ATOM     22  N   UNL A   1      35.538  23.113  24.352  1.00  0.00    -0.364 N 
ATOM     23  H   UNL A   1      36.461  23.442  24.252  1.00  0.00     0.162 HD
BRANCH  22  24
ATOM     24  C   UNL A   1      35.305  21.925  25.201  1.00  0.00     0.030 C 
ATOM     25  C   UNL A   1      34.919  22.204  26.666  1.00  0.00     0.034 C 
ATOM     26  C   UNL A   1      36.555  21.032  25.141  1.00  0.00     0.034 C 
ATOM     27  C   UNL A   1      34.133  21.143  24.574  1.00  0.00     0.034 C 
ENDBRANCH  22  24
ENDBRANCH  17  22
BRANCH  19  28
ATOM     28  N   UNL A   1      34.236  25.437  25.471  1.00  0.00    -0.393 N 
ATOM     29  H   UNL A   1      33.689  25.326  26.282  1.00  0.00     0.156 HD
ATOM     30  H   UNL A   1      35.069  25.960  25.507  1.00  0.00     0.156 HD
ENDBRANCH  19  28
ENDBRANCH  11  16
ENDBRANCH   8  10
ENDBRANCH   7   8
ENDBRANCH   6   7
ENDBRANCH   5   6
ENDBRANCH   4   5
ENDBRANCH   3   4
ENDBRANCH   2   3
ENDBRANCH   1   2
BRANCH   1  31
ATOM     31  C   UNL A   1      34.758  31.707  27.559  1.00  0.00     0.188 C 
BRANCH  31  32
ATOM     32  C   UNL A   1      34.806  31.708  29.099  1.00  0.00     0.188 C 
BRANCH  32  33
ATOM     33  O   UNL A   1      34.387  32.931  29.694  1.00  0.00    -0.376 OA
BRANCH  33  34
ATOM     34  C   UNL A   1      34.168  34.061  28.860  1.00  0.00     0.202 C 
BRANCH  34  35
ATOM     35  C   UNL A   1      33.316  35.223  29.403  1.00  0.00     0.261 C 
BRANCH  35  36
ATOM     36  O   UNL A   1      32.576  34.978  30.608  1.00  0.00    -0.460 OA
BRANCH  36  37
ATOM     37  C   UNL A   1      32.859  35.728  31.695  1.00  0.00     0.338 C 
ATOM     38  O   UNL A   1      32.246  36.692  32.100  1.00  0.00    -0.246 OA
BRANCH  37  39
ATOM     39  C   UNL A   1      33.936  35.042  32.443  1.00  0.00     0.060 A 
ATOM     40  C   UNL A   1      35.206  35.635  32.487  1.00  0.00     0.016 A 
ATOM     41  C   UNL A   1      33.699  33.821  33.076  1.00  0.00     0.016 A 
ATOM     42  C   UNL A   1      36.259  34.982  33.125  1.00  0.00     0.010 A 
ATOM     43  C   UNL A   1      34.762  33.153  33.689  1.00  0.00     0.010 A 
ATOM     44  C   UNL A   1      36.052  33.713  33.677  1.00  0.00    -0.014 A 
BRANCH  44  45
ATOM     45  C   UNL A   1      37.218  32.875  34.043  1.00  0.00     0.031 A 
ATOM     46  C   UNL A   1      37.987  33.241  35.284  1.00  0.00     0.074 A 
ATOM     47  C   UNL A   1      37.583  31.819  33.298  1.00  0.00     0.049 A 
ATOM     48  N   UNL A   1      39.088  32.725  35.757  1.00  0.00    -0.248 NA
ATOM     49  C   UNL A   1      37.438  34.338  36.104  1.00  0.00     0.031 C 
ATOM     50  C   UNL A   1      36.889  31.348  32.101  1.00  0.00     0.029 A 
ATOM     51  N   UNL A   1      38.652  30.967  33.427  1.00  0.00    -0.354 N 
ATOM     52  C   UNL A   1      39.381  33.448  36.908  1.00  0.00     0.074 A 
ATOM     53  C   UNL A   1      38.343  34.441  37.065  1.00  0.00     0.031 C 
ATOM     54  C   UNL A   1      37.573  30.312  31.583  1.00  0.00     0.029 A 
ATOM     55  C   UNL A   1      38.767  30.071  32.389  1.00  0.00     0.049 A 
ATOM     56  H   UNL A   1      39.275  30.994  34.189  1.00  0.00     0.167 HD
ATOM     57  C   UNL A   1      40.417  33.288  37.761  1.00  0.00     0.034 A 
ATOM     58  C   UNL A   1      39.745  29.186  32.110  1.00  0.00     0.034 A 
ATOM     59  C   UNL A   1      41.436  32.285  37.607  1.00  0.00     0.049 A 
ATOM     60  C   UNL A   1      40.914  29.061  33.056  1.00  0.00     0.074 A 
ATOM     61  C   UNL A   1      42.520  32.034  38.428  1.00  0.00     0.029 A 
ATOM     62  N   UNL A   1      41.500  31.375  36.565  1.00  0.00    -0.354 N 
ATOM     63  N   UNL A   1      41.141  29.702  34.178  1.00  0.00    -0.248 NA
ATOM     64  C   UNL A   1      41.944  28.069  32.718  1.00  0.00     0.031 C 
ATOM     65  C   UNL A   1      43.258  30.991  37.865  1.00  0.00     0.029 A 
ATOM     66  C   UNL A   1      42.607  30.561  36.720  1.00  0.00     0.049 A 
ATOM     67  H   UNL A   1      40.854  31.316  35.824  1.00  0.00     0.167 HD
ATOM     68  C   UNL A   1      42.311  29.158  34.700  1.00  0.00     0.074 A 
ATOM     69  C   UNL A   1      42.735  28.124  33.781  1.00  0.00     0.031 C 
ATOM     70  C   UNL A   1      42.979  29.490  35.832  1.00  0.00     0.034 A 
BRANCH  57  71
ATOM     71  C   UNL A   1      40.505  34.191  38.962  1.00  0.00     0.023 A 
ATOM     72  C   UNL A   1      41.345  35.321  38.923  1.00  0.00     0.012 A 
ATOM     73  C   UNL A   1      39.657  33.993  40.069  1.00  0.00     0.148 A 
ATOM     74  C   UNL A   1      41.339  36.243  39.970  1.00  0.00     0.002 A 
ATOM     75  C   UNL A   1      39.621  34.941  41.084  1.00  0.00     0.091 A 
ATOM     76  F   UNL A   1      38.886  32.897  40.094  1.00  0.00    -0.205 F 
ATOM     77  C   UNL A   1      40.466  36.062  41.040  1.00  0.00     0.022 A 
BRANCH  75  78
ATOM     78  S   UNL A   1      38.465  34.852  42.456  1.00  0.00     0.127 S 
ATOM     79  O   UNL A   1      38.914  33.640  43.143  1.00  0.00    -0.237 OA
ATOM     80  O   UNL A   1      38.745  36.096  43.171  1.00  0.00    -0.237 OA
ATOM     81  O   UNL A   1      37.137  34.768  41.864  1.00  0.00    -0.744 OA
ENDBRANCH  75  78
ENDBRANCH  57  71
BRANCH  58  82
ATOM     82  C   UNL A   1      39.656  28.328  30.892  1.00  0.00     0.023 A 
ATOM     83  C   UNL A   1      38.893  27.144  30.928  1.00  0.00     0.012 A 
ATOM     84  C   UNL A   1      40.318  28.680  29.699  1.00  0.00     0.148 A 
ATOM     85  C   UNL A   1      38.819  26.310  29.810  1.00  0.00     0.002 A 
ATOM     86  C   UNL A   1      40.187  27.878  28.572  1.00  0.00     0.091 A 
ATOM     87  F   UNL A   1      41.058  29.797  29.688  1.00  0.00    -0.205 F 
ATOM     88  C   UNL A   1      39.456  26.683  28.630  1.00  0.00     0.022 A 
BRANCH  86  89
ATOM     89  S   UNL A   1      40.857  28.348  26.972  1.00  0.00     0.127 S 
ATOM     90  O   UNL A   1      42.168  28.876  27.340  1.00  0.00    -0.237 OA
ATOM     91  O   UNL A   1      40.884  27.064  26.270  1.00  0.00    -0.237 OA
ATOM     92  O   UNL A   1      39.917  29.315  26.422  1.00  0.00    -0.744 OA
ENDBRANCH  86  89
ENDBRANCH  58  82
BRANCH  70  93
ATOM     93  C   UNL A   1      44.210  28.697  36.191  1.00  0.00     0.023 A 
ATOM     94  C   UNL A   1      44.100  27.532  36.973  1.00  0.00     0.012 A 
ATOM     95  C   UNL A   1      45.467  29.057  35.662  1.00  0.00     0.148 A 
ATOM     96  C   UNL A   1      45.225  26.757  37.254  1.00  0.00     0.002 A 
ATOM     97  C   UNL A   1      46.572  28.249  35.897  1.00  0.00     0.091 A 
ATOM     98  F   UNL A   1      45.557  30.178  34.931  1.00  0.00    -0.205 F 
ATOM     99  C   UNL A   1      46.456  27.107  36.706  1.00  0.00     0.022 A 
BRANCH  97 100
ATOM    100  S   UNL A   1      48.171  28.558  35.138  1.00  0.00     0.127 S 
ATOM    101  O   UNL A   1      48.671  29.673  35.940  1.00  0.00    -0.237 OA
ATOM    102  O   UNL A   1      48.868  27.291  35.355  1.00  0.00    -0.237 OA
ATOM    103  O   UNL A   1      47.900  28.866  33.741  1.00  0.00    -0.744 OA
ENDBRANCH  97 100
ENDBRANCH  70  93
ENDBRANCH  44  45
ENDBRANCH  37  39
ENDBRANCH  36  37
ENDBRANCH  35  36
ENDBRANCH  34  35
ENDBRANCH  33  34
ENDBRANCH  32  33
ENDBRANCH  31  32
ENDBRANCH   1  31
TORSDOF 27
ENDMDL
MODEL 3
REMARK VINA RESULT:      -9.2      2.805      5.005
REMARK SMILES CC(C)(C)Nc1ncnc(N2CCC(C(=O)OCCOCCOCCOCCOC(=O)c3ccc(-c4c5nc(c(-c6cccc(S(=O)(=O)[O-])c6F)c6ccc([nH]6)c(-c6cccc(S(=O)(=O)[O-])c6F)c6nc(c(-c7cccc(S(=O)(=O)[O-])c7F)c7ccc4[nH]7)C=C6)C=C5)cc3)CC2)c1N
REMARK SMILES IDX 23 1 22 2 21 3 20 4 19 5 18 6 17 7 15 8 16 9 14 10 11 11
REMARK SMILES IDX 12 12 96 13 13 14 95 15 10 16 6 17 7 18 97 19 8 20 9 21 5 22
REMARK SMILES IDX 2 24 1 25 3 26 4 27 98 28 24 31 25 32 26 33 27 34 28 35
REMARK SMILES IDX 29 36 30 37 31 38 32 39 33 40 94 41 34 42 93 43 35 44 36 45
REMARK SMILES IDX 37 46 87 47 38 48 92 49 86 50 88 51 39 52 91 53 85 54 84 55
REMARK SMILES IDX 40 57 72 58 52 59 71 60 53 61 56 62 70 63 89 64 54 65 55 66
REMARK SMILES IDX 69 68 90 69 57 70 41 71 42 72 50 73 43 74 45 75 51 76 44 77
REMARK SMILES IDX 46 78 47 79 48 80 49 81 73 82 74 83 82 84 75 85 77 86 83 87
REMARK SMILES IDX 76 88 78 89 79 90 80 91 81 92 58 93 59 94 67 95 60 96 62 97
REMARK SMILES IDX 68 98 61 99 63 100 64 101 65 102 66 103
REMARK H PARENT 5 23 98 29 98 30 88 56 56 67
REMARK Flexibility Score: inf
ROOT
ATOM      1  O   UNL A   1      36.954  23.007  24.254  1.00  0.00    -0.377 OA
ENDROOT
BRANCH   1   2
ATOM      2  C   UNL A   1      35.776  23.462  24.881  1.00  0.00     0.188 C 
BRANCH   2   3
ATOM      3  C   UNL A   1      35.725  23.327  26.405  1.00  0.00     0.188 C 
BRANCH   3   4
ATOM      4  O   UNL A   1      34.619  22.741  27.072  1.00  0.00    -0.376 OA
BRANCH   4   5
ATOM      5  C   UNL A   1      34.350  21.348  26.989  1.00  0.00     0.202 C 
BRANCH   5   6
ATOM      6  C   UNL A   1      33.045  20.806  26.388  1.00  0.00     0.261 C 
BRANCH   6   7
ATOM      7  O   UNL A   1      32.500  21.528  25.274  1.00  0.00    -0.463 OA
BRANCH   7   8
ATOM      8  C   UNL A   1      31.784  22.626  25.586  1.00  0.00     0.309 C 
ATOM      9  O   UNL A   1      30.812  22.638  26.337  1.00  0.00    -0.252 OA
BRANCH   8  10
ATOM     10  C   UNL A   1      32.226  23.881  24.867  1.00  0.00     0.103 C 
ATOM     11  N   UNL A   1      32.539  26.630  24.260  1.00  0.00    -0.355 N 
ATOM     12  C   UNL A   1      31.988  25.769  23.238  1.00  0.00     0.119 C 
ATOM     13  C   UNL A   1      33.329  26.062  25.341  1.00  0.00     0.119 C 
ATOM     14  C   UNL A   1      31.292  24.571  23.864  1.00  0.00     0.037 C 
ATOM     15  C   UNL A   1      32.609  24.879  25.956  1.00  0.00     0.037 C 
BRANCH  11  16
ATOM     16  C   UNL A   1      31.981  27.893  24.397  1.00  0.00     0.157 A 
ATOM     17  C   UNL A   1      30.834  29.750  23.489  1.00  0.00     0.155 A 
ATOM     18  N   UNL A   1      30.715  30.299  24.708  1.00  0.00    -0.217 NA
ATOM     19  C   UNL A   1      31.544  28.575  23.257  1.00  0.00     0.118 A 
ATOM     20  C   UNL A   1      31.236  29.594  25.723  1.00  0.00     0.226 A 
ATOM     21  N   UNL A   1      31.808  28.387  25.635  1.00  0.00    -0.217 NA
BRANCH  17  22
ATOM     22  N   UNL A   1      30.133  30.409  22.486  1.00  0.00    -0.364 N 
ATOM     23  H   UNL A   1      30.646  30.886  21.793  1.00  0.00     0.162 HD
BRANCH  22  24
ATOM     24  C   UNL A   1      28.657  30.428  22.404  1.00  0.00     0.030 C 
ATOM     25  C   UNL A   1      28.059  30.779  21.028  1.00  0.00     0.034 C 
ATOM     26  C   UNL A   1      28.123  31.391  23.478  1.00  0.00     0.034 C 
ATOM     27  C   UNL A   1      28.165  29.008  22.753  1.00  0.00     0.034 C 
ENDBRANCH  22  24
ENDBRANCH  17  22
BRANCH  19  28
ATOM     28  N   UNL A   1      31.767  28.082  21.969  1.00  0.00    -0.393 N 
ATOM     29  H   UNL A   1      31.627  28.666  21.188  1.00  0.00     0.156 HD
ATOM     30  H   UNL A   1      32.064  27.153  21.841  1.00  0.00     0.156 HD
ENDBRANCH  19  28
ENDBRANCH  11  16
ENDBRANCH   8  10
ENDBRANCH   7   8
ENDBRANCH   6   7
ENDBRANCH   5   6
ENDBRANCH   4   5
ENDBRANCH   3   4
ENDBRANCH   2   3
ENDBRANCH   1   2
BRANCH   1  31
ATOM     31  C   UNL A   1      37.676  21.965  24.898  1.00  0.00     0.188 C 
BRANCH  31  32
ATOM     32  C   UNL A   1      37.227  20.518  24.618  1.00  0.00     0.188 C 
BRANCH  32  33
ATOM     33  O   UNL A   1      38.126  19.526  25.103  1.00  0.00    -0.376 OA
BRANCH  33  34
ATOM     34  C   UNL A   1      39.203  19.925  25.941  1.00  0.00     0.202 C 
BRANCH  34  35
ATOM     35  C   UNL A   1      40.392  18.963  26.121  1.00  0.00     0.261 C 
BRANCH  35  36
ATOM     36  O   UNL A   1      41.584  19.260  25.379  1.00  0.00    -0.460 OA
BRANCH  36  37
ATOM     37  C   UNL A   1      42.691  19.616  26.066  1.00  0.00     0.338 C 
ATOM     38  O   UNL A   1      43.695  18.956  26.232  1.00  0.00    -0.246 OA
BRANCH  37  39
ATOM     39  C   UNL A   1      42.562  21.049  26.411  1.00  0.00     0.060 A 
ATOM     40  C   UNL A   1      42.401  21.978  25.374  1.00  0.00     0.016 A 
ATOM     41  C   UNL A   1      42.619  21.471  27.741  1.00  0.00     0.016 A 
ATOM     42  C   UNL A   1      42.346  23.341  25.660  1.00  0.00     0.010 A 
ATOM     43  C   UNL A   1      42.593  22.838  28.024  1.00  0.00     0.010 A 
ATOM     44  C   UNL A   1      42.499  23.777  26.981  1.00  0.00    -0.014 A 
BRANCH  44  45
ATOM     45  C   UNL A   1      42.784  25.205  27.252  1.00  0.00     0.031 A 
ATOM     46  C   UNL A   1      44.139  25.738  26.873  1.00  0.00     0.074 A 
ATOM     47  C   UNL A   1      41.867  26.007  27.818  1.00  0.00     0.049 A 
ATOM     48  N   UNL A   1      44.656  26.917  27.092  1.00  0.00    -0.248 NA
ATOM     49  C   UNL A   1      45.033  24.817  26.145  1.00  0.00     0.031 C 
ATOM     50  C   UNL A   1      40.510  25.609  28.189  1.00  0.00     0.029 A 
ATOM     51  N   UNL A   1      41.953  27.321  28.206  1.00  0.00    -0.354 N 
ATOM     52  C   UNL A   1      45.939  26.872  26.560  1.00  0.00     0.074 A 
ATOM     53  C   UNL A   1      46.127  25.550  26.005  1.00  0.00     0.031 C 
ATOM     54  C   UNL A   1      39.901  26.650  28.786  1.00  0.00     0.029 A 
ATOM     55  C   UNL A   1      40.835  27.771  28.870  1.00  0.00     0.049 A 
ATOM     56  H   UNL A   1      42.738  27.887  28.025  1.00  0.00     0.167 HD
ATOM     57  C   UNL A   1      46.871  27.850  26.527  1.00  0.00     0.034 A 
ATOM     58  C   UNL A   1      40.612  28.940  29.502  1.00  0.00     0.034 A 
ATOM     59  C   UNL A   1      46.669  29.168  27.066  1.00  0.00     0.049 A 
ATOM     60  C   UNL A   1      41.688  29.998  29.489  1.00  0.00     0.074 A 
ATOM     61  C   UNL A   1      47.549  30.235  27.067  1.00  0.00     0.029 A 
ATOM     62  N   UNL A   1      45.515  29.597  27.698  1.00  0.00    -0.354 N 
ATOM     63  N   UNL A   1      42.869  29.968  28.920  1.00  0.00    -0.248 NA
ATOM     64  C   UNL A   1      41.389  31.264  30.176  1.00  0.00     0.031 C 
ATOM     65  C   UNL A   1      46.937  31.301  27.731  1.00  0.00     0.029 A 
ATOM     66  C   UNL A   1      45.659  30.913  28.098  1.00  0.00     0.049 A 
ATOM     67  H   UNL A   1      44.710  29.047  27.843  1.00  0.00     0.167 HD
ATOM     68  C   UNL A   1      43.433  31.222  29.139  1.00  0.00     0.074 A 
ATOM     69  C   UNL A   1      42.455  31.993  29.877  1.00  0.00     0.031 C 
ATOM     70  C   UNL A   1      44.651  31.690  28.772  1.00  0.00     0.034 A 
BRANCH  57  71
ATOM     71  C   UNL A   1      48.193  27.563  25.867  1.00  0.00     0.023 A 
ATOM     72  C   UNL A   1      49.245  27.014  26.626  1.00  0.00     0.012 A 
ATOM     73  C   UNL A   1      48.344  27.710  24.475  1.00  0.00     0.148 A 
ATOM     74  C   UNL A   1      50.430  26.615  26.009  1.00  0.00     0.002 A 
ATOM     75  C   UNL A   1      49.507  27.264  23.860  1.00  0.00     0.091 A 
ATOM     76  F   UNL A   1      47.338  28.257  23.778  1.00  0.00    -0.205 F 
ATOM     77  C   UNL A   1      50.553  26.723  24.625  1.00  0.00     0.022 A 
BRANCH  75  78
ATOM     78  S   UNL A   1      49.728  27.270  22.077  1.00  0.00     0.127 S 
ATOM     79  O   UNL A   1      51.077  26.720  21.944  1.00  0.00    -0.237 OA
ATOM     80  O   UNL A   1      48.659  26.375  21.636  1.00  0.00    -0.237 OA
ATOM     81  O   UNL A   1      49.583  28.656  21.655  1.00  0.00    -0.744 OA
ENDBRANCH  75  78
ENDBRANCH  57  71
BRANCH  58  82
ATOM     82  C   UNL A   1      39.308  29.189  30.183  1.00  0.00     0.023 A 
ATOM     83  C   UNL A   1      39.022  28.540  31.401  1.00  0.00     0.012 A 
ATOM     84  C   UNL A   1      38.352  30.068  29.636  1.00  0.00     0.148 A 
ATOM     85  C   UNL A   1      37.797  28.734  32.042  1.00  0.00     0.002 A 
ATOM     86  C   UNL A   1      37.162  30.306  30.313  1.00  0.00     0.091 A 
ATOM     87  F   UNL A   1      38.629  30.661  28.466  1.00  0.00    -0.205 F 
ATOM     88  C   UNL A   1      36.873  29.624  31.505  1.00  0.00     0.022 A 
BRANCH  86  89
ATOM     89  S   UNL A   1      35.973  31.539  29.768  1.00  0.00     0.127 S 
ATOM     90  O   UNL A   1      35.271  30.827  28.703  1.00  0.00    -0.237 OA
ATOM     91  O   UNL A   1      35.191  31.758  30.985  1.00  0.00    -0.237 OA
ATOM     92  O   UNL A   1      36.765  32.687  29.347  1.00  0.00    -0.744 OA
ENDBRANCH  86  89
ENDBRANCH  58  82
BRANCH  70  93
ATOM     93  C   UNL A   1      44.992  33.121  29.100  1.00  0.00     0.023 A 
ATOM     94  C   UNL A   1      45.728  33.426  30.261  1.00  0.00     0.012 A 
ATOM     95  C   UNL A   1      44.667  34.155  28.197  1.00  0.00     0.148 A 
ATOM     96  C   UNL A   1      46.104  34.740  30.537  1.00  0.00     0.002 A 
ATOM     97  C   UNL A   1      45.096  35.452  28.449  1.00  0.00     0.091 A 
ATOM     98  F   UNL A   1      43.955  33.849  27.103  1.00  0.00    -0.205 F 
ATOM     99  C   UNL A   1      45.801  35.750  29.626  1.00  0.00     0.022 A 
BRANCH  97 100
ATOM    100  S   UNL A   1      44.852  36.792  27.277  1.00  0.00     0.127 S 
ATOM    101  O   UNL A   1      43.396  36.812  27.147  1.00  0.00    -0.237 OA
ATOM    102  O   UNL A   1      45.416  37.936  27.993  1.00  0.00    -0.237 OA
ATOM    103  O   UNL A   1      45.581  36.413  26.075  1.00  0.00    -0.744 OA
ENDBRANCH  97 100
ENDBRANCH  70  93
ENDBRANCH  44  45
ENDBRANCH  37  39
ENDBRANCH  36  37
ENDBRANCH  35  36
ENDBRANCH  34  35
ENDBRANCH  33  34
ENDBRANCH  32  33
ENDBRANCH  31  32
ENDBRANCH   1  31
TORSDOF 27
ENDMDL
