MODEL 1
REMARK VINA RESULT:      -9.9      0.000      0.000
REMARK SMILES C[C@@H](C(=O)OCCOCCOCCOCCOC(=O)c1ccc(-c2c3nc(c(-c4cccc(S(=O)(=O)[O-])c4F)c4ccc([nH]4)c(-c4cccc(S(=O)(=O)[O-])c4F)c4nc(c(-c5cccc(S(=O)(=O)[O-])c5F)c5ccc2[nH]5)C=C4)C=C3)cc1)n1ccc(C(=O)N2CC[NH+](Cc3cccc(F)c3)CC2)n1
REMARK SMILES IDX 10 1 9 2 8 3 7 4 6 5 5 6 3 7 4 8 2 9 1 10 83 11 84 12 103 13
REMARK SMILES IDX 85 14 86 15 87 16 88 17 89 18 90 19 102 20 91 21 101 22
REMARK SMILES IDX 92 23 93 25 94 26 95 27 100 28 96 29 98 30 97 31 99 32 11 33
REMARK SMILES IDX 12 34 13 35 14 36 15 37 16 38 17 39 18 40 19 41 20 42 21 43
REMARK SMILES IDX 82 44 22 45 81 46 23 47 24 48 25 49 75 50 26 51 80 52 74 53
REMARK SMILES IDX 76 54 27 55 79 56 73 57 72 58 28 60 60 61 40 62 59 63 41 64
REMARK SMILES IDX 44 65 58 66 77 67 42 68 43 69 57 71 78 72 45 73 29 74 30 75
REMARK SMILES IDX 38 76 31 77 33 78 39 79 32 80 34 81 35 82 36 83 37 84 61 85
REMARK SMILES IDX 62 86 70 87 63 88 65 89 71 90 64 91 66 92 67 93 68 94 69 95
REMARK SMILES IDX 46 96 47 97 55 98 48 99 50 100 56 101 49 102 51 103 52 104
REMARK SMILES IDX 53 105 54 106
REMARK H PARENT 92 24 76 59 44 70
REMARK Flexibility Score: inf
ROOT
ATOM      1  C   UNL A   1      33.902  28.324  23.700  1.00  0.00     0.188 C 
ENDROOT
BRANCH   1   2
ATOM      2  C   UNL A   1      33.622  26.912  24.236  1.00  0.00     0.188 C 
BRANCH   2   3
ATOM      3  O   UNL A   1      32.511  26.166  23.763  1.00  0.00    -0.376 OA
BRANCH   3   4
ATOM      4  C   UNL A   1      32.651  24.784  23.447  1.00  0.00     0.202 C 
BRANCH   4   5
ATOM      5  C   UNL A   1      33.968  24.157  22.944  1.00  0.00     0.261 C 
BRANCH   5   6
ATOM      6  O   UNL A   1      34.498  23.105  23.761  1.00  0.00    -0.462 OA
BRANCH   6   7
ATOM      7  C   UNL A   1      35.763  22.686  23.504  1.00  0.00     0.330 C 
ATOM      8  O   UNL A   1      36.446  23.109  22.575  1.00  0.00    -0.250 OA
BRANCH   7   9
ATOM      9  C   UNL A   1      36.261  21.666  24.531  1.00  0.00     0.213 C 
ATOM     10  C   UNL A   1      35.159  21.080  25.420  1.00  0.00     0.046 C 
BRANCH   9  11
ATOM     11  N   UNL A   1      37.438  22.165  25.247  1.00  0.00    -0.258 N 
ATOM     12  C   UNL A   1      37.610  23.341  25.928  1.00  0.00     0.110 A 
ATOM     13  N   UNL A   1      38.488  21.346  25.390  1.00  0.00    -0.167 NA
ATOM     14  C   UNL A   1      38.830  23.248  26.563  1.00  0.00     0.056 A 
ATOM     15  C   UNL A   1      39.340  21.974  26.212  1.00  0.00     0.150 A 
BRANCH  15  16
ATOM     16  C   UNL A   1      40.538  21.294  26.735  1.00  0.00     0.274 C 
ATOM     17  O   UNL A   1      40.446  20.395  27.572  1.00  0.00    -0.267 OA
ATOM     18  N   UNL A   1      41.762  21.651  26.154  1.00  0.00    -0.326 N 
ATOM     19  C   UNL A   1      42.803  20.641  26.134  1.00  0.00     0.181 C 
ATOM     20  C   UNL A   1      42.168  23.057  26.114  1.00  0.00     0.181 C 
ATOM     21  C   UNL A   1      44.060  21.019  25.328  1.00  0.00     0.284 C 
ATOM     22  C   UNL A   1      43.426  23.341  25.276  1.00  0.00     0.284 C 
ATOM     23  N   UNL A   1      44.540  22.400  25.456  1.00  0.00    -0.328 N 
ATOM     24  H   UNL A   1      45.190  22.553  24.685  1.00  0.00     0.348 HD
BRANCH  23  25
ATOM     25  C   UNL A   1      45.461  22.684  26.561  1.00  0.00     0.299 C 
BRANCH  25  26
ATOM     26  C   UNL A   1      44.998  23.653  27.624  1.00  0.00     0.009 A 
ATOM     27  C   UNL A   1      44.415  23.193  28.816  1.00  0.00     0.010 A 
ATOM     28  C   UNL A   1      45.200  25.031  27.467  1.00  0.00     0.048 A 
ATOM     29  C   UNL A   1      44.156  24.075  29.870  1.00  0.00     0.004 A 
ATOM     30  C   UNL A   1      44.966  25.896  28.530  1.00  0.00     0.123 A 
ATOM     31  C   UNL A   1      44.463  25.427  29.736  1.00  0.00     0.039 A 
ATOM     32  F   UNL A   1      45.269  27.195  28.398  1.00  0.00    -0.207 F 
ENDBRANCH  25  26
ENDBRANCH  23  25
ENDBRANCH  15  16
ENDBRANCH   9  11
ENDBRANCH   7   9
ENDBRANCH   6   7
ENDBRANCH   5   6
ENDBRANCH   4   5
ENDBRANCH   3   4
ENDBRANCH   2   3
ENDBRANCH   1   2
BRANCH   1  33
ATOM     33  O   UNL A   1      32.987  29.313  24.124  1.00  0.00    -0.377 OA
BRANCH  33  34
ATOM     34  C   UNL A   1      32.881  29.568  25.518  1.00  0.00     0.188 C 
BRANCH  34  35
ATOM     35  C   UNL A   1      31.850  30.598  26.025  1.00  0.00     0.188 C 
BRANCH  35  36
ATOM     36  O   UNL A   1      32.116  31.120  27.321  1.00  0.00    -0.376 OA
BRANCH  36  37
ATOM     37  C   UNL A   1      33.163  32.069  27.467  1.00  0.00     0.202 C 
BRANCH  37  38
ATOM     38  C   UNL A   1      32.779  33.558  27.489  1.00  0.00     0.261 C 
BRANCH  38  39
ATOM     39  O   UNL A   1      32.433  34.110  28.769  1.00  0.00    -0.460 OA
BRANCH  39  40
ATOM     40  C   UNL A   1      33.277  35.014  29.317  1.00  0.00     0.338 C 
ATOM     41  O   UNL A   1      33.053  36.183  29.535  1.00  0.00    -0.246 OA
BRANCH  40  42
ATOM     42  C   UNL A   1      34.467  34.277  29.803  1.00  0.00     0.060 A 
ATOM     43  C   UNL A   1      34.294  33.297  30.788  1.00  0.00     0.016 A 
ATOM     44  C   UNL A   1      35.737  34.555  29.294  1.00  0.00     0.016 A 
ATOM     45  C   UNL A   1      35.401  32.623  31.303  1.00  0.00     0.010 A 
ATOM     46  C   UNL A   1      36.848  33.893  29.826  1.00  0.00     0.010 A 
ATOM     47  C   UNL A   1      36.687  32.953  30.861  1.00  0.00    -0.014 A 
BRANCH  47  48
ATOM     48  C   UNL A   1      37.870  32.470  31.615  1.00  0.00     0.031 A 
ATOM     49  C   UNL A   1      38.703  31.373  31.008  1.00  0.00     0.074 A 
ATOM     50  C   UNL A   1      38.204  32.992  32.808  1.00  0.00     0.049 A 
ATOM     51  N   UNL A   1      39.748  30.758  31.497  1.00  0.00    -0.248 NA
ATOM     52  C   UNL A   1      38.301  30.906  29.670  1.00  0.00     0.031 C 
ATOM     53  C   UNL A   1      37.487  34.066  33.493  1.00  0.00     0.029 A 
ATOM     54  N   UNL A   1      39.224  32.664  33.667  1.00  0.00    -0.354 N 
ATOM     55  C   UNL A   1      40.110  29.813  30.544  1.00  0.00     0.074 A 
ATOM     56  C   UNL A   1      39.165  29.926  29.455  1.00  0.00     0.031 C 
ATOM     57  C   UNL A   1      38.069  34.284  34.685  1.00  0.00     0.029 A 
ATOM     58  C   UNL A   1      39.178  33.347  34.859  1.00  0.00     0.049 A 
ATOM     59  H   UNL A   1      39.920  32.003  33.450  1.00  0.00     0.167 HD
ATOM     60  C   UNL A   1      41.142  28.938  30.566  1.00  0.00     0.034 A 
ATOM     61  C   UNL A   1      39.927  33.210  35.973  1.00  0.00     0.034 A 
ATOM     62  C   UNL A   1      42.084  28.832  31.645  1.00  0.00     0.049 A 
ATOM     63  C   UNL A   1      41.047  32.199  35.990  1.00  0.00     0.074 A 
ATOM     64  C   UNL A   1      43.186  28.002  31.745  1.00  0.00     0.029 A 
ATOM     65  N   UNL A   1      42.028  29.565  32.819  1.00  0.00    -0.354 N 
ATOM     66  N   UNL A   1      41.440  31.385  35.040  1.00  0.00    -0.248 NA
ATOM     67  C   UNL A   1      41.847  32.113  37.220  1.00  0.00     0.031 C 
ATOM     68  C   UNL A   1      43.774  28.205  32.998  1.00  0.00     0.029 A 
ATOM     69  C   UNL A   1      43.066  29.197  33.658  1.00  0.00     0.049 A 
ATOM     70  H   UNL A   1      41.349  30.247  33.028  1.00  0.00     0.167 HD
ATOM     71  C   UNL A   1      42.555  30.719  35.544  1.00  0.00     0.074 A 
ATOM     72  C   UNL A   1      42.784  31.241  36.875  1.00  0.00     0.031 C 
ATOM     73  C   UNL A   1      43.314  29.758  34.961  1.00  0.00     0.034 A 
BRANCH  60  74
ATOM     74  C   UNL A   1      41.312  28.030  29.375  1.00  0.00     0.023 A 
ATOM     75  C   UNL A   1      40.643  26.789  29.339  1.00  0.00     0.012 A 
ATOM     76  C   UNL A   1      42.094  28.427  28.274  1.00  0.00     0.148 A 
ATOM     77  C   UNL A   1      40.780  25.942  28.239  1.00  0.00     0.002 A 
ATOM     78  C   UNL A   1      42.186  27.600  27.162  1.00  0.00     0.091 A 
ATOM     79  F   UNL A   1      42.740  29.600  28.338  1.00  0.00    -0.205 F 
ATOM     80  C   UNL A   1      41.541  26.352  27.148  1.00  0.00     0.022 A 
BRANCH  78  81
ATOM     81  S   UNL A   1      43.076  28.070  25.674  1.00  0.00     0.127 S 
ATOM     82  O   UNL A   1      43.377  26.765  25.087  1.00  0.00    -0.237 OA
ATOM     83  O   UNL A   1      42.071  28.848  24.951  1.00  0.00    -0.237 OA
ATOM     84  O   UNL A   1      44.233  28.833  26.121  1.00  0.00    -0.744 OA
ENDBRANCH  78  81
ENDBRANCH  60  74
BRANCH  61  85
ATOM     85  C   UNL A   1      39.648  34.055  37.169  1.00  0.00     0.023 A 
ATOM     86  C   UNL A   1      40.011  35.416  37.166  1.00  0.00     0.012 A 
ATOM     87  C   UNL A   1      39.026  33.513  38.310  1.00  0.00     0.148 A 
ATOM     88  C   UNL A   1      39.790  36.213  38.292  1.00  0.00     0.002 A 
ATOM     89  C   UNL A   1      38.755  34.325  39.404  1.00  0.00     0.091 A 
ATOM     90  F   UNL A   1      38.704  32.212  38.299  1.00  0.00    -0.205 F 
ATOM     91  C   UNL A   1      39.153  35.671  39.406  1.00  0.00     0.022 A 
BRANCH  89  92
ATOM     92  S   UNL A   1      37.826  33.747  40.828  1.00  0.00     0.127 S 
ATOM     93  O   UNL A   1      38.652  32.638  41.296  1.00  0.00    -0.237 OA
ATOM     94  O   UNL A   1      37.834  34.930  41.690  1.00  0.00    -0.237 OA
ATOM     95  O   UNL A   1      36.510  33.383  40.319  1.00  0.00    -0.744 OA
ENDBRANCH  89  92
ENDBRANCH  61  85
BRANCH  73  96
ATOM     96  C   UNL A   1      44.502  29.236  35.729  1.00  0.00     0.023 A 
ATOM     97  C   UNL A   1      45.710  29.962  35.746  1.00  0.00     0.012 A 
ATOM     98  C   UNL A   1      44.393  28.060  36.498  1.00  0.00     0.148 A 
ATOM     99  C   UNL A   1      46.800  29.506  36.486  1.00  0.00     0.002 A 
ATOM    100  C   UNL A   1      45.465  27.641  37.276  1.00  0.00     0.091 A 
ATOM    101  F   UNL A   1      43.240  27.375  36.459  1.00  0.00    -0.205 F 
ATOM    102  C   UNL A   1      46.675  28.354  37.260  1.00  0.00     0.022 A 
BRANCH 100 103
ATOM    103  S   UNL A   1      45.363  26.227  38.380  1.00  0.00     0.127 S 
ATOM    104  O   UNL A   1      45.202  25.123  37.435  1.00  0.00    -0.237 OA
ATOM    105  O   UNL A   1      46.661  26.269  39.054  1.00  0.00    -0.237 OA
ATOM    106  O   UNL A   1      44.221  26.476  39.249  1.00  0.00    -0.744 OA
ENDBRANCH 100 103
ENDBRANCH  73  96
ENDBRANCH  47  48
ENDBRANCH  40  42
ENDBRANCH  39  40
ENDBRANCH  38  39
ENDBRANCH  37  38
ENDBRANCH  36  37
ENDBRANCH  35  36
ENDBRANCH  34  35
ENDBRANCH  33  34
ENDBRANCH   1  33
TORSDOF 27
ENDMDL
MODEL 2
REMARK VINA RESULT:      -8.2      3.702     10.509
REMARK SMILES C[C@@H](C(=O)OCCOCCOCCOCCOC(=O)c1ccc(-c2c3nc(c(-c4cccc(S(=O)(=O)[O-])c4F)c4ccc([nH]4)c(-c4cccc(S(=O)(=O)[O-])c4F)c4nc(c(-c5cccc(S(=O)(=O)[O-])c5F)c5ccc2[nH]5)C=C4)C=C3)cc1)n1ccc(C(=O)N2CC[NH+](Cc3cccc(F)c3)CC2)n1
REMARK SMILES IDX 10 1 9 2 8 3 7 4 6 5 5 6 3 7 4 8 2 9 1 10 83 11 84 12 103 13
REMARK SMILES IDX 85 14 86 15 87 16 88 17 89 18 90 19 102 20 91 21 101 22
REMARK SMILES IDX 92 23 93 25 94 26 95 27 100 28 96 29 98 30 97 31 99 32 11 33
REMARK SMILES IDX 12 34 13 35 14 36 15 37 16 38 17 39 18 40 19 41 20 42 21 43
REMARK SMILES IDX 82 44 22 45 81 46 23 47 24 48 25 49 75 50 26 51 80 52 74 53
REMARK SMILES IDX 76 54 27 55 79 56 73 57 72 58 28 60 60 61 40 62 59 63 41 64
REMARK SMILES IDX 44 65 58 66 77 67 42 68 43 69 57 71 78 72 45 73 29 74 30 75
REMARK SMILES IDX 38 76 31 77 33 78 39 79 32 80 34 81 35 82 36 83 37 84 61 85
REMARK SMILES IDX 62 86 70 87 63 88 65 89 71 90 64 91 66 92 67 93 68 94 69 95
REMARK SMILES IDX 46 96 47 97 55 98 48 99 50 100 56 101 49 102 51 103 52 104
REMARK SMILES IDX 53 105 54 106
REMARK H PARENT 92 24 76 59 44 70
REMARK Flexibility Score: inf
ROOT
ATOM      1  C   UNL A   1      33.369  23.905  26.477  1.00  0.00     0.188 C 
ENDROOT
BRANCH   1   2
ATOM      2  C   UNL A   1      34.017  22.744  27.246  1.00  0.00     0.188 C 
BRANCH   2   3
ATOM      3  O   UNL A   1      34.701  21.710  26.555  1.00  0.00    -0.376 OA
BRANCH   3   4
ATOM      4  C   UNL A   1      34.723  21.685  25.130  1.00  0.00     0.202 C 
BRANCH   4   5
ATOM      5  C   UNL A   1      33.732  20.863  24.281  1.00  0.00     0.261 C 
BRANCH   5   6
ATOM      6  O   UNL A   1      32.458  21.480  24.055  1.00  0.00    -0.462 OA
BRANCH   6   7
ATOM      7  C   UNL A   1      32.380  22.424  23.083  1.00  0.00     0.330 C 
ATOM      8  O   UNL A   1      32.848  22.284  21.957  1.00  0.00    -0.250 OA
BRANCH   7   9
ATOM      9  C   UNL A   1      31.602  23.663  23.533  1.00  0.00     0.213 C 
ATOM     10  C   UNL A   1      30.116  23.642  23.158  1.00  0.00     0.046 C 
BRANCH   9  11
ATOM     11  N   UNL A   1      32.314  24.894  23.178  1.00  0.00    -0.258 N 
ATOM     12  C   UNL A   1      33.550  25.053  22.610  1.00  0.00     0.110 A 
ATOM     13  N   UNL A   1      31.664  26.060  23.297  1.00  0.00    -0.167 NA
ATOM     14  C   UNL A   1      33.677  26.397  22.325  1.00  0.00     0.056 A 
ATOM     15  C   UNL A   1      32.465  26.988  22.757  1.00  0.00     0.150 A 
BRANCH  15  16
ATOM     16  C   UNL A   1      32.001  28.372  22.554  1.00  0.00     0.274 C 
ATOM     17  O   UNL A   1      32.802  29.296  22.401  1.00  0.00    -0.267 OA
ATOM     18  N   UNL A   1      30.617  28.557  22.442  1.00  0.00    -0.326 N 
ATOM     19  C   UNL A   1      30.163  29.679  21.641  1.00  0.00     0.181 C 
ATOM     20  C   UNL A   1      29.727  28.058  23.491  1.00  0.00     0.181 C 
ATOM     21  C   UNL A   1      28.643  29.731  21.400  1.00  0.00     0.284 C 
ATOM     22  C   UNL A   1      28.228  28.140  23.157  1.00  0.00     0.284 C 
ATOM     23  N   UNL A   1      27.779  29.393  22.537  1.00  0.00    -0.328 N 
ATOM     24  H   UNL A   1      26.849  29.222  22.152  1.00  0.00     0.348 HD
BRANCH  23  25
ATOM     25  C   UNL A   1      27.426  30.484  23.451  1.00  0.00     0.299 C 
BRANCH  25  26
ATOM     26  C   UNL A   1      28.433  31.596  23.633  1.00  0.00     0.009 A 
ATOM     27  C   UNL A   1      28.356  32.770  22.867  1.00  0.00     0.010 A 
ATOM     28  C   UNL A   1      29.427  31.503  24.616  1.00  0.00     0.048 A 
ATOM     29  C   UNL A   1      29.172  33.868  23.160  1.00  0.00     0.004 A 
ATOM     30  C   UNL A   1      30.214  32.608  24.919  1.00  0.00     0.123 A 
ATOM     31  C   UNL A   1      30.082  33.796  24.212  1.00  0.00     0.039 A 
ATOM     32  F   UNL A   1      31.083  32.535  25.937  1.00  0.00    -0.207 F 
ENDBRANCH  25  26
ENDBRANCH  23  25
ENDBRANCH  15  16
ENDBRANCH   9  11
ENDBRANCH   7   9
ENDBRANCH   6   7
ENDBRANCH   5   6
ENDBRANCH   4   5
ENDBRANCH   3   4
ENDBRANCH   2   3
ENDBRANCH   1   2
BRANCH   1  33
ATOM     33  O   UNL A   1      34.260  24.929  26.086  1.00  0.00    -0.377 OA
BRANCH  33  34
ATOM     34  C   UNL A   1      33.784  26.268  26.100  1.00  0.00     0.188 C 
BRANCH  34  35
ATOM     35  C   UNL A   1      32.327  26.550  26.520  1.00  0.00     0.188 C 
BRANCH  35  36
ATOM     36  O   UNL A   1      32.179  27.537  27.534  1.00  0.00    -0.376 OA
BRANCH  36  37
ATOM     37  C   UNL A   1      31.808  28.853  27.148  1.00  0.00     0.202 C 
BRANCH  37  38
ATOM     38  C   UNL A   1      32.771  29.627  26.230  1.00  0.00     0.261 C 
BRANCH  38  39
ATOM     39  O   UNL A   1      34.126  29.753  26.688  1.00  0.00    -0.460 OA
BRANCH  39  40
ATOM     40  C   UNL A   1      34.425  30.791  27.502  1.00  0.00     0.338 C 
ATOM     41  O   UNL A   1      33.724  31.744  27.757  1.00  0.00    -0.246 OA
BRANCH  40  42
ATOM     42  C   UNL A   1      35.688  30.461  28.201  1.00  0.00     0.060 A 
ATOM     43  C   UNL A   1      36.899  30.880  27.635  1.00  0.00     0.016 A 
ATOM     44  C   UNL A   1      35.677  29.744  29.399  1.00  0.00     0.016 A 
ATOM     45  C   UNL A   1      38.108  30.540  28.242  1.00  0.00     0.010 A 
ATOM     46  C   UNL A   1      36.890  29.387  29.996  1.00  0.00     0.010 A 
ATOM     47  C   UNL A   1      38.111  29.750  29.397  1.00  0.00    -0.014 A 
BRANCH  47  48
ATOM     48  C   UNL A   1      39.378  29.134  29.862  1.00  0.00     0.031 A 
ATOM     49  C   UNL A   1      40.101  29.777  31.016  1.00  0.00     0.074 A 
ATOM     50  C   UNL A   1      39.877  28.029  29.283  1.00  0.00     0.049 A 
ATOM     51  N   UNL A   1      41.242  29.451  31.565  1.00  0.00    -0.248 NA
ATOM     52  C   UNL A   1      39.448  30.945  31.632  1.00  0.00     0.031 C 
ATOM     53  C   UNL A   1      39.265  27.307  28.170  1.00  0.00     0.029 A 
ATOM     54  N   UNL A   1      41.035  27.337  29.539  1.00  0.00    -0.354 N 
ATOM     55  C   UNL A   1      41.460  30.389  32.567  1.00  0.00     0.074 A 
ATOM     56  C   UNL A   1      40.340  31.305  32.542  1.00  0.00     0.031 C 
ATOM     57  C   UNL A   1      40.073  26.293  27.814  1.00  0.00     0.029 A 
ATOM     58  C   UNL A   1      41.269  26.313  28.653  1.00  0.00     0.049 A 
ATOM     59  H   UNL A   1      41.640  27.555  30.285  1.00  0.00     0.167 HD
ATOM     60  C   UNL A   1      42.492  30.476  33.439  1.00  0.00     0.034 A 
ATOM     61  C   UNL A   1      42.341  25.504  28.517  1.00  0.00     0.034 A 
ATOM     62  C   UNL A   1      43.599  29.562  33.467  1.00  0.00     0.049 A 
ATOM     63  C   UNL A   1      43.499  25.645  29.475  1.00  0.00     0.074 A 
ATOM     64  C   UNL A   1      44.676  29.543  34.336  1.00  0.00     0.029 A 
ATOM     65  N   UNL A   1      43.784  28.515  32.579  1.00  0.00    -0.354 N 
ATOM     66  N   UNL A   1      43.642  26.472  30.483  1.00  0.00    -0.248 NA
ATOM     67  C   UNL A   1      44.626  24.719  29.296  1.00  0.00     0.031 C 
ATOM     68  C   UNL A   1      45.533  28.509  33.947  1.00  0.00     0.029 A 
ATOM     69  C   UNL A   1      44.965  27.852  32.867  1.00  0.00     0.049 A 
ATOM     70  H   UNL A   1      43.168  28.277  31.849  1.00  0.00     0.167 HD
ATOM     71  C   UNL A   1      44.855  26.140  31.080  1.00  0.00     0.074 A 
ATOM     72  C   UNL A   1      45.396  25.024  30.332  1.00  0.00     0.031 C 
ATOM     73  C   UNL A   1      45.469  26.711  32.145  1.00  0.00     0.034 A 
BRANCH  60  74
ATOM     74  C   UNL A   1      42.463  31.598  34.445  1.00  0.00     0.023 A 
ATOM     75  C   UNL A   1      43.309  32.713  34.275  1.00  0.00     0.012 A 
ATOM     76  C   UNL A   1      41.565  31.568  35.528  1.00  0.00     0.148 A 
ATOM     77  C   UNL A   1      43.285  33.766  35.190  1.00  0.00     0.002 A 
ATOM     78  C   UNL A   1      41.514  32.642  36.408  1.00  0.00     0.091 A 
ATOM     79  F   UNL A   1      40.787  30.489  35.685  1.00  0.00    -0.205 F 
ATOM     80  C   UNL A   1      42.381  33.735  36.248  1.00  0.00     0.022 A 
BRANCH  78  81
ATOM     81  S   UNL A   1      40.331  32.736  37.756  1.00  0.00     0.127 S 
ATOM     82  O   UNL A   1      41.141  32.295  38.890  1.00  0.00    -0.237 OA
ATOM     83  O   UNL A   1      39.990  34.158  37.766  1.00  0.00    -0.237 OA
ATOM     84  O   UNL A   1      39.235  31.848  37.393  1.00  0.00    -0.744 OA
ENDBRANCH  78  81
ENDBRANCH  60  74
BRANCH  61  85
ATOM     85  C   UNL A   1      42.373  24.481  27.433  1.00  0.00     0.023 A 
ATOM     86  C   UNL A   1      43.049  24.755  26.229  1.00  0.00     0.012 A 
ATOM     87  C   UNL A   1      41.733  23.236  27.594  1.00  0.00     0.148 A 
ATOM     88  C   UNL A   1      43.058  23.821  25.190  1.00  0.00     0.002 A 
ATOM     89  C   UNL A   1      41.796  22.289  26.580  1.00  0.00     0.091 A 
ATOM     90  F   UNL A   1      41.081  23.002  28.741  1.00  0.00    -0.205 F 
ATOM     91  C   UNL A   1      42.441  22.586  25.369  1.00  0.00     0.022 A 
BRANCH  89  92
ATOM     92  S   UNL A   1      41.142  20.627  26.770  1.00  0.00     0.127 S 
ATOM     93  O   UNL A   1      42.284  19.808  26.373  1.00  0.00    -0.237 OA
ATOM     94  O   UNL A   1      40.824  20.593  28.198  1.00  0.00    -0.237 OA
ATOM     95  O   UNL A   1      39.981  20.558  25.893  1.00  0.00    -0.744 OA
ENDBRANCH  89  92
ENDBRANCH  61  85
BRANCH  73  96
ATOM     96  C   UNL A   1      46.774  26.115  32.612  1.00  0.00     0.023 A 
ATOM     97  C   UNL A   1      47.998  26.666  32.185  1.00  0.00     0.012 A 
ATOM     98  C   UNL A   1      46.781  25.052  33.538  1.00  0.00     0.148 A 
ATOM     99  C   UNL A   1      49.208  26.145  32.643  1.00  0.00     0.002 A 
ATOM    100  C   UNL A   1      47.988  24.575  34.032  1.00  0.00     0.091 A 
ATOM    101  F   UNL A   1      45.606  24.531  33.922  1.00  0.00    -0.205 F 
ATOM    102  C   UNL A   1      49.203  25.109  33.575  1.00  0.00     0.022 A 
BRANCH 100 103
ATOM    103  S   UNL A   1      48.078  23.312  35.307  1.00  0.00     0.127 S 
ATOM    104  O   UNL A   1      47.645  24.054  36.491  1.00  0.00    -0.237 OA
ATOM    105  O   UNL A   1      47.118  22.319  34.825  1.00  0.00    -0.237 OA
ATOM    106  O   UNL A   1      49.461  22.857  35.328  1.00  0.00    -0.744 OA
ENDBRANCH 100 103
ENDBRANCH  73  96
ENDBRANCH  47  48
ENDBRANCH  40  42
ENDBRANCH  39  40
ENDBRANCH  38  39
ENDBRANCH  37  38
ENDBRANCH  36  37
ENDBRANCH  35  36
ENDBRANCH  34  35
ENDBRANCH  33  34
ENDBRANCH   1  33
TORSDOF 27
ENDMDL
MODEL 3
REMARK VINA RESULT:      -7.9      5.371      9.006
REMARK SMILES C[C@@H](C(=O)OCCOCCOCCOCCOC(=O)c1ccc(-c2c3nc(c(-c4cccc(S(=O)(=O)[O-])c4F)c4ccc([nH]4)c(-c4cccc(S(=O)(=O)[O-])c4F)c4nc(c(-c5cccc(S(=O)(=O)[O-])c5F)c5ccc2[nH]5)C=C4)C=C3)cc1)n1ccc(C(=O)N2CC[NH+](Cc3cccc(F)c3)CC2)n1
REMARK SMILES IDX 10 1 9 2 8 3 7 4 6 5 5 6 3 7 4 8 2 9 1 10 83 11 84 12 103 13
REMARK SMILES IDX 85 14 86 15 87 16 88 17 89 18 90 19 102 20 91 21 101 22
REMARK SMILES IDX 92 23 93 25 94 26 95 27 100 28 96 29 98 30 97 31 99 32 11 33
REMARK SMILES IDX 12 34 13 35 14 36 15 37 16 38 17 39 18 40 19 41 20 42 21 43
REMARK SMILES IDX 82 44 22 45 81 46 23 47 24 48 25 49 75 50 26 51 80 52 74 53
REMARK SMILES IDX 76 54 27 55 79 56 73 57 72 58 28 60 60 61 40 62 59 63 41 64
REMARK SMILES IDX 44 65 58 66 77 67 42 68 43 69 57 71 78 72 45 73 29 74 30 75
REMARK SMILES IDX 38 76 31 77 33 78 39 79 32 80 34 81 35 82 36 83 37 84 61 85
REMARK SMILES IDX 62 86 70 87 63 88 65 89 71 90 64 91 66 92 67 93 68 94 69 95
REMARK SMILES IDX 46 96 47 97 55 98 48 99 50 100 56 101 49 102 51 103 52 104
REMARK SMILES IDX 53 105 54 106
REMARK H PARENT 92 24 76 59 44 70
REMARK Flexibility Score: inf
ROOT
ATOM      1  C   UNL A   1      31.058  25.997  25.286  1.00  0.00     0.188 C 
ENDROOT
BRANCH   1   2
ATOM      2  C   UNL A   1      31.836  25.437  26.487  1.00  0.00     0.188 C 
BRANCH   2   3
ATOM      3  O   UNL A   1      31.363  24.297  27.188  1.00  0.00    -0.376 OA
BRANCH   3   4
ATOM      4  C   UNL A   1      31.782  22.990  26.809  1.00  0.00     0.202 C 
BRANCH   4   5
ATOM      5  C   UNL A   1      31.161  22.206  25.634  1.00  0.00     0.261 C 
BRANCH   5   6
ATOM      6  O   UNL A   1      31.690  20.891  25.425  1.00  0.00    -0.462 OA
BRANCH   6   7
ATOM      7  C   UNL A   1      32.453  20.688  24.321  1.00  0.00     0.330 C 
ATOM      8  O   UNL A   1      32.455  21.434  23.347  1.00  0.00    -0.250 OA
BRANCH   7   9
ATOM      9  C   UNL A   1      33.348  19.452  24.448  1.00  0.00     0.213 C 
ATOM     10  C   UNL A   1      32.770  18.346  25.338  1.00  0.00     0.046 C 
BRANCH   9  11
ATOM     11  N   UNL A   1      34.732  19.828  24.744  1.00  0.00    -0.258 N 
ATOM     12  C   UNL A   1      35.855  19.046  24.802  1.00  0.00     0.110 A 
ATOM     13  N   UNL A   1      35.022  21.131  24.869  1.00  0.00    -0.167 NA
ATOM     14  C   UNL A   1      36.923  19.908  24.943  1.00  0.00     0.056 A 
ATOM     15  C   UNL A   1      36.357  21.206  24.964  1.00  0.00     0.150 A 
BRANCH  15  16
ATOM     16  C   UNL A   1      37.051  22.505  24.941  1.00  0.00     0.274 C 
ATOM     17  O   UNL A   1      36.677  23.415  24.199  1.00  0.00    -0.267 OA
ATOM     18  N   UNL A   1      38.080  22.681  25.876  1.00  0.00    -0.326 N 
ATOM     19  C   UNL A   1      38.334  24.034  26.334  1.00  0.00     0.181 C 
ATOM     20  C   UNL A   1      39.181  21.717  25.939  1.00  0.00     0.181 C 
ATOM     21  C   UNL A   1      39.346  24.150  27.489  1.00  0.00     0.284 C 
ATOM     22  C   UNL A   1      40.133  21.903  27.132  1.00  0.00     0.284 C 
ATOM     23  N   UNL A   1      40.531  23.287  27.422  1.00  0.00    -0.328 N 
ATOM     24  H   UNL A   1      40.945  23.291  28.355  1.00  0.00     0.348 HD
BRANCH  23  25
ATOM     25  C   UNL A   1      41.687  23.801  26.681  1.00  0.00     0.299 C 
BRANCH  25  26
ATOM     26  C   UNL A   1      42.869  24.295  27.484  1.00  0.00     0.009 A 
ATOM     27  C   UNL A   1      42.862  24.240  28.887  1.00  0.00     0.010 A 
ATOM     28  C   UNL A   1      44.022  24.760  26.839  1.00  0.00     0.048 A 
ATOM     29  C   UNL A   1      44.020  24.524  29.618  1.00  0.00     0.004 A 
ATOM     30  C   UNL A   1      45.177  25.014  27.570  1.00  0.00     0.123 A 
ATOM     31  C   UNL A   1      45.190  24.881  28.953  1.00  0.00     0.039 A 
ATOM     32  F   UNL A   1      46.302  25.351  26.925  1.00  0.00    -0.207 F 
ENDBRANCH  25  26
ENDBRANCH  23  25
ENDBRANCH  15  16
ENDBRANCH   9  11
ENDBRANCH   7   9
ENDBRANCH   6   7
ENDBRANCH   5   6
ENDBRANCH   4   5
ENDBRANCH   3   4
ENDBRANCH   2   3
ENDBRANCH   1   2
BRANCH   1  33
ATOM     33  O   UNL A   1      31.060  27.406  25.182  1.00  0.00    -0.377 OA
BRANCH  33  34
ATOM     34  C   UNL A   1      32.037  28.127  25.923  1.00  0.00     0.188 C 
BRANCH  34  35
ATOM     35  C   UNL A   1      32.962  29.121  25.191  1.00  0.00     0.188 C 
BRANCH  35  36
ATOM     36  O   UNL A   1      33.254  30.309  25.918  1.00  0.00    -0.376 OA
BRANCH  36  37
ATOM     37  C   UNL A   1      33.995  30.199  27.125  1.00  0.00     0.202 C 
BRANCH  37  38
ATOM     38  C   UNL A   1      34.128  31.458  27.998  1.00  0.00     0.261 C 
BRANCH  38  39
ATOM     39  O   UNL A   1      35.312  31.553  28.804  1.00  0.00    -0.460 OA
BRANCH  39  40
ATOM     40  C   UNL A   1      35.268  32.345  29.901  1.00  0.00     0.338 C 
ATOM     41  O   UNL A   1      34.324  32.521  30.637  1.00  0.00    -0.246 OA
BRANCH  40  42
ATOM     42  C   UNL A   1      36.649  32.807  30.174  1.00  0.00     0.060 A 
ATOM     43  C   UNL A   1      37.545  31.922  30.788  1.00  0.00     0.016 A 
ATOM     44  C   UNL A   1      37.052  34.099  29.831  1.00  0.00     0.016 A 
ATOM     45  C   UNL A   1      38.836  32.345  31.106  1.00  0.00     0.010 A 
ATOM     46  C   UNL A   1      38.339  34.528  30.168  1.00  0.00     0.010 A 
ATOM     47  C   UNL A   1      39.222  33.665  30.842  1.00  0.00    -0.014 A 
BRANCH  47  48
ATOM     48  C   UNL A   1      40.465  34.201  31.450  1.00  0.00     0.031 A 
ATOM     49  C   UNL A   1      40.461  34.511  32.924  1.00  0.00     0.074 A 
ATOM     50  C   UNL A   1      41.574  34.404  30.719  1.00  0.00     0.049 A 
ATOM     51  N   UNL A   1      41.405  35.029  33.665  1.00  0.00    -0.248 NA
ATOM     52  C   UNL A   1      39.224  34.196  33.658  1.00  0.00     0.031 C 
ATOM     53  C   UNL A   1      41.709  34.130  29.290  1.00  0.00     0.029 A 
ATOM     54  N   UNL A   1      42.795  34.918  31.082  1.00  0.00    -0.354 N 
ATOM     55  C   UNL A   1      40.869  35.131  34.942  1.00  0.00     0.074 A 
ATOM     56  C   UNL A   1      39.512  34.634  34.874  1.00  0.00     0.031 C 
ATOM     57  C   UNL A   1      42.933  34.513  28.888  1.00  0.00     0.029 A 
ATOM     58  C   UNL A   1      43.656  35.085  30.023  1.00  0.00     0.049 A 
ATOM     59  H   UNL A   1      43.031  35.146  32.010  1.00  0.00     0.167 HD
ATOM     60  C   UNL A   1      41.454  35.585  36.075  1.00  0.00     0.034 A 
ATOM     61  C   UNL A   1      44.875  35.661  29.972  1.00  0.00     0.034 A 
ATOM     62  C   UNL A   1      42.804  36.071  36.143  1.00  0.00     0.049 A 
ATOM     63  C   UNL A   1      45.492  36.198  31.240  1.00  0.00     0.074 A 
ATOM     64  C   UNL A   1      43.501  36.520  37.251  1.00  0.00     0.029 A 
ATOM     65  N   UNL A   1      43.658  36.191  35.059  1.00  0.00    -0.354 N 
ATOM     66  N   UNL A   1      45.011  36.192  32.460  1.00  0.00    -0.248 NA
ATOM     67  C   UNL A   1      46.834  36.789  31.128  1.00  0.00     0.031 C 
ATOM     68  C   UNL A   1      44.764  36.948  36.829  1.00  0.00     0.029 A 
ATOM     69  C   UNL A   1      44.870  36.721  35.467  1.00  0.00     0.049 A 
ATOM     70  H   UNL A   1      43.435  35.938  34.134  1.00  0.00     0.167 HD
ATOM     71  C   UNL A   1      46.005  36.742  33.265  1.00  0.00     0.074 A 
ATOM     72  C   UNL A   1      47.122  37.051  32.395  1.00  0.00     0.031 C 
ATOM     73  C   UNL A   1      45.992  36.978  34.600  1.00  0.00     0.034 A 
BRANCH  60  74
ATOM     74  C   UNL A   1      40.635  35.567  37.340  1.00  0.00     0.023 A 
ATOM     75  C   UNL A   1      40.119  36.772  37.860  1.00  0.00     0.012 A 
ATOM     76  C   UNL A   1      40.336  34.351  37.984  1.00  0.00     0.148 A 
ATOM     77  C   UNL A   1      39.348  36.770  39.022  1.00  0.00     0.002 A 
ATOM     78  C   UNL A   1      39.528  34.352  39.115  1.00  0.00     0.091 A 
ATOM     79  F   UNL A   1      40.855  33.220  37.488  1.00  0.00    -0.205 F 
ATOM     80  C   UNL A   1      39.044  35.561  39.642  1.00  0.00     0.022 A 
BRANCH  78  81
ATOM     81  S   UNL A   1      39.013  32.843  39.940  1.00  0.00     0.127 S 
ATOM     82  O   UNL A   1      37.932  33.330  40.795  1.00  0.00    -0.237 OA
ATOM     83  O   UNL A   1      38.577  32.014  38.817  1.00  0.00    -0.237 OA
ATOM     84  O   UNL A   1      40.187  32.347  40.644  1.00  0.00    -0.744 OA
ENDBRANCH  78  81
ENDBRANCH  60  74
BRANCH  61  85
ATOM     85  C   UNL A   1      45.602  35.758  28.673  1.00  0.00     0.023 A 
ATOM     86  C   UNL A   1      45.471  36.915  27.881  1.00  0.00     0.012 A 
ATOM     87  C   UNL A   1      46.422  34.706  28.222  1.00  0.00     0.148 A 
ATOM     88  C   UNL A   1      46.117  37.007  26.646  1.00  0.00     0.002 A 
ATOM     89  C   UNL A   1      47.108  34.828  27.020  1.00  0.00     0.091 A 
ATOM     90  F   UNL A   1      46.519  33.606  28.983  1.00  0.00    -0.205 F 
ATOM     91  C   UNL A   1      46.943  35.969  26.221  1.00  0.00     0.022 A 
BRANCH  89  92
ATOM     92  S   UNL A   1      48.291  33.600  26.456  1.00  0.00     0.127 S 
ATOM     93  O   UNL A   1      49.165  33.469  27.617  1.00  0.00    -0.237 OA
ATOM     94  O   UNL A   1      47.426  32.448  26.199  1.00  0.00    -0.237 OA
ATOM     95  O   UNL A   1      48.908  34.166  25.263  1.00  0.00    -0.744 OA
ENDBRANCH  89  92
ENDBRANCH  61  85
BRANCH  73  96
ATOM     96  C   UNL A   1      47.238  37.551  35.228  1.00  0.00     0.023 A 
ATOM     97  C   UNL A   1      48.249  36.694  35.706  1.00  0.00     0.012 A 
ATOM     98  C   UNL A   1      47.438  38.946  35.271  1.00  0.00     0.148 A 
ATOM     99  C   UNL A   1      49.422  37.217  36.251  1.00  0.00     0.002 A 
ATOM    100  C   UNL A   1      48.631  39.458  35.765  1.00  0.00     0.091 A 
ATOM    101  F   UNL A   1      46.458  39.745  34.824  1.00  0.00    -0.205 F 
ATOM    102  C   UNL A   1      49.618  38.597  36.270  1.00  0.00     0.022 A 
BRANCH 100 103
ATOM    103  S   UNL A   1      49.013  41.214  35.737  1.00  0.00     0.127 S 
ATOM    104  O   UNL A   1      50.342  41.238  36.346  1.00  0.00    -0.237 OA
ATOM    105  O   UNL A   1      48.992  41.510  34.304  1.00  0.00    -0.237 OA
ATOM    106  O   UNL A   1      47.963  41.867  36.505  1.00  0.00    -0.744 OA
ENDBRANCH 100 103
ENDBRANCH  73  96
ENDBRANCH  47  48
ENDBRANCH  40  42
ENDBRANCH  39  40
ENDBRANCH  38  39
ENDBRANCH  37  38
ENDBRANCH  36  37
ENDBRANCH  35  36
ENDBRANCH  34  35
ENDBRANCH  33  34
ENDBRANCH   1  33
TORSDOF 27
ENDMDL
