MODEL 1
REMARK VINA RESULT:      -9.2      0.000      0.000
REMARK SMILES O=C(OCCOCCOCCOCCOC(=O)[C@@H](NC(=O)[C@H]1CC[C@@H]2CCCC[C@H]2[NH2+]1)C1CC1)c1ccc(-c2c3nc(c(-c4cccc(S(=O)(=O)[O-])c4F)c4ccc([nH]4)c(-c4cccc(S(=O)(=O)[O-])c4F)c4nc(c(-c5cccc(S(=O)(=O)[O-])c5F)c5ccc2[nH]5)C=C4)C=C3)cc1
REMARK SMILES IDX 8 1 7 2 6 3 5 4 4 5 3 6 2 7 1 8 35 9 36 10 97 11 37 12 96 13
REMARK SMILES IDX 38 14 39 15 40 16 90 17 41 18 95 19 89 20 91 21 42 22 94 23
REMARK SMILES IDX 88 24 87 25 43 27 75 28 55 29 74 30 56 31 59 32 73 33 92 34
REMARK SMILES IDX 57 35 58 36 72 38 93 39 60 40 44 41 45 42 53 43 46 44 48 45
REMARK SMILES IDX 54 46 47 47 49 48 50 49 51 50 52 51 76 52 77 53 85 54 78 55
REMARK SMILES IDX 80 56 86 57 79 58 81 59 82 60 83 61 84 62 61 63 62 64 70 65
REMARK SMILES IDX 63 66 65 67 71 68 64 69 66 70 67 71 68 72 69 73 9 74 10 75
REMARK SMILES IDX 11 76 12 77 13 78 14 79 15 80 16 81 17 82 18 83 19 84 20 85
REMARK SMILES IDX 21 87 22 88 23 89 31 90 24 91 30 92 25 95 29 96 26 97 28 98
REMARK SMILES IDX 27 99 32 100 33 101 34 102
REMARK H PARENT 91 26 59 37 19 86 31 93 31 94
REMARK Flexibility Score: inf
ROOT
ATOM      1  C   UNL A   1      35.571  31.989  27.798  1.00  0.00     0.188 C 
ENDROOT
BRANCH   1   2
ATOM      2  C   UNL A   1      35.494  33.267  28.629  1.00  0.00     0.188 C 
BRANCH   2   3
ATOM      3  O   UNL A   1      34.207  33.371  29.210  1.00  0.00    -0.376 OA
BRANCH   3   4
ATOM      4  C   UNL A   1      33.293  34.363  28.779  1.00  0.00     0.202 C 
BRANCH   4   5
ATOM      5  C   UNL A   1      33.163  35.590  29.663  1.00  0.00     0.261 C 
BRANCH   5   6
ATOM      6  O   UNL A   1      32.610  35.362  30.971  1.00  0.00    -0.460 OA
BRANCH   6   7
ATOM      7  C   UNL A   1      33.189  35.253  32.188  1.00  0.00     0.338 C 
ATOM      8  O   UNL A   1      32.616  35.760  33.151  1.00  0.00    -0.246 OA
BRANCH   7   9
ATOM      9  C   UNL A   1      34.461  34.527  32.447  1.00  0.00     0.060 A 
ATOM     10  C   UNL A   1      34.554  33.226  32.925  1.00  0.00     0.016 A 
ATOM     11  C   UNL A   1      35.647  35.157  32.047  1.00  0.00     0.016 A 
ATOM     12  C   UNL A   1      35.762  32.608  33.163  1.00  0.00     0.010 A 
ATOM     13  C   UNL A   1      36.878  34.513  32.198  1.00  0.00     0.010 A 
ATOM     14  C   UNL A   1      36.930  33.252  32.804  1.00  0.00    -0.014 A 
BRANCH  14  15
ATOM     15  C   UNL A   1      38.181  32.639  33.254  1.00  0.00     0.031 A 
ATOM     16  C   UNL A   1      38.823  31.656  32.332  1.00  0.00     0.074 A 
ATOM     17  C   UNL A   1      38.780  33.080  34.374  1.00  0.00     0.049 A 
ATOM     18  N   UNL A   1      39.859  30.896  32.529  1.00  0.00    -0.248 NA
ATOM     19  C   UNL A   1      38.211  31.515  30.996  1.00  0.00     0.031 C 
ATOM     20  C   UNL A   1      38.280  34.160  35.232  1.00  0.00     0.029 A 
ATOM     21  N   UNL A   1      39.938  32.682  34.978  1.00  0.00    -0.354 N 
ATOM     22  C   UNL A   1      39.968  30.122  31.383  1.00  0.00     0.074 A 
ATOM     23  C   UNL A   1      38.918  30.524  30.479  1.00  0.00     0.031 C 
ATOM     24  C   UNL A   1      39.121  34.323  36.265  1.00  0.00     0.029 A 
ATOM     25  C   UNL A   1      40.155  33.301  36.186  1.00  0.00     0.049 A 
ATOM     26  H   UNL A   1      40.555  32.020  34.590  1.00  0.00     0.167 HD
ATOM     27  C   UNL A   1      40.864  29.144  31.133  1.00  0.00     0.034 A 
ATOM     28  C   UNL A   1      41.048  33.008  37.148  1.00  0.00     0.034 A 
ATOM     29  C   UNL A   1      41.894  28.792  32.067  1.00  0.00     0.049 A 
ATOM     30  C   UNL A   1      41.992  31.870  36.881  1.00  0.00     0.074 A 
ATOM     31  C   UNL A   1      42.848  27.802  31.971  1.00  0.00     0.029 A 
ATOM     32  N   UNL A   1      42.084  29.428  33.289  1.00  0.00    -0.354 N 
ATOM     33  N   UNL A   1      42.090  31.120  35.806  1.00  0.00    -0.248 NA
ATOM     34  C   UNL A   1      42.951  31.539  37.938  1.00  0.00     0.031 C 
ATOM     35  C   UNL A   1      43.590  27.813  33.158  1.00  0.00     0.029 A 
ATOM     36  C   UNL A   1      43.131  28.842  33.969  1.00  0.00     0.049 A 
ATOM     37  H   UNL A   1      41.550  30.187  33.620  1.00  0.00     0.167 HD
ATOM     38  C   UNL A   1      43.136  30.241  36.046  1.00  0.00     0.074 A 
ATOM     39  C   UNL A   1      43.652  30.571  37.363  1.00  0.00     0.031 C 
ATOM     40  C   UNL A   1      43.624  29.245  35.265  1.00  0.00     0.034 A 
BRANCH  27  41
ATOM     41  C   UNL A   1      40.683  28.363  29.861  1.00  0.00     0.023 A 
ATOM     42  C   UNL A   1      39.672  27.386  29.751  1.00  0.00     0.012 A 
ATOM     43  C   UNL A   1      41.574  28.560  28.789  1.00  0.00     0.148 A 
ATOM     44  C   UNL A   1      39.585  26.581  28.615  1.00  0.00     0.002 A 
ATOM     45  C   UNL A   1      41.450  27.789  27.641  1.00  0.00     0.091 A 
ATOM     46  F   UNL A   1      42.552  29.464  28.929  1.00  0.00    -0.205 F 
ATOM     47  C   UNL A   1      40.469  26.788  27.558  1.00  0.00     0.022 A 
BRANCH  45  48
ATOM     48  S   UNL A   1      42.500  28.026  26.205  1.00  0.00     0.127 S 
ATOM     49  O   UNL A   1      42.260  29.437  25.894  1.00  0.00    -0.237 OA
ATOM     50  O   UNL A   1      43.829  27.743  26.752  1.00  0.00    -0.237 OA
ATOM     51  O   UNL A   1      42.040  27.081  25.204  1.00  0.00    -0.744 OA
ENDBRANCH  45  48
ENDBRANCH  27  41
BRANCH  28  52
ATOM     52  C   UNL A   1      41.037  33.758  38.436  1.00  0.00     0.023 A 
ATOM     53  C   UNL A   1      40.257  33.302  39.512  1.00  0.00     0.012 A 
ATOM     54  C   UNL A   1      41.840  34.906  38.611  1.00  0.00     0.148 A 
ATOM     55  C   UNL A   1      40.256  33.986  40.731  1.00  0.00     0.002 A 
ATOM     56  C   UNL A   1      41.881  35.547  39.843  1.00  0.00     0.091 A 
ATOM     57  F   UNL A   1      42.568  35.336  37.570  1.00  0.00    -0.205 F 
ATOM     58  C   UNL A   1      41.076  35.100  40.900  1.00  0.00     0.022 A 
BRANCH  56  59
ATOM     59  S   UNL A   1      43.007  36.905  40.187  1.00  0.00     0.127 S 
ATOM     60  O   UNL A   1      42.825  37.749  39.005  1.00  0.00    -0.237 OA
ATOM     61  O   UNL A   1      42.446  37.453  41.424  1.00  0.00    -0.237 OA
ATOM     62  O   UNL A   1      44.321  36.305  40.336  1.00  0.00    -0.744 OA
ENDBRANCH  56  59
ENDBRANCH  28  52
BRANCH  40  63
ATOM     63  C   UNL A   1      44.801  28.479  35.795  1.00  0.00     0.023 A 
ATOM     64  C   UNL A   1      46.106  28.964  35.595  1.00  0.00     0.012 A 
ATOM     65  C   UNL A   1      44.590  27.333  36.586  1.00  0.00     0.148 A 
ATOM     66  C   UNL A   1      47.194  28.302  36.159  1.00  0.00     0.002 A 
ATOM     67  C   UNL A   1      45.672  26.716  37.194  1.00  0.00     0.091 A 
ATOM     68  F   UNL A   1      43.336  26.885  36.741  1.00  0.00    -0.205 F 
ATOM     69  C   UNL A   1      46.975  27.190  36.971  1.00  0.00     0.022 A 
BRANCH  67  70
ATOM     70  S   UNL A   1      45.471  25.356  38.346  1.00  0.00     0.127 S 
ATOM     71  O   UNL A   1      44.482  24.528  37.659  1.00  0.00    -0.237 OA
ATOM     72  O   UNL A   1      46.820  24.788  38.390  1.00  0.00    -0.237 OA
ATOM     73  O   UNL A   1      45.024  25.950  39.599  1.00  0.00    -0.744 OA
ENDBRANCH  67  70
ENDBRANCH  40  63
ENDBRANCH  14  15
ENDBRANCH   7   9
ENDBRANCH   6   7
ENDBRANCH   5   6
ENDBRANCH   4   5
ENDBRANCH   3   4
ENDBRANCH   2   3
ENDBRANCH   1   2
BRANCH   1  74
ATOM     74  O   UNL A   1      36.509  31.018  28.270  1.00  0.00    -0.377 OA
BRANCH  74  75
ATOM     75  C   UNL A   1      36.033  29.673  28.377  1.00  0.00     0.188 C 
BRANCH  75  76
ATOM     76  C   UNL A   1      34.722  29.252  27.681  1.00  0.00     0.188 C 
BRANCH  76  77
ATOM     77  O   UNL A   1      34.903  28.835  26.347  1.00  0.00    -0.376 OA
BRANCH  77  78
ATOM     78  C   UNL A   1      33.749  28.765  25.527  1.00  0.00     0.202 C 
BRANCH  78  79
ATOM     79  C   UNL A   1      32.330  29.026  26.093  1.00  0.00     0.261 C 
BRANCH  79  80
ATOM     80  O   UNL A   1      31.176  28.722  25.277  1.00  0.00    -0.462 OA
BRANCH  80  81
ATOM     81  C   UNL A   1      30.811  29.632  24.342  1.00  0.00     0.329 C 
ATOM     82  O   UNL A   1      30.346  30.734  24.625  1.00  0.00    -0.250 OA
BRANCH  81  83
ATOM     83  C   UNL A   1      30.863  29.107  22.865  1.00  0.00     0.195 C 
BRANCH  83  84
ATOM     84  N   UNL A   1      32.075  28.521  22.240  1.00  0.00    -0.337 N 
ATOM     85  C   UNL A   1      32.793  27.366  22.378  1.00  0.00     0.278 C 
ATOM     86  H   UNL A   1      32.459  29.115  21.555  1.00  0.00     0.164 HD
ATOM     87  O   UNL A   1      33.830  27.269  21.715  1.00  0.00    -0.268 OA
BRANCH  85  88
ATOM     88  C   UNL A   1      32.258  26.245  23.260  1.00  0.00     0.272 C 
ATOM     89  C   UNL A   1      31.536  25.194  22.413  1.00  0.00     0.076 C 
ATOM     90  N   UNL A   1      33.325  25.529  24.006  1.00  0.00    -0.333 N 
ATOM     91  C   UNL A   1      30.782  24.249  23.340  1.00  0.00     0.016 C 
ATOM     92  C   UNL A   1      32.670  24.706  25.029  1.00  0.00     0.186 C 
ATOM     93  H   UNL A   1      33.951  26.201  24.448  1.00  0.00     0.347 HD
ATOM     94  H   UNL A   1      33.875  24.947  23.375  1.00  0.00     0.347 HD
ATOM     95  C   UNL A   1      31.721  23.656  24.399  1.00  0.00     0.048 C 
ATOM     96  C   UNL A   1      33.678  23.980  25.926  1.00  0.00     0.065 C 
ATOM     97  C   UNL A   1      30.918  22.984  25.519  1.00  0.00     0.010 C 
ATOM     98  C   UNL A   1      32.935  23.253  27.052  1.00  0.00     0.006 C 
ATOM     99  C   UNL A   1      31.844  22.314  26.531  1.00  0.00     0.001 C 
ENDBRANCH  85  88
ENDBRANCH  83  84
BRANCH  83 100
ATOM    100  C   UNL A   1      29.640  28.314  22.476  1.00  0.00     0.023 C 
ATOM    101  C   UNL A   1      28.848  27.506  23.481  1.00  0.00     0.007 C 
ATOM    102  C   UNL A   1      28.262  28.760  22.897  1.00  0.00     0.007 C 
ENDBRANCH  83 100
ENDBRANCH  81  83
ENDBRANCH  80  81
ENDBRANCH  79  80
ENDBRANCH  78  79
ENDBRANCH  77  78
ENDBRANCH  76  77
ENDBRANCH  75  76
ENDBRANCH  74  75
ENDBRANCH   1  74
TORSDOF 26
ENDMDL
MODEL 2
REMARK VINA RESULT:      -8.4      7.047     17.430
REMARK SMILES O=C(OCCOCCOCCOCCOC(=O)[C@@H](NC(=O)[C@H]1CC[C@@H]2CCCC[C@H]2[NH2+]1)C1CC1)c1ccc(-c2c3nc(c(-c4cccc(S(=O)(=O)[O-])c4F)c4ccc([nH]4)c(-c4cccc(S(=O)(=O)[O-])c4F)c4nc(c(-c5cccc(S(=O)(=O)[O-])c5F)c5ccc2[nH]5)C=C4)C=C3)cc1
REMARK SMILES IDX 8 1 7 2 6 3 5 4 4 5 3 6 2 7 1 8 35 9 36 10 97 11 37 12 96 13
REMARK SMILES IDX 38 14 39 15 40 16 90 17 41 18 95 19 89 20 91 21 42 22 94 23
REMARK SMILES IDX 88 24 87 25 43 27 75 28 55 29 74 30 56 31 59 32 73 33 92 34
REMARK SMILES IDX 57 35 58 36 72 38 93 39 60 40 44 41 45 42 53 43 46 44 48 45
REMARK SMILES IDX 54 46 47 47 49 48 50 49 51 50 52 51 76 52 77 53 85 54 78 55
REMARK SMILES IDX 80 56 86 57 79 58 81 59 82 60 83 61 84 62 61 63 62 64 70 65
REMARK SMILES IDX 63 66 65 67 71 68 64 69 66 70 67 71 68 72 69 73 9 74 10 75
REMARK SMILES IDX 11 76 12 77 13 78 14 79 15 80 16 81 17 82 18 83 19 84 20 85
REMARK SMILES IDX 21 87 22 88 23 89 31 90 24 91 30 92 25 95 29 96 26 97 28 98
REMARK SMILES IDX 27 99 32 100 33 101 34 102
REMARK H PARENT 91 26 59 37 19 86 31 93 31 94
REMARK Flexibility Score: inf
ROOT
ATOM      1  C   UNL A   1      51.855  22.682  39.851  1.00  0.00     0.188 C 
ENDROOT
BRANCH   1   2
ATOM      2  C   UNL A   1      51.792  23.852  38.872  1.00  0.00     0.188 C 
BRANCH   2   3
ATOM      3  O   UNL A   1      50.627  23.735  38.077  1.00  0.00    -0.376 OA
BRANCH   3   4
ATOM      4  C   UNL A   1      50.488  24.477  36.878  1.00  0.00     0.202 C 
BRANCH   4   5
ATOM      5  C   UNL A   1      49.675  25.755  36.967  1.00  0.00     0.261 C 
BRANCH   5   6
ATOM      6  O   UNL A   1      48.602  25.881  36.017  1.00  0.00    -0.460 OA
BRANCH   6   7
ATOM      7  C   UNL A   1      47.341  25.394  36.012  1.00  0.00     0.338 C 
ATOM      8  O   UNL A   1      47.116  24.358  36.636  1.00  0.00    -0.246 OA
BRANCH   7   9
ATOM      9  C   UNL A   1      46.194  26.049  35.329  1.00  0.00     0.060 A 
ATOM     10  C   UNL A   1      44.871  25.630  35.409  1.00  0.00     0.016 A 
ATOM     11  C   UNL A   1      46.452  27.259  34.670  1.00  0.00     0.016 A 
ATOM     12  C   UNL A   1      43.850  26.267  34.740  1.00  0.00     0.010 A 
ATOM     13  C   UNL A   1      45.415  27.968  34.059  1.00  0.00     0.010 A 
ATOM     14  C   UNL A   1      44.119  27.438  34.058  1.00  0.00    -0.014 A 
BRANCH  14  15
ATOM     15  C   UNL A   1      43.047  27.963  33.210  1.00  0.00     0.031 A 
ATOM     16  C   UNL A   1      42.144  28.985  33.817  1.00  0.00     0.074 A 
ATOM     17  C   UNL A   1      43.003  27.640  31.906  1.00  0.00     0.049 A 
ATOM     18  N   UNL A   1      41.065  29.523  33.332  1.00  0.00    -0.248 NA
ATOM     19  C   UNL A   1      42.516  29.473  35.160  1.00  0.00     0.031 C 
ATOM     20  C   UNL A   1      43.964  26.772  31.216  1.00  0.00     0.029 A 
ATOM     21  N   UNL A   1      42.125  28.010  30.928  1.00  0.00    -0.354 N 
ATOM     22  C   UNL A   1      40.578  30.341  34.342  1.00  0.00     0.074 A 
ATOM     23  C   UNL A   1      41.494  30.258  35.454  1.00  0.00     0.031 C 
ATOM     24  C   UNL A   1      43.606  26.660  29.927  1.00  0.00     0.029 A 
ATOM     25  C   UNL A   1      42.349  27.369  29.732  1.00  0.00     0.049 A 
ATOM     26  H   UNL A   1      41.404  28.667  31.064  1.00  0.00     0.167 HD
ATOM     27  C   UNL A   1      39.445  31.074  34.332  1.00  0.00     0.034 A 
ATOM     28  C   UNL A   1      41.572  27.307  28.637  1.00  0.00     0.034 A 
ATOM     29  C   UNL A   1      38.575  31.124  33.193  1.00  0.00     0.049 A 
ATOM     30  C   UNL A   1      40.280  28.074  28.671  1.00  0.00     0.074 A 
ATOM     31  C   UNL A   1      37.377  31.791  33.047  1.00  0.00     0.029 A 
ATOM     32  N   UNL A   1      38.821  30.456  31.998  1.00  0.00    -0.354 N 
ATOM     33  N   UNL A   1      39.802  28.835  29.631  1.00  0.00    -0.248 NA
ATOM     34  C   UNL A   1      39.425  27.990  27.485  1.00  0.00     0.031 C 
ATOM     35  C   UNL A   1      36.877  31.489  31.776  1.00  0.00     0.029 A 
ATOM     36  C   UNL A   1      37.788  30.678  31.112  1.00  0.00     0.049 A 
ATOM     37  H   UNL A   1      39.616  29.906  31.813  1.00  0.00     0.167 HD
ATOM     38  C   UNL A   1      38.601  29.340  29.157  1.00  0.00     0.074 A 
ATOM     39  C   UNL A   1      38.438  28.813  27.814  1.00  0.00     0.031 C 
ATOM     40  C   UNL A   1      37.704  30.154  29.770  1.00  0.00     0.034 A 
BRANCH  27  41
ATOM     41  C   UNL A   1      39.075  31.772  35.611  1.00  0.00     0.023 A 
ATOM     42  C   UNL A   1      38.215  31.159  36.547  1.00  0.00     0.012 A 
ATOM     43  C   UNL A   1      39.536  33.081  35.851  1.00  0.00     0.148 A 
ATOM     44  C   UNL A   1      37.779  31.859  37.672  1.00  0.00     0.002 A 
ATOM     45  C   UNL A   1      39.137  33.752  36.998  1.00  0.00     0.091 A 
ATOM     46  F   UNL A   1      40.319  33.660  34.930  1.00  0.00    -0.205 F 
ATOM     47  C   UNL A   1      38.246  33.151  37.901  1.00  0.00     0.022 A 
BRANCH  45  48
ATOM     48  S   UNL A   1      39.736  35.394  37.410  1.00  0.00     0.127 S 
ATOM     49  O   UNL A   1      38.925  35.717  38.585  1.00  0.00    -0.237 OA
ATOM     50  O   UNL A   1      41.149  35.136  37.699  1.00  0.00    -0.237 OA
ATOM     51  O   UNL A   1      39.495  36.219  36.240  1.00  0.00    -0.744 OA
ENDBRANCH  45  48
ENDBRANCH  27  41
BRANCH  28  52
ATOM     52  C   UNL A   1      41.973  26.459  27.479  1.00  0.00     0.023 A 
ATOM     53  C   UNL A   1      42.720  27.010  26.425  1.00  0.00     0.012 A 
ATOM     54  C   UNL A   1      41.652  25.084  27.445  1.00  0.00     0.148 A 
ATOM     55  C   UNL A   1      43.120  26.218  25.345  1.00  0.00     0.002 A 
ATOM     56  C   UNL A   1      42.102  24.289  26.398  1.00  0.00     0.091 A 
ATOM     57  F   UNL A   1      40.926  24.576  28.452  1.00  0.00    -0.205 F 
ATOM     58  C   UNL A   1      42.821  24.857  25.337  1.00  0.00     0.022 A 
BRANCH  56  59
ATOM     59  S   UNL A   1      41.878  22.506  26.376  1.00  0.00     0.127 S 
ATOM     60  O   UNL A   1      42.571  22.134  25.142  1.00  0.00    -0.237 OA
ATOM     61  O   UNL A   1      42.559  22.103  27.608  1.00  0.00    -0.237 OA
ATOM     62  O   UNL A   1      40.442  22.285  26.383  1.00  0.00    -0.744 OA
ENDBRANCH  56  59
ENDBRANCH  28  52
BRANCH  40  63
ATOM     63  C   UNL A   1      36.497  30.558  28.973  1.00  0.00     0.023 A 
ATOM     64  C   UNL A   1      35.642  29.576  28.442  1.00  0.00     0.012 A 
ATOM     65  C   UNL A   1      36.165  31.921  28.851  1.00  0.00     0.148 A 
ATOM     66  C   UNL A   1      34.476  29.948  27.777  1.00  0.00     0.002 A 
ATOM     67  C   UNL A   1      34.974  32.280  28.242  1.00  0.00     0.091 A 
ATOM     68  F   UNL A   1      37.012  32.833  29.352  1.00  0.00    -0.205 F 
ATOM     69  C   UNL A   1      34.135  31.297  27.692  1.00  0.00     0.022 A 
BRANCH  67  70
ATOM     70  S   UNL A   1      34.400  33.980  28.195  1.00  0.00     0.127 S 
ATOM     71  O   UNL A   1      34.731  34.442  29.541  1.00  0.00    -0.237 OA
ATOM     72  O   UNL A   1      35.225  34.553  27.131  1.00  0.00    -0.237 OA
ATOM     73  O   UNL A   1      32.977  33.918  27.889  1.00  0.00    -0.744 OA
ENDBRANCH  67  70
ENDBRANCH  40  63
ENDBRANCH  14  15
ENDBRANCH   7   9
ENDBRANCH   6   7
ENDBRANCH   5   6
ENDBRANCH   4   5
ENDBRANCH   3   4
ENDBRANCH   2   3
ENDBRANCH   1   2
BRANCH   1  74
ATOM     74  O   UNL A   1      51.173  21.501  39.423  1.00  0.00    -0.377 OA
BRANCH  74  75
ATOM     75  C   UNL A   1      50.329  20.868  40.391  1.00  0.00     0.188 C 
BRANCH  75  76
ATOM     76  C   UNL A   1      49.194  19.925  39.939  1.00  0.00     0.188 C 
BRANCH  76  77
ATOM     77  O   UNL A   1      48.104  20.600  39.353  1.00  0.00    -0.376 OA
BRANCH  77  78
ATOM     78  C   UNL A   1      46.804  20.123  39.661  1.00  0.00     0.202 C 
BRANCH  78  79
ATOM     79  C   UNL A   1      46.265  18.794  39.075  1.00  0.00     0.261 C 
BRANCH  79  80
ATOM     80  O   UNL A   1      45.201  18.097  39.762  1.00  0.00    -0.462 OA
BRANCH  80  81
ATOM     81  C   UNL A   1      45.544  17.061  40.564  1.00  0.00     0.329 C 
ATOM     82  O   UNL A   1      45.964  15.990  40.131  1.00  0.00    -0.250 OA
BRANCH  81  83
ATOM     83  C   UNL A   1      45.201  17.266  42.081  1.00  0.00     0.195 C 
BRANCH  83  84
ATOM     84  N   UNL A   1      46.202  17.180  43.172  1.00  0.00    -0.337 N 
ATOM     85  C   UNL A   1      46.578  16.240  44.091  1.00  0.00     0.278 C 
ATOM     86  H   UNL A   1      46.726  18.009  43.257  1.00  0.00     0.164 HD
ATOM     87  O   UNL A   1      47.425  16.577  44.923  1.00  0.00    -0.268 OA
BRANCH  85  88
ATOM     88  C   UNL A   1      46.007  14.829  44.005  1.00  0.00     0.272 C 
ATOM     89  C   UNL A   1      46.784  13.880  44.920  1.00  0.00     0.076 C 
ATOM     90  N   UNL A   1      44.583  14.749  44.422  1.00  0.00    -0.333 N 
ATOM     91  C   UNL A   1      46.376  12.447  44.602  1.00  0.00     0.016 C 
ATOM     92  C   UNL A   1      44.076  13.437  44.006  1.00  0.00     0.186 C 
ATOM     93  H   UNL A   1      44.047  15.489  43.971  1.00  0.00     0.347 HD
ATOM     94  H   UNL A   1      44.498  14.864  45.432  1.00  0.00     0.347 HD
ATOM     95  C   UNL A   1      44.853  12.281  44.685  1.00  0.00     0.048 C 
ATOM     96  C   UNL A   1      42.583  13.267  44.307  1.00  0.00     0.065 C 
ATOM     97  C   UNL A   1      44.418  10.955  44.048  1.00  0.00     0.010 C 
ATOM     98  C   UNL A   1      42.089  11.937  43.725  1.00  0.00     0.006 C 
ATOM     99  C   UNL A   1      42.914  10.740  44.203  1.00  0.00     0.001 C 
ENDBRANCH  85  88
ENDBRANCH  83  84
BRANCH  83 100
ATOM    100  C   UNL A   1      44.262  18.423  42.322  1.00  0.00     0.023 C 
ATOM    101  C   UNL A   1      43.764  18.783  43.706  1.00  0.00     0.007 C 
ATOM    102  C   UNL A   1      44.742  19.681  43.002  1.00  0.00     0.007 C 
ENDBRANCH  83 100
ENDBRANCH  81  83
ENDBRANCH  80  81
ENDBRANCH  79  80
ENDBRANCH  78  79
ENDBRANCH  77  78
ENDBRANCH  76  77
ENDBRANCH  75  76
ENDBRANCH  74  75
ENDBRANCH   1  74
TORSDOF 26
ENDMDL
MODEL 3
REMARK VINA RESULT:      -8.3      2.605      7.417
REMARK SMILES O=C(OCCOCCOCCOCCOC(=O)[C@@H](NC(=O)[C@H]1CC[C@@H]2CCCC[C@H]2[NH2+]1)C1CC1)c1ccc(-c2c3nc(c(-c4cccc(S(=O)(=O)[O-])c4F)c4ccc([nH]4)c(-c4cccc(S(=O)(=O)[O-])c4F)c4nc(c(-c5cccc(S(=O)(=O)[O-])c5F)c5ccc2[nH]5)C=C4)C=C3)cc1
REMARK SMILES IDX 8 1 7 2 6 3 5 4 4 5 3 6 2 7 1 8 35 9 36 10 97 11 37 12 96 13
REMARK SMILES IDX 38 14 39 15 40 16 90 17 41 18 95 19 89 20 91 21 42 22 94 23
REMARK SMILES IDX 88 24 87 25 43 27 75 28 55 29 74 30 56 31 59 32 73 33 92 34
REMARK SMILES IDX 57 35 58 36 72 38 93 39 60 40 44 41 45 42 53 43 46 44 48 45
REMARK SMILES IDX 54 46 47 47 49 48 50 49 51 50 52 51 76 52 77 53 85 54 78 55
REMARK SMILES IDX 80 56 86 57 79 58 81 59 82 60 83 61 84 62 61 63 62 64 70 65
REMARK SMILES IDX 63 66 65 67 71 68 64 69 66 70 67 71 68 72 69 73 9 74 10 75
REMARK SMILES IDX 11 76 12 77 13 78 14 79 15 80 16 81 17 82 18 83 19 84 20 85
REMARK SMILES IDX 21 87 22 88 23 89 31 90 24 91 30 92 25 95 29 96 26 97 28 98
REMARK SMILES IDX 27 99 32 100 33 101 34 102
REMARK H PARENT 91 26 59 37 19 86 31 93 31 94
REMARK Flexibility Score: inf
ROOT
ATOM      1  C   UNL A   1      35.861  32.075  27.658  1.00  0.00     0.188 C 
ENDROOT
BRANCH   1   2
ATOM      2  C   UNL A   1      35.923  33.299  28.570  1.00  0.00     0.188 C 
BRANCH   2   3
ATOM      3  O   UNL A   1      34.726  33.385  29.320  1.00  0.00    -0.376 OA
BRANCH   3   4
ATOM      4  C   UNL A   1      33.624  34.138  28.845  1.00  0.00     0.202 C 
BRANCH   4   5
ATOM      5  C   UNL A   1      33.314  35.423  29.590  1.00  0.00     0.261 C 
BRANCH   5   6
ATOM      6  O   UNL A   1      32.510  35.282  30.774  1.00  0.00    -0.460 OA
BRANCH   6   7
ATOM      7  C   UNL A   1      32.831  34.967  32.049  1.00  0.00     0.338 C 
ATOM      8  O   UNL A   1      31.969  35.102  32.915  1.00  0.00    -0.246 OA
BRANCH   7   9
ATOM      9  C   UNL A   1      34.152  34.430  32.471  1.00  0.00     0.060 A 
ATOM     10  C   UNL A   1      34.453  33.083  32.634  1.00  0.00     0.016 A 
ATOM     11  C   UNL A   1      35.208  35.347  32.576  1.00  0.00     0.016 A 
ATOM     12  C   UNL A   1      35.691  32.644  33.044  1.00  0.00     0.010 A 
ATOM     13  C   UNL A   1      36.494  34.912  32.905  1.00  0.00     0.010 A 
ATOM     14  C   UNL A   1      36.717  33.558  33.185  1.00  0.00    -0.014 A 
BRANCH  14  15
ATOM     15  C   UNL A   1      37.950  33.070  33.807  1.00  0.00     0.031 A 
ATOM     16  C   UNL A   1      38.022  33.122  35.297  1.00  0.00     0.074 A 
ATOM     17  C   UNL A   1      38.885  32.463  33.056  1.00  0.00     0.049 A 
ATOM     18  N   UNL A   1      39.025  32.861  36.082  1.00  0.00    -0.248 NA
ATOM     19  C   UNL A   1      36.787  33.520  35.999  1.00  0.00     0.031 C 
ATOM     20  C   UNL A   1      38.793  32.233  31.610  1.00  0.00     0.029 A 
ATOM     21  N   UNL A   1      40.090  31.921  33.404  1.00  0.00    -0.354 N 
ATOM     22  C   UNL A   1      38.571  33.151  37.361  1.00  0.00     0.074 A 
ATOM     23  C   UNL A   1      37.196  33.574  37.255  1.00  0.00     0.031 C 
ATOM     24  C   UNL A   1      39.908  31.614  31.193  1.00  0.00     0.029 A 
ATOM     25  C   UNL A   1      40.821  31.494  32.321  1.00  0.00     0.049 A 
ATOM     26  H   UNL A   1      40.404  31.844  34.334  1.00  0.00     0.167 HD
ATOM     27  C   UNL A   1      39.269  33.086  38.515  1.00  0.00     0.034 A 
ATOM     28  C   UNL A   1      42.112  31.125  32.253  1.00  0.00     0.034 A 
ATOM     29  C   UNL A   1      40.634  32.649  38.562  1.00  0.00     0.049 A 
ATOM     30  C   UNL A   1      42.891  31.126  33.538  1.00  0.00     0.074 A 
ATOM     31  C   UNL A   1      41.480  32.566  39.647  1.00  0.00     0.029 A 
ATOM     32  N   UNL A   1      41.354  32.233  37.447  1.00  0.00    -0.354 N 
ATOM     33  N   UNL A   1      42.475  31.418  34.750  1.00  0.00    -0.248 NA
ATOM     34  C   UNL A   1      44.303  30.743  33.459  1.00  0.00     0.031 C 
ATOM     35  C   UNL A   1      42.728  32.138  39.179  1.00  0.00     0.029 A 
ATOM     36  C   UNL A   1      42.643  31.906  37.813  1.00  0.00     0.049 A 
ATOM     37  H   UNL A   1      40.995  32.179  36.532  1.00  0.00     0.167 HD
ATOM     38  C   UNL A   1      43.567  31.231  35.585  1.00  0.00     0.074 A 
ATOM     39  C   UNL A   1      44.657  30.781  34.738  1.00  0.00     0.031 C 
ATOM     40  C   UNL A   1      43.673  31.424  36.924  1.00  0.00     0.034 A 
BRANCH  27  41
ATOM     41  C   UNL A   1      38.580  33.584  39.756  1.00  0.00     0.023 A 
ATOM     42  C   UNL A   1      38.821  34.886  40.242  1.00  0.00     0.012 A 
ATOM     43  C   UNL A   1      37.737  32.720  40.480  1.00  0.00     0.148 A 
ATOM     44  C   UNL A   1      38.274  35.300  41.458  1.00  0.00     0.002 A 
ATOM     45  C   UNL A   1      37.157  33.157  41.664  1.00  0.00     0.091 A 
ATOM     46  F   UNL A   1      37.554  31.474  40.022  1.00  0.00    -0.205 F 
ATOM     47  C   UNL A   1      37.437  34.438  42.163  1.00  0.00     0.022 A 
BRANCH  45  48
ATOM     48  S   UNL A   1      36.015  32.142  42.607  1.00  0.00     0.127 S 
ATOM     49  O   UNL A   1      36.894  31.069  43.076  1.00  0.00    -0.237 OA
ATOM     50  O   UNL A   1      35.579  33.071  43.653  1.00  0.00    -0.237 OA
ATOM     51  O   UNL A   1      34.974  31.734  41.682  1.00  0.00    -0.744 OA
ENDBRANCH  45  48
ENDBRANCH  27  41
BRANCH  28  52
ATOM     52  C   UNL A   1      42.730  30.793  30.938  1.00  0.00     0.023 A 
ATOM     53  C   UNL A   1      43.339  31.800  30.170  1.00  0.00     0.012 A 
ATOM     54  C   UNL A   1      42.756  29.463  30.466  1.00  0.00     0.148 A 
ATOM     55  C   UNL A   1      43.940  31.496  28.946  1.00  0.00     0.002 A 
ATOM     56  C   UNL A   1      43.406  29.157  29.278  1.00  0.00     0.091 A 
ATOM     57  F   UNL A   1      42.158  28.516  31.204  1.00  0.00    -0.205 F 
ATOM     58  C   UNL A   1      43.984  30.175  28.506  1.00  0.00     0.022 A 
BRANCH  56  59
ATOM     59  S   UNL A   1      43.626  27.468  28.705  1.00  0.00     0.127 S 
ATOM     60  O   UNL A   1      45.030  27.474  28.291  1.00  0.00    -0.237 OA
ATOM     61  O   UNL A   1      43.349  26.701  29.922  1.00  0.00    -0.237 OA
ATOM     62  O   UNL A   1      42.656  27.278  27.642  1.00  0.00    -0.744 OA
ENDBRANCH  56  59
ENDBRANCH  28  52
BRANCH  40  63
ATOM     63  C   UNL A   1      44.996  31.099  37.555  1.00  0.00     0.023 A 
ATOM     64  C   UNL A   1      45.949  32.115  37.758  1.00  0.00     0.012 A 
ATOM     65  C   UNL A   1      45.238  29.801  38.042  1.00  0.00     0.148 A 
ATOM     66  C   UNL A   1      47.141  31.835  38.420  1.00  0.00     0.002 A 
ATOM     67  C   UNL A   1      46.400  29.545  38.754  1.00  0.00     0.091 A 
ATOM     68  F   UNL A   1      44.319  28.851  37.816  1.00  0.00    -0.205 F 
ATOM     69  C   UNL A   1      47.358  30.556  38.932  1.00  0.00     0.022 A 
BRANCH  67  70
ATOM     70  S   UNL A   1      46.705  27.965  39.547  1.00  0.00     0.127 S 
ATOM     71  O   UNL A   1      46.606  27.042  38.418  1.00  0.00    -0.237 OA
ATOM     72  O   UNL A   1      48.059  28.143  40.075  1.00  0.00    -0.237 OA
ATOM     73  O   UNL A   1      45.674  27.818  40.566  1.00  0.00    -0.744 OA
ENDBRANCH  67  70
ENDBRANCH  40  63
ENDBRANCH  14  15
ENDBRANCH   7   9
ENDBRANCH   6   7
ENDBRANCH   5   6
ENDBRANCH   4   5
ENDBRANCH   3   4
ENDBRANCH   2   3
ENDBRANCH   1   2
BRANCH   1  74
ATOM     74  O   UNL A   1      36.355  30.865  28.238  1.00  0.00    -0.377 OA
BRANCH  74  75
ATOM     75  C   UNL A   1      35.385  30.013  28.854  1.00  0.00     0.188 C 
BRANCH  75  76
ATOM     76  C   UNL A   1      34.220  29.431  28.026  1.00  0.00     0.188 C 
BRANCH  76  77
ATOM     77  O   UNL A   1      34.643  28.620  26.954  1.00  0.00    -0.376 OA
BRANCH  77  78
ATOM     78  C   UNL A   1      34.142  28.936  25.665  1.00  0.00     0.202 C 
BRANCH  78  79
ATOM     79  C   UNL A   1      32.872  29.802  25.475  1.00  0.00     0.261 C 
BRANCH  79  80
ATOM     80  O   UNL A   1      31.614  29.156  25.173  1.00  0.00    -0.462 OA
BRANCH  80  81
ATOM     81  C   UNL A   1      30.835  29.717  24.217  1.00  0.00     0.329 C 
ATOM     82  O   UNL A   1      29.998  30.583  24.458  1.00  0.00    -0.250 OA
BRANCH  81  83
ATOM     83  C   UNL A   1      30.957  29.051  22.802  1.00  0.00     0.195 C 
BRANCH  83  84
ATOM     84  N   UNL A   1      32.245  28.630  22.197  1.00  0.00    -0.337 N 
ATOM     85  C   UNL A   1      33.056  27.532  22.273  1.00  0.00     0.278 C 
ATOM     86  H   UNL A   1      32.606  29.315  21.588  1.00  0.00     0.164 HD
ATOM     87  O   UNL A   1      34.128  27.584  21.664  1.00  0.00    -0.268 OA
BRANCH  85  88
ATOM     88  C   UNL A   1      32.582  26.294  23.024  1.00  0.00     0.272 C 
ATOM     89  C   UNL A   1      32.426  25.112  22.064  1.00  0.00     0.076 C 
ATOM     90  N   UNL A   1      33.526  25.857  24.085  1.00  0.00    -0.333 N 
ATOM     91  C   UNL A   1      31.694  23.987  22.785  1.00  0.00     0.016 C 
ATOM     92  C   UNL A   1      32.826  24.874  24.919  1.00  0.00     0.186 C 
ATOM     93  H   UNL A   1      33.807  26.657  24.651  1.00  0.00     0.347 HD
ATOM     94  H   UNL A   1      34.364  25.448  23.673  1.00  0.00     0.347 HD
ATOM     95  C   UNL A   1      32.397  23.630  24.100  1.00  0.00     0.048 C 
ATOM     96  C   UNL A   1      33.674  24.409  26.108  1.00  0.00     0.065 C 
ATOM     97  C   UNL A   1      31.494  22.753  24.977  1.00  0.00     0.010 C 
ATOM     98  C   UNL A   1      32.838  23.494  27.010  1.00  0.00     0.006 C 
ATOM     99  C   UNL A   1      32.218  22.319  26.249  1.00  0.00     0.001 C 
ENDBRANCH  85  88
ENDBRANCH  83  84
BRANCH  83 100
ATOM    100  C   UNL A   1      29.894  28.012  22.544  1.00  0.00     0.023 C 
ATOM    101  C   UNL A   1      29.346  27.127  23.643  1.00  0.00     0.007 C 
ATOM    102  C   UNL A   1      28.485  28.203  23.045  1.00  0.00     0.007 C 
ENDBRANCH  83 100
ENDBRANCH  81  83
ENDBRANCH  80  81
ENDBRANCH  79  80
ENDBRANCH  78  79
ENDBRANCH  77  78
ENDBRANCH  76  77
ENDBRANCH  75  76
ENDBRANCH  74  75
ENDBRANCH   1  74
TORSDOF 26
ENDMDL
