MODEL 1
REMARK VINA RESULT:     -12.7      0.000      0.000
REMARK SMILES O=C(OCCOCCOCCOCCOC(=O)c1ccccc1C(=O)Nc1ccc(N2C(=O)[C@H]3[C@@H]4CC[C@@H](C4)[C@@H]3C2=O)cc1)c1ccc(-c2c3nc(c(-c4cccc(S(=O)(=O)[O-])c4F)c4ccc([nH]4)c(-c4cccc(S(=O)(=O)[O-])c4F)c4nc(c(-c5cccc(S(=O)(=O)[O-])c5F)c5ccc2[nH]5)C=C4)C=C3)cc1
REMARK SMILES IDX 9 1 8 2 7 3 6 4 5 5 4 6 3 7 2 8 1 9 45 10 46 11 107 12 47 13
REMARK SMILES IDX 106 14 48 15 49 16 50 17 100 18 51 19 105 20 99 21 101 22
REMARK SMILES IDX 52 23 104 24 98 25 97 26 53 28 85 29 65 30 84 31 66 32 69 33
REMARK SMILES IDX 83 34 102 35 67 36 68 37 82 39 103 40 70 41 54 42 55 43
REMARK SMILES IDX 63 44 56 45 58 46 64 47 57 48 59 49 60 50 61 51 62 52 86 53
REMARK SMILES IDX 87 54 95 55 88 56 90 57 96 58 89 59 91 60 92 61 93 62 94 63
REMARK SMILES IDX 71 64 72 65 80 66 73 67 75 68 81 69 74 70 76 71 77 72 78 73
REMARK SMILES IDX 79 74 10 75 11 76 12 77 13 78 14 79 15 80 16 81 17 82 18 83
REMARK SMILES IDX 19 84 23 85 20 86 22 87 21 88 24 89 25 90 26 91 27 93 28 94
REMARK SMILES IDX 44 95 29 96 43 97 30 98 31 99 32 100 41 101 33 102 34 103
REMARK SMILES IDX 40 104 42 105 35 106 38 107 36 108 39 109 37 110
REMARK H PARENT 101 27 69 38 26 92
REMARK Flexibility Score: inf
ROOT
ATOM      1  O   UNL A   1      33.141  34.031  29.180  1.00  0.00    -0.377 OA
ENDROOT
BRANCH   1   2
ATOM      2  C   UNL A   1      34.080  34.824  29.912  1.00  0.00     0.188 C 
BRANCH   2   3
ATOM      3  C   UNL A   1      34.364  34.316  31.342  1.00  0.00     0.188 C 
BRANCH   3   4
ATOM      4  O   UNL A   1      35.509  33.511  31.437  1.00  0.00    -0.376 OA
BRANCH   4   5
ATOM      5  C   UNL A   1      35.355  32.115  31.372  1.00  0.00     0.202 C 
BRANCH   5   6
ATOM      6  C   UNL A   1      35.969  31.561  32.663  1.00  0.00     0.261 C 
BRANCH   6   7
ATOM      7  O   UNL A   1      36.239  30.134  32.531  1.00  0.00    -0.460 OA
BRANCH   7   8
ATOM      8  C   UNL A   1      37.427  29.468  32.427  1.00  0.00     0.338 C 
ATOM      9  O   UNL A   1      37.510  28.346  32.926  1.00  0.00    -0.246 OA
BRANCH   8  10
ATOM     10  C   UNL A   1      38.653  30.013  31.748  1.00  0.00     0.060 A 
ATOM     11  C   UNL A   1      39.723  30.513  32.447  1.00  0.00     0.016 A 
ATOM     12  C   UNL A   1      38.799  29.985  30.341  1.00  0.00     0.016 A 
ATOM     13  C   UNL A   1      40.829  31.030  31.792  1.00  0.00     0.010 A 
ATOM     14  C   UNL A   1      39.976  30.465  29.684  1.00  0.00     0.010 A 
ATOM     15  C   UNL A   1      41.026  31.005  30.424  1.00  0.00    -0.014 A 
BRANCH  15  16
ATOM     16  C   UNL A   1      42.266  31.704  29.945  1.00  0.00     0.031 A 
ATOM     17  C   UNL A   1      43.379  30.863  29.362  1.00  0.00     0.074 A 
ATOM     18  C   UNL A   1      42.310  33.033  29.682  1.00  0.00     0.049 A 
ATOM     19  N   UNL A   1      44.447  31.236  28.701  1.00  0.00    -0.248 NA
ATOM     20  C   UNL A   1      43.222  29.405  29.480  1.00  0.00     0.031 C 
ATOM     21  C   UNL A   1      41.208  33.970  29.881  1.00  0.00     0.029 A 
ATOM     22  N   UNL A   1      43.289  33.806  29.078  1.00  0.00    -0.354 N 
ATOM     23  C   UNL A   1      45.121  30.065  28.383  1.00  0.00     0.074 A 
ATOM     24  C   UNL A   1      44.298  28.967  28.844  1.00  0.00     0.031 C 
ATOM     25  C   UNL A   1      41.546  35.164  29.358  1.00  0.00     0.029 A 
ATOM     26  C   UNL A   1      42.911  35.115  28.836  1.00  0.00     0.049 A 
ATOM     27  H   UNL A   1      44.177  33.455  28.842  1.00  0.00     0.167 HD
ATOM     28  C   UNL A   1      46.339  29.903  27.815  1.00  0.00     0.034 A 
ATOM     29  C   UNL A   1      43.576  36.151  28.265  1.00  0.00     0.034 A 
ATOM     30  C   UNL A   1      47.220  30.957  27.398  1.00  0.00     0.049 A 
ATOM     31  C   UNL A   1      45.006  35.962  27.795  1.00  0.00     0.074 A 
ATOM     32  C   UNL A   1      48.540  30.855  26.988  1.00  0.00     0.029 A 
ATOM     33  N   UNL A   1      46.893  32.298  27.355  1.00  0.00    -0.354 N 
ATOM     34  N   UNL A   1      45.666  34.856  27.563  1.00  0.00    -0.248 NA
ATOM     35  C   UNL A   1      45.789  37.184  27.522  1.00  0.00     0.031 C 
ATOM     36  C   UNL A   1      49.026  32.142  26.745  1.00  0.00     0.029 A 
ATOM     37  C   UNL A   1      47.994  33.039  26.956  1.00  0.00     0.049 A 
ATOM     38  H   UNL A   1      46.009  32.672  27.576  1.00  0.00     0.167 HD
ATOM     39  C   UNL A   1      46.930  35.248  27.117  1.00  0.00     0.074 A 
ATOM     40  C   UNL A   1      46.927  36.691  27.053  1.00  0.00     0.031 C 
ATOM     41  C   UNL A   1      48.005  34.472  26.830  1.00  0.00     0.034 A 
BRANCH  28  42
ATOM     42  C   UNL A   1      46.861  28.499  27.757  1.00  0.00     0.023 A 
ATOM     43  C   UNL A   1      47.577  27.950  28.834  1.00  0.00     0.012 A 
ATOM     44  C   UNL A   1      46.618  27.728  26.603  1.00  0.00     0.148 A 
ATOM     45  C   UNL A   1      48.065  26.647  28.753  1.00  0.00     0.002 A 
ATOM     46  C   UNL A   1      47.077  26.422  26.545  1.00  0.00     0.091 A 
ATOM     47  F   UNL A   1      45.961  28.298  25.583  1.00  0.00    -0.205 F 
ATOM     48  C   UNL A   1      47.807  25.882  27.616  1.00  0.00     0.022 A 
BRANCH  46  49
ATOM     49  S   UNL A   1      46.750  25.357  25.140  1.00  0.00     0.127 S 
ATOM     50  O   UNL A   1      47.116  24.047  25.676  1.00  0.00    -0.237 OA
ATOM     51  O   UNL A   1      45.315  25.555  24.934  1.00  0.00    -0.237 OA
ATOM     52  O   UNL A   1      47.593  25.846  24.058  1.00  0.00    -0.744 OA
ENDBRANCH  46  49
ENDBRANCH  28  42
BRANCH  29  53
ATOM     53  C   UNL A   1      42.959  37.514  28.118  1.00  0.00     0.023 A 
ATOM     54  C   UNL A   1      42.347  37.882  26.899  1.00  0.00     0.012 A 
ATOM     55  C   UNL A   1      43.076  38.492  29.127  1.00  0.00     0.148 A 
ATOM     56  C   UNL A   1      41.914  39.193  26.674  1.00  0.00     0.002 A 
ATOM     57  C   UNL A   1      42.571  39.773  28.925  1.00  0.00     0.091 A 
ATOM     58  F   UNL A   1      43.726  38.171  30.255  1.00  0.00    -0.205 F 
ATOM     59  C   UNL A   1      42.014  40.136  27.692  1.00  0.00     0.022 A 
BRANCH  57  60
ATOM     60  S   UNL A   1      42.546  40.997  30.240  1.00  0.00     0.127 S 
ATOM     61  O   UNL A   1      41.144  41.407  30.245  1.00  0.00    -0.237 OA
ATOM     62  O   UNL A   1      42.961  40.211  31.404  1.00  0.00    -0.237 OA
ATOM     63  O   UNL A   1      43.508  42.015  29.838  1.00  0.00    -0.744 OA
ENDBRANCH  57  60
ENDBRANCH  29  53
BRANCH  41  64
ATOM     64  C   UNL A   1      49.302  35.136  26.425  1.00  0.00     0.023 A 
ATOM     65  C   UNL A   1      49.538  35.435  25.067  1.00  0.00     0.012 A 
ATOM     66  C   UNL A   1      50.232  35.575  27.392  1.00  0.00     0.148 A 
ATOM     67  C   UNL A   1      50.680  36.135  24.677  1.00  0.00     0.002 A 
ATOM     68  C   UNL A   1      51.344  36.315  27.000  1.00  0.00     0.091 A 
ATOM     69  F   UNL A   1      50.005  35.274  28.678  1.00  0.00    -0.205 F 
ATOM     70  C   UNL A   1      51.575  36.586  25.642  1.00  0.00     0.022 A 
BRANCH  68  71
ATOM     71  S   UNL A   1      52.499  37.029  28.179  1.00  0.00     0.127 S 
ATOM     72  O   UNL A   1      53.445  37.710  27.297  1.00  0.00    -0.237 OA
ATOM     73  O   UNL A   1      51.639  37.922  28.956  1.00  0.00    -0.237 OA
ATOM     74  O   UNL A   1      53.047  35.909  28.934  1.00  0.00    -0.744 OA
ENDBRANCH  68  71
ENDBRANCH  41  64
ENDBRANCH  15  16
ENDBRANCH   8  10
ENDBRANCH   7   8
ENDBRANCH   6   7
ENDBRANCH   5   6
ENDBRANCH   4   5
ENDBRANCH   3   4
ENDBRANCH   2   3
ENDBRANCH   1   2
BRANCH   1  75
ATOM     75  C   UNL A   1      33.308  33.324  27.933  1.00  0.00     0.188 C 
BRANCH  75  76
ATOM     76  C   UNL A   1      33.867  31.628  27.850  1.00  0.00     0.188 C 
BRANCH  76  77
ATOM     77  O   UNL A   1      33.332  30.215  27.145  1.00  0.00    -0.376 OA
BRANCH  77  78
ATOM     78  C   UNL A   1      33.161  29.679  25.513  1.00  0.00     0.202 C 
BRANCH  78  79
ATOM     79  C   UNL A   1      33.542  27.890  24.948  1.00  0.00     0.261 C 
BRANCH  79  80
ATOM     80  O   UNL A   1      32.240  27.042  23.630  1.00  0.00    -0.460 OA
BRANCH  80  81
ATOM     81  C   UNL A   1      31.716  25.720  23.131  1.00  0.00     0.339 C 
ATOM     82  O   UNL A   1      31.742  25.323  21.942  1.00  0.00    -0.246 OA
BRANCH  81  83
ATOM     83  C   UNL A   1      30.810  24.820  23.843  1.00  0.00     0.072 A 
ATOM     84  C   UNL A   1      30.047  25.605  24.785  1.00  0.00     0.016 A 
ATOM     85  C   UNL A   1      31.263  23.554  24.234  1.00  0.00     0.054 A 
ATOM     86  C   UNL A   1      29.841  25.220  26.105  1.00  0.00     0.001 A 
ATOM     87  C   UNL A   1      30.956  23.155  25.572  1.00  0.00     0.015 A 
ATOM     88  C   UNL A   1      30.302  23.983  26.501  1.00  0.00     0.001 A 
BRANCH  85  89
ATOM     89  C   UNL A   1      31.973  22.512  23.408  1.00  0.00     0.256 C 
ATOM     90  O   UNL A   1      31.336  22.057  22.447  1.00  0.00    -0.269 OA
ATOM     91  N   UNL A   1      33.289  22.088  23.508  1.00  0.00    -0.322 N 
ATOM     92  H   UNL A   1      33.614  21.557  22.744  1.00  0.00     0.170 HD
BRANCH  91  93
ATOM     93  C   UNL A   1      34.229  22.298  24.525  1.00  0.00     0.041 A 
ATOM     94  C   UNL A   1      35.145  20.852  24.965  1.00  0.00     0.028 A 
ATOM     95  C   UNL A   1      34.938  23.900  24.642  1.00  0.00     0.028 A 
ATOM     96  C   UNL A   1      36.853  20.906  25.423  1.00  0.00     0.029 A 
ATOM     97  C   UNL A   1      36.709  24.000  25.055  1.00  0.00     0.029 A 
ATOM     98  C   UNL A   1      37.713  22.452  25.539  1.00  0.00     0.052 A 
BRANCH  98  99
ATOM     99  N   UNL A   1      39.100  22.311  26.403  1.00  0.00    -0.250 N 
ATOM    100  C   UNL A   1      39.879  23.369  26.971  1.00  0.00     0.237 C 
ATOM    101  C   UNL A   1      39.988  21.216  26.471  1.00  0.00     0.237 C 
ATOM    102  O   UNL A   1      39.552  24.208  27.792  1.00  0.00    -0.274 OA
ATOM    103  C   UNL A   1      41.317  23.018  26.587  1.00  0.00     0.095 C 
ATOM    104  C   UNL A   1      41.220  21.669  27.231  1.00  0.00     0.095 C 
ATOM    105  O   UNL A   1      40.030  20.118  25.954  1.00  0.00    -0.274 OA
ATOM    106  C   UNL A   1      42.803  23.366  26.743  1.00  0.00     0.002 C 
ATOM    107  C   UNL A   1      42.680  21.179  27.199  1.00  0.00     0.002 C 
ATOM    108  C   UNL A   1      43.527  22.669  25.527  1.00  0.00     0.005 C 
ATOM    109  C   UNL A   1      43.331  22.427  27.827  1.00  0.00     0.009 C 
ATOM    110  C   UNL A   1      43.299  21.169  25.801  1.00  0.00     0.005 C 
ENDBRANCH  98  99
ENDBRANCH  91  93
ENDBRANCH  85  89
ENDBRANCH  81  83
ENDBRANCH  80  81
ENDBRANCH  79  80
ENDBRANCH  78  79
ENDBRANCH  77  78
ENDBRANCH  76  77
ENDBRANCH  75  76
ENDBRANCH   1  75
TORSDOF 26
ENDMDL
MODEL 2
REMARK VINA RESULT:     -12.4      2.047      5.345
REMARK SMILES O=C(OCCOCCOCCOCCOC(=O)c1ccccc1C(=O)Nc1ccc(N2C(=O)[C@H]3[C@@H]4CC[C@@H](C4)[C@@H]3C2=O)cc1)c1ccc(-c2c3nc(c(-c4cccc(S(=O)(=O)[O-])c4F)c4ccc([nH]4)c(-c4cccc(S(=O)(=O)[O-])c4F)c4nc(c(-c5cccc(S(=O)(=O)[O-])c5F)c5ccc2[nH]5)C=C4)C=C3)cc1
REMARK SMILES IDX 9 1 8 2 7 3 6 4 5 5 4 6 3 7 2 8 1 9 45 10 46 11 107 12 47 13
REMARK SMILES IDX 106 14 48 15 49 16 50 17 100 18 51 19 105 20 99 21 101 22
REMARK SMILES IDX 52 23 104 24 98 25 97 26 53 28 85 29 65 30 84 31 66 32 69 33
REMARK SMILES IDX 83 34 102 35 67 36 68 37 82 39 103 40 70 41 54 42 55 43
REMARK SMILES IDX 63 44 56 45 58 46 64 47 57 48 59 49 60 50 61 51 62 52 86 53
REMARK SMILES IDX 87 54 95 55 88 56 90 57 96 58 89 59 91 60 92 61 93 62 94 63
REMARK SMILES IDX 71 64 72 65 80 66 73 67 75 68 81 69 74 70 76 71 77 72 78 73
REMARK SMILES IDX 79 74 10 75 11 76 12 77 13 78 14 79 15 80 16 81 17 82 18 83
REMARK SMILES IDX 19 84 23 85 20 86 22 87 21 88 24 89 25 90 26 91 27 93 28 94
REMARK SMILES IDX 44 95 29 96 43 97 30 98 31 99 32 100 41 101 33 102 34 103
REMARK SMILES IDX 40 104 42 105 35 106 38 107 36 108 39 109 37 110
REMARK H PARENT 101 27 69 38 26 92
REMARK Flexibility Score: inf
ROOT
ATOM      1  O   UNL A   1      33.534  33.450  28.717  1.00  0.00    -0.377 OA
ENDROOT
BRANCH   1   2
ATOM      2  C   UNL A   1      34.310  34.406  29.446  1.00  0.00     0.188 C 
BRANCH   2   3
ATOM      3  C   UNL A   1      34.414  34.121  30.959  1.00  0.00     0.188 C 
BRANCH   3   4
ATOM      4  O   UNL A   1      35.609  33.489  31.333  1.00  0.00    -0.376 OA
BRANCH   4   5
ATOM      5  C   UNL A   1      35.702  32.093  31.193  1.00  0.00     0.202 C 
BRANCH   5   6
ATOM      6  C   UNL A   1      35.915  31.539  32.607  1.00  0.00     0.261 C 
BRANCH   6   7
ATOM      7  O   UNL A   1      36.225  30.115  32.558  1.00  0.00    -0.460 OA
BRANCH   7   8
ATOM      8  C   UNL A   1      37.432  29.477  32.515  1.00  0.00     0.338 C 
ATOM      9  O   UNL A   1      37.533  28.386  33.077  1.00  0.00    -0.246 OA
BRANCH   8  10
ATOM     10  C   UNL A   1      38.659  30.018  31.834  1.00  0.00     0.060 A 
ATOM     11  C   UNL A   1      39.749  30.475  32.532  1.00  0.00     0.016 A 
ATOM     12  C   UNL A   1      38.783  30.030  30.425  1.00  0.00     0.016 A 
ATOM     13  C   UNL A   1      40.855  30.990  31.875  1.00  0.00     0.010 A 
ATOM     14  C   UNL A   1      39.960  30.506  29.764  1.00  0.00     0.010 A 
ATOM     15  C   UNL A   1      41.031  31.002  30.504  1.00  0.00    -0.014 A 
BRANCH  15  16
ATOM     16  C   UNL A   1      42.277  31.691  30.028  1.00  0.00     0.031 A 
ATOM     17  C   UNL A   1      43.391  30.840  29.459  1.00  0.00     0.074 A 
ATOM     18  C   UNL A   1      42.330  33.017  29.753  1.00  0.00     0.049 A 
ATOM     19  N   UNL A   1      44.465  31.201  28.803  1.00  0.00    -0.248 NA
ATOM     20  C   UNL A   1      43.226  29.383  29.589  1.00  0.00     0.031 C 
ATOM     21  C   UNL A   1      41.232  33.961  29.936  1.00  0.00     0.029 A 
ATOM     22  N   UNL A   1      43.317  33.781  29.149  1.00  0.00    -0.354 N 
ATOM     23  C   UNL A   1      45.136  30.025  28.500  1.00  0.00     0.074 A 
ATOM     24  C   UNL A   1      44.304  28.934  28.965  1.00  0.00     0.031 C 
ATOM     25  C   UNL A   1      41.578  35.150  29.405  1.00  0.00     0.029 A 
ATOM     26  C   UNL A   1      42.947  35.089  28.892  1.00  0.00     0.049 A 
ATOM     27  H   UNL A   1      44.205  33.423  28.922  1.00  0.00     0.167 HD
ATOM     28  C   UNL A   1      46.356  29.852  27.942  1.00  0.00     0.034 A 
ATOM     29  C   UNL A   1      43.621  36.116  28.317  1.00  0.00     0.034 A 
ATOM     30  C   UNL A   1      47.245  30.897  27.521  1.00  0.00     0.049 A 
ATOM     31  C   UNL A   1      45.053  35.916  27.858  1.00  0.00     0.074 A 
ATOM     32  C   UNL A   1      48.567  30.785  27.121  1.00  0.00     0.029 A 
ATOM     33  N   UNL A   1      46.925  32.239  27.464  1.00  0.00    -0.354 N 
ATOM     34  N   UNL A   1      45.709  34.805  27.640  1.00  0.00    -0.248 NA
ATOM     35  C   UNL A   1      45.843  37.132  27.579  1.00  0.00     0.031 C 
ATOM     36  C   UNL A   1      49.061  32.068  26.869  1.00  0.00     0.029 A 
ATOM     37  C   UNL A   1      48.032  32.971  27.065  1.00  0.00     0.049 A 
ATOM     38  H   UNL A   1      46.042  32.619  27.675  1.00  0.00     0.167 HD
ATOM     39  C   UNL A   1      46.977  35.187  27.200  1.00  0.00     0.074 A 
ATOM     40  C   UNL A   1      46.983  36.629  27.123  1.00  0.00     0.031 C 
ATOM     41  C   UNL A   1      48.051  34.404  26.927  1.00  0.00     0.034 A 
BRANCH  28  42
ATOM     42  C   UNL A   1      46.872  28.444  27.899  1.00  0.00     0.023 A 
ATOM     43  C   UNL A   1      47.691  27.946  28.926  1.00  0.00     0.012 A 
ATOM     44  C   UNL A   1      46.517  27.620  26.814  1.00  0.00     0.148 A 
ATOM     45  C   UNL A   1      48.170  26.638  28.860  1.00  0.00     0.002 A 
ATOM     46  C   UNL A   1      46.970  26.312  26.773  1.00  0.00     0.091 A 
ATOM     47  F   UNL A   1      45.762  28.143  25.837  1.00  0.00    -0.205 F 
ATOM     48  C   UNL A   1      47.803  25.820  27.791  1.00  0.00     0.022 A 
BRANCH  46  49
ATOM     49  S   UNL A   1      46.507  25.182  25.460  1.00  0.00     0.127 S 
ATOM     50  O   UNL A   1      47.248  23.979  25.836  1.00  0.00    -0.237 OA
ATOM     51  O   UNL A   1      45.057  25.088  25.634  1.00  0.00    -0.237 OA
ATOM     52  O   UNL A   1      46.931  25.812  24.217  1.00  0.00    -0.744 OA
ENDBRANCH  46  49
ENDBRANCH  28  42
BRANCH  29  53
ATOM     53  C   UNL A   1      43.011  37.481  28.153  1.00  0.00     0.023 A 
ATOM     54  C   UNL A   1      42.413  37.842  26.925  1.00  0.00     0.012 A 
ATOM     55  C   UNL A   1      43.123  38.466  29.155  1.00  0.00     0.148 A 
ATOM     56  C   UNL A   1      41.988  39.154  26.686  1.00  0.00     0.002 A 
ATOM     57  C   UNL A   1      42.627  39.749  28.939  1.00  0.00     0.091 A 
ATOM     58  F   UNL A   1      43.761  38.152  30.292  1.00  0.00    -0.205 F 
ATOM     59  C   UNL A   1      42.082  40.104  27.697  1.00  0.00     0.022 A 
BRANCH  57  60
ATOM     60  S   UNL A   1      42.594  40.983  30.244  1.00  0.00     0.127 S 
ATOM     61  O   UNL A   1      43.041  40.211  31.401  1.00  0.00    -0.237 OA
ATOM     62  O   UNL A   1      43.556  41.974  29.757  1.00  0.00    -0.237 OA
ATOM     63  O   UNL A   1      41.218  41.462  30.287  1.00  0.00    -0.744 OA
ENDBRANCH  57  60
ENDBRANCH  29  53
BRANCH  41  64
ATOM     64  C   UNL A   1      49.354  35.057  26.524  1.00  0.00     0.023 A 
ATOM     65  C   UNL A   1      49.610  35.323  25.163  1.00  0.00     0.012 A 
ATOM     66  C   UNL A   1      50.270  35.521  27.493  1.00  0.00     0.148 A 
ATOM     67  C   UNL A   1      50.758  36.014  24.773  1.00  0.00     0.002 A 
ATOM     68  C   UNL A   1      51.387  36.251  27.100  1.00  0.00     0.091 A 
ATOM     69  F   UNL A   1      50.024  35.252  28.784  1.00  0.00    -0.205 F 
ATOM     70  C   UNL A   1      51.639  36.488  25.739  1.00  0.00     0.022 A 
BRANCH  68  71
ATOM     71  S   UNL A   1      52.525  36.994  28.278  1.00  0.00     0.127 S 
ATOM     72  O   UNL A   1      53.709  37.217  27.450  1.00  0.00    -0.237 OA
ATOM     73  O   UNL A   1      51.816  38.212  28.670  1.00  0.00    -0.237 OA
ATOM     74  O   UNL A   1      52.689  36.019  29.349  1.00  0.00    -0.744 OA
ENDBRANCH  68  71
ENDBRANCH  41  64
ENDBRANCH  15  16
ENDBRANCH   8  10
ENDBRANCH   7   8
ENDBRANCH   6   7
ENDBRANCH   5   6
ENDBRANCH   4   5
ENDBRANCH   3   4
ENDBRANCH   2   3
ENDBRANCH   1   2
BRANCH   1  75
ATOM     75  C   UNL A   1      33.919  32.599  27.617  1.00  0.00     0.188 C 
BRANCH  75  76
ATOM     76  C   UNL A   1      34.496  30.923  27.847  1.00  0.00     0.188 C 
BRANCH  76  77
ATOM     77  O   UNL A   1      34.526  29.522  26.942  1.00  0.00    -0.376 OA
BRANCH  77  78
ATOM     78  C   UNL A   1      33.628  28.048  26.983  1.00  0.00     0.202 C 
BRANCH  78  79
ATOM     79  C   UNL A   1      33.948  26.587  25.788  1.00  0.00     0.261 C 
BRANCH  79  80
ATOM     80  O   UNL A   1      33.416  24.731  26.437  1.00  0.00    -0.460 OA
BRANCH  80  81
ATOM     81  C   UNL A   1      33.929  23.327  26.635  1.00  0.00     0.339 C 
ATOM     82  O   UNL A   1      33.579  22.541  27.545  1.00  0.00    -0.246 OA
BRANCH  81  83
ATOM     83  C   UNL A   1      35.129  22.748  26.032  1.00  0.00     0.072 A 
ATOM     84  C   UNL A   1      36.173  23.746  26.067  1.00  0.00     0.016 A 
ATOM     85  C   UNL A   1      35.009  21.941  24.895  1.00  0.00     0.054 A 
ATOM     86  C   UNL A   1      36.991  24.029  24.979  1.00  0.00     0.001 A 
ATOM     87  C   UNL A   1      35.925  22.202  23.830  1.00  0.00     0.015 A 
ATOM     88  C   UNL A   1      36.863  23.249  23.849  1.00  0.00     0.001 A 
BRANCH  85  89
ATOM     89  C   UNL A   1      34.084  20.772  24.664  1.00  0.00     0.256 C 
ATOM     90  O   UNL A   1      34.566  19.651  24.883  1.00  0.00    -0.269 OA
ATOM     91  N   UNL A   1      32.732  20.794  24.361  1.00  0.00    -0.322 N 
ATOM     92  H   UNL A   1      32.270  19.930  24.459  1.00  0.00     0.170 HD
BRANCH  91  93
ATOM     93  C   UNL A   1      31.921  21.854  23.937  1.00  0.00     0.041 A 
ATOM     94  C   UNL A   1      30.848  22.482  25.194  1.00  0.00     0.028 A 
ATOM     95  C   UNL A   1      32.557  22.895  22.675  1.00  0.00     0.028 A 
ATOM     96  C   UNL A   1      30.450  24.200  25.339  1.00  0.00     0.029 A 
ATOM     97  C   UNL A   1      32.220  24.679  22.815  1.00  0.00     0.029 A 
ATOM     98  C   UNL A   1      31.059  25.376  24.160  1.00  0.00     0.052 A 
BRANCH  98  99
ATOM     99  N   UNL A   1      30.215  26.781  24.212  1.00  0.00    -0.250 N 
ATOM    100  C   UNL A   1      28.834  26.975  23.894  1.00  0.00     0.237 C 
ATOM    101  C   UNL A   1      30.708  28.104  24.227  1.00  0.00     0.237 C 
ATOM    102  O   UNL A   1      27.849  26.463  24.400  1.00  0.00    -0.274 OA
ATOM    103  C   UNL A   1      28.827  28.223  23.010  1.00  0.00     0.095 C 
ATOM    104  C   UNL A   1      29.524  29.036  24.057  1.00  0.00     0.095 C 
ATOM    105  O   UNL A   1      31.814  28.603  24.196  1.00  0.00    -0.274 OA
ATOM    106  C   UNL A   1      27.975  29.266  22.276  1.00  0.00     0.002 C 
ATOM    107  C   UNL A   1      29.420  30.466  23.492  1.00  0.00     0.002 C 
ATOM    108  C   UNL A   1      28.936  29.919  21.211  1.00  0.00     0.005 C 
ATOM    109  C   UNL A   1      27.904  30.469  23.215  1.00  0.00     0.009 C 
ATOM    110  C   UNL A   1      29.998  30.618  22.085  1.00  0.00     0.005 C 
ENDBRANCH  98  99
ENDBRANCH  91  93
ENDBRANCH  85  89
ENDBRANCH  81  83
ENDBRANCH  80  81
ENDBRANCH  79  80
ENDBRANCH  78  79
ENDBRANCH  77  78
ENDBRANCH  76  77
ENDBRANCH  75  76
ENDBRANCH   1  75
TORSDOF 26
ENDMDL
MODEL 3
REMARK VINA RESULT:     -11.8      2.614      5.840
REMARK SMILES O=C(OCCOCCOCCOCCOC(=O)c1ccccc1C(=O)Nc1ccc(N2C(=O)[C@H]3[C@@H]4CC[C@@H](C4)[C@@H]3C2=O)cc1)c1ccc(-c2c3nc(c(-c4cccc(S(=O)(=O)[O-])c4F)c4ccc([nH]4)c(-c4cccc(S(=O)(=O)[O-])c4F)c4nc(c(-c5cccc(S(=O)(=O)[O-])c5F)c5ccc2[nH]5)C=C4)C=C3)cc1
REMARK SMILES IDX 9 1 8 2 7 3 6 4 5 5 4 6 3 7 2 8 1 9 45 10 46 11 107 12 47 13
REMARK SMILES IDX 106 14 48 15 49 16 50 17 100 18 51 19 105 20 99 21 101 22
REMARK SMILES IDX 52 23 104 24 98 25 97 26 53 28 85 29 65 30 84 31 66 32 69 33
REMARK SMILES IDX 83 34 102 35 67 36 68 37 82 39 103 40 70 41 54 42 55 43
REMARK SMILES IDX 63 44 56 45 58 46 64 47 57 48 59 49 60 50 61 51 62 52 86 53
REMARK SMILES IDX 87 54 95 55 88 56 90 57 96 58 89 59 91 60 92 61 93 62 94 63
REMARK SMILES IDX 71 64 72 65 80 66 73 67 75 68 81 69 74 70 76 71 77 72 78 73
REMARK SMILES IDX 79 74 10 75 11 76 12 77 13 78 14 79 15 80 16 81 17 82 18 83
REMARK SMILES IDX 19 84 23 85 20 86 22 87 21 88 24 89 25 90 26 91 27 93 28 94
REMARK SMILES IDX 44 95 29 96 43 97 30 98 31 99 32 100 41 101 33 102 34 103
REMARK SMILES IDX 40 104 42 105 35 106 38 107 36 108 39 109 37 110
REMARK H PARENT 101 27 69 38 26 92
REMARK Flexibility Score: inf
ROOT
ATOM      1  O   UNL A   1      33.394  33.848  29.284  1.00  0.00    -0.377 OA
ENDROOT
BRANCH   1   2
ATOM      2  C   UNL A   1      34.099  34.665  30.223  1.00  0.00     0.188 C 
BRANCH   2   3
ATOM      3  C   UNL A   1      34.473  33.947  31.537  1.00  0.00     0.188 C 
BRANCH   3   4
ATOM      4  O   UNL A   1      35.830  33.604  31.626  1.00  0.00    -0.376 OA
BRANCH   4   5
ATOM      5  C   UNL A   1      36.200  32.268  31.394  1.00  0.00     0.202 C 
BRANCH   5   6
ATOM      6  C   UNL A   1      36.155  31.573  32.760  1.00  0.00     0.261 C 
BRANCH   6   7
ATOM      7  O   UNL A   1      36.353  30.136  32.612  1.00  0.00    -0.460 OA
BRANCH   7   8
ATOM      8  C   UNL A   1      37.499  29.396  32.651  1.00  0.00     0.338 C 
ATOM      9  O   UNL A   1      37.468  28.306  33.223  1.00  0.00    -0.246 OA
BRANCH   8  10
ATOM     10  C   UNL A   1      38.811  29.820  32.050  1.00  0.00     0.060 A 
ATOM     11  C   UNL A   1      39.941  30.012  32.804  1.00  0.00     0.016 A 
ATOM     12  C   UNL A   1      38.968  29.990  30.654  1.00  0.00     0.016 A 
ATOM     13  C   UNL A   1      41.128  30.427  32.223  1.00  0.00     0.010 A 
ATOM     14  C   UNL A   1      40.220  30.357  30.064  1.00  0.00     0.010 A 
ATOM     15  C   UNL A   1      41.336  30.584  30.865  1.00  0.00    -0.014 A 
BRANCH  15  16
ATOM     16  C   UNL A   1      42.685  31.126  30.486  1.00  0.00     0.031 A 
ATOM     17  C   UNL A   1      43.672  30.187  29.830  1.00  0.00     0.074 A 
ATOM     18  C   UNL A   1      42.944  32.451  30.372  1.00  0.00     0.049 A 
ATOM     19  N   UNL A   1      44.806  30.454  29.231  1.00  0.00    -0.248 NA
ATOM     20  C   UNL A   1      43.286  28.767  29.783  1.00  0.00     0.031 C 
ATOM     21  C   UNL A   1      41.996  33.524  30.657  1.00  0.00     0.029 A 
ATOM     22  N   UNL A   1      44.050  33.120  29.872  1.00  0.00    -0.354 N 
ATOM     23  C   UNL A   1      45.300  29.233  28.795  1.00  0.00     0.074 A 
ATOM     24  C   UNL A   1      44.301  28.235  29.119  1.00  0.00     0.031 C 
ATOM     25  C   UNL A   1      42.531  34.699  30.275  1.00  0.00     0.029 A 
ATOM     26  C   UNL A   1      43.889  34.491  29.771  1.00  0.00     0.049 A 
ATOM     27  H   UNL A   1      44.880  32.660  29.612  1.00  0.00     0.167 HD
ATOM     28  C   UNL A   1      46.495  28.941  28.231  1.00  0.00     0.034 A 
ATOM     29  C   UNL A   1      44.725  35.463  29.329  1.00  0.00     0.034 A 
ATOM     30  C   UNL A   1      47.542  29.881  27.946  1.00  0.00     0.049 A 
ATOM     31  C   UNL A   1      46.122  35.101  28.862  1.00  0.00     0.074 A 
ATOM     32  C   UNL A   1      48.842  29.616  27.547  1.00  0.00     0.029 A 
ATOM     33  N   UNL A   1      47.429  31.253  28.047  1.00  0.00    -0.354 N 
ATOM     34  N   UNL A   1      46.610  33.936  28.518  1.00  0.00    -0.248 NA
ATOM     35  C   UNL A   1      47.094  36.207  28.737  1.00  0.00     0.031 C 
ATOM     36  C   UNL A   1      49.530  30.829  27.455  1.00  0.00     0.029 A 
ATOM     37  C   UNL A   1      48.644  31.849  27.749  1.00  0.00     0.049 A 
ATOM     38  H   UNL A   1      46.608  31.737  28.294  1.00  0.00     0.167 HD
ATOM     39  C   UNL A   1      47.932  34.169  28.138  1.00  0.00     0.074 A 
ATOM     40  C   UNL A   1      48.156  35.593  28.234  1.00  0.00     0.031 C 
ATOM     41  C   UNL A   1      48.883  33.268  27.783  1.00  0.00     0.034 A 
BRANCH  28  42
ATOM     42  C   UNL A   1      46.793  27.486  28.025  1.00  0.00     0.023 A 
ATOM     43  C   UNL A   1      47.314  26.703  29.069  1.00  0.00     0.012 A 
ATOM     44  C   UNL A   1      46.538  26.909  26.766  1.00  0.00     0.148 A 
ATOM     45  C   UNL A   1      47.597  25.355  28.851  1.00  0.00     0.002 A 
ATOM     46  C   UNL A   1      46.790  25.562  26.569  1.00  0.00     0.091 A 
ATOM     47  F   UNL A   1      46.074  27.697  25.786  1.00  0.00    -0.205 F 
ATOM     48  C   UNL A   1      47.327  24.784  27.608  1.00  0.00     0.022 A 
BRANCH  46  49
ATOM     49  S   UNL A   1      46.429  24.740  25.017  1.00  0.00     0.127 S 
ATOM     50  O   UNL A   1      46.661  23.339  25.368  1.00  0.00    -0.237 OA
ATOM     51  O   UNL A   1      45.025  25.093  24.803  1.00  0.00    -0.237 OA
ATOM     52  O   UNL A   1      47.353  25.298  24.039  1.00  0.00    -0.744 OA
ENDBRANCH  46  49
ENDBRANCH  28  42
BRANCH  29  53
ATOM     53  C   UNL A   1      44.332  36.915  29.324  1.00  0.00     0.023 A 
ATOM     54  C   UNL A   1      44.451  37.679  30.507  1.00  0.00     0.012 A 
ATOM     55  C   UNL A   1      43.730  37.515  28.200  1.00  0.00     0.148 A 
ATOM     56  C   UNL A   1      43.941  38.980  30.582  1.00  0.00     0.002 A 
ATOM     57  C   UNL A   1      43.295  38.836  28.258  1.00  0.00     0.091 A 
ATOM     58  F   UNL A   1      43.542  36.770  27.102  1.00  0.00    -0.205 F 
ATOM     59  C   UNL A   1      43.374  39.564  29.453  1.00  0.00     0.022 A 
BRANCH  57  60
ATOM     60  S   UNL A   1      42.680  39.693  26.803  1.00  0.00     0.127 S 
ATOM     61  O   UNL A   1      42.341  41.006  27.346  1.00  0.00    -0.237 OA
ATOM     62  O   UNL A   1      43.845  39.676  25.917  1.00  0.00    -0.237 OA
ATOM     63  O   UNL A   1      41.560  38.889  26.328  1.00  0.00    -0.744 OA
ENDBRANCH  57  60
ENDBRANCH  29  53
BRANCH  41  64
ATOM     64  C   UNL A   1      50.280  33.758  27.473  1.00  0.00     0.023 A 
ATOM     65  C   UNL A   1      51.245  33.808  28.499  1.00  0.00     0.012 A 
ATOM     66  C   UNL A   1      50.675  34.048  26.149  1.00  0.00     0.148 A 
ATOM     67  C   UNL A   1      52.566  34.161  28.222  1.00  0.00     0.002 A 
ATOM     68  C   UNL A   1      52.005  34.352  25.873  1.00  0.00     0.091 A 
ATOM     69  F   UNL A   1      49.747  34.009  25.183  1.00  0.00    -0.205 F 
ATOM     70  C   UNL A   1      52.949  34.419  26.910  1.00  0.00     0.022 A 
BRANCH  68  71
ATOM     71  S   UNL A   1      52.617  34.597  24.199  1.00  0.00     0.127 S 
ATOM     72  O   UNL A   1      52.012  35.880  23.846  1.00  0.00    -0.237 OA
ATOM     73  O   UNL A   1      54.066  34.641  24.401  1.00  0.00    -0.237 OA
ATOM     74  O   UNL A   1      52.148  33.454  23.428  1.00  0.00    -0.744 OA
ENDBRANCH  68  71
ENDBRANCH  41  64
ENDBRANCH  15  16
ENDBRANCH   8  10
ENDBRANCH   7   8
ENDBRANCH   6   7
ENDBRANCH   5   6
ENDBRANCH   4   5
ENDBRANCH   3   4
ENDBRANCH   2   3
ENDBRANCH   1   2
BRANCH   1  75
ATOM     75  C   UNL A   1      33.894  33.118  28.143  1.00  0.00     0.188 C 
BRANCH  75  76
ATOM     76  C   UNL A   1      34.764  31.564  28.296  1.00  0.00     0.188 C 
BRANCH  76  77
ATOM     77  O   UNL A   1      34.818  30.125  27.455  1.00  0.00    -0.376 OA
BRANCH  77  78
ATOM     78  C   UNL A   1      33.682  28.854  27.176  1.00  0.00     0.202 C 
BRANCH  78  79
ATOM     79  C   UNL A   1      34.055  27.331  26.078  1.00  0.00     0.261 C 
BRANCH  79  80
ATOM     80  O   UNL A   1      32.890  25.684  26.361  1.00  0.00    -0.460 OA
BRANCH  80  81
ATOM     81  C   UNL A   1      32.912  24.177  26.375  1.00  0.00     0.339 C 
ATOM     82  O   UNL A   1      32.091  23.438  26.967  1.00  0.00    -0.246 OA
BRANCH  81  83
ATOM     83  C   UNL A   1      34.037  23.321  26.000  1.00  0.00     0.072 A 
ATOM     84  C   UNL A   1      35.253  23.952  26.460  1.00  0.00     0.016 A 
ATOM     85  C   UNL A   1      34.038  22.693  24.749  1.00  0.00     0.054 A 
ATOM     86  C   UNL A   1      36.392  24.072  25.672  1.00  0.00     0.001 A 
ATOM     87  C   UNL A   1      35.256  22.762  24.004  1.00  0.00     0.015 A 
ATOM     88  C   UNL A   1      36.391  23.472  24.431  1.00  0.00     0.001 A 
BRANCH  85  89
ATOM     89  C   UNL A   1      32.943  21.881  24.103  1.00  0.00     0.256 C 
ATOM     90  O   UNL A   1      32.962  20.664  24.339  1.00  0.00    -0.269 OA
ATOM     91  N   UNL A   1      31.850  22.334  23.383  1.00  0.00    -0.322 N 
ATOM     92  H   UNL A   1      31.146  21.663  23.229  1.00  0.00     0.170 HD
BRANCH  91  93
ATOM     93  C   UNL A   1      31.589  23.600  22.840  1.00  0.00     0.041 A 
ATOM     94  C   UNL A   1      30.217  24.430  23.584  1.00  0.00     0.028 A 
ATOM     95  C   UNL A   1      32.957  24.491  22.196  1.00  0.00     0.028 A 
ATOM     96  C   UNL A   1      30.186  26.180  23.842  1.00  0.00     0.029 A 
ATOM     97  C   UNL A   1      32.994  26.288  22.487  1.00  0.00     0.029 A 
ATOM     98  C   UNL A   1      31.520  27.204  23.282  1.00  0.00     0.052 A 
BRANCH  98  99
ATOM     99  N   UNL A   1      31.083  28.783  23.205  1.00  0.00    -0.250 N 
ATOM    100  C   UNL A   1      30.894  29.684  24.301  1.00  0.00     0.237 C 
ATOM    101  C   UNL A   1      30.474  29.477  22.138  1.00  0.00     0.237 C 
ATOM    102  O   UNL A   1      31.691  30.034  25.155  1.00  0.00    -0.274 OA
ATOM    103  C   UNL A   1      29.575  30.388  23.979  1.00  0.00     0.095 C 
ATOM    104  C   UNL A   1      30.081  30.850  22.647  1.00  0.00     0.095 C 
ATOM    105  O   UNL A   1      30.093  29.170  21.027  1.00  0.00    -0.274 OA
ATOM    106  C   UNL A   1      28.586  31.493  24.372  1.00  0.00     0.002 C 
ATOM    107  C   UNL A   1      28.984  31.833  22.197  1.00  0.00     0.002 C 
ATOM    108  C   UNL A   1      27.231  31.116  23.661  1.00  0.00     0.005 C 
ATOM    109  C   UNL A   1      28.930  32.685  23.481  1.00  0.00     0.009 C 
ATOM    110  C   UNL A   1      27.583  31.224  22.164  1.00  0.00     0.005 C 
ENDBRANCH  98  99
ENDBRANCH  91  93
ENDBRANCH  85  89
ENDBRANCH  81  83
ENDBRANCH  80  81
ENDBRANCH  79  80
ENDBRANCH  78  79
ENDBRANCH  77  78
ENDBRANCH  76  77
ENDBRANCH  75  76
ENDBRANCH   1  75
TORSDOF 26
ENDMDL
