MODEL 1
REMARK VINA RESULT:     -10.1      0.000      0.000
REMARK SMILES CC[C@@H]1CCCC[C@@]1(O)[C@H](F)C(=O)OCCOCCOCCOCCOC(=O)c1ccc(-c2c3nc(c(-c4cccc(S(=O)(=O)[O-])c4F)c4ccc([nH]4)c(-c4cccc(S(=O)(=O)[O-])c4F)c4nc(c(-c5cccc(S(=O)(=O)[O-])c5F)c5ccc2[nH]5)C=C4)C=C3)cc1
REMARK SMILES IDX 21 1 20 2 19 3 18 4 17 5 16 6 15 7 14 8 12 9 13 10 10 11
REMARK SMILES IDX 11 12 8 13 3 14 4 15 5 16 7 17 6 18 2 19 1 20 9 21 22 23
REMARK SMILES IDX 23 24 24 25 25 26 26 27 27 28 28 29 29 30 30 31 91 32 31 33
REMARK SMILES IDX 90 34 32 35 33 36 34 37 84 38 35 39 89 40 83 41 85 42 36 43
REMARK SMILES IDX 88 44 82 45 81 46 37 48 69 49 49 50 68 51 50 52 53 53 67 54
REMARK SMILES IDX 86 55 51 56 52 57 66 59 87 60 54 61 38 62 39 63 47 64 40 65
REMARK SMILES IDX 42 66 48 67 41 68 43 69 44 70 45 71 46 72 70 73 71 74 79 75
REMARK SMILES IDX 72 76 74 77 80 78 73 79 75 80 76 81 77 82 78 83 55 84 56 85
REMARK SMILES IDX 64 86 57 87 59 88 65 89 58 90 60 91 61 92 62 93 63 94
REMARK H PARENT 9 22 85 47 53 58
REMARK Flexibility Score: inf
ROOT
ATOM      1  C   UNL A   1      33.744  27.632  23.885  1.00  0.00     0.188 C 
ENDROOT
BRANCH   1   2
ATOM      2  O   UNL A   1      33.944  26.240  24.106  1.00  0.00    -0.377 OA
BRANCH   2   3
ATOM      3  C   UNL A   1      33.725  25.769  25.417  1.00  0.00     0.188 C 
BRANCH   3   4
ATOM      4  C   UNL A   1      34.619  24.573  25.790  1.00  0.00     0.188 C 
BRANCH   4   5
ATOM      5  O   UNL A   1      35.643  24.091  24.924  1.00  0.00    -0.376 OA
BRANCH   5   6
ATOM      6  C   UNL A   1      36.958  23.795  25.389  1.00  0.00     0.202 C 
BRANCH   6   7
ATOM      7  C   UNL A   1      37.562  22.391  25.262  1.00  0.00     0.261 C 
BRANCH   7   8
ATOM      8  O   UNL A   1      36.668  21.447  24.678  1.00  0.00    -0.461 OA
BRANCH   8   9
ATOM      9  C   UNL A   1      35.653  20.997  25.451  1.00  0.00     0.343 C 
ATOM     10  O   UNL A   1      35.470  21.308  26.622  1.00  0.00    -0.249 OA
BRANCH   9  11
ATOM     11  C   UNL A   1      34.705  20.128  24.641  1.00  0.00     0.307 C 
ATOM     12  F   UNL A   1      35.029  18.798  24.735  1.00  0.00    -0.232 F 
BRANCH  11  13
ATOM     13  C   UNL A   1      33.231  20.255  25.063  1.00  0.00     0.110 C 
ATOM     14  C   UNL A   1      32.676  21.697  24.880  1.00  0.00     0.024 C 
ATOM     15  C   UNL A   1      32.614  22.069  23.374  1.00  0.00     0.007 C 
ATOM     16  C   UNL A   1      31.855  21.038  22.529  1.00  0.00     0.001 C 
ATOM     17  C   UNL A   1      32.397  19.260  24.222  1.00  0.00     0.039 C 
ATOM     18  C   UNL A   1      32.367  19.618  22.740  1.00  0.00     0.003 C 
BRANCH  14  19
ATOM     19  C   UNL A   1      31.307  22.036  25.533  1.00  0.00     0.003 C 
ATOM     20  C   UNL A   1      30.795  23.462  25.442  1.00  0.00     0.004 C 
ENDBRANCH  14  19
BRANCH  13  21
ATOM     21  O   UNL A   1      33.131  19.815  26.420  1.00  0.00    -0.386 OA
ATOM     22  H   UNL A   1      33.983  19.450  26.705  1.00  0.00     0.211 HD
ENDBRANCH  13  21
ENDBRANCH  11  13
ENDBRANCH   9  11
ENDBRANCH   8   9
ENDBRANCH   7   8
ENDBRANCH   6   7
ENDBRANCH   5   6
ENDBRANCH   4   5
ENDBRANCH   3   4
ENDBRANCH   2   3
ENDBRANCH   1   2
BRANCH   1  23
ATOM     23  C   UNL A   1      32.440  28.264  24.424  1.00  0.00     0.188 C 
BRANCH  23  24
ATOM     24  O   UNL A   1      32.546  29.639  24.778  1.00  0.00    -0.376 OA
BRANCH  24  25
ATOM     25  C   UNL A   1      31.451  30.245  25.450  1.00  0.00     0.202 C 
BRANCH  25  26
ATOM     26  C   UNL A   1      31.769  31.217  26.600  1.00  0.00     0.261 C 
BRANCH  26  27
ATOM     27  O   UNL A   1      32.974  30.955  27.334  1.00  0.00    -0.460 OA
BRANCH  27  28
ATOM     28  C   UNL A   1      33.739  32.018  27.671  1.00  0.00     0.338 C 
ATOM     29  O   UNL A   1      33.367  33.162  27.828  1.00  0.00    -0.246 OA
BRANCH  28  30
ATOM     30  C   UNL A   1      35.082  31.514  28.035  1.00  0.00     0.060 A 
ATOM     31  C   UNL A   1      35.256  30.132  28.182  1.00  0.00     0.016 A 
ATOM     32  C   UNL A   1      36.152  32.388  28.238  1.00  0.00     0.016 A 
ATOM     33  C   UNL A   1      36.491  29.624  28.578  1.00  0.00     0.010 A 
ATOM     34  C   UNL A   1      37.386  31.877  28.656  1.00  0.00     0.010 A 
ATOM     35  C   UNL A   1      37.546  30.496  28.867  1.00  0.00    -0.014 A 
BRANCH  35  36
ATOM     36  C   UNL A   1      38.748  29.965  29.553  1.00  0.00     0.031 A 
ATOM     37  C   UNL A   1      39.066  30.457  30.939  1.00  0.00     0.074 A 
ATOM     38  C   UNL A   1      39.522  29.029  28.974  1.00  0.00     0.049 A 
ATOM     39  N   UNL A   1      40.031  30.099  31.745  1.00  0.00    -0.248 NA
ATOM     40  C   UNL A   1      38.175  31.490  31.491  1.00  0.00     0.031 C 
ATOM     41  C   UNL A   1      39.319  28.474  27.638  1.00  0.00     0.029 A 
ATOM     42  N   UNL A   1      40.647  28.396  29.437  1.00  0.00    -0.354 N 
ATOM     43  C   UNL A   1      39.882  30.879  32.885  1.00  0.00     0.074 A 
ATOM     44  C   UNL A   1      38.741  31.739  32.662  1.00  0.00     0.031 C 
ATOM     45  C   UNL A   1      40.303  27.595  27.379  1.00  0.00     0.029 A 
ATOM     46  C   UNL A   1      41.214  27.542  28.522  1.00  0.00     0.049 A 
ATOM     47  H   UNL A   1      41.015  28.539  30.340  1.00  0.00     0.167 HD
ATOM     48  C   UNL A   1      40.619  30.872  34.021  1.00  0.00     0.034 A 
ATOM     49  C   UNL A   1      42.346  26.815  28.592  1.00  0.00     0.034 A 
ATOM     50  C   UNL A   1      41.750  30.012  34.243  1.00  0.00     0.049 A 
ATOM     51  C   UNL A   1      43.159  26.837  29.861  1.00  0.00     0.074 A 
ATOM     52  C   UNL A   1      42.531  29.894  35.379  1.00  0.00     0.029 A 
ATOM     53  N   UNL A   1      42.277  29.138  33.305  1.00  0.00    -0.354 N 
ATOM     54  N   UNL A   1      42.935  27.486  30.977  1.00  0.00    -0.248 NA
ATOM     55  C   UNL A   1      44.362  25.991  29.891  1.00  0.00     0.031 C 
ATOM     56  C   UNL A   1      43.556  28.980  35.112  1.00  0.00     0.029 A 
ATOM     57  C   UNL A   1      43.384  28.490  33.828  1.00  0.00     0.049 A 
ATOM     58  H   UNL A   1      41.918  28.997  32.399  1.00  0.00     0.167 HD
ATOM     59  C   UNL A   1      43.944  27.102  31.854  1.00  0.00     0.074 A 
ATOM     60  C   UNL A   1      44.767  26.143  31.144  1.00  0.00     0.031 C 
ATOM     61  C   UNL A   1      44.174  27.509  33.128  1.00  0.00     0.034 A 
BRANCH  48  62
ATOM     62  C   UNL A   1      40.220  31.827  35.116  1.00  0.00     0.023 A 
ATOM     63  C   UNL A   1      40.764  33.128  35.149  1.00  0.00     0.012 A 
ATOM     64  C   UNL A   1      39.272  31.451  36.087  1.00  0.00     0.148 A 
ATOM     65  C   UNL A   1      40.401  34.024  36.154  1.00  0.00     0.002 A 
ATOM     66  C   UNL A   1      38.877  32.366  37.055  1.00  0.00     0.091 A 
ATOM     67  F   UNL A   1      38.784  30.203  36.053  1.00  0.00    -0.205 F 
ATOM     68  C   UNL A   1      39.450  33.648  37.099  1.00  0.00     0.022 A 
BRANCH  66  69
ATOM     69  S   UNL A   1      37.600  32.004  38.264  1.00  0.00     0.127 S 
ATOM     70  O   UNL A   1      37.307  30.601  37.975  1.00  0.00    -0.237 OA
ATOM     71  O   UNL A   1      38.301  32.233  39.528  1.00  0.00    -0.237 OA
ATOM     72  O   UNL A   1      36.515  32.937  37.994  1.00  0.00    -0.744 OA
ENDBRANCH  66  69
ENDBRANCH  48  62
BRANCH  49  73
ATOM     73  C   UNL A   1      42.765  25.979  27.431  1.00  0.00     0.023 A 
ATOM     74  C   UNL A   1      43.588  26.529  26.429  1.00  0.00     0.012 A 
ATOM     75  C   UNL A   1      42.360  24.634  27.326  1.00  0.00     0.148 A 
ATOM     76  C   UNL A   1      43.975  25.764  25.329  1.00  0.00     0.002 A 
ATOM     77  C   UNL A   1      42.797  23.861  26.259  1.00  0.00     0.091 A 
ATOM     78  F   UNL A   1      41.563  24.136  28.283  1.00  0.00    -0.205 F 
ATOM     79  C   UNL A   1      43.589  24.428  25.248  1.00  0.00     0.022 A 
BRANCH  77  80
ATOM     80  S   UNL A   1      42.455  22.103  26.136  1.00  0.00     0.127 S 
ATOM     81  O   UNL A   1      41.010  22.093  25.924  1.00  0.00    -0.237 OA
ATOM     82  O   UNL A   1      43.252  21.727  24.967  1.00  0.00    -0.237 OA
ATOM     83  O   UNL A   1      42.911  21.522  27.391  1.00  0.00    -0.744 OA
ENDBRANCH  77  80
ENDBRANCH  49  73
BRANCH  61  84
ATOM     84  C   UNL A   1      45.338  26.888  33.861  1.00  0.00     0.023 A 
ATOM     85  C   UNL A   1      46.582  27.550  33.908  1.00  0.00     0.012 A 
ATOM     86  C   UNL A   1      45.183  25.666  34.544  1.00  0.00     0.148 A 
ATOM     87  C   UNL A   1      47.664  26.981  34.580  1.00  0.00     0.002 A 
ATOM     88  C   UNL A   1      46.250  25.133  35.259  1.00  0.00     0.091 A 
ATOM     89  F   UNL A   1      43.998  25.040  34.478  1.00  0.00    -0.205 F 
ATOM     90  C   UNL A   1      47.496  25.779  35.263  1.00  0.00     0.022 A 
BRANCH  88  91
ATOM     91  S   UNL A   1      46.094  23.642  36.249  1.00  0.00     0.127 S 
ATOM     92  O   UNL A   1      45.848  22.628  35.225  1.00  0.00    -0.237 OA
ATOM     93  O   UNL A   1      47.407  23.555  36.889  1.00  0.00    -0.237 OA
ATOM     94  O   UNL A   1      44.990  23.884  37.168  1.00  0.00    -0.744 OA
ENDBRANCH  88  91
ENDBRANCH  61  84
ENDBRANCH  35  36
ENDBRANCH  28  30
ENDBRANCH  27  28
ENDBRANCH  26  27
ENDBRANCH  25  26
ENDBRANCH  24  25
ENDBRANCH  23  24
ENDBRANCH   1  23
TORSDOF 26
ENDMDL
MODEL 2
REMARK VINA RESULT:      -9.5      2.075      7.781
REMARK SMILES CC[C@@H]1CCCC[C@@]1(O)[C@H](F)C(=O)OCCOCCOCCOCCOC(=O)c1ccc(-c2c3nc(c(-c4cccc(S(=O)(=O)[O-])c4F)c4ccc([nH]4)c(-c4cccc(S(=O)(=O)[O-])c4F)c4nc(c(-c5cccc(S(=O)(=O)[O-])c5F)c5ccc2[nH]5)C=C4)C=C3)cc1
REMARK SMILES IDX 21 1 20 2 19 3 18 4 17 5 16 6 15 7 14 8 12 9 13 10 10 11
REMARK SMILES IDX 11 12 8 13 3 14 4 15 5 16 7 17 6 18 2 19 1 20 9 21 22 23
REMARK SMILES IDX 23 24 24 25 25 26 26 27 27 28 28 29 29 30 30 31 91 32 31 33
REMARK SMILES IDX 90 34 32 35 33 36 34 37 84 38 35 39 89 40 83 41 85 42 36 43
REMARK SMILES IDX 88 44 82 45 81 46 37 48 69 49 49 50 68 51 50 52 53 53 67 54
REMARK SMILES IDX 86 55 51 56 52 57 66 59 87 60 54 61 38 62 39 63 47 64 40 65
REMARK SMILES IDX 42 66 48 67 41 68 43 69 44 70 45 71 46 72 70 73 71 74 79 75
REMARK SMILES IDX 72 76 74 77 80 78 73 79 75 80 76 81 77 82 78 83 55 84 56 85
REMARK SMILES IDX 64 86 57 87 59 88 65 89 58 90 60 91 61 92 62 93 63 94
REMARK H PARENT 9 22 85 47 53 58
REMARK Flexibility Score: inf
ROOT
ATOM      1  C   UNL A   1      33.750  27.501  24.141  1.00  0.00     0.188 C 
ENDROOT
BRANCH   1   2
ATOM      2  O   UNL A   1      33.997  26.111  23.962  1.00  0.00    -0.377 OA
BRANCH   2   3
ATOM      3  C   UNL A   1      33.751  25.276  25.072  1.00  0.00     0.188 C 
BRANCH   3   4
ATOM      4  C   UNL A   1      34.998  24.504  25.540  1.00  0.00     0.188 C 
BRANCH   4   5
ATOM      5  O   UNL A   1      36.091  24.230  24.668  1.00  0.00    -0.376 OA
BRANCH   5   6
ATOM      6  C   UNL A   1      37.303  23.634  25.130  1.00  0.00     0.202 C 
BRANCH   6   7
ATOM      7  C   UNL A   1      37.527  22.119  25.078  1.00  0.00     0.261 C 
BRANCH   7   8
ATOM      8  O   UNL A   1      36.430  21.408  24.509  1.00  0.00    -0.461 OA
BRANCH   8   9
ATOM      9  C   UNL A   1      35.511  20.903  25.365  1.00  0.00     0.343 C 
ATOM     10  O   UNL A   1      35.407  21.212  26.546  1.00  0.00    -0.249 OA
BRANCH   9  11
ATOM     11  C   UNL A   1      34.554  19.972  24.638  1.00  0.00     0.307 C 
ATOM     12  F   UNL A   1      34.825  18.655  24.907  1.00  0.00    -0.232 F 
BRANCH  11  13
ATOM     13  C   UNL A   1      33.075  20.201  24.993  1.00  0.00     0.110 C 
ATOM     14  C   UNL A   1      32.640  21.686  24.828  1.00  0.00     0.024 C 
ATOM     15  C   UNL A   1      32.683  22.103  23.332  1.00  0.00     0.007 C 
ATOM     16  C   UNL A   1      31.890  21.156  22.421  1.00  0.00     0.001 C 
ATOM     17  C   UNL A   1      32.211  19.296  24.083  1.00  0.00     0.039 C 
ATOM     18  C   UNL A   1      32.283  19.696  22.612  1.00  0.00     0.003 C 
BRANCH  14  19
ATOM     19  C   UNL A   1      31.270  22.112  25.424  1.00  0.00     0.003 C 
ATOM     20  C   UNL A   1      31.247  22.751  26.802  1.00  0.00     0.004 C 
ENDBRANCH  14  19
BRANCH  13  21
ATOM     21  O   UNL A   1      32.875  19.734  26.330  1.00  0.00    -0.386 OA
ATOM     22  H   UNL A   1      32.939  18.767  26.348  1.00  0.00     0.211 HD
ENDBRANCH  13  21
ENDBRANCH  11  13
ENDBRANCH   9  11
ENDBRANCH   8   9
ENDBRANCH   7   8
ENDBRANCH   6   7
ENDBRANCH   5   6
ENDBRANCH   4   5
ENDBRANCH   3   4
ENDBRANCH   2   3
ENDBRANCH   1   2
BRANCH   1  23
ATOM     23  C   UNL A   1      32.277  27.969  24.185  1.00  0.00     0.188 C 
BRANCH  23  24
ATOM     24  O   UNL A   1      32.098  29.381  24.125  1.00  0.00    -0.376 OA
BRANCH  24  25
ATOM     25  C   UNL A   1      31.026  29.952  24.861  1.00  0.00     0.202 C 
BRANCH  25  26
ATOM     26  C   UNL A   1      31.379  30.794  26.101  1.00  0.00     0.261 C 
BRANCH  26  27
ATOM     27  O   UNL A   1      32.732  30.691  26.568  1.00  0.00    -0.460 OA
BRANCH  27  28
ATOM     28  C   UNL A   1      33.244  31.757  27.226  1.00  0.00     0.338 C 
ATOM     29  O   UNL A   1      32.662  32.781  27.519  1.00  0.00    -0.246 OA
BRANCH  28  30
ATOM     30  C   UNL A   1      34.584  31.380  27.728  1.00  0.00     0.060 A 
ATOM     31  C   UNL A   1      34.818  30.038  28.054  1.00  0.00     0.016 A 
ATOM     32  C   UNL A   1      35.592  32.334  27.884  1.00  0.00     0.016 A 
ATOM     33  C   UNL A   1      36.048  29.654  28.582  1.00  0.00     0.010 A 
ATOM     34  C   UNL A   1      36.820  31.950  28.436  1.00  0.00     0.010 A 
ATOM     35  C   UNL A   1      37.037  30.616  28.823  1.00  0.00    -0.014 A 
BRANCH  35  36
ATOM     36  C   UNL A   1      38.216  30.242  29.640  1.00  0.00     0.031 A 
ATOM     37  C   UNL A   1      39.222  29.284  29.062  1.00  0.00     0.074 A 
ATOM     38  C   UNL A   1      38.415  30.776  30.859  1.00  0.00     0.049 A 
ATOM     39  N   UNL A   1      40.346  28.854  29.572  1.00  0.00    -0.248 NA
ATOM     40  C   UNL A   1      38.919  28.737  27.729  1.00  0.00     0.031 C 
ATOM     41  C   UNL A   1      37.515  31.713  31.527  1.00  0.00     0.029 A 
ATOM     42  N   UNL A   1      39.436  30.588  31.755  1.00  0.00    -0.354 N 
ATOM     43  C   UNL A   1      40.872  27.970  28.638  1.00  0.00     0.074 A 
ATOM     44  C   UNL A   1      39.937  27.912  27.536  1.00  0.00     0.031 C 
ATOM     45  C   UNL A   1      38.014  32.004  32.741  1.00  0.00     0.029 A 
ATOM     46  C   UNL A   1      39.256  31.258  32.942  1.00  0.00     0.049 A 
ATOM     47  H   UNL A   1      40.223  30.027  31.568  1.00  0.00     0.167 HD
ATOM     48  C   UNL A   1      42.034  27.276  28.686  1.00  0.00     0.034 A 
ATOM     49  C   UNL A   1      39.998  31.254  34.066  1.00  0.00     0.034 A 
ATOM     50  C   UNL A   1      42.966  27.338  29.781  1.00  0.00     0.049 A 
ATOM     51  C   UNL A   1      41.279  30.461  34.102  1.00  0.00     0.074 A 
ATOM     52  C   UNL A   1      44.194  26.712  29.901  1.00  0.00     0.029 A 
ATOM     53  N   UNL A   1      42.765  28.051  30.953  1.00  0.00    -0.354 N 
ATOM     54  N   UNL A   1      41.825  29.727  33.163  1.00  0.00    -0.248 NA
ATOM     55  C   UNL A   1      42.067  30.530  35.342  1.00  0.00     0.031 C 
ATOM     56  C   UNL A   1      44.716  27.012  31.164  1.00  0.00     0.029 A 
ATOM     57  C   UNL A   1      43.837  27.866  31.811  1.00  0.00     0.049 A 
ATOM     58  H   UNL A   1      41.976  28.606  31.148  1.00  0.00     0.167 HD
ATOM     59  C   UNL A   1      43.035  29.277  33.683  1.00  0.00     0.074 A 
ATOM     60  C   UNL A   1      43.151  29.842  35.012  1.00  0.00     0.031 C 
ATOM     61  C   UNL A   1      43.962  28.464  33.116  1.00  0.00     0.034 A 
BRANCH  48  62
ATOM     62  C   UNL A   1      42.364  26.388  27.515  1.00  0.00     0.023 A 
ATOM     63  C   UNL A   1      43.040  26.917  26.396  1.00  0.00     0.012 A 
ATOM     64  C   UNL A   1      42.042  25.016  27.542  1.00  0.00     0.148 A 
ATOM     65  C   UNL A   1      43.356  26.105  25.308  1.00  0.00     0.002 A 
ATOM     66  C   UNL A   1      42.405  24.203  26.475  1.00  0.00     0.091 A 
ATOM     67  F   UNL A   1      41.378  24.536  28.603  1.00  0.00    -0.205 F 
ATOM     68  C   UNL A   1      43.049  24.747  25.352  1.00  0.00     0.022 A 
BRANCH  66  69
ATOM     69  S   UNL A   1      42.127  22.429  26.473  1.00  0.00     0.127 S 
ATOM     70  O   UNL A   1      42.859  22.017  25.276  1.00  0.00    -0.237 OA
ATOM     71  O   UNL A   1      42.744  22.021  27.735  1.00  0.00    -0.237 OA
ATOM     72  O   UNL A   1      40.684  22.248  26.415  1.00  0.00    -0.744 OA
ENDBRANCH  66  69
ENDBRANCH  48  62
BRANCH  49  73
ATOM     73  C   UNL A   1      39.563  32.055  35.246  1.00  0.00     0.023 A 
ATOM     74  C   UNL A   1      38.743  31.468  36.229  1.00  0.00     0.012 A 
ATOM     75  C   UNL A   1      39.973  33.394  35.402  1.00  0.00     0.148 A 
ATOM     76  C   UNL A   1      38.315  32.208  37.331  1.00  0.00     0.002 A 
ATOM     77  C   UNL A   1      39.590  34.107  36.530  1.00  0.00     0.091 A 
ATOM     78  F   UNL A   1      40.739  33.937  34.445  1.00  0.00    -0.205 F 
ATOM     79  C   UNL A   1      38.746  33.523  37.488  1.00  0.00     0.022 A 
BRANCH  77  80
ATOM     80  S   UNL A   1      40.197  35.760  36.879  1.00  0.00     0.127 S 
ATOM     81  O   UNL A   1      39.684  36.514  35.737  1.00  0.00    -0.237 OA
ATOM     82  O   UNL A   1      39.544  36.053  38.155  1.00  0.00    -0.237 OA
ATOM     83  O   UNL A   1      41.647  35.642  36.954  1.00  0.00    -0.744 OA
ENDBRANCH  77  80
ENDBRANCH  49  73
BRANCH  61  84
ATOM     84  C   UNL A   1      45.211  28.168  33.909  1.00  0.00     0.023 A 
ATOM     85  C   UNL A   1      45.265  27.042  34.754  1.00  0.00     0.012 A 
ATOM     86  C   UNL A   1      46.351  28.986  33.779  1.00  0.00     0.148 A 
ATOM     87  C   UNL A   1      46.415  26.764  35.494  1.00  0.00     0.002 A 
ATOM     88  C   UNL A   1      47.511  28.671  34.476  1.00  0.00     0.091 A 
ATOM     89  F   UNL A   1      46.280  30.063  32.983  1.00  0.00    -0.205 F 
ATOM     90  C   UNL A   1      47.540  27.572  35.348  1.00  0.00     0.022 A 
BRANCH  88  91
ATOM     91  S   UNL A   1      49.037  29.598  34.272  1.00  0.00     0.127 S 
ATOM     92  O   UNL A   1      49.865  29.050  35.344  1.00  0.00    -0.237 OA
ATOM     93  O   UNL A   1      49.456  29.214  32.923  1.00  0.00    -0.237 OA
ATOM     94  O   UNL A   1      48.675  31.002  34.414  1.00  0.00    -0.744 OA
ENDBRANCH  88  91
ENDBRANCH  61  84
ENDBRANCH  35  36
ENDBRANCH  28  30
ENDBRANCH  27  28
ENDBRANCH  26  27
ENDBRANCH  25  26
ENDBRANCH  24  25
ENDBRANCH  23  24
ENDBRANCH   1  23
TORSDOF 26
ENDMDL
MODEL 3
REMARK VINA RESULT:      -9.1      2.898      4.730
REMARK SMILES CC[C@@H]1CCCC[C@@]1(O)[C@H](F)C(=O)OCCOCCOCCOCCOC(=O)c1ccc(-c2c3nc(c(-c4cccc(S(=O)(=O)[O-])c4F)c4ccc([nH]4)c(-c4cccc(S(=O)(=O)[O-])c4F)c4nc(c(-c5cccc(S(=O)(=O)[O-])c5F)c5ccc2[nH]5)C=C4)C=C3)cc1
REMARK SMILES IDX 21 1 20 2 19 3 18 4 17 5 16 6 15 7 14 8 12 9 13 10 10 11
REMARK SMILES IDX 11 12 8 13 3 14 4 15 5 16 7 17 6 18 2 19 1 20 9 21 22 23
REMARK SMILES IDX 23 24 24 25 25 26 26 27 27 28 28 29 29 30 30 31 91 32 31 33
REMARK SMILES IDX 90 34 32 35 33 36 34 37 84 38 35 39 89 40 83 41 85 42 36 43
REMARK SMILES IDX 88 44 82 45 81 46 37 48 69 49 49 50 68 51 50 52 53 53 67 54
REMARK SMILES IDX 86 55 51 56 52 57 66 59 87 60 54 61 38 62 39 63 47 64 40 65
REMARK SMILES IDX 42 66 48 67 41 68 43 69 44 70 45 71 46 72 70 73 71 74 79 75
REMARK SMILES IDX 72 76 74 77 80 78 73 79 75 80 76 81 77 82 78 83 55 84 56 85
REMARK SMILES IDX 64 86 57 87 59 88 65 89 58 90 60 91 61 92 62 93 63 94
REMARK H PARENT 9 22 85 47 53 58
REMARK Flexibility Score: inf
ROOT
ATOM      1  C   UNL A   1      34.527  31.208  27.971  1.00  0.00     0.188 C 
ENDROOT
BRANCH   1   2
ATOM      2  O   UNL A   1      33.180  30.772  27.832  1.00  0.00    -0.377 OA
BRANCH   2   3
ATOM      3  C   UNL A   1      32.951  29.692  26.954  1.00  0.00     0.188 C 
BRANCH   3   4
ATOM      4  C   UNL A   1      33.216  30.042  25.478  1.00  0.00     0.188 C 
BRANCH   4   5
ATOM      5  O   UNL A   1      33.055  29.088  24.432  1.00  0.00    -0.376 OA
BRANCH   5   6
ATOM      6  C   UNL A   1      31.806  28.454  24.165  1.00  0.00     0.202 C 
BRANCH   6   7
ATOM      7  C   UNL A   1      31.598  27.569  22.930  1.00  0.00     0.261 C 
BRANCH   7   8
ATOM      8  O   UNL A   1      32.817  27.070  22.385  1.00  0.00    -0.461 OA
BRANCH   8   9
ATOM      9  C   UNL A   1      32.828  25.781  21.974  1.00  0.00     0.343 C 
ATOM     10  O   UNL A   1      33.303  25.385  20.917  1.00  0.00    -0.249 OA
BRANCH   9  11
ATOM     11  C   UNL A   1      32.261  24.869  23.050  1.00  0.00     0.307 C 
ATOM     12  F   UNL A   1      31.062  24.322  22.671  1.00  0.00    -0.232 F 
BRANCH  11  13
ATOM     13  C   UNL A   1      33.185  23.695  23.420  1.00  0.00     0.110 C 
ATOM     14  C   UNL A   1      34.518  24.163  24.073  1.00  0.00     0.024 C 
ATOM     15  C   UNL A   1      34.247  24.810  25.458  1.00  0.00     0.007 C 
ATOM     16  C   UNL A   1      33.421  23.915  26.390  1.00  0.00     0.001 C 
ATOM     17  C   UNL A   1      32.422  22.763  24.390  1.00  0.00     0.039 C 
ATOM     18  C   UNL A   1      32.136  23.420  25.738  1.00  0.00     0.003 C 
BRANCH  14  19
ATOM     19  C   UNL A   1      35.657  23.117  24.226  1.00  0.00     0.003 C 
ATOM     20  C   UNL A   1      36.641  22.944  23.083  1.00  0.00     0.004 C 
ENDBRANCH  14  19
BRANCH  13  21
ATOM     21  O   UNL A   1      33.414  22.935  22.230  1.00  0.00    -0.386 OA
ATOM     22  H   UNL A   1      32.792  22.192  22.196  1.00  0.00     0.211 HD
ENDBRANCH  13  21
ENDBRANCH  11  13
ENDBRANCH   9  11
ENDBRANCH   8   9
ENDBRANCH   7   8
ENDBRANCH   6   7
ENDBRANCH   5   6
ENDBRANCH   4   5
ENDBRANCH   3   4
ENDBRANCH   2   3
ENDBRANCH   1   2
BRANCH   1  23
ATOM     23  C   UNL A   1      34.857  32.158  29.146  1.00  0.00     0.188 C 
BRANCH  23  24
ATOM     24  O   UNL A   1      35.330  33.444  28.758  1.00  0.00    -0.376 OA
BRANCH  24  25
ATOM     25  C   UNL A   1      34.400  34.359  28.196  1.00  0.00     0.202 C 
BRANCH  25  26
ATOM     26  C   UNL A   1      33.225  34.815  29.078  1.00  0.00     0.261 C 
BRANCH  26  27
ATOM     27  O   UNL A   1      33.559  35.667  30.184  1.00  0.00    -0.460 OA
BRANCH  27  28
ATOM     28  C   UNL A   1      33.196  35.251  31.419  1.00  0.00     0.338 C 
ATOM     29  O   UNL A   1      32.076  35.243  31.886  1.00  0.00    -0.246 OA
BRANCH  28  30
ATOM     30  C   UNL A   1      34.369  34.596  32.041  1.00  0.00     0.060 A 
ATOM     31  C   UNL A   1      35.629  35.181  31.861  1.00  0.00     0.016 A 
ATOM     32  C   UNL A   1      34.232  33.421  32.782  1.00  0.00     0.016 A 
ATOM     33  C   UNL A   1      36.764  34.565  32.384  1.00  0.00     0.010 A 
ATOM     34  C   UNL A   1      35.376  32.792  33.288  1.00  0.00     0.010 A 
ATOM     35  C   UNL A   1      36.649  33.342  33.056  1.00  0.00    -0.014 A 
BRANCH  35  36
ATOM     36  C   UNL A   1      37.878  32.568  33.350  1.00  0.00     0.031 A 
ATOM     37  C   UNL A   1      38.680  32.923  34.573  1.00  0.00     0.074 A 
ATOM     38  C   UNL A   1      38.256  31.539  32.570  1.00  0.00     0.049 A 
ATOM     39  N   UNL A   1      39.757  32.356  35.052  1.00  0.00    -0.248 NA
ATOM     40  C   UNL A   1      38.204  34.071  35.363  1.00  0.00     0.031 C 
ATOM     41  C   UNL A   1      37.564  31.099  31.361  1.00  0.00     0.029 A 
ATOM     42  N   UNL A   1      39.328  30.691  32.676  1.00  0.00    -0.354 N 
ATOM     43  C   UNL A   1      40.102  33.090  36.180  1.00  0.00     0.074 A 
ATOM     44  C   UNL A   1      39.128  34.153  36.307  1.00  0.00     0.031 C 
ATOM     45  C   UNL A   1      38.243  30.071  30.822  1.00  0.00     0.029 A 
ATOM     46  C   UNL A   1      39.426  29.796  31.637  1.00  0.00     0.049 A 
ATOM     47  H   UNL A   1      39.967  30.718  33.425  1.00  0.00     0.167 HD
ATOM     48  C   UNL A   1      41.128  32.893  37.041  1.00  0.00     0.034 A 
ATOM     49  C   UNL A   1      40.371  28.874  31.367  1.00  0.00     0.034 A 
ATOM     50  C   UNL A   1      42.092  31.833  36.916  1.00  0.00     0.049 A 
ATOM     51  C   UNL A   1      41.514  28.684  32.331  1.00  0.00     0.074 A 
ATOM     52  C   UNL A   1      43.139  31.518  37.764  1.00  0.00     0.029 A 
ATOM     53  N   UNL A   1      42.143  30.927  35.867  1.00  0.00    -0.354 N 
ATOM     54  N   UNL A   1      41.757  29.306  33.459  1.00  0.00    -0.248 NA
ATOM     55  C   UNL A   1      42.490  27.635  32.002  1.00  0.00     0.031 C 
ATOM     56  C   UNL A   1      43.849  30.449  37.206  1.00  0.00     0.029 A 
ATOM     57  C   UNL A   1      43.214  30.064  36.036  1.00  0.00     0.049 A 
ATOM     58  H   UNL A   1      41.511  30.900  35.113  1.00  0.00     0.167 HD
ATOM     59  C   UNL A   1      42.891  28.701  33.993  1.00  0.00     0.074 A 
ATOM     60  C   UNL A   1      43.270  27.647  33.074  1.00  0.00     0.031 C 
ATOM     61  C   UNL A   1      43.561  28.994  35.136  1.00  0.00     0.034 A 
BRANCH  48  62
ATOM     62  C   UNL A   1      41.259  33.847  38.199  1.00  0.00     0.023 A 
ATOM     63  C   UNL A   1      42.155  34.934  38.120  1.00  0.00     0.012 A 
ATOM     64  C   UNL A   1      40.462  33.693  39.350  1.00  0.00     0.148 A 
ATOM     65  C   UNL A   1      42.284  35.827  39.182  1.00  0.00     0.002 A 
ATOM     66  C   UNL A   1      40.559  34.616  40.385  1.00  0.00     0.091 A 
ATOM     67  F   UNL A   1      39.634  32.641  39.417  1.00  0.00    -0.205 F 
ATOM     68  C   UNL A   1      41.478  35.676  40.309  1.00  0.00     0.022 A 
BRANCH  66  69
ATOM     69  S   UNL A   1      39.508  34.554  41.839  1.00  0.00     0.127 S 
ATOM     70  O   UNL A   1      39.960  35.729  42.581  1.00  0.00    -0.237 OA
ATOM     71  O   UNL A   1      38.172  34.677  41.257  1.00  0.00    -0.237 OA
ATOM     72  O   UNL A   1      39.778  33.272  42.475  1.00  0.00    -0.744 OA
ENDBRANCH  66  69
ENDBRANCH  48  62
BRANCH  49  73
ATOM     73  C   UNL A   1      40.261  28.037  30.139  1.00  0.00     0.023 A 
ATOM     74  C   UNL A   1      39.320  26.990  30.085  1.00  0.00     0.012 A 
ATOM     75  C   UNL A   1      41.078  28.285  29.019  1.00  0.00     0.148 A 
ATOM     76  C   UNL A   1      39.216  26.186  28.949  1.00  0.00     0.002 A 
ATOM     77  C   UNL A   1      40.929  27.519  27.871  1.00  0.00     0.091 A 
ATOM     78  F   UNL A   1      41.978  29.275  29.099  1.00  0.00    -0.205 F 
ATOM     79  C   UNL A   1      40.012  26.457  27.839  1.00  0.00     0.022 A 
BRANCH  77  80
ATOM     80  S   UNL A   1      41.820  27.872  26.352  1.00  0.00     0.127 S 
ATOM     81  O   UNL A   1      41.350  29.220  26.037  1.00  0.00    -0.237 OA
ATOM     82  O   UNL A   1      43.211  27.794  26.798  1.00  0.00    -0.237 OA
ATOM     83  O   UNL A   1      41.427  26.833  25.411  1.00  0.00    -0.744 OA
ENDBRANCH  77  80
ENDBRANCH  49  73
BRANCH  61  84
ATOM     84  C   UNL A   1      44.753  28.137  35.487  1.00  0.00     0.023 A 
ATOM     85  C   UNL A   1      46.047  28.522  35.084  1.00  0.00     0.012 A 
ATOM     86  C   UNL A   1      44.591  26.971  36.261  1.00  0.00     0.148 A 
ATOM     87  C   UNL A   1      47.153  27.733  35.401  1.00  0.00     0.002 A 
ATOM     88  C   UNL A   1      45.704  26.220  36.620  1.00  0.00     0.091 A 
ATOM     89  F   UNL A   1      43.352  26.609  36.625  1.00  0.00    -0.205 F 
ATOM     90  C   UNL A   1      46.984  26.588  36.176  1.00  0.00     0.022 A 
BRANCH  88  91
ATOM     91  S   UNL A   1      45.590  24.788  37.700  1.00  0.00     0.127 S 
ATOM     92  O   UNL A   1      44.804  23.863  36.887  1.00  0.00    -0.237 OA
ATOM     93  O   UNL A   1      46.994  24.411  37.867  1.00  0.00    -0.237 OA
ATOM     94  O   UNL A   1      44.943  25.256  38.919  1.00  0.00    -0.744 OA
ENDBRANCH  88  91
ENDBRANCH  61  84
ENDBRANCH  35  36
ENDBRANCH  28  30
ENDBRANCH  27  28
ENDBRANCH  26  27
ENDBRANCH  25  26
ENDBRANCH  24  25
ENDBRANCH  23  24
ENDBRANCH   1  23
TORSDOF 26
ENDMDL
