MODEL 1
REMARK VINA RESULT:      -9.2      0.000      0.000
REMARK SMILES O=C(COc1ccccc1/C=C1\C(=O)Nc2ccccc21)OCCOCCOCCOCCOC(=O)c1ccc(-c2c3nc(c(-c4cccc(S(=O)(=O)[O-])c4F)c4ccc([nH]4)c(-c4cccc(S(=O)(=O)[O-])c4F)c4nc(c(-c5cccc(S(=O)(=O)[O-])c5F)c5ccc2[nH]5)C=C4)C=C3)cc1
REMARK SMILES IDX 28 1 27 2 26 3 25 4 24 5 23 6 22 7 2 8 1 9 3 10 4 11 5 12
REMARK SMILES IDX 6 13 10 14 7 15 9 16 8 17 11 18 12 19 13 20 21 21 14 22
REMARK SMILES IDX 15 23 16 24 20 25 17 27 19 28 18 29 29 30 30 31 31 32 32 33
REMARK SMILES IDX 33 34 34 35 35 36 36 37 37 38 38 39 99 40 39 41 98 42 40 43
REMARK SMILES IDX 41 44 42 45 92 46 43 47 97 48 91 49 93 50 44 51 96 52 90 53
REMARK SMILES IDX 89 54 45 56 77 57 57 58 76 59 58 60 61 61 75 62 94 63 59 64
REMARK SMILES IDX 60 65 74 67 95 68 62 69 46 70 47 71 55 72 48 73 50 74 56 75
REMARK SMILES IDX 49 76 51 77 52 78 53 79 54 80 78 81 79 82 87 83 80 84 82 85
REMARK SMILES IDX 88 86 81 87 83 88 84 89 85 90 86 91 63 92 64 93 72 94 65 95
REMARK SMILES IDX 67 96 73 97 66 98 68 99 69 100 70 101 71 102
REMARK H PARENT 15 26 93 55 61 66
REMARK Flexibility Score: inf
ROOT
ATOM      1  O   UNL A   1      38.280  22.782  25.881  1.00  0.00    -0.377 OA
ENDROOT
BRANCH   1   2
ATOM      2  C   UNL A   1      37.085  23.155  25.204  1.00  0.00     0.188 C 
BRANCH   2   3
ATOM      3  C   UNL A   1      35.791  23.248  26.042  1.00  0.00     0.188 C 
BRANCH   3   4
ATOM      4  O   UNL A   1      34.774  22.324  25.656  1.00  0.00    -0.376 OA
BRANCH   4   5
ATOM      5  C   UNL A   1      33.866  21.852  26.637  1.00  0.00     0.202 C 
BRANCH   5   6
ATOM      6  C   UNL A   1      33.094  22.928  27.400  1.00  0.00     0.261 C 
BRANCH   6   7
ATOM      7  O   UNL A   1      31.717  22.602  27.723  1.00  0.00    -0.461 OA
BRANCH   7   8
ATOM      8  C   UNL A   1      30.589  22.930  27.056  1.00  0.00     0.344 C 
ATOM      9  O   UNL A   1      29.569  23.216  27.681  1.00  0.00    -0.248 OA
BRANCH   8  10
ATOM     10  C   UNL A   1      30.586  22.896  25.547  1.00  0.00     0.351 C 
BRANCH  10  11
ATOM     11  O   UNL A   1      30.946  24.126  24.958  1.00  0.00    -0.481 OA
BRANCH  11  12
ATOM     12  C   UNL A   1      31.928  24.058  24.013  1.00  0.00     0.127 A 
ATOM     13  C   UNL A   1      31.883  22.862  23.283  1.00  0.00     0.047 A 
ATOM     14  C   UNL A   1      32.993  24.977  23.877  1.00  0.00     0.017 A 
ATOM     15  C   UNL A   1      32.902  22.545  22.402  1.00  0.00     0.004 A 
ATOM     16  C   UNL A   1      34.041  24.588  23.036  1.00  0.00     0.012 A 
ATOM     17  C   UNL A   1      33.991  23.401  22.293  1.00  0.00     0.001 A 
BRANCH  14  18
ATOM     18  C   UNL A   1      33.078  26.240  24.649  1.00  0.00     0.026 C 
ATOM     19  C   UNL A   1      32.367  27.381  24.559  1.00  0.00     0.050 C 
ATOM     20  C   UNL A   1      31.326  27.782  23.534  1.00  0.00     0.256 C 
ATOM     21  C   UNL A   1      32.470  28.522  25.500  1.00  0.00     0.011 A 
ATOM     22  O   UNL A   1      30.868  27.138  22.611  1.00  0.00    -0.269 OA
ATOM     23  N   UNL A   1      30.973  29.081  23.858  1.00  0.00    -0.321 N 
ATOM     24  C   UNL A   1      31.609  29.511  25.015  1.00  0.00     0.049 A 
ATOM     25  C   UNL A   1      33.144  28.733  26.692  1.00  0.00     0.011 A 
ATOM     26  H   UNL A   1      30.347  29.631  23.333  1.00  0.00     0.170 HD
ATOM     27  C   UNL A   1      31.407  30.721  25.653  1.00  0.00     0.027 A 
ATOM     28  C   UNL A   1      32.942  29.946  27.369  1.00  0.00     0.001 A 
ATOM     29  C   UNL A   1      32.086  30.933  26.853  1.00  0.00     0.002 A 
ENDBRANCH  14  18
ENDBRANCH  11  12
ENDBRANCH  10  11
ENDBRANCH   8  10
ENDBRANCH   7   8
ENDBRANCH   6   7
ENDBRANCH   5   6
ENDBRANCH   4   5
ENDBRANCH   3   4
ENDBRANCH   2   3
ENDBRANCH   1   2
BRANCH   1  30
ATOM     30  C   UNL A   1      38.704  21.439  25.680  1.00  0.00     0.188 C 
BRANCH  30  31
ATOM     31  C   UNL A   1      40.080  21.177  26.321  1.00  0.00     0.188 C 
BRANCH  31  32
ATOM     32  O   UNL A   1      40.611  22.318  26.987  1.00  0.00    -0.376 OA
BRANCH  32  33
ATOM     33  C   UNL A   1      42.014  22.354  27.224  1.00  0.00     0.202 C 
BRANCH  33  34
ATOM     34  C   UNL A   1      43.009  22.108  26.072  1.00  0.00     0.261 C 
BRANCH  34  35
ATOM     35  O   UNL A   1      44.291  22.749  26.163  1.00  0.00    -0.460 OA
BRANCH  35  36
ATOM     36  C   UNL A   1      44.593  23.745  25.303  1.00  0.00     0.338 C 
ATOM     37  O   UNL A   1      44.737  23.660  24.100  1.00  0.00    -0.246 OA
BRANCH  36  38
ATOM     38  C   UNL A   1      44.468  25.012  26.068  1.00  0.00     0.060 A 
ATOM     39  C   UNL A   1      44.122  26.184  25.379  1.00  0.00     0.016 A 
ATOM     40  C   UNL A   1      44.589  25.024  27.460  1.00  0.00     0.016 A 
ATOM     41  C   UNL A   1      43.898  27.369  26.082  1.00  0.00     0.010 A 
ATOM     42  C   UNL A   1      44.401  26.217  28.159  1.00  0.00     0.010 A 
ATOM     43  C   UNL A   1      44.074  27.399  27.472  1.00  0.00    -0.014 A 
BRANCH  43  44
ATOM     44  C   UNL A   1      44.140  28.695  28.185  1.00  0.00     0.031 A 
ATOM     45  C   UNL A   1      42.851  29.261  28.718  1.00  0.00     0.074 A 
ATOM     46  C   UNL A   1      45.290  29.381  28.309  1.00  0.00     0.049 A 
ATOM     47  N   UNL A   1      42.631  30.401  29.314  1.00  0.00    -0.248 NA
ATOM     48  C   UNL A   1      41.648  28.424  28.552  1.00  0.00     0.031 C 
ATOM     49  C   UNL A   1      46.597  28.940  27.828  1.00  0.00     0.029 A 
ATOM     50  N   UNL A   1      45.530  30.623  28.845  1.00  0.00    -0.354 N 
ATOM     51  C   UNL A   1      41.266  30.432  29.569  1.00  0.00     0.074 A 
ATOM     52  C   UNL A   1      40.707  29.195  29.074  1.00  0.00     0.031 C 
ATOM     53  C   UNL A   1      47.495  29.919  28.048  1.00  0.00     0.029 A 
ATOM     54  C   UNL A   1      46.821  31.062  28.660  1.00  0.00     0.049 A 
ATOM     55  H   UNL A   1      44.844  31.149  29.317  1.00  0.00     0.167 HD
ATOM     56  C   UNL A   1      40.542  31.403  30.169  1.00  0.00     0.034 A 
ATOM     57  C   UNL A   1      47.378  32.262  28.924  1.00  0.00     0.034 A 
ATOM     58  C   UNL A   1      41.097  32.630  30.665  1.00  0.00     0.049 A 
ATOM     59  C   UNL A   1      46.534  33.344  29.556  1.00  0.00     0.074 A 
ATOM     60  C   UNL A   1      40.456  33.645  31.350  1.00  0.00     0.029 A 
ATOM     61  N   UNL A   1      42.415  33.021  30.501  1.00  0.00    -0.354 N 
ATOM     62  N   UNL A   1      45.282  33.294  29.946  1.00  0.00    -0.248 NA
ATOM     63  C   UNL A   1      47.185  34.641  29.802  1.00  0.00     0.031 C 
ATOM     64  C   UNL A   1      41.382  34.668  31.576  1.00  0.00     0.029 A 
ATOM     65  C   UNL A   1      42.603  34.277  31.046  1.00  0.00     0.049 A 
ATOM     66  H   UNL A   1      43.113  32.485  30.062  1.00  0.00     0.167 HD
ATOM     67  C   UNL A   1      45.005  34.540  30.502  1.00  0.00     0.074 A 
ATOM     68  C   UNL A   1      46.227  35.313  30.427  1.00  0.00     0.031 C 
ATOM     69  C   UNL A   1      43.840  35.012  31.010  1.00  0.00     0.034 A 
BRANCH  56  70
ATOM     70  C   UNL A   1      39.068  31.173  30.339  1.00  0.00     0.023 A 
ATOM     71  C   UNL A   1      38.617  30.249  31.303  1.00  0.00     0.012 A 
ATOM     72  C   UNL A   1      38.134  31.922  29.600  1.00  0.00     0.148 A 
ATOM     73  C   UNL A   1      37.253  30.066  31.521  1.00  0.00     0.002 A 
ATOM     74  C   UNL A   1      36.777  31.761  29.850  1.00  0.00     0.091 A 
ATOM     75  F   UNL A   1      38.591  32.773  28.671  1.00  0.00    -0.205 F 
ATOM     76  C   UNL A   1      36.335  30.830  30.804  1.00  0.00     0.022 A 
BRANCH  74  77
ATOM     77  S   UNL A   1      35.517  32.741  29.028  1.00  0.00     0.127 S 
ATOM     78  O   UNL A   1      34.317  32.363  29.771  1.00  0.00    -0.237 OA
ATOM     79  O   UNL A   1      35.984  34.106  29.275  1.00  0.00    -0.237 OA
ATOM     80  O   UNL A   1      35.535  32.334  27.631  1.00  0.00    -0.744 OA
ENDBRANCH  74  77
ENDBRANCH  56  70
BRANCH  57  81
ATOM     81  C   UNL A   1      48.809  32.523  28.591  1.00  0.00     0.023 A 
ATOM     82  C   UNL A   1      49.799  32.342  29.577  1.00  0.00     0.012 A 
ATOM     83  C   UNL A   1      49.192  32.972  27.312  1.00  0.00     0.148 A 
ATOM     84  C   UNL A   1      51.136  32.638  29.305  1.00  0.00     0.002 A 
ATOM     85  C   UNL A   1      50.533  33.212  27.032  1.00  0.00     0.091 A 
ATOM     86  F   UNL A   1      48.235  33.170  26.393  1.00  0.00    -0.205 F 
ATOM     87  C   UNL A   1      51.505  33.063  28.032  1.00  0.00     0.022 A 
BRANCH  85  88
ATOM     88  S   UNL A   1      51.098  33.639  25.381  1.00  0.00     0.127 S 
ATOM     89  O   UNL A   1      51.158  32.330  24.736  1.00  0.00    -0.237 OA
ATOM     90  O   UNL A   1      50.023  34.511  24.905  1.00  0.00    -0.237 OA
ATOM     91  O   UNL A   1      52.373  34.317  25.575  1.00  0.00    -0.744 OA
ENDBRANCH  85  88
ENDBRANCH  57  81
BRANCH  69  92
ATOM     92  C   UNL A   1      43.820  36.422  31.537  1.00  0.00     0.023 A 
ATOM     93  C   UNL A   1      43.932  36.645  32.924  1.00  0.00     0.012 A 
ATOM     94  C   UNL A   1      43.791  37.523  30.658  1.00  0.00     0.148 A 
ATOM     95  C   UNL A   1      43.990  37.943  33.430  1.00  0.00     0.002 A 
ATOM     96  C   UNL A   1      43.898  38.813  31.166  1.00  0.00     0.091 A 
ATOM     97  F   UNL A   1      43.670  37.289  29.344  1.00  0.00    -0.205 F 
ATOM     98  C   UNL A   1      43.987  39.024  32.552  1.00  0.00     0.022 A 
BRANCH  96  99
ATOM     99  S   UNL A   1      43.998  40.260  30.108  1.00  0.00     0.127 S 
ATOM    100  O   UNL A   1      45.188  39.965  29.311  1.00  0.00    -0.237 OA
ATOM    101  O   UNL A   1      42.737  40.195  29.369  1.00  0.00    -0.237 OA
ATOM    102  O   UNL A   1      44.115  41.404  31.002  1.00  0.00    -0.744 OA
ENDBRANCH  96  99
ENDBRANCH  69  92
ENDBRANCH  43  44
ENDBRANCH  36  38
ENDBRANCH  35  36
ENDBRANCH  34  35
ENDBRANCH  33  34
ENDBRANCH  32  33
ENDBRANCH  31  32
ENDBRANCH  30  31
ENDBRANCH   1  30
TORSDOF 26
ENDMDL
MODEL 2
REMARK VINA RESULT:      -9.0      4.706      8.601
REMARK SMILES O=C(COc1ccccc1/C=C1\C(=O)Nc2ccccc21)OCCOCCOCCOCCOC(=O)c1ccc(-c2c3nc(c(-c4cccc(S(=O)(=O)[O-])c4F)c4ccc([nH]4)c(-c4cccc(S(=O)(=O)[O-])c4F)c4nc(c(-c5cccc(S(=O)(=O)[O-])c5F)c5ccc2[nH]5)C=C4)C=C3)cc1
REMARK SMILES IDX 28 1 27 2 26 3 25 4 24 5 23 6 22 7 2 8 1 9 3 10 4 11 5 12
REMARK SMILES IDX 6 13 10 14 7 15 9 16 8 17 11 18 12 19 13 20 21 21 14 22
REMARK SMILES IDX 15 23 16 24 20 25 17 27 19 28 18 29 29 30 30 31 31 32 32 33
REMARK SMILES IDX 33 34 34 35 35 36 36 37 37 38 38 39 99 40 39 41 98 42 40 43
REMARK SMILES IDX 41 44 42 45 92 46 43 47 97 48 91 49 93 50 44 51 96 52 90 53
REMARK SMILES IDX 89 54 45 56 77 57 57 58 76 59 58 60 61 61 75 62 94 63 59 64
REMARK SMILES IDX 60 65 74 67 95 68 62 69 46 70 47 71 55 72 48 73 50 74 56 75
REMARK SMILES IDX 49 76 51 77 52 78 53 79 54 80 78 81 79 82 87 83 80 84 82 85
REMARK SMILES IDX 88 86 81 87 83 88 84 89 85 90 86 91 63 92 64 93 72 94 65 95
REMARK SMILES IDX 67 96 73 97 66 98 68 99 69 100 70 101 71 102
REMARK H PARENT 15 26 93 55 61 66
REMARK Flexibility Score: inf
ROOT
ATOM      1  O   UNL A   1      41.422  20.995  27.512  1.00  0.00    -0.377 OA
ENDROOT
BRANCH   1   2
ATOM      2  C   UNL A   1      40.969  21.573  26.293  1.00  0.00     0.188 C 
BRANCH   2   3
ATOM      3  C   UNL A   1      39.608  22.303  26.313  1.00  0.00     0.188 C 
BRANCH   3   4
ATOM      4  O   UNL A   1      38.570  21.628  25.602  1.00  0.00    -0.376 OA
BRANCH   4   5
ATOM      5  C   UNL A   1      37.241  22.107  25.708  1.00  0.00     0.202 C 
BRANCH   5   6
ATOM      6  C   UNL A   1      36.140  21.077  25.450  1.00  0.00     0.261 C 
BRANCH   6   7
ATOM      7  O   UNL A   1      35.000  21.555  24.692  1.00  0.00    -0.461 OA
BRANCH   7   8
ATOM      8  C   UNL A   1      33.952  22.298  25.112  1.00  0.00     0.344 C 
ATOM      9  O   UNL A   1      32.878  21.755  25.365  1.00  0.00    -0.248 OA
BRANCH   8  10
ATOM     10  C   UNL A   1      34.105  23.795  25.223  1.00  0.00     0.351 C 
BRANCH  10  11
ATOM     11  O   UNL A   1      32.906  24.500  24.988  1.00  0.00    -0.481 OA
BRANCH  11  12
ATOM     12  C   UNL A   1      32.794  25.071  23.753  1.00  0.00     0.127 A 
ATOM     13  C   UNL A   1      32.361  24.158  22.782  1.00  0.00     0.047 A 
ATOM     14  C   UNL A   1      33.227  26.373  23.414  1.00  0.00     0.017 A 
ATOM     15  C   UNL A   1      32.354  24.514  21.445  1.00  0.00     0.004 A 
ATOM     16  C   UNL A   1      33.278  26.671  22.049  1.00  0.00     0.012 A 
ATOM     17  C   UNL A   1      32.831  25.766  21.078  1.00  0.00     0.001 A 
BRANCH  14  18
ATOM     18  C   UNL A   1      33.708  27.353  24.417  1.00  0.00     0.026 C 
ATOM     19  C   UNL A   1      33.114  28.443  24.944  1.00  0.00     0.050 C 
ATOM     20  C   UNL A   1      31.796  29.089  24.573  1.00  0.00     0.256 C 
ATOM     21  C   UNL A   1      33.668  29.258  26.052  1.00  0.00     0.011 A 
ATOM     22  O   UNL A   1      30.965  28.730  23.763  1.00  0.00    -0.269 OA
ATOM     23  N   UNL A   1      31.705  30.220  25.366  1.00  0.00    -0.321 N 
ATOM     24  C   UNL A   1      32.772  30.313  26.250  1.00  0.00     0.049 A 
ATOM     25  C   UNL A   1      34.765  29.133  26.889  1.00  0.00     0.011 A 
ATOM     26  H   UNL A   1      30.973  30.877  25.311  1.00  0.00     0.170 HD
ATOM     27  C   UNL A   1      32.933  31.272  27.233  1.00  0.00     0.027 A 
ATOM     28  C   UNL A   1      34.942  30.083  27.907  1.00  0.00     0.001 A 
ATOM     29  C   UNL A   1      34.038  31.145  28.075  1.00  0.00     0.002 A 
ENDBRANCH  14  18
ENDBRANCH  11  12
ENDBRANCH  10  11
ENDBRANCH   8  10
ENDBRANCH   7   8
ENDBRANCH   6   7
ENDBRANCH   5   6
ENDBRANCH   4   5
ENDBRANCH   3   4
ENDBRANCH   2   3
ENDBRANCH   1   2
BRANCH   1  30
ATOM     30  C   UNL A   1      41.747  19.611  27.451  1.00  0.00     0.188 C 
BRANCH  30  31
ATOM     31  C   UNL A   1      42.216  19.200  26.043  1.00  0.00     0.188 C 
BRANCH  31  32
ATOM     32  O   UNL A   1      43.627  19.296  25.875  1.00  0.00    -0.376 OA
BRANCH  32  33
ATOM     33  C   UNL A   1      44.167  18.964  24.601  1.00  0.00     0.202 C 
BRANCH  33  34
ATOM     34  C   UNL A   1      45.326  19.788  24.004  1.00  0.00     0.261 C 
BRANCH  34  35
ATOM     35  O   UNL A   1      45.560  21.091  24.559  1.00  0.00    -0.460 OA
BRANCH  35  36
ATOM     36  C   UNL A   1      44.822  22.136  24.125  1.00  0.00     0.338 C 
ATOM     37  O   UNL A   1      44.176  22.203  23.099  1.00  0.00    -0.246 OA
BRANCH  36  38
ATOM     38  C   UNL A   1      44.742  23.093  25.257  1.00  0.00     0.060 A 
ATOM     39  C   UNL A   1      44.938  24.459  25.001  1.00  0.00     0.016 A 
ATOM     40  C   UNL A   1      44.376  22.663  26.536  1.00  0.00     0.016 A 
ATOM     41  C   UNL A   1      44.769  25.394  26.024  1.00  0.00     0.010 A 
ATOM     42  C   UNL A   1      44.244  23.594  27.566  1.00  0.00     0.010 A 
ATOM     43  C   UNL A   1      44.459  24.961  27.320  1.00  0.00    -0.014 A 
BRANCH  43  44
ATOM     44  C   UNL A   1      44.576  25.896  28.463  1.00  0.00     0.031 A 
ATOM     45  C   UNL A   1      45.912  25.992  29.147  1.00  0.00     0.074 A 
ATOM     46  C   UNL A   1      43.522  26.594  28.921  1.00  0.00     0.049 A 
ATOM     47  N   UNL A   1      46.254  26.679  30.204  1.00  0.00    -0.248 NA
ATOM     48  C   UNL A   1      47.011  25.204  28.558  1.00  0.00     0.031 C 
ATOM     49  C   UNL A   1      42.178  26.577  28.347  1.00  0.00     0.029 A 
ATOM     50  N   UNL A   1      43.413  27.426  30.009  1.00  0.00    -0.354 N 
ATOM     51  C   UNL A   1      47.594  26.386  30.422  1.00  0.00     0.074 A 
ATOM     52  C   UNL A   1      48.010  25.468  29.386  1.00  0.00     0.031 C 
ATOM     53  C   UNL A   1      41.366  27.325  29.117  1.00  0.00     0.029 A 
ATOM     54  C   UNL A   1      42.126  27.851  30.250  1.00  0.00     0.049 A 
ATOM     55  H   UNL A   1      44.182  27.693  30.564  1.00  0.00     0.167 HD
ATOM     56  C   UNL A   1      48.410  26.846  31.397  1.00  0.00     0.034 A 
ATOM     57  C   UNL A   1      41.621  28.553  31.286  1.00  0.00     0.034 A 
ATOM     58  C   UNL A   1      48.000  27.760  32.424  1.00  0.00     0.049 A 
ATOM     59  C   UNL A   1      42.549  29.017  32.383  1.00  0.00     0.074 A 
ATOM     60  C   UNL A   1      48.772  28.337  33.415  1.00  0.00     0.029 A 
ATOM     61  N   UNL A   1      46.702  28.204  32.611  1.00  0.00    -0.354 N 
ATOM     62  N   UNL A   1      43.849  28.872  32.484  1.00  0.00    -0.248 NA
ATOM     63  C   UNL A   1      41.943  29.758  33.502  1.00  0.00     0.031 C 
ATOM     64  C   UNL A   1      47.932  29.110  34.223  1.00  0.00     0.029 A 
ATOM     65  C   UNL A   1      46.643  29.027  33.720  1.00  0.00     0.049 A 
ATOM     66  H   UNL A   1      45.937  27.969  32.039  1.00  0.00     0.167 HD
ATOM     67  C   UNL A   1      44.216  29.523  33.659  1.00  0.00     0.074 A 
ATOM     68  C   UNL A   1      43.008  30.088  34.219  1.00  0.00     0.031 C 
ATOM     69  C   UNL A   1      45.439  29.625  34.235  1.00  0.00     0.034 A 
BRANCH  56  70
ATOM     70  C   UNL A   1      49.838  26.380  31.392  1.00  0.00     0.023 A 
ATOM     71  C   UNL A   1      50.819  27.158  30.748  1.00  0.00     0.012 A 
ATOM     72  C   UNL A   1      50.216  25.216  32.086  1.00  0.00     0.148 A 
ATOM     73  C   UNL A   1      52.159  26.778  30.785  1.00  0.00     0.002 A 
ATOM     74  C   UNL A   1      51.558  24.863  32.150  1.00  0.00     0.091 A 
ATOM     75  F   UNL A   1      49.258  24.479  32.666  1.00  0.00    -0.205 F 
ATOM     76  C   UNL A   1      52.529  25.638  31.495  1.00  0.00     0.022 A 
BRANCH  74  77
ATOM     77  S   UNL A   1      52.146  23.452  33.092  1.00  0.00     0.127 S 
ATOM     78  O   UNL A   1      51.742  23.813  34.450  1.00  0.00    -0.237 OA
ATOM     79  O   UNL A   1      51.383  22.352  32.500  1.00  0.00    -0.237 OA
ATOM     80  O   UNL A   1      53.583  23.387  32.869  1.00  0.00    -0.744 OA
ENDBRANCH  74  77
ENDBRANCH  56  70
BRANCH  57  81
ATOM     81  C   UNL A   1      40.163  28.861  31.353  1.00  0.00     0.023 A 
ATOM     82  C   UNL A   1      39.283  27.943  31.957  1.00  0.00     0.012 A 
ATOM     83  C   UNL A   1      39.640  30.047  30.800  1.00  0.00     0.148 A 
ATOM     84  C   UNL A   1      37.907  28.183  31.978  1.00  0.00     0.002 A 
ATOM     85  C   UNL A   1      38.276  30.306  30.873  1.00  0.00     0.091 A 
ATOM     86  F   UNL A   1      40.486  30.898  30.201  1.00  0.00    -0.205 F 
ATOM     87  C   UNL A   1      37.405  29.367  31.445  1.00  0.00     0.022 A 
BRANCH  85  88
ATOM     88  S   UNL A   1      37.573  31.865  30.323  1.00  0.00     0.127 S 
ATOM     89  O   UNL A   1      38.430  32.835  31.000  1.00  0.00    -0.237 OA
ATOM     90  O   UNL A   1      37.754  31.789  28.873  1.00  0.00    -0.237 OA
ATOM     91  O   UNL A   1      36.180  31.831  30.753  1.00  0.00    -0.744 OA
ENDBRANCH  85  88
ENDBRANCH  57  81
BRANCH  69  92
ATOM     92  C   UNL A   1      45.547  30.383  35.532  1.00  0.00     0.023 A 
ATOM     93  C   UNL A   1      45.474  29.683  36.753  1.00  0.00     0.012 A 
ATOM     94  C   UNL A   1      45.818  31.766  35.542  1.00  0.00     0.148 A 
ATOM     95  C   UNL A   1      45.645  30.351  37.963  1.00  0.00     0.002 A 
ATOM     96  C   UNL A   1      46.035  32.417  36.750  1.00  0.00     0.091 A 
ATOM     97  F   UNL A   1      45.869  32.415  34.370  1.00  0.00    -0.205 F 
ATOM     98  C   UNL A   1      45.938  31.713  37.962  1.00  0.00     0.022 A 
BRANCH  96  99
ATOM     99  S   UNL A   1      46.512  34.145  36.842  1.00  0.00     0.127 S 
ATOM    100  O   UNL A   1      45.211  34.813  36.877  1.00  0.00    -0.237 OA
ATOM    101  O   UNL A   1      47.259  34.197  38.099  1.00  0.00    -0.237 OA
ATOM    102  O   UNL A   1      47.314  34.404  35.654  1.00  0.00    -0.744 OA
ENDBRANCH  96  99
ENDBRANCH  69  92
ENDBRANCH  43  44
ENDBRANCH  36  38
ENDBRANCH  35  36
ENDBRANCH  34  35
ENDBRANCH  33  34
ENDBRANCH  32  33
ENDBRANCH  31  32
ENDBRANCH  30  31
ENDBRANCH   1  30
TORSDOF 26
ENDMDL
MODEL 3
REMARK VINA RESULT:      -8.9      3.971      8.171
REMARK SMILES O=C(COc1ccccc1/C=C1\C(=O)Nc2ccccc21)OCCOCCOCCOCCOC(=O)c1ccc(-c2c3nc(c(-c4cccc(S(=O)(=O)[O-])c4F)c4ccc([nH]4)c(-c4cccc(S(=O)(=O)[O-])c4F)c4nc(c(-c5cccc(S(=O)(=O)[O-])c5F)c5ccc2[nH]5)C=C4)C=C3)cc1
REMARK SMILES IDX 28 1 27 2 26 3 25 4 24 5 23 6 22 7 2 8 1 9 3 10 4 11 5 12
REMARK SMILES IDX 6 13 10 14 7 15 9 16 8 17 11 18 12 19 13 20 21 21 14 22
REMARK SMILES IDX 15 23 16 24 20 25 17 27 19 28 18 29 29 30 30 31 31 32 32 33
REMARK SMILES IDX 33 34 34 35 35 36 36 37 37 38 38 39 99 40 39 41 98 42 40 43
REMARK SMILES IDX 41 44 42 45 92 46 43 47 97 48 91 49 93 50 44 51 96 52 90 53
REMARK SMILES IDX 89 54 45 56 77 57 57 58 76 59 58 60 61 61 75 62 94 63 59 64
REMARK SMILES IDX 60 65 74 67 95 68 62 69 46 70 47 71 55 72 48 73 50 74 56 75
REMARK SMILES IDX 49 76 51 77 52 78 53 79 54 80 78 81 79 82 87 83 80 84 82 85
REMARK SMILES IDX 88 86 81 87 83 88 84 89 85 90 86 91 63 92 64 93 72 94 65 95
REMARK SMILES IDX 67 96 73 97 66 98 68 99 69 100 70 101 71 102
REMARK H PARENT 15 26 93 55 61 66
REMARK Flexibility Score: inf
ROOT
ATOM      1  O   UNL A   1      40.179  21.639  26.962  1.00  0.00    -0.377 OA
ENDROOT
BRANCH   1   2
ATOM      2  C   UNL A   1      39.389  21.450  25.795  1.00  0.00     0.188 C 
BRANCH   2   3
ATOM      3  C   UNL A   1      38.016  22.155  25.741  1.00  0.00     0.188 C 
BRANCH   3   4
ATOM      4  O   UNL A   1      37.304  21.960  24.520  1.00  0.00    -0.376 OA
BRANCH   4   5
ATOM      5  C   UNL A   1      36.664  23.070  23.913  1.00  0.00     0.202 C 
BRANCH   5   6
ATOM      6  C   UNL A   1      35.155  22.938  23.710  1.00  0.00     0.261 C 
BRANCH   6   7
ATOM      7  O   UNL A   1      34.686  23.134  22.351  1.00  0.00    -0.461 OA
BRANCH   7   8
ATOM      8  C   UNL A   1      33.436  23.405  21.915  1.00  0.00     0.344 C 
ATOM      9  O   UNL A   1      33.250  24.319  21.114  1.00  0.00    -0.248 OA
BRANCH   8  10
ATOM     10  C   UNL A   1      32.276  22.606  22.457  1.00  0.00     0.351 C 
BRANCH  10  11
ATOM     11  O   UNL A   1      31.311  23.396  23.117  1.00  0.00    -0.481 OA
BRANCH  11  12
ATOM     12  C   UNL A   1      31.449  23.479  24.473  1.00  0.00     0.127 A 
ATOM     13  C   UNL A   1      32.114  22.368  25.008  1.00  0.00     0.047 A 
ATOM     14  C   UNL A   1      30.848  24.458  25.295  1.00  0.00     0.017 A 
ATOM     15  C   UNL A   1      32.192  22.198  26.380  1.00  0.00     0.004 A 
ATOM     16  C   UNL A   1      30.882  24.215  26.672  1.00  0.00     0.012 A 
ATOM     17  C   UNL A   1      31.559  23.114  27.211  1.00  0.00     0.001 A 
BRANCH  14  18
ATOM     18  C   UNL A   1      30.121  25.634  24.757  1.00  0.00     0.026 C 
ATOM     19  C   UNL A   1      30.558  26.697  24.052  1.00  0.00     0.050 C 
ATOM     20  C   UNL A   1      31.976  27.093  23.697  1.00  0.00     0.256 C 
ATOM     21  C   UNL A   1      29.685  27.735  23.455  1.00  0.00     0.011 A 
ATOM     22  O   UNL A   1      33.017  26.506  23.918  1.00  0.00    -0.269 OA
ATOM     23  N   UNL A   1      31.865  28.306  23.037  1.00  0.00    -0.321 N 
ATOM     24  C   UNL A   1      30.537  28.675  22.866  1.00  0.00     0.049 A 
ATOM     25  C   UNL A   1      28.314  27.889  23.327  1.00  0.00     0.011 A 
ATOM     26  H   UNL A   1      32.632  28.839  22.728  1.00  0.00     0.170 HD
ATOM     27  C   UNL A   1      30.083  29.781  22.172  1.00  0.00     0.027 A 
ATOM     28  C   UNL A   1      27.828  28.994  22.612  1.00  0.00     0.001 A 
ATOM     29  C   UNL A   1      28.703  29.934  22.044  1.00  0.00     0.002 A 
ENDBRANCH  14  18
ENDBRANCH  11  12
ENDBRANCH  10  11
ENDBRANCH   8  10
ENDBRANCH   7   8
ENDBRANCH   6   7
ENDBRANCH   5   6
ENDBRANCH   4   5
ENDBRANCH   3   4
ENDBRANCH   2   3
ENDBRANCH   1   2
BRANCH   1  30
ATOM     30  C   UNL A   1      40.957  20.516  27.365  1.00  0.00     0.188 C 
BRANCH  30  31
ATOM     31  C   UNL A   1      42.250  20.396  26.539  1.00  0.00     0.188 C 
BRANCH  31  32
ATOM     32  O   UNL A   1      42.864  21.654  26.278  1.00  0.00    -0.376 OA
BRANCH  32  33
ATOM     33  C   UNL A   1      43.836  21.715  25.239  1.00  0.00     0.202 C 
BRANCH  33  34
ATOM     34  C   UNL A   1      45.336  21.823  25.577  1.00  0.00     0.261 C 
BRANCH  34  35
ATOM     35  O   UNL A   1      45.796  23.065  26.133  1.00  0.00    -0.460 OA
BRANCH  35  36
ATOM     36  C   UNL A   1      45.711  24.191  25.393  1.00  0.00     0.338 C 
ATOM     37  O   UNL A   1      45.932  24.309  24.205  1.00  0.00    -0.246 OA
BRANCH  36  38
ATOM     38  C   UNL A   1      45.050  25.208  26.251  1.00  0.00     0.060 A 
ATOM     39  C   UNL A   1      45.157  26.561  25.896  1.00  0.00     0.016 A 
ATOM     40  C   UNL A   1      44.250  24.825  27.330  1.00  0.00     0.016 A 
ATOM     41  C   UNL A   1      44.464  27.532  26.623  1.00  0.00     0.010 A 
ATOM     42  C   UNL A   1      43.588  25.798  28.079  1.00  0.00     0.010 A 
ATOM     43  C   UNL A   1      43.708  27.157  27.741  1.00  0.00    -0.014 A 
BRANCH  43  44
ATOM     44  C   UNL A   1      43.224  28.187  28.689  1.00  0.00     0.031 A 
ATOM     45  C   UNL A   1      44.141  28.580  29.815  1.00  0.00     0.074 A 
ATOM     46  C   UNL A   1      41.991  28.717  28.595  1.00  0.00     0.049 A 
ATOM     47  N   UNL A   1      43.928  29.401  30.808  1.00  0.00    -0.248 NA
ATOM     48  C   UNL A   1      45.479  27.960  29.820  1.00  0.00     0.031 C 
ATOM     49  C   UNL A   1      41.012  28.409  27.554  1.00  0.00     0.029 A 
ATOM     50  N   UNL A   1      41.339  29.601  29.420  1.00  0.00    -0.354 N 
ATOM     51  C   UNL A   1      45.090  29.376  31.569  1.00  0.00     0.074 A 
ATOM     52  C   UNL A   1      46.010  28.468  30.922  1.00  0.00     0.031 C 
ATOM     53  C   UNL A   1      39.865  29.057  27.831  1.00  0.00     0.029 A 
ATOM     54  C   UNL A   1      40.021  29.803  29.078  1.00  0.00     0.049 A 
ATOM     55  H   UNL A   1      41.773  30.047  30.183  1.00  0.00     0.167 HD
ATOM     56  C   UNL A   1      45.370  30.054  32.704  1.00  0.00     0.034 A 
ATOM     57  C   UNL A   1      39.050  30.483  29.722  1.00  0.00     0.034 A 
ATOM     58  C   UNL A   1      44.460  30.958  33.345  1.00  0.00     0.049 A 
ATOM     59  C   UNL A   1      39.380  31.195  31.012  1.00  0.00     0.074 A 
ATOM     60  C   UNL A   1      44.677  31.745  34.461  1.00  0.00     0.029 A 
ATOM     61  N   UNL A   1      43.151  31.173  32.947  1.00  0.00    -0.354 N 
ATOM     62  N   UNL A   1      40.534  31.298  31.629  1.00  0.00    -0.248 NA
ATOM     63  C   UNL A   1      38.279  31.903  31.686  1.00  0.00     0.031 C 
ATOM     64  C   UNL A   1      43.486  32.416  34.757  1.00  0.00     0.029 A 
ATOM     65  C   UNL A   1      42.536  32.059  33.812  1.00  0.00     0.049 A 
ATOM     66  H   UNL A   1      42.723  30.757  32.165  1.00  0.00     0.167 HD
ATOM     67  C   UNL A   1      40.301  32.098  32.744  1.00  0.00     0.074 A 
ATOM     68  C   UNL A   1      38.906  32.478  32.703  1.00  0.00     0.031 C 
ATOM     69  C   UNL A   1      41.159  32.468  33.727  1.00  0.00     0.034 A 
BRANCH  56  70
ATOM     70  C   UNL A   1      46.725  29.857  33.321  1.00  0.00     0.023 A 
ATOM     71  C   UNL A   1      46.912  28.835  34.273  1.00  0.00     0.012 A 
ATOM     72  C   UNL A   1      47.823  30.632  32.905  1.00  0.00     0.148 A 
ATOM     73  C   UNL A   1      48.173  28.594  34.811  1.00  0.00     0.002 A 
ATOM     74  C   UNL A   1      49.085  30.361  33.419  1.00  0.00     0.091 A 
ATOM     75  F   UNL A   1      47.611  31.616  32.020  1.00  0.00    -0.205 F 
ATOM     76  C   UNL A   1      49.261  29.349  34.376  1.00  0.00     0.022 A 
BRANCH  74  77
ATOM     77  S   UNL A   1      50.559  31.230  32.876  1.00  0.00     0.127 S 
ATOM     78  O   UNL A   1      51.373  31.219  34.091  1.00  0.00    -0.237 OA
ATOM     79  O   UNL A   1      51.049  30.361  31.806  1.00  0.00    -0.237 OA
ATOM     80  O   UNL A   1      50.116  32.546  32.439  1.00  0.00    -0.744 OA
ENDBRANCH  74  77
ENDBRANCH  56  70
BRANCH  57  81
ATOM     81  C   UNL A   1      37.663  30.525  29.173  1.00  0.00     0.023 A 
ATOM     82  C   UNL A   1      36.989  29.322  28.887  1.00  0.00     0.012 A 
ATOM     83  C   UNL A   1      37.018  31.749  28.911  1.00  0.00     0.148 A 
ATOM     84  C   UNL A   1      35.714  29.338  28.317  1.00  0.00     0.002 A 
ATOM     85  C   UNL A   1      35.727  31.758  28.394  1.00  0.00     0.091 A 
ATOM     86  F   UNL A   1      37.683  32.887  29.159  1.00  0.00    -0.205 F 
ATOM     87  C   UNL A   1      35.080  30.554  28.079  1.00  0.00     0.022 A 
BRANCH  85  88
ATOM     88  S   UNL A   1      34.798  33.281  28.180  1.00  0.00     0.127 S 
ATOM     89  O   UNL A   1      33.517  32.785  27.684  1.00  0.00    -0.237 OA
ATOM     90  O   UNL A   1      34.766  33.815  29.542  1.00  0.00    -0.237 OA
ATOM     91  O   UNL A   1      35.581  34.080  27.246  1.00  0.00    -0.744 OA
ENDBRANCH  85  88
ENDBRANCH  57  81
BRANCH  69  92
ATOM     92  C   UNL A   1      40.628  33.336  34.837  1.00  0.00     0.023 A 
ATOM     93  C   UNL A   1      40.477  34.720  34.623  1.00  0.00     0.012 A 
ATOM     94  C   UNL A   1      40.188  32.770  36.050  1.00  0.00     0.148 A 
ATOM     95  C   UNL A   1      39.918  35.532  35.609  1.00  0.00     0.002 A 
ATOM     96  C   UNL A   1      39.589  33.578  37.009  1.00  0.00     0.091 A 
ATOM     97  F   UNL A   1      40.354  31.453  36.240  1.00  0.00    -0.205 F 
ATOM     98  C   UNL A   1      39.463  34.960  36.794  1.00  0.00     0.022 A 
BRANCH  96  99
ATOM     99  S   UNL A   1      38.886  32.917  38.524  1.00  0.00     0.127 S 
ATOM    100  O   UNL A   1      38.190  34.084  39.065  1.00  0.00    -0.237 OA
ATOM    101  O   UNL A   1      38.007  31.859  38.025  1.00  0.00    -0.237 OA
ATOM    102  O   UNL A   1      40.013  32.441  39.315  1.00  0.00    -0.744 OA
ENDBRANCH  96  99
ENDBRANCH  69  92
ENDBRANCH  43  44
ENDBRANCH  36  38
ENDBRANCH  35  36
ENDBRANCH  34  35
ENDBRANCH  33  34
ENDBRANCH  32  33
ENDBRANCH  31  32
ENDBRANCH  30  31
ENDBRANCH   1  30
TORSDOF 26
ENDMDL
