MODEL 1
REMARK VINA RESULT:     -10.6      0.000      0.000
REMARK SMILES Cc1cccc(NC(=O)[C@H]2C=C[C@@H]([NH3+])C2)c1C(=O)OCCOCCOCCOCCOC(=O)c1ccc(-c2c3nc(c(-c4cccc(S(=O)(=O)[O-])c4F)c4ccc([nH]4)c(-c4cccc(S(=O)(=O)[O-])c4F)c4nc(c(-c5cccc(S(=O)(=O)[O-])c5F)c5ccc2[nH]5)C=C4)C=C3)cc1
REMARK SMILES IDX 25 1 24 2 23 3 22 4 21 5 20 6 19 7 17 8 18 9 16 10 1 11 2 12
REMARK SMILES IDX 3 13 4 14 6 15 5 16 7 17 8 18 9 20 10 21 11 22 15 23 12 24
REMARK SMILES IDX 13 25 14 26 26 30 27 31 28 32 29 33 30 34 31 35 32 36 33 37
REMARK SMILES IDX 34 38 35 39 96 40 36 41 95 42 37 43 38 44 39 45 89 46 40 47
REMARK SMILES IDX 94 48 88 49 90 50 41 51 93 52 87 53 86 54 42 56 74 57 54 58
REMARK SMILES IDX 73 59 55 60 58 61 72 62 91 63 56 64 57 65 71 67 92 68 59 69
REMARK SMILES IDX 43 70 44 71 52 72 45 73 47 74 53 75 46 76 48 77 49 78 50 79
REMARK SMILES IDX 51 80 75 81 76 82 84 83 77 84 79 85 85 86 78 87 80 88 81 89
REMARK SMILES IDX 82 90 83 91 60 92 61 93 69 94 62 95 64 96 70 97 63 98 65 99
REMARK SMILES IDX 66 100 67 101 68 102
REMARK H PARENT 7 19 14 27 14 28 14 29 90 55 58 66
REMARK Flexibility Score: inf
ROOT
ATOM      1  O   UNL A   1      40.418  21.359  27.684  1.00  0.00    -0.377 OA
ENDROOT
BRANCH   1   2
ATOM      2  C   UNL A   1      40.385  22.253  26.596  1.00  0.00     0.188 C 
BRANCH   2   3
ATOM      3  C   UNL A   1      39.266  23.293  26.641  1.00  0.00     0.188 C 
BRANCH   3   4
ATOM      4  O   UNL A   1      37.953  22.924  26.244  1.00  0.00    -0.376 OA
BRANCH   4   5
ATOM      5  C   UNL A   1      37.835  21.912  25.250  1.00  0.00     0.202 C 
BRANCH   5   6
ATOM      6  C   UNL A   1      36.871  22.232  24.140  1.00  0.00     0.261 C 
BRANCH   6   7
ATOM      7  O   UNL A   1      36.183  23.420  24.534  1.00  0.00    -0.460 OA
BRANCH   7   8
ATOM      8  C   UNL A   1      34.987  23.276  25.093  1.00  0.00     0.340 C 
ATOM      9  O   UNL A   1      34.551  23.754  26.150  1.00  0.00    -0.246 OA
BRANCH   8  10
ATOM     10  C   UNL A   1      34.128  23.021  23.948  1.00  0.00     0.086 A 
ATOM     11  C   UNL A   1      33.852  25.438  23.154  1.00  0.00     0.045 C 
ATOM     12  C   UNL A   1      33.848  23.957  22.937  1.00  0.00    -0.034 A 
ATOM     13  C   UNL A   1      33.176  23.531  21.800  1.00  0.00     0.004 A 
ATOM     14  C   UNL A   1      32.374  22.416  21.916  1.00  0.00     0.002 A 
ATOM     15  C   UNL A   1      33.385  21.835  24.038  1.00  0.00     0.056 A 
ATOM     16  C   UNL A   1      32.390  21.657  23.091  1.00  0.00     0.027 A 
BRANCH  15  17
ATOM     17  N   UNL A   1      33.510  21.021  25.189  1.00  0.00    -0.325 N 
ATOM     18  C   UNL A   1      33.329  19.723  25.501  1.00  0.00     0.231 C 
ATOM     19  H   UNL A   1      33.807  21.543  25.970  1.00  0.00     0.169 HD
ATOM     20  O   UNL A   1      33.178  19.452  26.699  1.00  0.00    -0.274 OA
BRANCH  18  21
ATOM     21  C   UNL A   1      33.314  18.597  24.496  1.00  0.00     0.107 C 
ATOM     22  C   UNL A   1      34.670  17.968  24.454  1.00  0.00    -0.012 C 
ATOM     23  C   UNL A   1      32.338  17.432  24.661  1.00  0.00     0.087 C 
ATOM     24  C   UNL A   1      34.589  16.636  24.423  1.00  0.00     0.033 C 
ATOM     25  C   UNL A   1      33.170  16.162  24.400  1.00  0.00     0.205 C 
BRANCH  25  26
ATOM     26  N   UNL A   1      32.955  15.091  25.359  1.00  0.00    -0.352 N 
ATOM     27  H   UNL A   1      33.331  14.220  24.985  1.00  0.00     0.345 HD
ATOM     28  H   UNL A   1      31.955  14.985  25.529  1.00  0.00     0.345 HD
ATOM     29  H   UNL A   1      33.427  15.318  26.234  1.00  0.00     0.345 HD
ENDBRANCH  25  26
ENDBRANCH  18  21
ENDBRANCH  15  17
ENDBRANCH   8  10
ENDBRANCH   7   8
ENDBRANCH   6   7
ENDBRANCH   5   6
ENDBRANCH   4   5
ENDBRANCH   3   4
ENDBRANCH   2   3
ENDBRANCH   1   2
BRANCH   1  30
ATOM     30  C   UNL A   1      41.129  20.159  27.482  1.00  0.00     0.188 C 
BRANCH  30  31
ATOM     31  C   UNL A   1      41.350  19.745  26.004  1.00  0.00     0.188 C 
BRANCH  31  32
ATOM     32  O   UNL A   1      41.899  18.477  25.759  1.00  0.00    -0.376 OA
BRANCH  32  33
ATOM     33  C   UNL A   1      43.299  18.458  25.975  1.00  0.00     0.202 C 
BRANCH  33  34
ATOM     34  C   UNL A   1      44.339  18.840  24.802  1.00  0.00     0.261 C 
BRANCH  34  35
ATOM     35  O   UNL A   1      45.339  20.009  25.088  1.00  0.00    -0.460 OA
BRANCH  35  36
ATOM     36  C   UNL A   1      45.548  21.357  25.342  1.00  0.00     0.338 C 
ATOM     37  O   UNL A   1      46.536  21.964  24.938  1.00  0.00    -0.246 OA
BRANCH  36  38
ATOM     38  C   UNL A   1      44.340  22.239  25.791  1.00  0.00     0.060 A 
ATOM     39  C   UNL A   1      43.637  22.991  24.856  1.00  0.00     0.016 A 
ATOM     40  C   UNL A   1      43.892  22.464  27.079  1.00  0.00     0.016 A 
ATOM     41  C   UNL A   1      43.127  24.267  25.196  1.00  0.00     0.010 A 
ATOM     42  C   UNL A   1      43.547  23.773  27.433  1.00  0.00     0.010 A 
ATOM     43  C   UNL A   1      43.369  24.755  26.458  1.00  0.00    -0.014 A 
BRANCH  43  44
ATOM     44  C   UNL A   1      43.580  26.176  26.843  1.00  0.00     0.031 A 
ATOM     45  C   UNL A   1      42.335  27.009  27.134  1.00  0.00     0.074 A 
ATOM     46  C   UNL A   1      44.806  26.537  27.342  1.00  0.00     0.049 A 
ATOM     47  N   UNL A   1      42.274  28.138  27.760  1.00  0.00    -0.248 NA
ATOM     48  C   UNL A   1      40.992  26.531  26.798  1.00  0.00     0.031 C 
ATOM     49  C   UNL A   1      44.996  27.575  28.346  1.00  0.00     0.029 A 
ATOM     50  N   UNL A   1      46.120  26.063  27.207  1.00  0.00    -0.354 N 
ATOM     51  C   UNL A   1      40.956  28.393  28.143  1.00  0.00     0.074 A 
ATOM     52  C   UNL A   1      40.200  27.356  27.495  1.00  0.00     0.031 C 
ATOM     53  C   UNL A   1      46.268  27.658  28.748  1.00  0.00     0.029 A 
ATOM     54  C   UNL A   1      47.037  26.997  27.738  1.00  0.00     0.049 A 
ATOM     55  H   UNL A   1      46.369  25.202  26.801  1.00  0.00     0.167 HD
ATOM     56  C   UNL A   1      40.671  29.401  29.030  1.00  0.00     0.034 A 
ATOM     57  C   UNL A   1      47.905  27.802  27.037  1.00  0.00     0.034 A 
ATOM     58  C   UNL A   1      41.872  30.254  29.265  1.00  0.00     0.049 A 
ATOM     59  C   UNL A   1      47.426  29.282  26.959  1.00  0.00     0.074 A 
ATOM     60  C   UNL A   1      42.519  30.756  30.381  1.00  0.00     0.029 A 
ATOM     61  N   UNL A   1      42.698  30.604  28.187  1.00  0.00    -0.354 N 
ATOM     62  N   UNL A   1      46.182  29.638  27.219  1.00  0.00    -0.248 NA
ATOM     63  C   UNL A   1      48.255  30.472  26.757  1.00  0.00     0.031 C 
ATOM     64  C   UNL A   1      43.833  31.162  29.987  1.00  0.00     0.029 A 
ATOM     65  C   UNL A   1      43.939  31.057  28.606  1.00  0.00     0.049 A 
ATOM     66  H   UNL A   1      42.428  30.538  27.243  1.00  0.00     0.167 HD
ATOM     67  C   UNL A   1      46.041  30.990  27.311  1.00  0.00     0.074 A 
ATOM     68  C   UNL A   1      47.370  31.474  26.966  1.00  0.00     0.031 C 
ATOM     69  C   UNL A   1      44.883  31.644  27.657  1.00  0.00     0.034 A 
BRANCH  56  70
ATOM     70  C   UNL A   1      39.348  29.618  29.836  1.00  0.00     0.023 A 
ATOM     71  C   UNL A   1      38.852  28.497  30.554  1.00  0.00     0.012 A 
ATOM     72  C   UNL A   1      38.510  30.771  29.901  1.00  0.00     0.148 A 
ATOM     73  C   UNL A   1      37.621  28.480  31.231  1.00  0.00     0.002 A 
ATOM     74  C   UNL A   1      37.306  30.779  30.646  1.00  0.00     0.091 A 
ATOM     75  F   UNL A   1      38.834  31.868  29.209  1.00  0.00    -0.205 F 
ATOM     76  C   UNL A   1      36.850  29.624  31.288  1.00  0.00     0.022 A 
BRANCH  74  77
ATOM     77  S   UNL A   1      36.263  32.241  30.900  1.00  0.00     0.127 S 
ATOM     78  O   UNL A   1      36.130  32.291  32.357  1.00  0.00    -0.237 OA
ATOM     79  O   UNL A   1      37.087  33.313  30.338  1.00  0.00    -0.237 OA
ATOM     80  O   UNL A   1      35.023  31.987  30.178  1.00  0.00    -0.744 OA
ENDBRANCH  74  77
ENDBRANCH  56  70
BRANCH  57  81
ATOM     81  C   UNL A   1      48.969  27.023  26.328  1.00  0.00     0.023 A 
ATOM     82  C   UNL A   1      48.885  27.084  24.904  1.00  0.00     0.012 A 
ATOM     83  C   UNL A   1      50.233  27.068  26.917  1.00  0.00     0.148 A 
ATOM     84  C   UNL A   1      49.973  27.510  24.133  1.00  0.00     0.002 A 
ATOM     85  C   UNL A   1      51.278  27.598  26.168  1.00  0.00     0.091 A 
ATOM     86  F   UNL A   1      50.330  26.863  28.238  1.00  0.00    -0.205 F 
ATOM     87  C   UNL A   1      51.154  27.827  24.780  1.00  0.00     0.022 A 
BRANCH  85  88
ATOM     88  S   UNL A   1      52.384  28.753  26.978  1.00  0.00     0.127 S 
ATOM     89  O   UNL A   1      51.496  29.624  27.733  1.00  0.00    -0.237 OA
ATOM     90  O   UNL A   1      53.123  27.768  27.765  1.00  0.00    -0.237 OA
ATOM     91  O   UNL A   1      53.150  29.391  25.919  1.00  0.00    -0.744 OA
ENDBRANCH  85  88
ENDBRANCH  57  81
BRANCH  69  92
ATOM     92  C   UNL A   1      44.491  32.984  27.060  1.00  0.00     0.023 A 
ATOM     93  C   UNL A   1      44.176  33.079  25.693  1.00  0.00     0.012 A 
ATOM     94  C   UNL A   1      44.158  34.101  27.878  1.00  0.00     0.148 A 
ATOM     95  C   UNL A   1      43.615  34.232  25.149  1.00  0.00     0.002 A 
ATOM     96  C   UNL A   1      43.487  35.196  27.351  1.00  0.00     0.091 A 
ATOM     97  F   UNL A   1      44.487  34.119  29.175  1.00  0.00    -0.205 F 
ATOM     98  C   UNL A   1      43.246  35.280  25.980  1.00  0.00     0.022 A 
BRANCH  96  99
ATOM     99  S   UNL A   1      42.750  36.454  28.409  1.00  0.00     0.127 S 
ATOM    100  O   UNL A   1      43.931  37.047  29.031  1.00  0.00    -0.237 OA
ATOM    101  O   UNL A   1      42.075  37.314  27.435  1.00  0.00    -0.237 OA
ATOM    102  O   UNL A   1      41.846  35.743  29.303  1.00  0.00    -0.744 OA
ENDBRANCH  96  99
ENDBRANCH  69  92
ENDBRANCH  43  44
ENDBRANCH  36  38
ENDBRANCH  35  36
ENDBRANCH  34  35
ENDBRANCH  33  34
ENDBRANCH  32  33
ENDBRANCH  31  32
ENDBRANCH  30  31
ENDBRANCH   1  30
TORSDOF 26
ENDMDL
MODEL 2
REMARK VINA RESULT:     -10.5      1.270      2.891
REMARK SMILES Cc1cccc(NC(=O)[C@H]2C=C[C@@H]([NH3+])C2)c1C(=O)OCCOCCOCCOCCOC(=O)c1ccc(-c2c3nc(c(-c4cccc(S(=O)(=O)[O-])c4F)c4ccc([nH]4)c(-c4cccc(S(=O)(=O)[O-])c4F)c4nc(c(-c5cccc(S(=O)(=O)[O-])c5F)c5ccc2[nH]5)C=C4)C=C3)cc1
REMARK SMILES IDX 25 1 24 2 23 3 22 4 21 5 20 6 19 7 17 8 18 9 16 10 1 11 2 12
REMARK SMILES IDX 3 13 4 14 6 15 5 16 7 17 8 18 9 20 10 21 11 22 15 23 12 24
REMARK SMILES IDX 13 25 14 26 26 30 27 31 28 32 29 33 30 34 31 35 32 36 33 37
REMARK SMILES IDX 34 38 35 39 96 40 36 41 95 42 37 43 38 44 39 45 89 46 40 47
REMARK SMILES IDX 94 48 88 49 90 50 41 51 93 52 87 53 86 54 42 56 74 57 54 58
REMARK SMILES IDX 73 59 55 60 58 61 72 62 91 63 56 64 57 65 71 67 92 68 59 69
REMARK SMILES IDX 43 70 44 71 52 72 45 73 47 74 53 75 46 76 48 77 49 78 50 79
REMARK SMILES IDX 51 80 75 81 76 82 84 83 77 84 79 85 85 86 78 87 80 88 81 89
REMARK SMILES IDX 82 90 83 91 60 92 61 93 69 94 62 95 64 96 70 97 63 98 65 99
REMARK SMILES IDX 66 100 67 101 68 102
REMARK H PARENT 7 19 14 27 14 28 14 29 90 55 58 66
REMARK Flexibility Score: inf
ROOT
ATOM      1  O   UNL A   1      40.444  21.324  27.890  1.00  0.00    -0.377 OA
ENDROOT
BRANCH   1   2
ATOM      2  C   UNL A   1      39.897  22.023  26.796  1.00  0.00     0.188 C 
BRANCH   2   3
ATOM      3  C   UNL A   1      39.735  23.529  27.001  1.00  0.00     0.188 C 
BRANCH   3   4
ATOM      4  O   UNL A   1      38.435  24.102  26.968  1.00  0.00    -0.376 OA
BRANCH   4   5
ATOM      5  C   UNL A   1      37.600  23.755  25.870  1.00  0.00     0.202 C 
BRANCH   5   6
ATOM      6  C   UNL A   1      36.155  23.530  26.226  1.00  0.00     0.261 C 
BRANCH   6   7
ATOM      7  O   UNL A   1      35.896  22.144  25.999  1.00  0.00    -0.460 OA
BRANCH   7   8
ATOM      8  C   UNL A   1      35.956  21.708  24.745  1.00  0.00     0.340 C 
ATOM      9  O   UNL A   1      36.944  21.391  24.069  1.00  0.00    -0.246 OA
BRANCH   8  10
ATOM     10  C   UNL A   1      34.661  21.071  24.569  1.00  0.00     0.086 A 
ATOM     11  C   UNL A   1      35.425  18.636  24.750  1.00  0.00     0.045 C 
ATOM     12  C   UNL A   1      34.394  19.717  24.839  1.00  0.00    -0.034 A 
ATOM     13  C   UNL A   1      33.078  19.279  24.817  1.00  0.00     0.004 A 
ATOM     14  C   UNL A   1      32.181  19.993  24.053  1.00  0.00     0.002 A 
ATOM     15  C   UNL A   1      33.727  21.848  23.867  1.00  0.00     0.056 A 
ATOM     16  C   UNL A   1      32.563  21.208  23.474  1.00  0.00     0.027 A 
BRANCH  15  17
ATOM     17  N   UNL A   1      34.102  23.127  23.393  1.00  0.00    -0.325 N 
ATOM     18  C   UNL A   1      33.533  24.344  23.288  1.00  0.00     0.231 C 
ATOM     19  H   UNL A   1      35.025  23.129  23.048  1.00  0.00     0.169 HD
ATOM     20  O   UNL A   1      34.041  25.131  22.479  1.00  0.00    -0.274 OA
BRANCH  18  21
ATOM     21  C   UNL A   1      32.342  24.802  24.093  1.00  0.00     0.107 C 
ATOM     22  C   UNL A   1      32.724  24.850  25.538  1.00  0.00    -0.012 C 
ATOM     23  C   UNL A   1      31.694  26.157  23.805  1.00  0.00     0.087 C 
ATOM     24  C   UNL A   1      32.262  25.955  26.128  1.00  0.00     0.033 C 
ATOM     25  C   UNL A   1      31.466  26.802  25.187  1.00  0.00     0.205 C 
BRANCH  25  26
ATOM     26  N   UNL A   1      31.855  28.199  25.273  1.00  0.00    -0.352 N 
ATOM     27  H   UNL A   1      31.077  28.788  24.977  1.00  0.00     0.345 HD
ATOM     28  H   UNL A   1      32.658  28.365  24.665  1.00  0.00     0.345 HD
ATOM     29  H   UNL A   1      32.105  28.424  26.236  1.00  0.00     0.345 HD
ENDBRANCH  25  26
ENDBRANCH  18  21
ENDBRANCH  15  17
ENDBRANCH   8  10
ENDBRANCH   7   8
ENDBRANCH   6   7
ENDBRANCH   5   6
ENDBRANCH   4   5
ENDBRANCH   3   4
ENDBRANCH   2   3
ENDBRANCH   1   2
BRANCH   1  30
ATOM     30  C   UNL A   1      41.172  20.157  27.581  1.00  0.00     0.188 C 
BRANCH  30  31
ATOM     31  C   UNL A   1      41.171  19.735  26.090  1.00  0.00     0.188 C 
BRANCH  31  32
ATOM     32  O   UNL A   1      41.752  18.499  25.764  1.00  0.00    -0.376 OA
BRANCH  32  33
ATOM     33  C   UNL A   1      43.154  18.505  25.972  1.00  0.00     0.202 C 
BRANCH  33  34
ATOM     34  C   UNL A   1      44.179  18.921  24.798  1.00  0.00     0.261 C 
BRANCH  34  35
ATOM     35  O   UNL A   1      45.199  20.064  25.113  1.00  0.00    -0.460 OA
BRANCH  35  36
ATOM     36  C   UNL A   1      45.432  21.407  25.379  1.00  0.00     0.338 C 
ATOM     37  O   UNL A   1      46.455  21.986  25.025  1.00  0.00    -0.246 OA
BRANCH  36  38
ATOM     38  C   UNL A   1      44.229  22.322  25.770  1.00  0.00     0.060 A 
ATOM     39  C   UNL A   1      43.607  23.107  24.806  1.00  0.00     0.016 A 
ATOM     40  C   UNL A   1      43.714  22.545  27.033  1.00  0.00     0.016 A 
ATOM     41  C   UNL A   1      43.118  24.395  25.135  1.00  0.00     0.010 A 
ATOM     42  C   UNL A   1      43.390  23.860  27.384  1.00  0.00     0.010 A 
ATOM     43  C   UNL A   1      43.301  24.859  26.415  1.00  0.00    -0.014 A 
BRANCH  43  44
ATOM     44  C   UNL A   1      43.534  26.268  26.833  1.00  0.00     0.031 A 
ATOM     45  C   UNL A   1      42.301  27.123  27.107  1.00  0.00     0.074 A 
ATOM     46  C   UNL A   1      44.754  26.591  27.369  1.00  0.00     0.049 A 
ATOM     47  N   UNL A   1      42.250  28.243  27.753  1.00  0.00    -0.248 NA
ATOM     48  C   UNL A   1      40.957  26.683  26.728  1.00  0.00     0.031 C 
ATOM     49  C   UNL A   1      44.942  27.606  28.397  1.00  0.00     0.029 A 
ATOM     50  N   UNL A   1      46.060  26.090  27.260  1.00  0.00    -0.354 N 
ATOM     51  C   UNL A   1      40.928  28.520  28.106  1.00  0.00     0.074 A 
ATOM     52  C   UNL A   1      40.165  27.513  27.420  1.00  0.00     0.031 C 
ATOM     53  C   UNL A   1      46.204  27.652  28.833  1.00  0.00     0.029 A 
ATOM     54  C   UNL A   1      46.984  26.992  27.831  1.00  0.00     0.049 A 
ATOM     55  H   UNL A   1      46.300  25.230  26.843  1.00  0.00     0.167 HD
ATOM     56  C   UNL A   1      40.643  29.519  29.005  1.00  0.00     0.034 A 
ATOM     57  C   UNL A   1      47.888  27.789  27.167  1.00  0.00     0.034 A 
ATOM     58  C   UNL A   1      41.856  30.340  29.286  1.00  0.00     0.049 A 
ATOM     59  C   UNL A   1      47.444  29.281  27.106  1.00  0.00     0.074 A 
ATOM     60  C   UNL A   1      42.485  30.805  30.428  1.00  0.00     0.029 A 
ATOM     61  N   UNL A   1      42.717  30.690  28.237  1.00  0.00    -0.354 N 
ATOM     62  N   UNL A   1      46.203  29.661  27.340  1.00  0.00    -0.248 NA
ATOM     63  C   UNL A   1      48.306  30.456  26.947  1.00  0.00     0.031 C 
ATOM     64  C   UNL A   1      43.818  31.188  30.075  1.00  0.00     0.029 A 
ATOM     65  C   UNL A   1      43.957  31.106  28.695  1.00  0.00     0.049 A 
ATOM     66  H   UNL A   1      42.471  30.647  27.284  1.00  0.00     0.167 HD
ATOM     67  C   UNL A   1      46.090  31.014  27.454  1.00  0.00     0.074 A 
ATOM     68  C   UNL A   1      47.438  31.473  27.152  1.00  0.00     0.031 C 
ATOM     69  C   UNL A   1      44.939  31.688  27.782  1.00  0.00     0.034 A 
BRANCH  56  70
ATOM     70  C   UNL A   1      39.305  29.751  29.780  1.00  0.00     0.023 A 
ATOM     71  C   UNL A   1      38.756  28.625  30.450  1.00  0.00     0.012 A 
ATOM     72  C   UNL A   1      38.499  30.927  29.856  1.00  0.00     0.148 A 
ATOM     73  C   UNL A   1      37.506  28.626  31.093  1.00  0.00     0.002 A 
ATOM     74  C   UNL A   1      37.275  30.949  30.569  1.00  0.00     0.091 A 
ATOM     75  F   UNL A   1      38.874  32.033  29.207  1.00  0.00    -0.205 F 
ATOM     76  C   UNL A   1      36.768  29.790  31.163  1.00  0.00     0.022 A 
BRANCH  74  77
ATOM     77  S   UNL A   1      36.269  32.434  30.838  1.00  0.00     0.127 S 
ATOM     78  O   UNL A   1      35.149  31.922  31.631  1.00  0.00    -0.237 OA
ATOM     79  O   UNL A   1      37.183  33.299  31.584  1.00  0.00    -0.237 OA
ATOM     80  O   UNL A   1      35.909  32.927  29.514  1.00  0.00    -0.744 OA
ENDBRANCH  74  77
ENDBRANCH  56  70
BRANCH  57  81
ATOM     81  C   UNL A   1      48.953  26.999  26.472  1.00  0.00     0.023 A 
ATOM     82  C   UNL A   1      48.914  27.098  25.048  1.00  0.00     0.012 A 
ATOM     83  C   UNL A   1      50.198  26.994  27.100  1.00  0.00     0.148 A 
ATOM     84  C   UNL A   1      50.037  27.513  24.322  1.00  0.00     0.002 A 
ATOM     85  C   UNL A   1      51.280  27.514  26.398  1.00  0.00     0.091 A 
ATOM     86  F   UNL A   1      50.248  26.754  28.417  1.00  0.00    -0.205 F 
ATOM     87  C   UNL A   1      51.206  27.780  25.012  1.00  0.00     0.022 A 
BRANCH  85  88
ATOM     88  S   UNL A   1      52.391  28.617  27.271  1.00  0.00     0.127 S 
ATOM     89  O   UNL A   1      51.503  29.520  27.986  1.00  0.00    -0.237 OA
ATOM     90  O   UNL A   1      53.047  27.597  28.086  1.00  0.00    -0.237 OA
ATOM     91  O   UNL A   1      53.236  29.227  26.256  1.00  0.00    -0.744 OA
ENDBRANCH  85  88
ENDBRANCH  57  81
BRANCH  69  92
ATOM     92  C   UNL A   1      44.593  33.047  27.200  1.00  0.00     0.023 A 
ATOM     93  C   UNL A   1      44.121  33.147  25.880  1.00  0.00     0.012 A 
ATOM     94  C   UNL A   1      44.460  34.203  28.022  1.00  0.00     0.148 A 
ATOM     95  C   UNL A   1      43.599  34.337  25.377  1.00  0.00     0.002 A 
ATOM     96  C   UNL A   1      43.827  35.345  27.551  1.00  0.00     0.091 A 
ATOM     97  F   UNL A   1      44.947  34.214  29.269  1.00  0.00    -0.205 F 
ATOM     98  C   UNL A   1      43.427  35.427  26.217  1.00  0.00     0.022 A 
BRANCH  96  99
ATOM     99  S   UNL A   1      43.337  36.680  28.655  1.00  0.00     0.127 S 
ATOM    100  O   UNL A   1      44.566  37.465  28.735  1.00  0.00    -0.237 OA
ATOM    101  O   UNL A   1      42.253  37.317  27.902  1.00  0.00    -0.237 OA
ATOM    102  O   UNL A   1      42.907  36.039  29.891  1.00  0.00    -0.744 OA
ENDBRANCH  96  99
ENDBRANCH  69  92
ENDBRANCH  43  44
ENDBRANCH  36  38
ENDBRANCH  35  36
ENDBRANCH  34  35
ENDBRANCH  33  34
ENDBRANCH  32  33
ENDBRANCH  31  32
ENDBRANCH  30  31
ENDBRANCH   1  30
TORSDOF 26
ENDMDL
MODEL 3
REMARK VINA RESULT:     -10.3      2.239      3.831
REMARK SMILES Cc1cccc(NC(=O)[C@H]2C=C[C@@H]([NH3+])C2)c1C(=O)OCCOCCOCCOCCOC(=O)c1ccc(-c2c3nc(c(-c4cccc(S(=O)(=O)[O-])c4F)c4ccc([nH]4)c(-c4cccc(S(=O)(=O)[O-])c4F)c4nc(c(-c5cccc(S(=O)(=O)[O-])c5F)c5ccc2[nH]5)C=C4)C=C3)cc1
REMARK SMILES IDX 25 1 24 2 23 3 22 4 21 5 20 6 19 7 17 8 18 9 16 10 1 11 2 12
REMARK SMILES IDX 3 13 4 14 6 15 5 16 7 17 8 18 9 20 10 21 11 22 15 23 12 24
REMARK SMILES IDX 13 25 14 26 26 30 27 31 28 32 29 33 30 34 31 35 32 36 33 37
REMARK SMILES IDX 34 38 35 39 96 40 36 41 95 42 37 43 38 44 39 45 89 46 40 47
REMARK SMILES IDX 94 48 88 49 90 50 41 51 93 52 87 53 86 54 42 56 74 57 54 58
REMARK SMILES IDX 73 59 55 60 58 61 72 62 91 63 56 64 57 65 71 67 92 68 59 69
REMARK SMILES IDX 43 70 44 71 52 72 45 73 47 74 53 75 46 76 48 77 49 78 50 79
REMARK SMILES IDX 51 80 75 81 76 82 84 83 77 84 79 85 85 86 78 87 80 88 81 89
REMARK SMILES IDX 82 90 83 91 60 92 61 93 69 94 62 95 64 96 70 97 63 98 65 99
REMARK SMILES IDX 66 100 67 101 68 102
REMARK H PARENT 7 19 14 27 14 28 14 29 90 55 58 66
REMARK Flexibility Score: inf
ROOT
ATOM      1  O   UNL A   1      40.588  21.038  27.550  1.00  0.00    -0.377 OA
ENDROOT
BRANCH   1   2
ATOM      2  C   UNL A   1      40.395  22.065  26.606  1.00  0.00     0.188 C 
BRANCH   2   3
ATOM      3  C   UNL A   1      38.942  22.322  26.210  1.00  0.00     0.188 C 
BRANCH   3   4
ATOM      4  O   UNL A   1      38.301  21.440  25.298  1.00  0.00    -0.376 OA
BRANCH   4   5
ATOM      5  C   UNL A   1      36.893  21.576  25.145  1.00  0.00     0.202 C 
BRANCH   5   6
ATOM      6  C   UNL A   1      36.464  22.305  23.900  1.00  0.00     0.261 C 
BRANCH   6   7
ATOM      7  O   UNL A   1      35.120  22.732  24.127  1.00  0.00    -0.460 OA
BRANCH   7   8
ATOM      8  C   UNL A   1      34.898  23.523  25.171  1.00  0.00     0.340 C 
ATOM      9  O   UNL A   1      35.486  24.559  25.512  1.00  0.00    -0.246 OA
BRANCH   8  10
ATOM     10  C   UNL A   1      33.483  23.314  25.432  1.00  0.00     0.086 A 
ATOM     11  C   UNL A   1      33.636  20.961  26.424  1.00  0.00     0.045 C 
ATOM     12  C   UNL A   1      32.962  22.284  26.233  1.00  0.00    -0.034 A 
ATOM     13  C   UNL A   1      31.614  22.310  26.562  1.00  0.00     0.004 A 
ATOM     14  C   UNL A   1      30.764  22.986  25.714  1.00  0.00     0.002 A 
ATOM     15  C   UNL A   1      32.629  24.078  24.621  1.00  0.00     0.056 A 
ATOM     16  C   UNL A   1      31.283  23.756  24.667  1.00  0.00     0.027 A 
BRANCH  15  17
ATOM     17  N   UNL A   1      33.183  24.943  23.647  1.00  0.00    -0.325 N 
ATOM     18  C   UNL A   1      32.796  26.044  22.974  1.00  0.00     0.231 C 
ATOM     19  H   UNL A   1      34.094  24.665  23.394  1.00  0.00     0.169 HD
ATOM     20  O   UNL A   1      33.408  26.304  21.930  1.00  0.00    -0.274 OA
BRANCH  18  21
ATOM     21  C   UNL A   1      31.691  26.971  23.416  1.00  0.00     0.107 C 
ATOM     22  C   UNL A   1      32.295  28.149  24.110  1.00  0.00    -0.012 C 
ATOM     23  C   UNL A   1      30.727  27.564  22.387  1.00  0.00     0.087 C 
ATOM     24  C   UNL A   1      31.714  29.289  23.730  1.00  0.00     0.033 C 
ATOM     25  C   UNL A   1      30.605  29.055  22.754  1.00  0.00     0.205 C 
BRANCH  25  26
ATOM     26  N   UNL A   1      30.695  29.965  21.625  1.00  0.00    -0.352 N 
ATOM     27  H   UNL A   1      30.144  30.802  21.817  1.00  0.00     0.345 HD
ATOM     28  H   UNL A   1      30.332  29.504  20.789  1.00  0.00     0.345 HD
ATOM     29  H   UNL A   1      31.669  30.226  21.474  1.00  0.00     0.345 HD
ENDBRANCH  25  26
ENDBRANCH  18  21
ENDBRANCH  15  17
ENDBRANCH   8  10
ENDBRANCH   7   8
ENDBRANCH   6   7
ENDBRANCH   5   6
ENDBRANCH   4   5
ENDBRANCH   3   4
ENDBRANCH   2   3
ENDBRANCH   1   2
BRANCH   1  30
ATOM     30  C   UNL A   1      41.675  20.172  27.315  1.00  0.00     0.188 C 
BRANCH  30  31
ATOM     31  C   UNL A   1      41.600  19.333  26.014  1.00  0.00     0.188 C 
BRANCH  31  32
ATOM     32  O   UNL A   1      42.656  19.461  25.097  1.00  0.00    -0.376 OA
BRANCH  32  33
ATOM     33  C   UNL A   1      43.794  18.718  25.496  1.00  0.00     0.202 C 
BRANCH  33  34
ATOM     34  C   UNL A   1      45.285  19.168  25.075  1.00  0.00     0.261 C 
BRANCH  34  35
ATOM     35  O   UNL A   1      45.743  20.603  25.498  1.00  0.00    -0.460 OA
BRANCH  35  36
ATOM     36  C   UNL A   1      45.673  21.976  25.308  1.00  0.00     0.338 C 
ATOM     37  O   UNL A   1      46.318  22.561  24.442  1.00  0.00    -0.246 OA
BRANCH  36  38
ATOM     38  C   UNL A   1      44.466  22.763  25.910  1.00  0.00     0.060 A 
ATOM     39  C   UNL A   1      43.629  23.501  25.079  1.00  0.00     0.016 A 
ATOM     40  C   UNL A   1      44.136  22.913  27.243  1.00  0.00     0.016 A 
ATOM     41  C   UNL A   1      43.080  24.729  25.521  1.00  0.00     0.010 A 
ATOM     42  C   UNL A   1      43.751  24.184  27.683  1.00  0.00     0.010 A 
ATOM     43  C   UNL A   1      43.418  25.186  26.772  1.00  0.00    -0.014 A 
BRANCH  43  44
ATOM     44  C   UNL A   1      43.581  26.604  27.194  1.00  0.00     0.031 A 
ATOM     45  C   UNL A   1      42.314  27.445  27.305  1.00  0.00     0.074 A 
ATOM     46  C   UNL A   1      44.724  26.951  27.869  1.00  0.00     0.049 A 
ATOM     47  N   UNL A   1      42.171  28.572  27.923  1.00  0.00    -0.248 NA
ATOM     48  C   UNL A   1      41.031  26.981  26.773  1.00  0.00     0.031 C 
ATOM     49  C   UNL A   1      44.773  27.981  28.897  1.00  0.00     0.029 A 
ATOM     50  N   UNL A   1      46.039  26.467  27.925  1.00  0.00    -0.354 N 
ATOM     51  C   UNL A   1      40.812  28.835  28.110  1.00  0.00     0.074 A 
ATOM     52  C   UNL A   1      40.151  27.809  27.352  1.00  0.00     0.031 C 
ATOM     53  C   UNL A   1      45.973  28.051  29.482  1.00  0.00     0.029 A 
ATOM     54  C   UNL A   1      46.876  27.389  28.591  1.00  0.00     0.049 A 
ATOM     55  H   UNL A   1      46.338  25.605  27.554  1.00  0.00     0.167 HD
ATOM     56  C   UNL A   1      40.409  29.841  28.953  1.00  0.00     0.034 A 
ATOM     57  C   UNL A   1      47.844  28.190  28.030  1.00  0.00     0.034 A 
ATOM     58  C   UNL A   1      41.568  30.683  29.367  1.00  0.00     0.049 A 
ATOM     59  C   UNL A   1      47.392  29.675  27.893  1.00  0.00     0.074 A 
ATOM     60  C   UNL A   1      42.049  31.172  30.570  1.00  0.00     0.029 A 
ATOM     61  N   UNL A   1      42.546  31.032  28.424  1.00  0.00    -0.354 N 
ATOM     62  N   UNL A   1      46.127  30.041  27.970  1.00  0.00    -0.248 NA
ATOM     63  C   UNL A   1      48.252  30.859  27.822  1.00  0.00     0.031 C 
ATOM     64  C   UNL A   1      43.410  31.569  30.375  1.00  0.00     0.029 A 
ATOM     65  C   UNL A   1      43.716  31.471  29.023  1.00  0.00     0.049 A 
ATOM     66  H   UNL A   1      42.417  30.973  27.450  1.00  0.00     0.167 HD
ATOM     67  C   UNL A   1      45.984  31.393  28.050  1.00  0.00     0.074 A 
ATOM     68  C   UNL A   1      47.353  31.867  27.907  1.00  0.00     0.031 C 
ATOM     69  C   UNL A   1      44.794  32.055  28.227  1.00  0.00     0.034 A 
BRANCH  56  70
ATOM     70  C   UNL A   1      38.984  30.065  29.558  1.00  0.00     0.023 A 
ATOM     71  C   UNL A   1      38.358  28.932  30.143  1.00  0.00     0.012 A 
ATOM     72  C   UNL A   1      38.172  31.239  29.545  1.00  0.00     0.148 A 
ATOM     73  C   UNL A   1      37.038  28.925  30.624  1.00  0.00     0.002 A 
ATOM     74  C   UNL A   1      36.869  31.253  30.099  1.00  0.00     0.091 A 
ATOM     75  F   UNL A   1      38.623  32.352  28.959  1.00  0.00    -0.205 F 
ATOM     76  C   UNL A   1      36.294  30.088  30.613  1.00  0.00     0.022 A 
BRANCH  74  77
ATOM     77  S   UNL A   1      35.834  32.735  30.256  1.00  0.00     0.127 S 
ATOM     78  O   UNL A   1      36.717  33.669  30.957  1.00  0.00    -0.237 OA
ATOM     79  O   UNL A   1      35.581  33.087  28.858  1.00  0.00    -0.237 OA
ATOM     80  O   UNL A   1      34.651  32.328  31.003  1.00  0.00    -0.744 OA
ENDBRANCH  74  77
ENDBRANCH  56  70
BRANCH  57  81
ATOM     81  C   UNL A   1      48.994  27.406  27.480  1.00  0.00     0.023 A 
ATOM     82  C   UNL A   1      49.097  26.080  27.999  1.00  0.00     0.012 A 
ATOM     83  C   UNL A   1      49.259  27.607  26.125  1.00  0.00     0.148 A 
ATOM     84  C   UNL A   1      49.125  24.970  27.146  1.00  0.00     0.002 A 
ATOM     85  C   UNL A   1      49.175  26.507  25.279  1.00  0.00     0.091 A 
ATOM     86  F   UNL A   1      49.311  28.864  25.664  1.00  0.00    -0.205 F 
ATOM     87  C   UNL A   1      49.102  25.189  25.780  1.00  0.00     0.022 A 
BRANCH  85  88
ATOM     88  S   UNL A   1      48.315  26.718  23.719  1.00  0.00     0.127 S 
ATOM     89  O   UNL A   1      49.349  27.181  22.805  1.00  0.00    -0.237 OA
ATOM     90  O   UNL A   1      47.903  25.326  23.555  1.00  0.00    -0.237 OA
ATOM     91  O   UNL A   1      47.230  27.652  23.978  1.00  0.00    -0.744 OA
ENDBRANCH  85  88
ENDBRANCH  57  81
BRANCH  69  92
ATOM     92  C   UNL A   1      44.504  33.401  27.588  1.00  0.00     0.023 A 
ATOM     93  C   UNL A   1      44.085  33.468  26.248  1.00  0.00     0.012 A 
ATOM     94  C   UNL A   1      44.369  34.587  28.365  1.00  0.00     0.148 A 
ATOM     95  C   UNL A   1      43.611  34.652  25.686  1.00  0.00     0.002 A 
ATOM     96  C   UNL A   1      43.782  35.727  27.833  1.00  0.00     0.091 A 
ATOM     97  F   UNL A   1      44.808  34.629  29.629  1.00  0.00    -0.205 F 
ATOM     98  C   UNL A   1      43.436  35.774  26.483  1.00  0.00     0.022 A 
BRANCH  96  99
ATOM     99  S   UNL A   1      43.284  37.110  28.873  1.00  0.00     0.127 S 
ATOM    100  O   UNL A   1      42.620  37.983  27.908  1.00  0.00    -0.237 OA
ATOM    101  O   UNL A   1      42.385  36.463  29.831  1.00  0.00    -0.237 OA
ATOM    102  O   UNL A   1      44.512  37.628  29.463  1.00  0.00    -0.744 OA
ENDBRANCH  96  99
ENDBRANCH  69  92
ENDBRANCH  43  44
ENDBRANCH  36  38
ENDBRANCH  35  36
ENDBRANCH  34  35
ENDBRANCH  33  34
ENDBRANCH  32  33
ENDBRANCH  31  32
ENDBRANCH  30  31
ENDBRANCH   1  30
TORSDOF 26
ENDMDL
