MODEL 1
REMARK VINA RESULT:     -10.3      0.000      0.000
REMARK SMILES O=C(CSc1nc2cnccc2n1CCC1CC1)OCCOCCOCCOCCOC(=O)c1ccc(-c2c3nc(c(-c4cccc(S(=O)(=O)[O-])c4F)c4ccc([nH]4)c(-c4cccc(S(=O)(=O)[O-])c4F)c4nc(c(-c5cccc(S(=O)(=O)[O-])c5F)c5ccc2[nH]5)C=C4)C=C3)cc1
REMARK SMILES IDX 24 1 23 2 22 3 21 4 20 5 19 6 2 7 1 8 3 9 4 10 5 11 6 12
REMARK SMILES IDX 13 13 7 14 12 15 8 16 11 17 9 18 10 19 14 20 15 21 16 22
REMARK SMILES IDX 17 23 18 24 25 25 26 26 27 27 28 28 29 29 30 30 31 31 32 32
REMARK SMILES IDX 33 33 34 34 35 35 96 36 36 37 95 38 37 39 38 40 39 41 89 42
REMARK SMILES IDX 40 43 94 44 88 45 90 46 41 47 93 48 87 49 86 50 42 52 74 53
REMARK SMILES IDX 54 54 73 55 55 56 58 57 72 58 91 59 56 60 57 61 71 63 92 64
REMARK SMILES IDX 59 65 43 66 44 67 52 68 45 69 47 70 53 71 46 72 48 73 49 74
REMARK SMILES IDX 50 75 51 76 75 77 76 78 84 79 77 80 79 81 85 82 78 83 80 84
REMARK SMILES IDX 81 85 82 86 83 87 60 88 61 89 69 90 62 91 64 92 70 93 63 94
REMARK SMILES IDX 65 95 66 96 67 97 68 98
REMARK H PARENT 90 51 58 62
REMARK Flexibility Score: inf
ROOT
ATOM      1  C   UNL A   1      33.171  29.624  26.165  1.00  0.00     0.188 C 
ENDROOT
BRANCH   1   2
ATOM      2  C   UNL A   1      31.741  29.172  25.895  1.00  0.00     0.188 C 
BRANCH   2   3
ATOM      3  O   UNL A   1      31.653  28.097  24.983  1.00  0.00    -0.376 OA
BRANCH   3   4
ATOM      4  C   UNL A   1      32.337  26.868  25.096  1.00  0.00     0.202 C 
BRANCH   4   5
ATOM      5  C   UNL A   1      32.150  25.954  26.309  1.00  0.00     0.261 C 
BRANCH   5   6
ATOM      6  O   UNL A   1      32.212  24.553  26.028  1.00  0.00    -0.463 OA
BRANCH   6   7
ATOM      7  C   UNL A   1      31.134  23.747  26.140  1.00  0.00     0.316 C 
ATOM      8  O   UNL A   1      30.153  24.114  26.782  1.00  0.00    -0.251 OA
BRANCH   7   9
ATOM      9  C   UNL A   1      31.361  22.294  25.864  1.00  0.00     0.200 C 
BRANCH   9  10
ATOM     10  S   UNL A   1      32.844  21.504  26.507  1.00  0.00    -0.076 SA
BRANCH  10  11
ATOM     11  C   UNL A   1      33.066  20.294  25.298  1.00  0.00     0.169 A 
ATOM     12  N   UNL A   1      32.136  19.391  25.123  1.00  0.00    -0.221 NA
ATOM     13  N   UNL A   1      34.289  19.880  24.818  1.00  0.00    -0.319 N 
ATOM     14  C   UNL A   1      32.829  18.233  24.943  1.00  0.00     0.108 A 
ATOM     15  C   UNL A   1      34.191  18.494  24.766  1.00  0.00     0.072 A 
ATOM     16  C   UNL A   1      32.381  16.911  25.012  1.00  0.00     0.141 A 
ATOM     17  C   UNL A   1      35.121  17.460  24.674  1.00  0.00     0.049 A 
ATOM     18  N   UNL A   1      33.272  15.890  24.924  1.00  0.00    -0.262 NA
ATOM     19  C   UNL A   1      34.584  16.183  24.785  1.00  0.00     0.113 A 
BRANCH  13  20
ATOM     20  C   UNL A   1      35.532  20.630  24.720  1.00  0.00     0.125 C 
BRANCH  20  21
ATOM     21  C   UNL A   1      35.458  22.141  24.950  1.00  0.00     0.025 C 
BRANCH  21  22
ATOM     22  C   UNL A   1      35.420  23.041  23.741  1.00  0.00    -0.009 C 
ATOM     23  C   UNL A   1      34.242  23.232  22.821  1.00  0.00     0.004 C 
ATOM     24  C   UNL A   1      34.580  24.307  23.797  1.00  0.00     0.004 C 
ENDBRANCH  21  22
ENDBRANCH  20  21
ENDBRANCH  13  20
ENDBRANCH  10  11
ENDBRANCH   9  10
ENDBRANCH   7   9
ENDBRANCH   6   7
ENDBRANCH   5   6
ENDBRANCH   4   5
ENDBRANCH   3   4
ENDBRANCH   2   3
ENDBRANCH   1   2
BRANCH   1  25
ATOM     25  O   UNL A   1      33.184  30.821  26.932  1.00  0.00    -0.377 OA
BRANCH  25  26
ATOM     26  C   UNL A   1      34.366  30.974  27.719  1.00  0.00     0.188 C 
BRANCH  26  27
ATOM     27  C   UNL A   1      34.722  32.448  28.036  1.00  0.00     0.188 C 
BRANCH  27  28
ATOM     28  O   UNL A   1      34.057  33.107  29.110  1.00  0.00    -0.376 OA
BRANCH  28  29
ATOM     29  C   UNL A   1      34.765  34.138  29.775  1.00  0.00     0.202 C 
BRANCH  29  30
ATOM     30  C   UNL A   1      36.280  33.927  29.930  1.00  0.00     0.261 C 
BRANCH  30  31
ATOM     31  O   UNL A   1      36.684  33.783  31.303  1.00  0.00    -0.460 OA
BRANCH  31  32
ATOM     32  C   UNL A   1      36.414  32.598  31.909  1.00  0.00     0.338 C 
ATOM     33  O   UNL A   1      35.426  32.332  32.573  1.00  0.00    -0.246 OA
BRANCH  32  34
ATOM     34  C   UNL A   1      37.370  31.593  31.372  1.00  0.00     0.060 A 
ATOM     35  C   UNL A   1      36.992  30.268  31.144  1.00  0.00     0.016 A 
ATOM     36  C   UNL A   1      38.726  31.953  31.333  1.00  0.00     0.016 A 
ATOM     37  C   UNL A   1      37.981  29.298  30.969  1.00  0.00     0.010 A 
ATOM     38  C   UNL A   1      39.714  30.977  31.163  1.00  0.00     0.010 A 
ATOM     39  C   UNL A   1      39.350  29.638  31.007  1.00  0.00    -0.014 A 
BRANCH  39  40
ATOM     40  C   UNL A   1      40.317  28.577  30.667  1.00  0.00     0.031 A 
ATOM     41  C   UNL A   1      41.288  28.287  31.762  1.00  0.00     0.074 A 
ATOM     42  C   UNL A   1      40.322  27.738  29.608  1.00  0.00     0.049 A 
ATOM     43  N   UNL A   1      42.580  28.374  31.752  1.00  0.00    -0.248 NA
ATOM     44  C   UNL A   1      40.700  27.930  33.061  1.00  0.00     0.031 C 
ATOM     45  C   UNL A   1      39.271  27.543  28.612  1.00  0.00     0.029 A 
ATOM     46  N   UNL A   1      41.256  26.786  29.269  1.00  0.00    -0.354 N 
ATOM     47  C   UNL A   1      42.978  27.896  32.999  1.00  0.00     0.074 A 
ATOM     48  C   UNL A   1      41.789  27.774  33.807  1.00  0.00     0.031 C 
ATOM     49  C   UNL A   1      39.532  26.421  27.905  1.00  0.00     0.029 A 
ATOM     50  C   UNL A   1      40.795  25.851  28.348  1.00  0.00     0.049 A 
ATOM     51  H   UNL A   1      42.166  26.768  29.644  1.00  0.00     0.167 HD
ATOM     52  C   UNL A   1      44.219  27.414  33.263  1.00  0.00     0.034 A 
ATOM     53  C   UNL A   1      41.354  24.653  28.043  1.00  0.00     0.034 A 
ATOM     54  C   UNL A   1      45.205  27.755  32.288  1.00  0.00     0.049 A 
ATOM     55  C   UNL A   1      42.766  24.661  28.502  1.00  0.00     0.074 A 
ATOM     56  C   UNL A   1      45.748  28.919  31.787  1.00  0.00     0.029 A 
ATOM     57  N   UNL A   1      45.643  26.742  31.475  1.00  0.00    -0.354 N 
ATOM     58  N   UNL A   1      43.740  25.330  27.951  1.00  0.00    -0.248 NA
ATOM     59  C   UNL A   1      43.083  24.026  29.773  1.00  0.00     0.031 C 
ATOM     60  C   UNL A   1      46.174  28.603  30.466  1.00  0.00     0.029 A 
ATOM     61  C   UNL A   1      45.837  27.270  30.227  1.00  0.00     0.049 A 
ATOM     62  H   UNL A   1      45.792  25.806  31.740  1.00  0.00     0.167 HD
ATOM     63  C   UNL A   1      44.675  25.497  28.962  1.00  0.00     0.074 A 
ATOM     64  C   UNL A   1      44.282  24.560  30.003  1.00  0.00     0.031 C 
ATOM     65  C   UNL A   1      45.508  26.576  28.998  1.00  0.00     0.034 A 
BRANCH  52  66
ATOM     66  C   UNL A   1      44.459  26.345  34.289  1.00  0.00     0.023 A 
ATOM     67  C   UNL A   1      44.480  24.997  33.885  1.00  0.00     0.012 A 
ATOM     68  C   UNL A   1      44.448  26.613  35.676  1.00  0.00     0.148 A 
ATOM     69  C   UNL A   1      44.523  23.963  34.827  1.00  0.00     0.002 A 
ATOM     70  C   UNL A   1      44.587  25.590  36.602  1.00  0.00     0.091 A 
ATOM     71  F   UNL A   1      44.187  27.856  36.108  1.00  0.00    -0.205 F 
ATOM     72  C   UNL A   1      44.606  24.258  36.185  1.00  0.00     0.022 A 
BRANCH  70  73
ATOM     73  S   UNL A   1      44.807  25.967  38.342  1.00  0.00     0.127 S 
ATOM     74  O   UNL A   1      46.050  26.731  38.326  1.00  0.00    -0.237 OA
ATOM     75  O   UNL A   1      43.604  26.741  38.647  1.00  0.00    -0.237 OA
ATOM     76  O   UNL A   1      44.849  24.661  38.992  1.00  0.00    -0.744 OA
ENDBRANCH  70  73
ENDBRANCH  52  66
BRANCH  53  77
ATOM     77  C   UNL A   1      40.739  23.393  27.531  1.00  0.00     0.023 A 
ATOM     78  C   UNL A   1      39.396  23.412  27.086  1.00  0.00     0.012 A 
ATOM     79  C   UNL A   1      41.497  22.238  27.239  1.00  0.00     0.148 A 
ATOM     80  C   UNL A   1      38.849  22.351  26.351  1.00  0.00     0.002 A 
ATOM     81  C   UNL A   1      40.936  21.167  26.541  1.00  0.00     0.091 A 
ATOM     82  F   UNL A   1      42.799  22.210  27.549  1.00  0.00    -0.205 F 
ATOM     83  C   UNL A   1      39.620  21.226  26.078  1.00  0.00     0.022 A 
BRANCH  81  84
ATOM     84  S   UNL A   1      41.895  19.680  26.214  1.00  0.00     0.127 S 
ATOM     85  O   UNL A   1      43.009  20.187  25.410  1.00  0.00    -0.237 OA
ATOM     86  O   UNL A   1      42.259  19.243  27.557  1.00  0.00    -0.237 OA
ATOM     87  O   UNL A   1      40.985  18.809  25.477  1.00  0.00    -0.744 OA
ENDBRANCH  81  84
ENDBRANCH  53  77
BRANCH  65  88
ATOM     88  C   UNL A   1      45.790  27.327  27.728  1.00  0.00     0.023 A 
ATOM     89  C   UNL A   1      45.275  28.614  27.503  1.00  0.00     0.012 A 
ATOM     90  C   UNL A   1      46.758  26.810  26.843  1.00  0.00     0.148 A 
ATOM     91  C   UNL A   1      45.712  29.361  26.411  1.00  0.00     0.002 A 
ATOM     92  C   UNL A   1      47.217  27.582  25.781  1.00  0.00     0.091 A 
ATOM     93  F   UNL A   1      47.244  25.582  27.083  1.00  0.00    -0.205 F 
ATOM     94  C   UNL A   1      46.691  28.859  25.561  1.00  0.00     0.022 A 
BRANCH  92  95
ATOM     95  S   UNL A   1      48.546  27.049  24.702  1.00  0.00     0.127 S 
ATOM     96  O   UNL A   1      48.425  27.981  23.583  1.00  0.00    -0.237 OA
ATOM     97  O   UNL A   1      49.729  27.249  25.541  1.00  0.00    -0.237 OA
ATOM     98  O   UNL A   1      48.271  25.654  24.380  1.00  0.00    -0.744 OA
ENDBRANCH  92  95
ENDBRANCH  65  88
ENDBRANCH  39  40
ENDBRANCH  32  34
ENDBRANCH  31  32
ENDBRANCH  30  31
ENDBRANCH  29  30
ENDBRANCH  28  29
ENDBRANCH  27  28
ENDBRANCH  26  27
ENDBRANCH  25  26
ENDBRANCH   1  25
TORSDOF 28
ENDMDL
MODEL 2
REMARK VINA RESULT:     -10.0      2.421      2.858
REMARK SMILES O=C(CSc1nc2cnccc2n1CCC1CC1)OCCOCCOCCOCCOC(=O)c1ccc(-c2c3nc(c(-c4cccc(S(=O)(=O)[O-])c4F)c4ccc([nH]4)c(-c4cccc(S(=O)(=O)[O-])c4F)c4nc(c(-c5cccc(S(=O)(=O)[O-])c5F)c5ccc2[nH]5)C=C4)C=C3)cc1
REMARK SMILES IDX 24 1 23 2 22 3 21 4 20 5 19 6 2 7 1 8 3 9 4 10 5 11 6 12
REMARK SMILES IDX 13 13 7 14 12 15 8 16 11 17 9 18 10 19 14 20 15 21 16 22
REMARK SMILES IDX 17 23 18 24 25 25 26 26 27 27 28 28 29 29 30 30 31 31 32 32
REMARK SMILES IDX 33 33 34 34 35 35 96 36 36 37 95 38 37 39 38 40 39 41 89 42
REMARK SMILES IDX 40 43 94 44 88 45 90 46 41 47 93 48 87 49 86 50 42 52 74 53
REMARK SMILES IDX 54 54 73 55 55 56 58 57 72 58 91 59 56 60 57 61 71 63 92 64
REMARK SMILES IDX 59 65 43 66 44 67 52 68 45 69 47 70 53 71 46 72 48 73 49 74
REMARK SMILES IDX 50 75 51 76 75 77 76 78 84 79 77 80 79 81 85 82 78 83 80 84
REMARK SMILES IDX 81 85 82 86 83 87 60 88 61 89 69 90 62 91 64 92 70 93 63 94
REMARK SMILES IDX 65 95 66 96 67 97 68 98
REMARK H PARENT 90 51 58 62
REMARK Flexibility Score: inf
ROOT
ATOM      1  C   UNL A   1      33.339  29.798  25.973  1.00  0.00     0.188 C 
ENDROOT
BRANCH   1   2
ATOM      2  C   UNL A   1      32.066  29.085  25.534  1.00  0.00     0.188 C 
BRANCH   2   3
ATOM      3  O   UNL A   1      32.269  28.168  24.479  1.00  0.00    -0.376 OA
BRANCH   3   4
ATOM      4  C   UNL A   1      32.898  26.910  24.597  1.00  0.00     0.202 C 
BRANCH   4   5
ATOM      5  C   UNL A   1      32.640  25.992  25.794  1.00  0.00     0.261 C 
BRANCH   5   6
ATOM      6  O   UNL A   1      32.220  24.666  25.462  1.00  0.00    -0.463 OA
BRANCH   6   7
ATOM      7  C   UNL A   1      31.128  24.096  26.015  1.00  0.00     0.316 C 
ATOM      8  O   UNL A   1      30.318  24.784  26.632  1.00  0.00    -0.251 OA
BRANCH   7   9
ATOM      9  C   UNL A   1      31.190  22.617  26.234  1.00  0.00     0.200 C 
BRANCH   9  10
ATOM     10  S   UNL A   1      32.765  21.864  26.668  1.00  0.00    -0.076 SA
BRANCH  10  11
ATOM     11  C   UNL A   1      32.864  20.678  25.420  1.00  0.00     0.169 A 
ATOM     12  N   UNL A   1      32.006  19.690  25.411  1.00  0.00    -0.221 NA
ATOM     13  N   UNL A   1      34.006  20.379  24.709  1.00  0.00    -0.319 N 
ATOM     14  C   UNL A   1      32.756  18.603  25.084  1.00  0.00     0.108 A 
ATOM     15  C   UNL A   1      34.029  18.991  24.656  1.00  0.00     0.072 A 
ATOM     16  C   UNL A   1      32.455  17.244  25.216  1.00  0.00     0.141 A 
ATOM     17  C   UNL A   1      35.017  18.049  24.372  1.00  0.00     0.049 A 
ATOM     18  N   UNL A   1      33.404  16.312  24.945  1.00  0.00    -0.262 NA
ATOM     19  C   UNL A   1      34.632  16.727  24.563  1.00  0.00     0.113 A 
BRANCH  13  20
ATOM     20  C   UNL A   1      35.132  21.243  24.388  1.00  0.00     0.125 C 
BRANCH  20  21
ATOM     21  C   UNL A   1      36.332  21.211  25.338  1.00  0.00     0.025 C 
BRANCH  21  22
ATOM     22  C   UNL A   1      36.910  22.528  25.794  1.00  0.00    -0.009 C 
ATOM     23  C   UNL A   1      36.996  23.786  24.971  1.00  0.00     0.004 C 
ATOM     24  C   UNL A   1      35.968  23.693  26.046  1.00  0.00     0.004 C 
ENDBRANCH  21  22
ENDBRANCH  20  21
ENDBRANCH  13  20
ENDBRANCH  10  11
ENDBRANCH   9  10
ENDBRANCH   7   9
ENDBRANCH   6   7
ENDBRANCH   5   6
ENDBRANCH   4   5
ENDBRANCH   3   4
ENDBRANCH   2   3
ENDBRANCH   1   2
BRANCH   1  25
ATOM     25  O   UNL A   1      33.042  30.836  26.897  1.00  0.00    -0.377 OA
BRANCH  25  26
ATOM     26  C   UNL A   1      34.148  31.186  27.730  1.00  0.00     0.188 C 
BRANCH  26  27
ATOM     27  C   UNL A   1      34.412  32.709  27.816  1.00  0.00     0.188 C 
BRANCH  27  28
ATOM     28  O   UNL A   1      33.691  33.484  28.771  1.00  0.00    -0.376 OA
BRANCH  28  29
ATOM     29  C   UNL A   1      34.357  34.600  29.335  1.00  0.00     0.202 C 
BRANCH  29  30
ATOM     30  C   UNL A   1      35.824  34.379  29.738  1.00  0.00     0.261 C 
BRANCH  30  31
ATOM     31  O   UNL A   1      35.965  33.948  31.103  1.00  0.00    -0.460 OA
BRANCH  31  32
ATOM     32  C   UNL A   1      35.804  32.624  31.357  1.00  0.00     0.338 C 
ATOM     33  O   UNL A   1      34.760  32.064  31.647  1.00  0.00    -0.246 OA
BRANCH  32  34
ATOM     34  C   UNL A   1      37.046  31.931  30.922  1.00  0.00     0.060 A 
ATOM     35  C   UNL A   1      37.021  30.635  30.401  1.00  0.00     0.016 A 
ATOM     36  C   UNL A   1      38.269  32.519  31.281  1.00  0.00     0.016 A 
ATOM     37  C   UNL A   1      38.210  29.907  30.326  1.00  0.00     0.010 A 
ATOM     38  C   UNL A   1      39.457  31.784  31.209  1.00  0.00     0.010 A 
ATOM     39  C   UNL A   1      39.432  30.463  30.758  1.00  0.00    -0.014 A 
BRANCH  39  40
ATOM     40  C   UNL A   1      40.655  29.677  30.505  1.00  0.00     0.031 A 
ATOM     41  C   UNL A   1      41.390  29.308  31.750  1.00  0.00     0.074 A 
ATOM     42  C   UNL A   1      41.081  29.111  29.354  1.00  0.00     0.049 A 
ATOM     43  N   UNL A   1      42.602  29.603  32.101  1.00  0.00    -0.248 NA
ATOM     44  C   UNL A   1      40.612  28.577  32.759  1.00  0.00     0.031 C 
ATOM     45  C   UNL A   1      40.352  28.979  28.095  1.00  0.00     0.029 A 
ATOM     46  N   UNL A   1      42.249  28.424  29.113  1.00  0.00    -0.354 N 
ATOM     47  C   UNL A   1      42.797  28.926  33.303  1.00  0.00     0.074 A 
ATOM     48  C   UNL A   1      41.510  28.434  33.729  1.00  0.00     0.031 C 
ATOM     49  C   UNL A   1      41.000  28.104  27.296  1.00  0.00     0.029 A 
ATOM     50  C   UNL A   1      42.220  27.660  27.951  1.00  0.00     0.049 A 
ATOM     51  H   UNL A   1      43.032  28.470  29.709  1.00  0.00     0.167 HD
ATOM     52  C   UNL A   1      44.019  28.605  33.800  1.00  0.00     0.034 A 
ATOM     53  C   UNL A   1      43.077  26.669  27.599  1.00  0.00     0.034 A 
ATOM     54  C   UNL A   1      45.105  29.313  33.200  1.00  0.00     0.049 A 
ATOM     55  C   UNL A   1      44.312  26.801  28.413  1.00  0.00     0.074 A 
ATOM     56  C   UNL A   1      45.486  30.631  33.077  1.00  0.00     0.029 A 
ATOM     57  N   UNL A   1      45.923  28.594  32.367  1.00  0.00    -0.354 N 
ATOM     58  N   UNL A   1      45.220  27.726  28.270  1.00  0.00    -0.248 NA
ATOM     59  C   UNL A   1      44.459  25.955  29.588  1.00  0.00     0.031 C 
ATOM     60  C   UNL A   1      46.260  30.696  31.884  1.00  0.00     0.029 A 
ATOM     61  C   UNL A   1      46.278  29.414  31.330  1.00  0.00     0.049 A 
ATOM     62  H   UNL A   1      46.204  27.659  32.492  1.00  0.00     0.167 HD
ATOM     63  C   UNL A   1      45.842  27.809  29.507  1.00  0.00     0.074 A 
ATOM     64  C   UNL A   1      45.432  26.610  30.221  1.00  0.00     0.031 C 
ATOM     65  C   UNL A   1      46.395  28.973  29.955  1.00  0.00     0.034 A 
BRANCH  52  66
ATOM     66  C   UNL A   1      44.242  27.385  34.646  1.00  0.00     0.023 A 
ATOM     67  C   UNL A   1      44.855  27.524  35.904  1.00  0.00     0.012 A 
ATOM     68  C   UNL A   1      44.063  26.076  34.145  1.00  0.00     0.148 A 
ATOM     69  C   UNL A   1      45.241  26.402  36.646  1.00  0.00     0.002 A 
ATOM     70  C   UNL A   1      44.360  24.968  34.923  1.00  0.00     0.091 A 
ATOM     71  F   UNL A   1      43.710  25.900  32.863  1.00  0.00    -0.205 F 
ATOM     72  C   UNL A   1      44.968  25.122  36.170  1.00  0.00     0.022 A 
BRANCH  70  73
ATOM     73  S   UNL A   1      43.909  23.323  34.367  1.00  0.00     0.127 S 
ATOM     74  O   UNL A   1      42.481  23.289  34.667  1.00  0.00    -0.237 OA
ATOM     75  O   UNL A   1      44.245  23.373  32.944  1.00  0.00    -0.237 OA
ATOM     76  O   UNL A   1      44.763  22.432  35.144  1.00  0.00    -0.744 OA
ENDBRANCH  70  73
ENDBRANCH  52  66
BRANCH  53  77
ATOM     77  C   UNL A   1      42.879  25.474  26.725  1.00  0.00     0.023 A 
ATOM     78  C   UNL A   1      43.587  25.388  25.504  1.00  0.00     0.012 A 
ATOM     79  C   UNL A   1      42.208  24.312  27.164  1.00  0.00     0.148 A 
ATOM     80  C   UNL A   1      43.657  24.191  24.777  1.00  0.00     0.002 A 
ATOM     81  C   UNL A   1      42.248  23.134  26.417  1.00  0.00     0.091 A 
ATOM     82  F   UNL A   1      41.607  24.311  28.360  1.00  0.00    -0.205 F 
ATOM     83  C   UNL A   1      42.986  23.062  25.234  1.00  0.00     0.022 A 
BRANCH  81  84
ATOM     84  S   UNL A   1      41.352  21.670  26.959  1.00  0.00     0.127 S 
ATOM     85  O   UNL A   1      41.404  20.807  25.778  1.00  0.00    -0.237 OA
ATOM     86  O   UNL A   1      42.158  21.213  28.086  1.00  0.00    -0.237 OA
ATOM     87  O   UNL A   1      40.013  22.153  27.278  1.00  0.00    -0.744 OA
ENDBRANCH  81  84
ENDBRANCH  53  77
BRANCH  65  88
ATOM     88  C   UNL A   1      46.791  30.026  28.962  1.00  0.00     0.023 A 
ATOM     89  C   UNL A   1      48.084  30.077  28.417  1.00  0.00     0.012 A 
ATOM     90  C   UNL A   1      45.783  30.848  28.416  1.00  0.00     0.148 A 
ATOM     91  C   UNL A   1      48.363  30.937  27.356  1.00  0.00     0.002 A 
ATOM     92  C   UNL A   1      46.064  31.671  27.331  1.00  0.00     0.091 A 
ATOM     93  F   UNL A   1      44.552  30.776  28.946  1.00  0.00    -0.205 F 
ATOM     94  C   UNL A   1      47.357  31.720  26.801  1.00  0.00     0.022 A 
BRANCH  92  95
ATOM     95  S   UNL A   1      44.801  32.633  26.496  1.00  0.00     0.127 S 
ATOM     96  O   UNL A   1      45.564  33.279  25.430  1.00  0.00    -0.237 OA
ATOM     97  O   UNL A   1      43.870  31.599  26.042  1.00  0.00    -0.237 OA
ATOM     98  O   UNL A   1      44.251  33.536  27.498  1.00  0.00    -0.744 OA
ENDBRANCH  92  95
ENDBRANCH  65  88
ENDBRANCH  39  40
ENDBRANCH  32  34
ENDBRANCH  31  32
ENDBRANCH  30  31
ENDBRANCH  29  30
ENDBRANCH  28  29
ENDBRANCH  27  28
ENDBRANCH  26  27
ENDBRANCH  25  26
ENDBRANCH   1  25
TORSDOF 28
ENDMDL
MODEL 3
REMARK VINA RESULT:      -9.9      1.960      3.044
REMARK SMILES O=C(CSc1nc2cnccc2n1CCC1CC1)OCCOCCOCCOCCOC(=O)c1ccc(-c2c3nc(c(-c4cccc(S(=O)(=O)[O-])c4F)c4ccc([nH]4)c(-c4cccc(S(=O)(=O)[O-])c4F)c4nc(c(-c5cccc(S(=O)(=O)[O-])c5F)c5ccc2[nH]5)C=C4)C=C3)cc1
REMARK SMILES IDX 24 1 23 2 22 3 21 4 20 5 19 6 2 7 1 8 3 9 4 10 5 11 6 12
REMARK SMILES IDX 13 13 7 14 12 15 8 16 11 17 9 18 10 19 14 20 15 21 16 22
REMARK SMILES IDX 17 23 18 24 25 25 26 26 27 27 28 28 29 29 30 30 31 31 32 32
REMARK SMILES IDX 33 33 34 34 35 35 96 36 36 37 95 38 37 39 38 40 39 41 89 42
REMARK SMILES IDX 40 43 94 44 88 45 90 46 41 47 93 48 87 49 86 50 42 52 74 53
REMARK SMILES IDX 54 54 73 55 55 56 58 57 72 58 91 59 56 60 57 61 71 63 92 64
REMARK SMILES IDX 59 65 43 66 44 67 52 68 45 69 47 70 53 71 46 72 48 73 49 74
REMARK SMILES IDX 50 75 51 76 75 77 76 78 84 79 77 80 79 81 85 82 78 83 80 84
REMARK SMILES IDX 81 85 82 86 83 87 60 88 61 89 69 90 62 91 64 92 70 93 63 94
REMARK SMILES IDX 65 95 66 96 67 97 68 98
REMARK H PARENT 90 51 58 62
REMARK Flexibility Score: inf
ROOT
ATOM      1  C   UNL A   1      32.911  29.814  25.913  1.00  0.00     0.188 C 
ENDROOT
BRANCH   1   2
ATOM      2  C   UNL A   1      31.470  29.417  25.617  1.00  0.00     0.188 C 
BRANCH   2   3
ATOM      3  O   UNL A   1      31.341  28.556  24.504  1.00  0.00    -0.376 OA
BRANCH   3   4
ATOM      4  C   UNL A   1      31.747  27.205  24.461  1.00  0.00     0.202 C 
BRANCH   4   5
ATOM      5  C   UNL A   1      31.605  26.286  25.675  1.00  0.00     0.261 C 
BRANCH   5   6
ATOM      6  O   UNL A   1      31.133  24.968  25.385  1.00  0.00    -0.463 OA
BRANCH   6   7
ATOM      7  C   UNL A   1      30.285  24.309  26.205  1.00  0.00     0.316 C 
ATOM      8  O   UNL A   1      29.421  24.925  26.823  1.00  0.00    -0.251 OA
BRANCH   7   9
ATOM      9  C   UNL A   1      30.722  22.952  26.660  1.00  0.00     0.200 C 
BRANCH   9  10
ATOM     10  S   UNL A   1      32.377  22.748  27.337  1.00  0.00    -0.076 SA
BRANCH  10  11
ATOM     11  C   UNL A   1      33.260  22.549  25.870  1.00  0.00     0.169 A 
ATOM     12  N   UNL A   1      34.023  23.525  25.449  1.00  0.00    -0.221 NA
ATOM     13  N   UNL A   1      32.908  21.689  24.852  1.00  0.00    -0.319 N 
ATOM     14  C   UNL A   1      33.806  23.559  24.106  1.00  0.00     0.108 A 
ATOM     15  C   UNL A   1      33.091  22.431  23.692  1.00  0.00     0.072 A 
ATOM     16  C   UNL A   1      34.105  24.566  23.184  1.00  0.00     0.141 A 
ATOM     17  C   UNL A   1      32.651  22.295  22.376  1.00  0.00     0.049 A 
ATOM     18  N   UNL A   1      33.684  24.451  21.897  1.00  0.00    -0.262 NA
ATOM     19  C   UNL A   1      32.968  23.361  21.542  1.00  0.00     0.113 A 
BRANCH  13  20
ATOM     20  C   UNL A   1      32.176  20.434  24.931  1.00  0.00     0.125 C 
BRANCH  20  21
ATOM     21  C   UNL A   1      32.999  19.148  25.031  1.00  0.00     0.025 C 
BRANCH  21  22
ATOM     22  C   UNL A   1      32.613  17.990  24.145  1.00  0.00    -0.009 C 
ATOM     23  C   UNL A   1      33.171  17.704  22.775  1.00  0.00     0.004 C 
ATOM     24  C   UNL A   1      33.617  16.869  23.927  1.00  0.00     0.004 C 
ENDBRANCH  21  22
ENDBRANCH  20  21
ENDBRANCH  13  20
ENDBRANCH  10  11
ENDBRANCH   9  10
ENDBRANCH   7   9
ENDBRANCH   6   7
ENDBRANCH   5   6
ENDBRANCH   4   5
ENDBRANCH   3   4
ENDBRANCH   2   3
ENDBRANCH   1   2
BRANCH   1  25
ATOM     25  O   UNL A   1      32.959  30.828  26.909  1.00  0.00    -0.377 OA
BRANCH  25  26
ATOM     26  C   UNL A   1      34.245  30.964  27.515  1.00  0.00     0.188 C 
BRANCH  26  27
ATOM     27  C   UNL A   1      34.610  32.420  27.893  1.00  0.00     0.188 C 
BRANCH  27  28
ATOM     28  O   UNL A   1      34.364  32.874  29.222  1.00  0.00    -0.376 OA
BRANCH  28  29
ATOM     29  C   UNL A   1      35.085  34.011  29.662  1.00  0.00     0.202 C 
BRANCH  29  30
ATOM     30  C   UNL A   1      36.567  33.783  30.000  1.00  0.00     0.261 C 
BRANCH  30  31
ATOM     31  O   UNL A   1      36.788  33.561  31.404  1.00  0.00    -0.460 OA
BRANCH  31  32
ATOM     32  C   UNL A   1      36.543  32.314  31.882  1.00  0.00     0.338 C 
ATOM     33  O   UNL A   1      35.481  31.900  32.317  1.00  0.00    -0.246 OA
BRANCH  32  34
ATOM     34  C   UNL A   1      37.696  31.455  31.503  1.00  0.00     0.060 A 
ATOM     35  C   UNL A   1      37.523  30.131  31.092  1.00  0.00     0.016 A 
ATOM     36  C   UNL A   1      38.981  31.933  31.806  1.00  0.00     0.016 A 
ATOM     37  C   UNL A   1      38.624  29.273  31.073  1.00  0.00     0.010 A 
ATOM     38  C   UNL A   1      40.081  31.068  31.791  1.00  0.00     0.010 A 
ATOM     39  C   UNL A   1      39.906  29.725  31.452  1.00  0.00    -0.014 A 
BRANCH  39  40
ATOM     40  C   UNL A   1      41.032  28.792  31.261  1.00  0.00     0.031 A 
ATOM     41  C   UNL A   1      41.763  28.479  32.523  1.00  0.00     0.074 A 
ATOM     42  C   UNL A   1      41.361  28.066  30.169  1.00  0.00     0.049 A 
ATOM     43  N   UNL A   1      43.009  28.678  32.817  1.00  0.00    -0.248 NA
ATOM     44  C   UNL A   1      40.945  27.944  33.621  1.00  0.00     0.031 C 
ATOM     45  C   UNL A   1      40.583  27.881  28.946  1.00  0.00     0.029 A 
ATOM     46  N   UNL A   1      42.443  27.237  29.981  1.00  0.00    -0.354 N 
ATOM     47  C   UNL A   1      43.170  28.114  34.081  1.00  0.00     0.074 A 
ATOM     48  C   UNL A   1      41.852  27.809  34.583  1.00  0.00     0.031 C 
ATOM     49  C   UNL A   1      41.112  26.863  28.233  1.00  0.00     0.029 A 
ATOM     50  C   UNL A   1      42.300  26.363  28.908  1.00  0.00     0.049 A 
ATOM     51  H   UNL A   1      43.245  27.261  30.552  1.00  0.00     0.167 HD
ATOM     52  C   UNL A   1      44.367  27.718  34.585  1.00  0.00     0.034 A 
ATOM     53  C   UNL A   1      43.038  25.255  28.648  1.00  0.00     0.034 A 
ATOM     54  C   UNL A   1      45.501  28.239  33.891  1.00  0.00     0.049 A 
ATOM     55  C   UNL A   1      44.304  25.339  29.418  1.00  0.00     0.074 A 
ATOM     56  C   UNL A   1      46.013  29.490  33.620  1.00  0.00     0.029 A 
ATOM     57  N   UNL A   1      46.214  27.355  33.124  1.00  0.00    -0.354 N 
ATOM     58  N   UNL A   1      45.299  26.142  29.159  1.00  0.00    -0.248 NA
ATOM     59  C   UNL A   1      44.399  24.610  30.674  1.00  0.00     0.031 C 
ATOM     60  C   UNL A   1      46.752  29.346  32.412  1.00  0.00     0.029 A 
ATOM     61  C   UNL A   1      46.620  28.019  31.999  1.00  0.00     0.049 A 
ATOM     62  H   UNL A   1      46.400  26.413  33.343  1.00  0.00     0.167 HD
ATOM     63  C   UNL A   1      45.963  26.288  30.368  1.00  0.00     0.074 A 
ATOM     64  C   UNL A   1      45.454  25.220  31.214  1.00  0.00     0.031 C 
ATOM     65  C   UNL A   1      46.648  27.426  30.677  1.00  0.00     0.034 A 
BRANCH  52  66
ATOM     66  C   UNL A   1      44.488  26.576  35.553  1.00  0.00     0.023 A 
ATOM     67  C   UNL A   1      44.166  25.275  35.124  1.00  0.00     0.012 A 
ATOM     68  C   UNL A   1      44.699  26.777  36.934  1.00  0.00     0.148 A 
ATOM     69  C   UNL A   1      44.094  24.214  36.033  1.00  0.00     0.002 A 
ATOM     70  C   UNL A   1      44.721  25.707  37.816  1.00  0.00     0.091 A 
ATOM     71  F   UNL A   1      44.769  28.026  37.419  1.00  0.00    -0.205 F 
ATOM     72  C   UNL A   1      44.399  24.423  37.375  1.00  0.00     0.022 A 
BRANCH  70  73
ATOM     73  S   UNL A   1      45.223  25.948  39.522  1.00  0.00     0.127 S 
ATOM     74  O   UNL A   1      46.420  26.767  39.366  1.00  0.00    -0.237 OA
ATOM     75  O   UNL A   1      44.066  26.638  40.091  1.00  0.00    -0.237 OA
ATOM     76  O   UNL A   1      45.416  24.597  40.035  1.00  0.00    -0.744 OA
ENDBRANCH  70  73
ENDBRANCH  52  66
BRANCH  53  77
ATOM     77  C   UNL A   1      42.689  24.003  27.911  1.00  0.00     0.023 A 
ATOM     78  C   UNL A   1      41.362  23.516  27.968  1.00  0.00     0.012 A 
ATOM     79  C   UNL A   1      43.553  23.411  26.964  1.00  0.00     0.148 A 
ATOM     80  C   UNL A   1      40.908  22.518  27.096  1.00  0.00     0.002 A 
ATOM     81  C   UNL A   1      43.106  22.390  26.125  1.00  0.00     0.091 A 
ATOM     82  F   UNL A   1      44.787  23.902  26.801  1.00  0.00    -0.205 F 
ATOM     83  C   UNL A   1      41.780  21.953  26.173  1.00  0.00     0.022 A 
BRANCH  81  84
ATOM     84  S   UNL A   1      44.225  21.608  24.952  1.00  0.00     0.127 S 
ATOM     85  O   UNL A   1      44.084  22.452  23.763  1.00  0.00    -0.237 OA
ATOM     86  O   UNL A   1      45.511  21.717  25.629  1.00  0.00    -0.237 OA
ATOM     87  O   UNL A   1      43.697  20.258  24.781  1.00  0.00    -0.744 OA
ENDBRANCH  81  84
ENDBRANCH  53  77
BRANCH  65  88
ATOM     88  C   UNL A   1      47.121  28.322  29.569  1.00  0.00     0.023 A 
ATOM     89  C   UNL A   1      48.387  28.166  28.984  1.00  0.00     0.012 A 
ATOM     90  C   UNL A   1      46.191  29.198  28.971  1.00  0.00     0.148 A 
ATOM     91  C   UNL A   1      48.719  28.878  27.833  1.00  0.00     0.002 A 
ATOM     92  C   UNL A   1      46.519  29.870  27.799  1.00  0.00     0.091 A 
ATOM     93  F   UNL A   1      44.983  29.324  29.541  1.00  0.00    -0.205 F 
ATOM     94  C   UNL A   1      47.787  29.714  27.229  1.00  0.00     0.022 A 
BRANCH  92  95
ATOM     95  S   UNL A   1      45.341  30.885  26.905  1.00  0.00     0.127 S 
ATOM     96  O   UNL A   1      46.214  31.684  26.048  1.00  0.00    -0.237 OA
ATOM     97  O   UNL A   1      44.538  29.885  26.199  1.00  0.00    -0.237 OA
ATOM     98  O   UNL A   1      44.607  31.637  27.915  1.00  0.00    -0.744 OA
ENDBRANCH  92  95
ENDBRANCH  65  88
ENDBRANCH  39  40
ENDBRANCH  32  34
ENDBRANCH  31  32
ENDBRANCH  30  31
ENDBRANCH  29  30
ENDBRANCH  28  29
ENDBRANCH  27  28
ENDBRANCH  26  27
ENDBRANCH  25  26
ENDBRANCH   1  25
TORSDOF 28
ENDMDL
