MODEL 1
REMARK VINA RESULT:      -8.5      0.000      0.000
REMARK SMILES O=C(CS(=O)(=O)NCc1ccc(N2CCOCC2)nc1)OCCOCCOCCOCCOC(=O)c1ccc(-c2c3nc(c(-c4cccc(S(=O)(=O)[O-])c4F)c4ccc([nH]4)c(-c4cccc(S(=O)(=O)[O-])c4F)c4nc(c(-c5cccc(S(=O)(=O)[O-])c5F)c5ccc2[nH]5)C=C4)C=C3)cc1
REMARK SMILES IDX 26 1 25 2 24 3 23 4 22 5 21 6 2 7 1 8 3 9 4 10 5 11 6 12
REMARK SMILES IDX 7 13 8 15 9 16 10 17 20 18 11 19 19 20 12 21 13 22 14 23
REMARK SMILES IDX 18 24 15 25 17 26 16 27 27 28 28 29 29 30 30 31 31 32 32 33
REMARK SMILES IDX 33 34 34 35 35 36 36 37 37 38 98 39 38 40 97 41 39 42 40 43
REMARK SMILES IDX 41 44 91 45 42 46 96 47 90 48 92 49 43 50 95 51 89 52 88 53
REMARK SMILES IDX 44 55 76 56 56 57 75 58 57 59 60 60 74 61 93 62 58 63 59 64
REMARK SMILES IDX 73 66 94 67 61 68 45 69 46 70 54 71 47 72 49 73 55 74 48 75
REMARK SMILES IDX 50 76 51 77 52 78 53 79 77 80 78 81 86 82 79 83 81 84 87 85
REMARK SMILES IDX 80 86 82 87 83 88 84 89 85 90 62 91 63 92 71 93 64 94 66 95
REMARK SMILES IDX 72 96 65 97 67 98 68 99 69 100 70 101
REMARK H PARENT 7 14 92 54 60 65
REMARK Flexibility Score: inf
ROOT
ATOM      1  C   UNL A   1      41.906  19.931  26.300  1.00  0.00     0.188 C 
ENDROOT
BRANCH   1   2
ATOM      2  C   UNL A   1      41.058  21.191  26.065  1.00  0.00     0.188 C 
BRANCH   2   3
ATOM      3  O   UNL A   1      39.675  21.048  26.349  1.00  0.00    -0.376 OA
BRANCH   3   4
ATOM      4  C   UNL A   1      38.637  21.498  25.498  1.00  0.00     0.202 C 
BRANCH   4   5
ATOM      5  C   UNL A   1      37.487  22.309  26.073  1.00  0.00     0.261 C 
BRANCH   5   6
ATOM      6  O   UNL A   1      36.151  21.949  25.649  1.00  0.00    -0.462 OA
BRANCH   6   7
ATOM      7  C   UNL A   1      34.951  22.086  26.223  1.00  0.00     0.322 C 
ATOM      8  O   UNL A   1      34.670  23.174  26.733  1.00  0.00    -0.251 OA
BRANCH   7   9
ATOM      9  C   UNL A   1      34.005  20.963  26.351  1.00  0.00     0.276 C 
BRANCH   9  10
ATOM     10  S   UNL A   1      33.039  20.686  24.913  1.00  0.00     0.222 S 
ATOM     11  O   UNL A   1      33.356  19.396  24.354  1.00  0.00    -0.212 OA
ATOM     12  O   UNL A   1      31.666  20.966  25.286  1.00  0.00    -0.212 OA
BRANCH  10  13
ATOM     13  N   UNL A   1      33.421  21.876  23.823  1.00  0.00    -0.210 NA
ATOM     14  H   UNL A   1      34.045  21.433  23.148  1.00  0.00     0.141 HD
BRANCH  13  15
ATOM     15  C   UNL A   1      32.457  22.640  23.017  1.00  0.00     0.135 C 
BRANCH  15  16
ATOM     16  C   UNL A   1      32.365  24.116  23.247  1.00  0.00    -0.015 A 
ATOM     17  C   UNL A   1      33.293  24.786  24.046  1.00  0.00     0.010 A 
ATOM     18  C   UNL A   1      31.331  24.879  22.725  1.00  0.00     0.118 A 
ATOM     19  C   UNL A   1      33.177  26.160  24.234  1.00  0.00     0.047 A 
ATOM     20  N   UNL A   1      31.193  26.213  22.903  1.00  0.00    -0.239 NA
ATOM     21  C   UNL A   1      32.119  26.846  23.650  1.00  0.00     0.128 A 
BRANCH  21  22
ATOM     22  N   UNL A   1      31.983  28.186  23.861  1.00  0.00    -0.352 N 
ATOM     23  C   UNL A   1      32.718  28.884  24.903  1.00  0.00     0.146 C 
ATOM     24  C   UNL A   1      31.055  28.960  23.048  1.00  0.00     0.146 C 
ATOM     25  C   UNL A   1      31.741  29.749  25.719  1.00  0.00     0.181 C 
ATOM     26  C   UNL A   1      30.154  29.797  23.968  1.00  0.00     0.181 C 
ATOM     27  O   UNL A   1      30.944  30.597  24.873  1.00  0.00    -0.378 OA
ENDBRANCH  21  22
ENDBRANCH  15  16
ENDBRANCH  13  15
ENDBRANCH  10  13
ENDBRANCH   9  10
ENDBRANCH   7   9
ENDBRANCH   6   7
ENDBRANCH   5   6
ENDBRANCH   4   5
ENDBRANCH   3   4
ENDBRANCH   2   3
ENDBRANCH   1   2
BRANCH   1  28
ATOM     28  O   UNL A   1      42.675  19.531  25.172  1.00  0.00    -0.377 OA
BRANCH  28  29
ATOM     29  C   UNL A   1      44.080  19.583  25.367  1.00  0.00     0.188 C 
BRANCH  29  30
ATOM     30  C   UNL A   1      44.882  20.359  24.296  1.00  0.00     0.188 C 
BRANCH  30  31
ATOM     31  O   UNL A   1      45.173  21.746  24.417  1.00  0.00    -0.376 OA
BRANCH  31  32
ATOM     32  C   UNL A   1      45.560  22.295  25.664  1.00  0.00     0.202 C 
BRANCH  32  33
ATOM     33  C   UNL A   1      46.390  23.584  25.710  1.00  0.00     0.261 C 
BRANCH  33  34
ATOM     34  O   UNL A   1      46.089  24.545  24.694  1.00  0.00    -0.460 OA
BRANCH  34  35
ATOM     35  C   UNL A   1      46.787  25.707  24.774  1.00  0.00     0.338 C 
ATOM     36  O   UNL A   1      47.688  26.078  24.057  1.00  0.00    -0.246 OA
BRANCH  35  37
ATOM     37  C   UNL A   1      46.134  26.572  25.782  1.00  0.00     0.060 A 
ATOM     38  C   UNL A   1      46.935  27.146  26.782  1.00  0.00     0.016 A 
ATOM     39  C   UNL A   1      44.761  26.819  25.740  1.00  0.00     0.016 A 
ATOM     40  C   UNL A   1      46.360  27.949  27.763  1.00  0.00     0.010 A 
ATOM     41  C   UNL A   1      44.180  27.588  26.747  1.00  0.00     0.010 A 
ATOM     42  C   UNL A   1      44.973  28.119  27.781  1.00  0.00    -0.014 A 
BRANCH  42  43
ATOM     43  C   UNL A   1      44.323  28.606  29.015  1.00  0.00     0.031 A 
ATOM     44  C   UNL A   1      43.904  30.048  29.050  1.00  0.00     0.074 A 
ATOM     45  C   UNL A   1      44.135  27.805  30.076  1.00  0.00     0.049 A 
ATOM     46  N   UNL A   1      43.407  30.744  30.037  1.00  0.00    -0.248 NA
ATOM     47  C   UNL A   1      44.079  30.811  27.801  1.00  0.00     0.031 C 
ATOM     48  C   UNL A   1      44.484  26.388  30.141  1.00  0.00     0.029 A 
ATOM     49  N   UNL A   1      43.635  28.092  31.321  1.00  0.00    -0.354 N 
ATOM     50  C   UNL A   1      43.251  32.032  29.543  1.00  0.00     0.074 A 
ATOM     51  C   UNL A   1      43.703  32.025  28.170  1.00  0.00     0.031 C 
ATOM     52  C   UNL A   1      44.234  25.938  31.384  1.00  0.00     0.029 A 
ATOM     53  C   UNL A   1      43.743  27.045  32.205  1.00  0.00     0.049 A 
ATOM     54  H   UNL A   1      43.240  28.961  31.558  1.00  0.00     0.167 HD
ATOM     55  C   UNL A   1      42.770  33.126  30.175  1.00  0.00     0.034 A 
ATOM     56  C   UNL A   1      43.513  27.005  33.532  1.00  0.00     0.034 A 
ATOM     57  C   UNL A   1      42.317  33.123  31.538  1.00  0.00     0.049 A 
ATOM     58  C   UNL A   1      43.009  28.244  34.227  1.00  0.00     0.074 A 
ATOM     59  C   UNL A   1      41.760  34.160  32.260  1.00  0.00     0.029 A 
ATOM     60  N   UNL A   1      42.393  32.031  32.388  1.00  0.00    -0.354 N 
ATOM     61  N   UNL A   1      42.753  29.428  33.724  1.00  0.00    -0.248 NA
ATOM     62  C   UNL A   1      42.732  28.137  35.667  1.00  0.00     0.031 C 
ATOM     63  C   UNL A   1      41.535  33.707  33.563  1.00  0.00     0.029 A 
ATOM     64  C   UNL A   1      41.912  32.375  33.639  1.00  0.00     0.049 A 
ATOM     65  H   UNL A   1      42.737  31.144  32.140  1.00  0.00     0.167 HD
ATOM     66  C   UNL A   1      42.251  30.193  34.773  1.00  0.00     0.074 A 
ATOM     67  C   UNL A   1      42.229  29.334  35.938  1.00  0.00     0.031 C 
ATOM     68  C   UNL A   1      41.851  31.489  34.774  1.00  0.00     0.034 A 
BRANCH  55  69
ATOM     69  C   UNL A   1      42.717  34.412  29.397  1.00  0.00     0.023 A 
ATOM     70  C   UNL A   1      41.502  34.843  28.828  1.00  0.00     0.012 A 
ATOM     71  C   UNL A   1      43.871  35.206  29.249  1.00  0.00     0.148 A 
ATOM     72  C   UNL A   1      41.444  36.026  28.093  1.00  0.00     0.002 A 
ATOM     73  C   UNL A   1      43.795  36.407  28.557  1.00  0.00     0.091 A 
ATOM     74  F   UNL A   1      45.024  34.763  29.770  1.00  0.00    -0.205 F 
ATOM     75  C   UNL A   1      42.587  36.813  27.967  1.00  0.00     0.022 A 
BRANCH  73  76
ATOM     76  S   UNL A   1      45.191  37.526  28.410  1.00  0.00     0.127 S 
ATOM     77  O   UNL A   1      44.584  38.665  27.722  1.00  0.00    -0.237 OA
ATOM     78  O   UNL A   1      45.536  37.773  29.810  1.00  0.00    -0.237 OA
ATOM     79  O   UNL A   1      46.205  36.806  27.653  1.00  0.00    -0.744 OA
ENDBRANCH  73  76
ENDBRANCH  55  69
BRANCH  56  80
ATOM     80  C   UNL A   1      43.758  25.744  34.286  1.00  0.00     0.023 A 
ATOM     81  C   UNL A   1      42.711  24.818  34.460  1.00  0.00     0.012 A 
ATOM     82  C   UNL A   1      45.034  25.441  34.801  1.00  0.00     0.148 A 
ATOM     83  C   UNL A   1      42.922  23.630  35.161  1.00  0.00     0.002 A 
ATOM     84  C   UNL A   1      45.253  24.227  35.440  1.00  0.00     0.091 A 
ATOM     85  F   UNL A   1      46.015  26.339  34.635  1.00  0.00    -0.205 F 
ATOM     86  C   UNL A   1      44.193  23.331  35.643  1.00  0.00     0.022 A 
BRANCH  84  87
ATOM     87  S   UNL A   1      46.888  23.677  35.937  1.00  0.00     0.127 S 
ATOM     88  O   UNL A   1      47.374  24.824  36.699  1.00  0.00    -0.237 OA
ATOM     89  O   UNL A   1      46.566  22.493  36.737  1.00  0.00    -0.237 OA
ATOM     90  O   UNL A   1      47.603  23.389  34.702  1.00  0.00    -0.744 OA
ENDBRANCH  84  87
ENDBRANCH  56  80
BRANCH  68  91
ATOM     91  C   UNL A   1      41.308  32.060  36.058  1.00  0.00     0.023 A 
ATOM     92  C   UNL A   1      42.127  32.863  36.875  1.00  0.00     0.012 A 
ATOM     93  C   UNL A   1      39.950  31.890  36.393  1.00  0.00     0.148 A 
ATOM     94  C   UNL A   1      41.608  33.466  38.020  1.00  0.00     0.002 A 
ATOM     95  C   UNL A   1      39.427  32.536  37.506  1.00  0.00     0.091 A 
ATOM     96  F   UNL A   1      39.191  31.111  35.608  1.00  0.00    -0.205 F 
ATOM     97  C   UNL A   1      40.257  33.316  38.328  1.00  0.00     0.022 A 
BRANCH  95  98
ATOM     98  S   UNL A   1      37.680  32.484  37.921  1.00  0.00     0.127 S 
ATOM     99  O   UNL A   1      37.638  33.299  39.135  1.00  0.00    -0.237 OA
ATOM    100  O   UNL A   1      37.066  33.105  36.748  1.00  0.00    -0.237 OA
ATOM    101  O   UNL A   1      37.350  31.078  38.105  1.00  0.00    -0.744 OA
ENDBRANCH  95  98
ENDBRANCH  68  91
ENDBRANCH  42  43
ENDBRANCH  35  37
ENDBRANCH  34  35
ENDBRANCH  33  34
ENDBRANCH  32  33
ENDBRANCH  31  32
ENDBRANCH  30  31
ENDBRANCH  29  30
ENDBRANCH  28  29
ENDBRANCH   1  28
TORSDOF 28
ENDMDL
MODEL 2
REMARK VINA RESULT:      -8.1      1.258      7.352
REMARK SMILES O=C(CS(=O)(=O)NCc1ccc(N2CCOCC2)nc1)OCCOCCOCCOCCOC(=O)c1ccc(-c2c3nc(c(-c4cccc(S(=O)(=O)[O-])c4F)c4ccc([nH]4)c(-c4cccc(S(=O)(=O)[O-])c4F)c4nc(c(-c5cccc(S(=O)(=O)[O-])c5F)c5ccc2[nH]5)C=C4)C=C3)cc1
REMARK SMILES IDX 26 1 25 2 24 3 23 4 22 5 21 6 2 7 1 8 3 9 4 10 5 11 6 12
REMARK SMILES IDX 7 13 8 15 9 16 10 17 20 18 11 19 19 20 12 21 13 22 14 23
REMARK SMILES IDX 18 24 15 25 17 26 16 27 27 28 28 29 29 30 30 31 31 32 32 33
REMARK SMILES IDX 33 34 34 35 35 36 36 37 37 38 98 39 38 40 97 41 39 42 40 43
REMARK SMILES IDX 41 44 91 45 42 46 96 47 90 48 92 49 43 50 95 51 89 52 88 53
REMARK SMILES IDX 44 55 76 56 56 57 75 58 57 59 60 60 74 61 93 62 58 63 59 64
REMARK SMILES IDX 73 66 94 67 61 68 45 69 46 70 54 71 47 72 49 73 55 74 48 75
REMARK SMILES IDX 50 76 51 77 52 78 53 79 77 80 78 81 86 82 79 83 81 84 87 85
REMARK SMILES IDX 80 86 82 87 83 88 84 89 85 90 62 91 63 92 71 93 64 94 66 95
REMARK SMILES IDX 72 96 65 97 67 98 68 99 69 100 70 101
REMARK H PARENT 7 14 92 54 60 65
REMARK Flexibility Score: inf
ROOT
ATOM      1  C   UNL A   1      40.990  19.962  26.493  1.00  0.00     0.188 C 
ENDROOT
BRANCH   1   2
ATOM      2  C   UNL A   1      40.449  21.393  26.342  1.00  0.00     0.188 C 
BRANCH   2   3
ATOM      3  O   UNL A   1      39.060  21.486  26.066  1.00  0.00    -0.376 OA
BRANCH   3   4
ATOM      4  C   UNL A   1      38.432  22.631  25.520  1.00  0.00     0.202 C 
BRANCH   4   5
ATOM      5  C   UNL A   1      37.094  23.094  26.073  1.00  0.00     0.261 C 
BRANCH   5   6
ATOM      6  O   UNL A   1      35.982  23.145  25.149  1.00  0.00    -0.462 OA
BRANCH   6   7
ATOM      7  C   UNL A   1      34.836  22.459  25.071  1.00  0.00     0.322 C 
ATOM      8  O   UNL A   1      34.492  21.789  26.048  1.00  0.00    -0.251 OA
BRANCH   7   9
ATOM      9  C   UNL A   1      34.034  22.402  23.837  1.00  0.00     0.276 C 
BRANCH   9  10
ATOM     10  S   UNL A   1      33.337  23.945  23.374  1.00  0.00     0.222 S 
ATOM     11  O   UNL A   1      34.218  24.620  22.454  1.00  0.00    -0.212 OA
ATOM     12  O   UNL A   1      31.976  23.668  22.959  1.00  0.00    -0.212 OA
BRANCH  10  13
ATOM     13  N   UNL A   1      33.173  24.847  24.755  1.00  0.00    -0.210 NA
ATOM     14  H   UNL A   1      33.737  24.369  25.458  1.00  0.00     0.141 HD
BRANCH  13  15
ATOM     15  C   UNL A   1      33.511  26.272  24.890  1.00  0.00     0.135 C 
BRANCH  15  16
ATOM     16  C   UNL A   1      32.534  27.277  24.365  1.00  0.00    -0.015 A 
ATOM     17  C   UNL A   1      32.013  27.177  23.074  1.00  0.00     0.010 A 
ATOM     18  C   UNL A   1      32.141  28.380  25.109  1.00  0.00     0.118 A 
ATOM     19  C   UNL A   1      31.103  28.129  22.621  1.00  0.00     0.047 A 
ATOM     20  N   UNL A   1      31.267  29.322  24.685  1.00  0.00    -0.239 NA
ATOM     21  C   UNL A   1      30.750  29.187  23.448  1.00  0.00     0.128 A 
BRANCH  21  22
ATOM     22  N   UNL A   1      29.886  30.140  22.994  1.00  0.00    -0.352 N 
ATOM     23  C   UNL A   1      29.227  31.076  23.890  1.00  0.00     0.146 C 
ATOM     24  C   UNL A   1      29.575  30.224  21.574  1.00  0.00     0.146 C 
ATOM     25  C   UNL A   1      27.720  31.099  23.580  1.00  0.00     0.181 C 
ATOM     26  C   UNL A   1      28.051  30.265  21.392  1.00  0.00     0.181 C 
ATOM     27  O   UNL A   1      27.466  31.324  22.181  1.00  0.00    -0.378 OA
ENDBRANCH  21  22
ENDBRANCH  15  16
ENDBRANCH  13  15
ENDBRANCH  10  13
ENDBRANCH   9  10
ENDBRANCH   7   9
ENDBRANCH   6   7
ENDBRANCH   5   6
ENDBRANCH   4   5
ENDBRANCH   3   4
ENDBRANCH   2   3
ENDBRANCH   1   2
BRANCH   1  28
ATOM     28  O   UNL A   1      41.838  19.547  25.428  1.00  0.00    -0.377 OA
BRANCH  28  29
ATOM     29  C   UNL A   1      43.218  19.507  25.754  1.00  0.00     0.188 C 
BRANCH  29  30
ATOM     30  C   UNL A   1      44.172  20.183  24.741  1.00  0.00     0.188 C 
BRANCH  30  31
ATOM     31  O   UNL A   1      44.676  21.499  24.931  1.00  0.00    -0.376 OA
BRANCH  31  32
ATOM     32  C   UNL A   1      45.474  21.811  26.059  1.00  0.00     0.202 C 
BRANCH  32  33
ATOM     33  C   UNL A   1      46.047  23.224  26.226  1.00  0.00     0.261 C 
BRANCH  33  34
ATOM     34  O   UNL A   1      45.790  24.122  25.143  1.00  0.00    -0.460 OA
BRANCH  34  35
ATOM     35  C   UNL A   1      46.621  25.196  25.076  1.00  0.00     0.338 C 
ATOM     36  O   UNL A   1      47.516  25.387  24.286  1.00  0.00    -0.246 OA
BRANCH  35  37
ATOM     37  C   UNL A   1      46.129  26.223  26.021  1.00  0.00     0.060 A 
ATOM     38  C   UNL A   1      47.068  26.889  26.823  1.00  0.00     0.016 A 
ATOM     39  C   UNL A   1      44.771  26.530  26.111  1.00  0.00     0.016 A 
ATOM     40  C   UNL A   1      46.649  27.847  27.742  1.00  0.00     0.010 A 
ATOM     41  C   UNL A   1      44.347  27.459  27.061  1.00  0.00     0.010 A 
ATOM     42  C   UNL A   1      45.282  28.087  27.903  1.00  0.00    -0.014 A 
BRANCH  42  43
ATOM     43  C   UNL A   1      44.810  28.772  29.125  1.00  0.00     0.031 A 
ATOM     44  C   UNL A   1      44.684  27.944  30.373  1.00  0.00     0.074 A 
ATOM     45  C   UNL A   1      44.479  30.072  29.121  1.00  0.00     0.049 A 
ATOM     46  N   UNL A   1      44.204  28.274  31.541  1.00  0.00    -0.248 NA
ATOM     47  C   UNL A   1      45.155  26.550  30.285  1.00  0.00     0.031 C 
ATOM     48  C   UNL A   1      44.583  30.971  27.973  1.00  0.00     0.029 A 
ATOM     49  N   UNL A   1      43.948  30.852  30.118  1.00  0.00    -0.354 N 
ATOM     50  C   UNL A   1      44.277  27.122  32.312  1.00  0.00     0.074 A 
ATOM     51  C   UNL A   1      44.846  26.083  31.483  1.00  0.00     0.031 C 
ATOM     52  C   UNL A   1      44.081  32.170  28.316  1.00  0.00     0.029 A 
ATOM     53  C   UNL A   1      43.591  32.109  29.694  1.00  0.00     0.049 A 
ATOM     54  H   UNL A   1      43.834  30.540  31.044  1.00  0.00     0.167 HD
ATOM     55  C   UNL A   1      43.906  26.943  33.600  1.00  0.00     0.034 A 
ATOM     56  C   UNL A   1      42.906  33.077  30.334  1.00  0.00     0.034 A 
ATOM     57  C   UNL A   1      43.346  27.981  34.418  1.00  0.00     0.049 A 
ATOM     58  C   UNL A   1      42.470  32.847  31.759  1.00  0.00     0.074 A 
ATOM     59  C   UNL A   1      42.985  27.924  35.751  1.00  0.00     0.029 A 
ATOM     60  N   UNL A   1      43.045  29.258  33.971  1.00  0.00    -0.354 N 
ATOM     61  N   UNL A   1      42.648  31.792  32.518  1.00  0.00    -0.248 NA
ATOM     62  C   UNL A   1      41.765  33.950  32.428  1.00  0.00     0.031 C 
ATOM     63  C   UNL A   1      42.428  29.158  36.101  1.00  0.00     0.029 A 
ATOM     64  C   UNL A   1      42.481  29.995  34.997  1.00  0.00     0.049 A 
ATOM     65  H   UNL A   1      43.208  29.591  33.060  1.00  0.00     0.167 HD
ATOM     66  C   UNL A   1      42.113  32.117  33.761  1.00  0.00     0.074 A 
ATOM     67  C   UNL A   1      41.614  33.472  33.656  1.00  0.00     0.031 C 
ATOM     68  C   UNL A   1      42.036  31.362  34.886  1.00  0.00     0.034 A 
BRANCH  55  69
ATOM     69  C   UNL A   1      44.088  25.573  34.193  1.00  0.00     0.023 A 
ATOM     70  C   UNL A   1      43.112  24.578  33.985  1.00  0.00     0.012 A 
ATOM     71  C   UNL A   1      45.241  25.265  34.941  1.00  0.00     0.148 A 
ATOM     72  C   UNL A   1      43.262  23.309  34.542  1.00  0.00     0.002 A 
ATOM     73  C   UNL A   1      45.408  23.985  35.451  1.00  0.00     0.091 A 
ATOM     74  F   UNL A   1      46.143  26.234  35.154  1.00  0.00    -0.205 F 
ATOM     75  C   UNL A   1      44.415  23.009  35.265  1.00  0.00     0.022 A 
BRANCH  73  76
ATOM     76  S   UNL A   1      46.893  23.480  36.326  1.00  0.00     0.127 S 
ATOM     77  O   UNL A   1      46.696  22.035  36.432  1.00  0.00    -0.237 OA
ATOM     78  O   UNL A   1      47.949  23.886  35.398  1.00  0.00    -0.237 OA
ATOM     79  O   UNL A   1      46.881  24.207  37.588  1.00  0.00    -0.744 OA
ENDBRANCH  73  76
ENDBRANCH  55  69
BRANCH  56  80
ATOM     80  C   UNL A   1      42.595  34.351  29.629  1.00  0.00     0.023 A 
ATOM     81  C   UNL A   1      41.300  34.573  29.123  1.00  0.00     0.012 A 
ATOM     82  C   UNL A   1      43.568  35.360  29.489  1.00  0.00     0.148 A 
ATOM     83  C   UNL A   1      40.989  35.761  28.462  1.00  0.00     0.002 A 
ATOM     84  C   UNL A   1      43.234  36.567  28.889  1.00  0.00     0.091 A 
ATOM     85  F   UNL A   1      44.799  35.127  29.968  1.00  0.00    -0.205 F 
ATOM     86  C   UNL A   1      41.951  36.761  28.353  1.00  0.00     0.022 A 
BRANCH  84  87
ATOM     87  S   UNL A   1      44.347  37.975  28.859  1.00  0.00     0.127 S 
ATOM     88  O   UNL A   1      45.615  37.349  28.493  1.00  0.00    -0.237 OA
ATOM     89  O   UNL A   1      43.741  38.805  27.815  1.00  0.00    -0.237 OA
ATOM     90  O   UNL A   1      44.291  38.555  30.193  1.00  0.00    -0.744 OA
ENDBRANCH  84  87
ENDBRANCH  56  80
BRANCH  68  91
ATOM     91  C   UNL A   1      41.432  31.986  36.117  1.00  0.00     0.023 A 
ATOM     92  C   UNL A   1      42.216  32.805  36.950  1.00  0.00     0.012 A 
ATOM     93  C   UNL A   1      40.054  31.847  36.380  1.00  0.00     0.148 A 
ATOM     94  C   UNL A   1      41.645  33.456  38.042  1.00  0.00     0.002 A 
ATOM     95  C   UNL A   1      39.481  32.540  37.438  1.00  0.00     0.091 A 
ATOM     96  F   UNL A   1      39.328  31.051  35.580  1.00  0.00    -0.205 F 
ATOM     97  C   UNL A   1      40.276  33.336  38.278  1.00  0.00     0.022 A 
BRANCH  95  98
ATOM     98  S   UNL A   1      37.712  32.527  37.755  1.00  0.00     0.127 S 
ATOM     99  O   UNL A   1      37.178  33.002  36.479  1.00  0.00    -0.237 OA
ATOM    100  O   UNL A   1      37.459  31.113  38.034  1.00  0.00    -0.237 OA
ATOM    101  O   UNL A   1      37.499  33.416  38.889  1.00  0.00    -0.744 OA
ENDBRANCH  95  98
ENDBRANCH  68  91
ENDBRANCH  42  43
ENDBRANCH  35  37
ENDBRANCH  34  35
ENDBRANCH  33  34
ENDBRANCH  32  33
ENDBRANCH  31  32
ENDBRANCH  30  31
ENDBRANCH  29  30
ENDBRANCH  28  29
ENDBRANCH   1  28
TORSDOF 28
ENDMDL
MODEL 3
REMARK VINA RESULT:      -7.8      2.232      7.673
REMARK SMILES O=C(CS(=O)(=O)NCc1ccc(N2CCOCC2)nc1)OCCOCCOCCOCCOC(=O)c1ccc(-c2c3nc(c(-c4cccc(S(=O)(=O)[O-])c4F)c4ccc([nH]4)c(-c4cccc(S(=O)(=O)[O-])c4F)c4nc(c(-c5cccc(S(=O)(=O)[O-])c5F)c5ccc2[nH]5)C=C4)C=C3)cc1
REMARK SMILES IDX 26 1 25 2 24 3 23 4 22 5 21 6 2 7 1 8 3 9 4 10 5 11 6 12
REMARK SMILES IDX 7 13 8 15 9 16 10 17 20 18 11 19 19 20 12 21 13 22 14 23
REMARK SMILES IDX 18 24 15 25 17 26 16 27 27 28 28 29 29 30 30 31 31 32 32 33
REMARK SMILES IDX 33 34 34 35 35 36 36 37 37 38 98 39 38 40 97 41 39 42 40 43
REMARK SMILES IDX 41 44 91 45 42 46 96 47 90 48 92 49 43 50 95 51 89 52 88 53
REMARK SMILES IDX 44 55 76 56 56 57 75 58 57 59 60 60 74 61 93 62 58 63 59 64
REMARK SMILES IDX 73 66 94 67 61 68 45 69 46 70 54 71 47 72 49 73 55 74 48 75
REMARK SMILES IDX 50 76 51 77 52 78 53 79 77 80 78 81 86 82 79 83 81 84 87 85
REMARK SMILES IDX 80 86 82 87 83 88 84 89 85 90 62 91 63 92 71 93 64 94 66 95
REMARK SMILES IDX 72 96 65 97 67 98 68 99 69 100 70 101
REMARK H PARENT 7 14 92 54 60 65
REMARK Flexibility Score: inf
ROOT
ATOM      1  C   UNL A   1      41.075  20.063  26.555  1.00  0.00     0.188 C 
ENDROOT
BRANCH   1   2
ATOM      2  C   UNL A   1      40.483  21.480  26.570  1.00  0.00     0.188 C 
BRANCH   2   3
ATOM      3  O   UNL A   1      39.120  21.568  26.183  1.00  0.00    -0.376 OA
BRANCH   3   4
ATOM      4  C   UNL A   1      38.503  22.749  25.705  1.00  0.00     0.202 C 
BRANCH   4   5
ATOM      5  C   UNL A   1      37.088  23.092  26.143  1.00  0.00     0.261 C 
BRANCH   5   6
ATOM      6  O   UNL A   1      36.088  23.210  25.105  1.00  0.00    -0.462 OA
BRANCH   6   7
ATOM      7  C   UNL A   1      35.004  22.485  24.804  1.00  0.00     0.322 C 
ATOM      8  O   UNL A   1      34.601  21.669  25.635  1.00  0.00    -0.251 OA
BRANCH   7   9
ATOM      9  C   UNL A   1      34.345  22.562  23.488  1.00  0.00     0.276 C 
BRANCH   9  10
ATOM     10  S   UNL A   1      33.525  24.086  23.196  1.00  0.00     0.222 S 
ATOM     11  O   UNL A   1      34.375  24.955  22.422  1.00  0.00    -0.212 OA
ATOM     12  O   UNL A   1      32.215  23.749  22.676  1.00  0.00    -0.212 OA
BRANCH  10  13
ATOM     13  N   UNL A   1      33.219  24.774  24.673  1.00  0.00    -0.210 NA
ATOM     14  H   UNL A   1      33.850  24.306  25.324  1.00  0.00     0.141 HD
BRANCH  13  15
ATOM     15  C   UNL A   1      33.328  26.206  24.989  1.00  0.00     0.135 C 
BRANCH  15  16
ATOM     16  C   UNL A   1      32.213  27.105  24.559  1.00  0.00    -0.015 A 
ATOM     17  C   UNL A   1      31.084  26.604  23.909  1.00  0.00     0.010 A 
ATOM     18  C   UNL A   1      32.266  28.481  24.735  1.00  0.00     0.118 A 
ATOM     19  C   UNL A   1      30.064  27.471  23.527  1.00  0.00     0.047 A 
ATOM     20  N   UNL A   1      31.292  29.343  24.363  1.00  0.00    -0.239 NA
ATOM     21  C   UNL A   1      30.196  28.833  23.768  1.00  0.00     0.128 A 
BRANCH  21  22
ATOM     22  N   UNL A   1      29.215  29.689  23.364  1.00  0.00    -0.352 N 
ATOM     23  C   UNL A   1      28.100  29.254  22.539  1.00  0.00     0.146 C 
ATOM     24  C   UNL A   1      29.280  31.097  23.733  1.00  0.00     0.146 C 
ATOM     25  C   UNL A   1      27.940  30.221  21.352  1.00  0.00     0.181 C 
ATOM     26  C   UNL A   1      29.083  31.958  22.477  1.00  0.00     0.181 C 
ATOM     27  O   UNL A   1      27.870  31.592  21.786  1.00  0.00    -0.378 OA
ENDBRANCH  21  22
ENDBRANCH  15  16
ENDBRANCH  13  15
ENDBRANCH  10  13
ENDBRANCH   9  10
ENDBRANCH   7   9
ENDBRANCH   6   7
ENDBRANCH   5   6
ENDBRANCH   4   5
ENDBRANCH   3   4
ENDBRANCH   2   3
ENDBRANCH   1   2
BRANCH   1  28
ATOM     28  O   UNL A   1      41.932  19.803  25.449  1.00  0.00    -0.377 OA
BRANCH  28  29
ATOM     29  C   UNL A   1      43.317  19.907  25.739  1.00  0.00     0.188 C 
BRANCH  29  30
ATOM     30  C   UNL A   1      44.175  20.642  24.682  1.00  0.00     0.188 C 
BRANCH  30  31
ATOM     31  O   UNL A   1      44.630  21.977  24.865  1.00  0.00    -0.376 OA
BRANCH  31  32
ATOM     32  C   UNL A   1      45.490  22.305  25.943  1.00  0.00     0.202 C 
BRANCH  32  33
ATOM     33  C   UNL A   1      46.106  23.706  26.033  1.00  0.00     0.261 C 
BRANCH  33  34
ATOM     34  O   UNL A   1      45.830  24.571  24.928  1.00  0.00    -0.460 OA
BRANCH  34  35
ATOM     35  C   UNL A   1      46.769  25.525  24.694  1.00  0.00     0.338 C 
ATOM     36  O   UNL A   1      47.635  25.517  23.850  1.00  0.00    -0.246 OA
BRANCH  35  37
ATOM     37  C   UNL A   1      46.447  26.706  25.526  1.00  0.00     0.060 A 
ATOM     38  C   UNL A   1      47.509  27.426  26.094  1.00  0.00     0.016 A 
ATOM     39  C   UNL A   1      45.125  27.102  25.735  1.00  0.00     0.016 A 
ATOM     40  C   UNL A   1      47.253  28.531  26.901  1.00  0.00     0.010 A 
ATOM     41  C   UNL A   1      44.867  28.183  26.578  1.00  0.00     0.010 A 
ATOM     42  C   UNL A   1      45.929  28.872  27.192  1.00  0.00    -0.014 A 
BRANCH  42  43
ATOM     43  C   UNL A   1      45.649  29.754  28.344  1.00  0.00     0.031 A 
ATOM     44  C   UNL A   1      45.686  29.133  29.712  1.00  0.00     0.074 A 
ATOM     45  C   UNL A   1      45.345  31.051  28.181  1.00  0.00     0.049 A 
ATOM     46  N   UNL A   1      45.385  29.657  30.869  1.00  0.00    -0.248 NA
ATOM     47  C   UNL A   1      46.114  27.724  29.780  1.00  0.00     0.031 C 
ATOM     48  C   UNL A   1      45.302  31.758  26.904  1.00  0.00     0.029 A 
ATOM     49  N   UNL A   1      44.977  31.995  29.107  1.00  0.00    -0.354 N 
ATOM     50  C   UNL A   1      45.545  28.634  31.794  1.00  0.00     0.074 A 
ATOM     51  C   UNL A   1      45.970  27.459  31.068  1.00  0.00     0.031 C 
ATOM     52  C   UNL A   1      44.876  33.016  27.120  1.00  0.00     0.029 A 
ATOM     53  C   UNL A   1      44.587  33.186  28.544  1.00  0.00     0.049 A 
ATOM     54  H   UNL A   1      44.990  31.834  30.077  1.00  0.00     0.167 HD
ATOM     55  C   UNL A   1      45.357  28.670  33.133  1.00  0.00     0.034 A 
ATOM     56  C   UNL A   1      44.019  34.267  29.112  1.00  0.00     0.034 A 
ATOM     57  C   UNL A   1      44.940  29.843  33.847  1.00  0.00     0.049 A 
ATOM     58  C   UNL A   1      43.786  34.276  30.602  1.00  0.00     0.074 A 
ATOM     59  C   UNL A   1      44.772  30.006  35.209  1.00  0.00     0.029 A 
ATOM     60  N   UNL A   1      44.602  31.048  33.250  1.00  0.00    -0.354 N 
ATOM     61  N   UNL A   1      44.050  33.344  31.486  1.00  0.00    -0.248 NA
ATOM     62  C   UNL A   1      43.204  35.497  31.180  1.00  0.00     0.031 C 
ATOM     63  C   UNL A   1      44.293  31.300  35.434  1.00  0.00     0.029 A 
ATOM     64  C   UNL A   1      44.205  31.956  34.215  1.00  0.00     0.049 A 
ATOM     65  H   UNL A   1      44.640  31.231  32.284  1.00  0.00     0.167 HD
ATOM     66  C   UNL A   1      43.704  33.877  32.724  1.00  0.00     0.074 A 
ATOM     67  C   UNL A   1      43.220  35.219  32.477  1.00  0.00     0.031 C 
ATOM     68  C   UNL A   1      43.774  33.306  33.953  1.00  0.00     0.034 A 
BRANCH  55  69
ATOM     69  C   UNL A   1      45.597  27.400  33.903  1.00  0.00     0.023 A 
ATOM     70  C   UNL A   1      46.815  27.210  34.587  1.00  0.00     0.012 A 
ATOM     71  C   UNL A   1      44.604  26.404  33.965  1.00  0.00     0.148 A 
ATOM     72  C   UNL A   1      47.054  26.031  35.293  1.00  0.00     0.002 A 
ATOM     73  C   UNL A   1      44.831  25.254  34.710  1.00  0.00     0.091 A 
ATOM     74  F   UNL A   1      43.466  26.590  33.282  1.00  0.00    -0.205 F 
ATOM     75  C   UNL A   1      46.059  25.059  35.363  1.00  0.00     0.022 A 
BRANCH  73  76
ATOM     76  S   UNL A   1      43.582  23.982  34.926  1.00  0.00     0.127 S 
ATOM     77  O   UNL A   1      42.474  24.751  35.491  1.00  0.00    -0.237 OA
ATOM     78  O   UNL A   1      43.368  23.524  33.553  1.00  0.00    -0.237 OA
ATOM     79  O   UNL A   1      44.170  22.989  35.813  1.00  0.00    -0.744 OA
ENDBRANCH  73  76
ENDBRANCH  55  69
BRANCH  56  80
ATOM     80  C   UNL A   1      43.634  35.431  28.265  1.00  0.00     0.023 A 
ATOM     81  C   UNL A   1      42.311  35.549  27.798  1.00  0.00     0.012 A 
ATOM     82  C   UNL A   1      44.566  36.440  27.951  1.00  0.00     0.148 A 
ATOM     83  C   UNL A   1      41.932  36.633  27.005  1.00  0.00     0.002 A 
ATOM     84  C   UNL A   1      44.164  37.549  27.217  1.00  0.00     0.091 A 
ATOM     85  F   UNL A   1      45.823  36.304  28.396  1.00  0.00    -0.205 F 
ATOM     86  C   UNL A   1      42.854  37.636  26.723  1.00  0.00     0.022 A 
BRANCH  84  87
ATOM     87  S   UNL A   1      45.228  38.971  26.953  1.00  0.00     0.127 S 
ATOM     88  O   UNL A   1      46.364  38.374  26.257  1.00  0.00    -0.237 OA
ATOM     89  O   UNL A   1      44.373  39.826  26.127  1.00  0.00    -0.237 OA
ATOM     90  O   UNL A   1      45.510  39.508  28.278  1.00  0.00    -0.744 OA
ENDBRANCH  84  87
ENDBRANCH  56  80
BRANCH  68  91
ATOM     91  C   UNL A   1      43.363  34.135  35.142  1.00  0.00     0.023 A 
ATOM     92  C   UNL A   1      44.340  34.777  35.926  1.00  0.00     0.012 A 
ATOM     93  C   UNL A   1      41.999  34.366  35.409  1.00  0.00     0.148 A 
ATOM     94  C   UNL A   1      43.966  35.616  36.975  1.00  0.00     0.002 A 
ATOM     95  C   UNL A   1      41.633  35.244  36.422  1.00  0.00     0.091 A 
ATOM     96  F   UNL A   1      41.085  33.734  34.657  1.00  0.00    -0.205 F 
ATOM     97  C   UNL A   1      42.615  35.861  37.214  1.00  0.00     0.022 A 
BRANCH  95  98
ATOM     98  S   UNL A   1      39.923  35.699  36.734  1.00  0.00     0.127 S 
ATOM     99  O   UNL A   1      39.500  36.184  35.421  1.00  0.00    -0.237 OA
ATOM    100  O   UNL A   1      39.332  34.421  37.132  1.00  0.00    -0.237 OA
ATOM    101  O   UNL A   1      39.959  36.705  37.787  1.00  0.00    -0.744 OA
ENDBRANCH  95  98
ENDBRANCH  68  91
ENDBRANCH  42  43
ENDBRANCH  35  37
ENDBRANCH  34  35
ENDBRANCH  33  34
ENDBRANCH  32  33
ENDBRANCH  31  32
ENDBRANCH  30  31
ENDBRANCH  29  30
ENDBRANCH  28  29
ENDBRANCH   1  28
TORSDOF 28
ENDMDL
