MODEL 1
REMARK VINA RESULT:      -9.1      0.000      0.000
REMARK SMILES CCSc1ccc(-c2cc(Cl)cc3c2O[C@@H](C(F)(F)F)C(C(=O)OCCOCCOCCOCCOC(=O)c2ccc(-c4c5nc(c(-c6cccc(S(=O)(=O)[O-])c6F)c6ccc([nH]6)c(-c6cccc(S(=O)(=O)[O-])c6F)c6nc(c(-c7cccc(S(=O)(=O)[O-])c7F)c7ccc4[nH]7)C=C6)C=C5)cc2)=C3)cc1
REMARK SMILES IDX 30 1 29 2 28 3 27 4 26 5 25 6 24 7 22 8 23 9 21 10 8 11 9 12
REMARK SMILES IDX 14 13 10 14 13 15 15 16 11 17 12 18 102 19 16 20 7 21 4 22
REMARK SMILES IDX 5 23 104 24 6 25 103 26 3 27 2 28 1 29 17 30 18 31 19 32
REMARK SMILES IDX 20 33 31 34 32 35 33 36 34 37 35 38 36 39 37 40 38 41 39 42
REMARK SMILES IDX 40 43 101 44 41 45 100 46 42 47 43 48 44 49 94 50 45 51
REMARK SMILES IDX 99 52 93 53 95 54 46 55 98 56 92 57 91 58 47 60 79 61 59 62
REMARK SMILES IDX 78 63 60 64 63 65 77 66 96 67 61 68 62 69 76 71 97 72 64 73
REMARK SMILES IDX 48 74 49 75 57 76 50 77 52 78 58 79 51 80 53 81 54 82 55 83
REMARK SMILES IDX 56 84 80 85 81 86 89 87 82 88 84 89 90 90 83 91 85 92 86 93
REMARK SMILES IDX 87 94 88 95 65 96 66 97 74 98 67 99 69 100 75 101 68 102
REMARK SMILES IDX 70 103 71 104 72 105 73 106
REMARK H PARENT 95 59 63 70
REMARK Flexibility Score: inf
ROOT
ATOM      1  O   UNL A   1      48.537  29.135  26.062  1.00  0.00    -0.377 OA
ENDROOT
BRANCH   1   2
ATOM      2  C   UNL A   1      48.073  27.814  25.877  1.00  0.00     0.188 C 
BRANCH   2   3
ATOM      3  C   UNL A   1      47.323  27.634  24.550  1.00  0.00     0.188 C 
BRANCH   3   4
ATOM      4  O   UNL A   1      46.347  26.598  24.564  1.00  0.00    -0.376 OA
BRANCH   4   5
ATOM      5  C   UNL A   1      46.091  25.930  25.800  1.00  0.00     0.202 C 
BRANCH   5   6
ATOM      6  C   UNL A   1      44.657  25.472  26.104  1.00  0.00     0.261 C 
BRANCH   6   7
ATOM      7  O   UNL A   1      44.598  24.036  26.253  1.00  0.00    -0.460 OA
BRANCH   7   8
ATOM      8  C   UNL A   1      44.497  23.583  27.512  1.00  0.00     0.338 C 
ATOM      9  O   UNL A   1      45.084  24.059  28.476  1.00  0.00    -0.246 OA
BRANCH   8  10
ATOM     10  C   UNL A   1      43.440  22.551  27.665  1.00  0.00     0.087 C 
ATOM     11  C   UNL A   1      39.725  23.695  26.227  1.00  0.00     0.026 A 
ATOM     12  C   UNL A   1      39.672  25.107  26.313  1.00  0.00     0.033 A 
ATOM     13  C   UNL A   1      40.876  23.093  26.771  1.00  0.00     0.135 A 
ATOM     14  C   UNL A   1      40.507  25.805  27.185  1.00  0.00     0.042 A 
ATOM     15  C   UNL A   1      41.548  23.749  27.814  1.00  0.00     0.019 A 
ATOM     16  O   UNL A   1      41.492  22.023  26.130  1.00  0.00    -0.475 OA
ATOM     17  Cl  UNL A   1      40.383  27.514  27.297  1.00  0.00    -0.084 Cl
ATOM     18  C   UNL A   1      41.374  25.114  28.018  1.00  0.00     0.032 A 
ATOM     19  C   UNL A   1      42.551  22.979  28.580  1.00  0.00     0.027 C 
ATOM     20  C   UNL A   1      42.853  21.622  26.615  1.00  0.00     0.316 C 
BRANCH  11  21
ATOM     21  C   UNL A   1      38.370  23.042  26.218  1.00  0.00    -0.015 A 
ATOM     22  C   UNL A   1      35.793  22.323  25.209  1.00  0.00     0.007 A 
ATOM     23  C   UNL A   1      36.891  21.474  25.047  1.00  0.00     0.015 A 
ATOM     24  C   UNL A   1      35.958  23.483  25.967  1.00  0.00     0.015 A 
ATOM     25  C   UNL A   1      38.153  21.814  25.563  1.00  0.00     0.010 A 
ATOM     26  C   UNL A   1      37.225  23.828  26.475  1.00  0.00     0.010 A 
BRANCH  22  27
ATOM     27  S   UNL A   1      34.306  21.963  24.283  1.00  0.00    -0.126 SA
BRANCH  27  28
ATOM     28  C   UNL A   1      33.509  20.661  25.279  1.00  0.00     0.071 C 
ATOM     29  C   UNL A   1      32.657  19.747  24.420  1.00  0.00     0.016 C 
ENDBRANCH  27  28
ENDBRANCH  22  27
ENDBRANCH  11  21
BRANCH  20  30
ATOM     30  C   UNL A   1      43.797  21.029  25.537  1.00  0.00     0.430 C 
ATOM     31  F   UNL A   1      43.415  19.752  25.262  1.00  0.00    -0.167 F 
ATOM     32  F   UNL A   1      43.695  21.716  24.372  1.00  0.00    -0.167 F 
ATOM     33  F   UNL A   1      45.096  20.979  25.851  1.00  0.00    -0.167 F 
ENDBRANCH  20  30
ENDBRANCH   8  10
ENDBRANCH   7   8
ENDBRANCH   6   7
ENDBRANCH   5   6
ENDBRANCH   4   5
ENDBRANCH   3   4
ENDBRANCH   2   3
ENDBRANCH   1   2
BRANCH   1  34
ATOM     34  C   UNL A   1      47.924  29.910  27.086  1.00  0.00     0.188 C 
BRANCH  34  35
ATOM     35  C   UNL A   1      47.356  31.318  26.792  1.00  0.00     0.188 C 
BRANCH  35  36
ATOM     36  O   UNL A   1      48.344  32.322  26.557  1.00  0.00    -0.376 OA
BRANCH  36  37
ATOM     37  C   UNL A   1      47.997  33.660  26.886  1.00  0.00     0.202 C 
BRANCH  37  38
ATOM     38  C   UNL A   1      47.532  34.504  25.693  1.00  0.00     0.261 C 
BRANCH  38  39
ATOM     39  O   UNL A   1      46.358  35.292  25.930  1.00  0.00    -0.460 OA
BRANCH  39  40
ATOM     40  C   UNL A   1      45.167  34.733  25.622  1.00  0.00     0.338 C 
ATOM     41  O   UNL A   1      44.837  34.246  24.553  1.00  0.00    -0.246 OA
BRANCH  40  42
ATOM     42  C   UNL A   1      44.386  34.624  26.868  1.00  0.00     0.060 A 
ATOM     43  C   UNL A   1      43.815  35.782  27.410  1.00  0.00     0.016 A 
ATOM     44  C   UNL A   1      44.195  33.382  27.482  1.00  0.00     0.016 A 
ATOM     45  C   UNL A   1      43.087  35.708  28.597  1.00  0.00     0.010 A 
ATOM     46  C   UNL A   1      43.483  33.312  28.678  1.00  0.00     0.010 A 
ATOM     47  C   UNL A   1      42.960  34.480  29.259  1.00  0.00    -0.014 A 
BRANCH  47  48
ATOM     48  C   UNL A   1      42.477  34.444  30.658  1.00  0.00     0.031 A 
ATOM     49  C   UNL A   1      40.998  34.297  30.888  1.00  0.00     0.074 A 
ATOM     50  C   UNL A   1      43.321  34.560  31.698  1.00  0.00     0.049 A 
ATOM     51  N   UNL A   1      40.331  34.280  32.011  1.00  0.00    -0.248 NA
ATOM     52  C   UNL A   1      40.158  34.160  29.685  1.00  0.00     0.031 C 
ATOM     53  C   UNL A   1      44.770  34.715  31.600  1.00  0.00     0.029 A 
ATOM     54  N   UNL A   1      43.065  34.599  33.046  1.00  0.00    -0.354 N 
ATOM     55  C   UNL A   1      38.995  34.149  31.652  1.00  0.00     0.074 A 
ATOM     56  C   UNL A   1      38.942  34.109  30.208  1.00  0.00     0.031 C 
ATOM     57  C   UNL A   1      45.274  34.869  32.837  1.00  0.00     0.029 A 
ATOM     58  C   UNL A   1      44.182  34.841  33.810  1.00  0.00     0.049 A 
ATOM     59  H   UNL A   1      42.169  34.466  33.430  1.00  0.00     0.167 HD
ATOM     60  C   UNL A   1      37.908  34.052  32.452  1.00  0.00     0.034 A 
ATOM     61  C   UNL A   1      44.301  35.041  35.138  1.00  0.00     0.034 A 
ATOM     62  C   UNL A   1      37.961  34.088  33.887  1.00  0.00     0.049 A 
ATOM     63  C   UNL A   1      43.072  34.953  36.008  1.00  0.00     0.074 A 
ATOM     64  C   UNL A   1      36.921  33.962  34.789  1.00  0.00     0.029 A 
ATOM     65  N   UNL A   1      39.117  34.280  34.628  1.00  0.00    -0.354 N 
ATOM     66  N   UNL A   1      41.831  34.700  35.666  1.00  0.00    -0.248 NA
ATOM     67  C   UNL A   1      43.264  35.147  37.454  1.00  0.00     0.031 C 
ATOM     68  C   UNL A   1      37.445  34.100  36.079  1.00  0.00     0.029 A 
ATOM     69  C   UNL A   1      38.815  34.285  35.979  1.00  0.00     0.049 A 
ATOM     70  H   UNL A   1      40.018  34.395  34.250  1.00  0.00     0.167 HD
ATOM     71  C   UNL A   1      41.103  34.667  36.852  1.00  0.00     0.074 A 
ATOM     72  C   UNL A   1      42.046  34.908  37.924  1.00  0.00     0.031 C 
ATOM     73  C   UNL A   1      39.774  34.469  37.038  1.00  0.00     0.034 A 
BRANCH  60  74
ATOM     74  C   UNL A   1      36.572  33.871  31.784  1.00  0.00     0.023 A 
ATOM     75  C   UNL A   1      36.314  32.690  31.057  1.00  0.00     0.012 A 
ATOM     76  C   UNL A   1      35.564  34.846  31.903  1.00  0.00     0.148 A 
ATOM     77  C   UNL A   1      35.084  32.498  30.431  1.00  0.00     0.002 A 
ATOM     78  C   UNL A   1      34.325  34.627  31.312  1.00  0.00     0.091 A 
ATOM     79  F   UNL A   1      35.839  35.972  32.575  1.00  0.00    -0.205 F 
ATOM     80  C   UNL A   1      34.088  33.460  30.567  1.00  0.00     0.022 A 
BRANCH  78  81
ATOM     81  S   UNL A   1      32.954  35.773  31.491  1.00  0.00     0.127 S 
ATOM     82  O   UNL A   1      32.058  35.024  32.373  1.00  0.00    -0.237 OA
ATOM     83  O   UNL A   1      33.596  36.929  32.115  1.00  0.00    -0.237 OA
ATOM     84  O   UNL A   1      32.451  36.010  30.145  1.00  0.00    -0.744 OA
ENDBRANCH  78  81
ENDBRANCH  60  74
BRANCH  61  85
ATOM     85  C   UNL A   1      45.639  35.310  35.735  1.00  0.00     0.023 A 
ATOM     86  C   UNL A   1      46.015  36.634  36.035  1.00  0.00     0.012 A 
ATOM     87  C   UNL A   1      46.537  34.261  36.016  1.00  0.00     0.148 A 
ATOM     88  C   UNL A   1      47.272  36.910  36.576  1.00  0.00     0.002 A 
ATOM     89  C   UNL A   1      47.765  34.539  36.604  1.00  0.00     0.091 A 
ATOM     90  F   UNL A   1      46.168  33.010  35.705  1.00  0.00    -0.205 F 
ATOM     91  C   UNL A   1      48.142  35.864  36.869  1.00  0.00     0.022 A 
BRANCH  89  92
ATOM     92  S   UNL A   1      48.900  33.247  37.125  1.00  0.00     0.127 S 
ATOM     93  O   UNL A   1      49.084  32.494  35.888  1.00  0.00    -0.237 OA
ATOM     94  O   UNL A   1      50.065  34.024  37.553  1.00  0.00    -0.237 OA
ATOM     95  O   UNL A   1      48.222  32.539  38.202  1.00  0.00    -0.744 OA
ENDBRANCH  89  92
ENDBRANCH  61  85
BRANCH  73  96
ATOM     96  C   UNL A   1      39.253  34.465  38.452  1.00  0.00     0.023 A 
ATOM     97  C   UNL A   1      39.108  35.680  39.150  1.00  0.00     0.012 A 
ATOM     98  C   UNL A   1      38.823  33.266  39.054  1.00  0.00     0.148 A 
ATOM     99  C   UNL A   1      38.571  35.698  40.436  1.00  0.00     0.002 A 
ATOM    100  C   UNL A   1      38.245  33.298  40.318  1.00  0.00     0.091 A 
ATOM    101  F   UNL A   1      38.983  32.117  38.381  1.00  0.00    -0.205 F 
ATOM    102  C   UNL A   1      38.129  34.510  41.015  1.00  0.00     0.022 A 
BRANCH 100 103
ATOM    103  S   UNL A   1      37.557  31.833  41.099  1.00  0.00     0.127 S 
ATOM    104  O   UNL A   1      38.526  31.581  42.164  1.00  0.00    -0.237 OA
ATOM    105  O   UNL A   1      36.253  32.310  41.561  1.00  0.00    -0.237 OA
ATOM    106  O   UNL A   1      37.493  30.817  40.057  1.00  0.00    -0.744 OA
ENDBRANCH 100 103
ENDBRANCH  73  96
ENDBRANCH  47  48
ENDBRANCH  40  42
ENDBRANCH  39  40
ENDBRANCH  38  39
ENDBRANCH  37  38
ENDBRANCH  36  37
ENDBRANCH  35  36
ENDBRANCH  34  35
ENDBRANCH   1  34
TORSDOF 27
ENDMDL
MODEL 2
REMARK VINA RESULT:      -8.2     11.622     16.498
REMARK SMILES CCSc1ccc(-c2cc(Cl)cc3c2O[C@@H](C(F)(F)F)C(C(=O)OCCOCCOCCOCCOC(=O)c2ccc(-c4c5nc(c(-c6cccc(S(=O)(=O)[O-])c6F)c6ccc([nH]6)c(-c6cccc(S(=O)(=O)[O-])c6F)c6nc(c(-c7cccc(S(=O)(=O)[O-])c7F)c7ccc4[nH]7)C=C6)C=C5)cc2)=C3)cc1
REMARK SMILES IDX 30 1 29 2 28 3 27 4 26 5 25 6 24 7 22 8 23 9 21 10 8 11 9 12
REMARK SMILES IDX 14 13 10 14 13 15 15 16 11 17 12 18 102 19 16 20 7 21 4 22
REMARK SMILES IDX 5 23 104 24 6 25 103 26 3 27 2 28 1 29 17 30 18 31 19 32
REMARK SMILES IDX 20 33 31 34 32 35 33 36 34 37 35 38 36 39 37 40 38 41 39 42
REMARK SMILES IDX 40 43 101 44 41 45 100 46 42 47 43 48 44 49 94 50 45 51
REMARK SMILES IDX 99 52 93 53 95 54 46 55 98 56 92 57 91 58 47 60 79 61 59 62
REMARK SMILES IDX 78 63 60 64 63 65 77 66 96 67 61 68 62 69 76 71 97 72 64 73
REMARK SMILES IDX 48 74 49 75 57 76 50 77 52 78 58 79 51 80 53 81 54 82 55 83
REMARK SMILES IDX 56 84 80 85 81 86 89 87 82 88 84 89 90 90 83 91 85 92 86 93
REMARK SMILES IDX 87 94 88 95 65 96 66 97 74 98 67 99 69 100 75 101 68 102
REMARK SMILES IDX 70 103 71 104 72 105 73 106
REMARK H PARENT 95 59 63 70
REMARK Flexibility Score: inf
ROOT
ATOM      1  O   UNL A   1      48.106  20.336  45.478  1.00  0.00    -0.377 OA
ENDROOT
BRANCH   1   2
ATOM      2  C   UNL A   1      47.592  19.389  46.390  1.00  0.00     0.188 C 
BRANCH   2   3
ATOM      3  C   UNL A   1      47.663  17.954  45.850  1.00  0.00     0.188 C 
BRANCH   3   4
ATOM      4  O   UNL A   1      46.592  17.115  46.271  1.00  0.00    -0.376 OA
BRANCH   4   5
ATOM      5  C   UNL A   1      46.069  16.172  45.334  1.00  0.00     0.202 C 
BRANCH   5   6
ATOM      6  C   UNL A   1      45.486  16.695  44.013  1.00  0.00     0.261 C 
BRANCH   6   7
ATOM      7  O   UNL A   1      45.813  15.807  42.921  1.00  0.00    -0.460 OA
BRANCH   7   8
ATOM      8  C   UNL A   1      46.371  16.385  41.846  1.00  0.00     0.338 C 
ATOM      9  O   UNL A   1      47.365  15.967  41.264  1.00  0.00    -0.246 OA
BRANCH   8  10
ATOM     10  C   UNL A   1      45.545  17.491  41.299  1.00  0.00     0.087 C 
ATOM     11  C   UNL A   1      47.340  19.590  38.209  1.00  0.00     0.026 A 
ATOM     12  C   UNL A   1      48.738  19.472  38.395  1.00  0.00     0.033 A 
ATOM     13  C   UNL A   1      46.539  19.030  39.224  1.00  0.00     0.135 A 
ATOM     14  C   UNL A   1      49.272  19.161  39.645  1.00  0.00     0.042 A 
ATOM     15  C   UNL A   1      47.061  18.953  40.524  1.00  0.00     0.019 A 
ATOM     16  O   UNL A   1      45.379  18.329  38.912  1.00  0.00    -0.475 OA
ATOM     17  Cl  UNL A   1      50.976  19.071  39.844  1.00  0.00    -0.084 Cl
ATOM     18  C   UNL A   1      48.435  19.006  40.739  1.00  0.00     0.032 A 
ATOM     19  C   UNL A   1      46.121  18.662  41.628  1.00  0.00     0.027 C 
ATOM     20  C   UNL A   1      44.740  17.535  40.010  1.00  0.00     0.316 C 
BRANCH  11  21
ATOM     21  C   UNL A   1      46.940  20.797  37.404  1.00  0.00    -0.015 A 
ATOM     22  C   UNL A   1      45.180  22.700  36.197  1.00  0.00     0.007 A 
ATOM     23  C   UNL A   1      45.765  22.950  37.441  1.00  0.00     0.015 A 
ATOM     24  C   UNL A   1      45.556  21.546  35.508  1.00  0.00     0.015 A 
ATOM     25  C   UNL A   1      46.649  22.027  38.026  1.00  0.00     0.010 A 
ATOM     26  C   UNL A   1      46.434  20.617  36.099  1.00  0.00     0.010 A 
BRANCH  22  27
ATOM     27  S   UNL A   1      43.855  23.773  35.658  1.00  0.00    -0.126 SA
BRANCH  27  28
ATOM     28  C   UNL A   1      43.370  23.052  34.056  1.00  0.00     0.071 C 
ATOM     29  C   UNL A   1      44.236  23.573  32.927  1.00  0.00     0.016 C 
ENDBRANCH  27  28
ENDBRANCH  22  27
ENDBRANCH  11  21
BRANCH  20  30
ATOM     30  C   UNL A   1      43.991  16.255  39.558  1.00  0.00     0.430 C 
ATOM     31  F   UNL A   1      43.336  16.507  38.393  1.00  0.00    -0.167 F 
ATOM     32  F   UNL A   1      44.863  15.250  39.295  1.00  0.00    -0.167 F 
ATOM     33  F   UNL A   1      43.079  15.771  40.409  1.00  0.00    -0.167 F 
ENDBRANCH  20  30
ENDBRANCH   8  10
ENDBRANCH   7   8
ENDBRANCH   6   7
ENDBRANCH   5   6
ENDBRANCH   4   5
ENDBRANCH   3   4
ENDBRANCH   2   3
ENDBRANCH   1   2
BRANCH   1  34
ATOM     34  C   UNL A   1      49.408  20.854  45.732  1.00  0.00     0.188 C 
BRANCH  34  35
ATOM     35  C   UNL A   1      50.335  20.205  46.786  1.00  0.00     0.188 C 
BRANCH  35  36
ATOM     36  O   UNL A   1      51.664  19.947  46.332  1.00  0.00    -0.376 OA
BRANCH  36  37
ATOM     37  C   UNL A   1      52.691  19.931  47.313  1.00  0.00     0.202 C 
BRANCH  37  38
ATOM     38  C   UNL A   1      53.801  20.965  47.083  1.00  0.00     0.261 C 
BRANCH  38  39
ATOM     39  O   UNL A   1      53.418  22.100  46.296  1.00  0.00    -0.460 OA
BRANCH  39  40
ATOM     40  C   UNL A   1      54.235  22.451  45.279  1.00  0.00     0.338 C 
ATOM     41  O   UNL A   1      55.445  22.304  45.223  1.00  0.00    -0.246 OA
BRANCH  40  42
ATOM     42  C   UNL A   1      53.389  22.863  44.143  1.00  0.00     0.060 A 
ATOM     43  C   UNL A   1      53.837  23.894  43.308  1.00  0.00     0.016 A 
ATOM     44  C   UNL A   1      52.176  22.218  43.888  1.00  0.00     0.016 A 
ATOM     45  C   UNL A   1      53.048  24.315  42.239  1.00  0.00     0.010 A 
ATOM     46  C   UNL A   1      51.379  22.651  42.830  1.00  0.00     0.010 A 
ATOM     47  C   UNL A   1      51.795  23.726  42.025  1.00  0.00    -0.014 A 
BRANCH  47  48
ATOM     48  C   UNL A   1      50.824  24.369  41.111  1.00  0.00     0.031 A 
ATOM     49  C   UNL A   1      50.733  23.849  39.703  1.00  0.00     0.074 A 
ATOM     50  C   UNL A   1      50.060  25.401  41.508  1.00  0.00     0.049 A 
ATOM     51  N   UNL A   1      49.995  24.267  38.710  1.00  0.00    -0.248 NA
ATOM     52  C   UNL A   1      51.599  22.704  39.370  1.00  0.00     0.031 C 
ATOM     53  C   UNL A   1      50.066  25.997  42.841  1.00  0.00     0.029 A 
ATOM     54  N   UNL A   1      49.150  26.152  40.804  1.00  0.00    -0.354 N 
ATOM     55  C   UNL A   1      50.319  23.454  37.632  1.00  0.00     0.074 A 
ATOM     56  C   UNL A   1      51.333  22.527  38.085  1.00  0.00     0.031 C 
ATOM     57  C   UNL A   1      49.225  27.047  42.851  1.00  0.00     0.029 A 
ATOM     58  C   UNL A   1      48.638  27.207  41.521  1.00  0.00     0.049 A 
ATOM     59  H   UNL A   1      48.889  25.953  39.876  1.00  0.00     0.167 HD
ATOM     60  C   UNL A   1      49.808  23.462  36.380  1.00  0.00     0.034 A 
ATOM     61  C   UNL A   1      47.810  28.198  41.136  1.00  0.00     0.034 A 
ATOM     62  C   UNL A   1      48.798  24.379  35.931  1.00  0.00     0.049 A 
ATOM     63  C   UNL A   1      47.271  28.202  39.727  1.00  0.00     0.074 A 
ATOM     64  C   UNL A   1      48.187  24.447  34.692  1.00  0.00     0.029 A 
ATOM     65  N   UNL A   1      48.262  25.400  36.700  1.00  0.00    -0.354 N 
ATOM     66  N   UNL A   1      47.488  27.349  38.756  1.00  0.00    -0.248 NA
ATOM     67  C   UNL A   1      46.346  29.289  39.371  1.00  0.00     0.031 C 
ATOM     68  C   UNL A   1      47.296  25.526  34.705  1.00  0.00     0.029 A 
ATOM     69  C   UNL A   1      47.334  26.111  35.961  1.00  0.00     0.049 A 
ATOM     70  H   UNL A   1      48.506  25.591  37.635  1.00  0.00     0.167 HD
ATOM     71  C   UNL A   1      46.701  27.773  37.688  1.00  0.00     0.074 A 
ATOM     72  C   UNL A   1      45.987  28.949  38.140  1.00  0.00     0.031 C 
ATOM     73  C   UNL A   1      46.589  27.246  36.443  1.00  0.00     0.034 A 
BRANCH  60  74
ATOM     74  C   UNL A   1      50.319  22.424  35.417  1.00  0.00     0.023 A 
ATOM     75  C   UNL A   1      49.507  21.318  35.094  1.00  0.00     0.012 A 
ATOM     76  C   UNL A   1      51.581  22.560  34.807  1.00  0.00     0.148 A 
ATOM     77  C   UNL A   1      49.958  20.344  34.204  1.00  0.00     0.002 A 
ATOM     78  C   UNL A   1      52.004  21.608  33.888  1.00  0.00     0.091 A 
ATOM     79  F   UNL A   1      52.347  23.605  35.149  1.00  0.00    -0.205 F 
ATOM     80  C   UNL A   1      51.199  20.495  33.594  1.00  0.00     0.022 A 
BRANCH  78  81
ATOM     81  S   UNL A   1      53.555  21.751  32.994  1.00  0.00     0.127 S 
ATOM     82  O   UNL A   1      53.444  20.652  32.035  1.00  0.00    -0.237 OA
ATOM     83  O   UNL A   1      53.450  23.085  32.406  1.00  0.00    -0.237 OA
ATOM     84  O   UNL A   1      54.607  21.608  33.991  1.00  0.00    -0.744 OA
ENDBRANCH  78  81
ENDBRANCH  60  74
BRANCH  61  85
ATOM     85  C   UNL A   1      47.409  29.255  42.108  1.00  0.00     0.023 A 
ATOM     86  C   UNL A   1      48.146  30.453  42.178  1.00  0.00     0.012 A 
ATOM     87  C   UNL A   1      46.296  29.083  42.955  1.00  0.00     0.148 A 
ATOM     88  C   UNL A   1      47.801  31.447  43.095  1.00  0.00     0.002 A 
ATOM     89  C   UNL A   1      45.926  30.099  43.828  1.00  0.00     0.091 A 
ATOM     90  F   UNL A   1      45.620  27.928  42.887  1.00  0.00    -0.205 F 
ATOM     91  C   UNL A   1      46.687  31.275  43.912  1.00  0.00     0.022 A 
BRANCH  89  92
ATOM     92  S   UNL A   1      44.439  30.014  44.832  1.00  0.00     0.127 S 
ATOM     93  O   UNL A   1      43.409  29.786  43.822  1.00  0.00    -0.237 OA
ATOM     94  O   UNL A   1      44.724  28.865  45.694  1.00  0.00    -0.237 OA
ATOM     95  O   UNL A   1      44.365  31.288  45.534  1.00  0.00    -0.744 OA
ENDBRANCH  89  92
ENDBRANCH  61  85
BRANCH  73  96
ATOM     96  C   UNL A   1      45.633  27.905  35.482  1.00  0.00     0.023 A 
ATOM     97  C   UNL A   1      46.134  28.673  34.412  1.00  0.00     0.012 A 
ATOM     98  C   UNL A   1      44.245  27.689  35.587  1.00  0.00     0.148 A 
ATOM     99  C   UNL A   1      45.266  29.241  33.480  1.00  0.00     0.002 A 
ATOM    100  C   UNL A   1      43.390  28.218  34.627  1.00  0.00     0.091 A 
ATOM    101  F   UNL A   1      43.786  26.969  36.621  1.00  0.00    -0.205 F 
ATOM    102  C   UNL A   1      43.897  29.003  33.580  1.00  0.00     0.022 A 
BRANCH 100 103
ATOM    103  S   UNL A   1      41.625  27.881  34.621  1.00  0.00     0.127 S 
ATOM    104  O   UNL A   1      41.238  28.343  33.289  1.00  0.00    -0.237 OA
ATOM    105  O   UNL A   1      41.585  26.429  34.797  1.00  0.00    -0.237 OA
ATOM    106  O   UNL A   1      41.068  28.639  35.733  1.00  0.00    -0.744 OA
ENDBRANCH 100 103
ENDBRANCH  73  96
ENDBRANCH  47  48
ENDBRANCH  40  42
ENDBRANCH  39  40
ENDBRANCH  38  39
ENDBRANCH  37  38
ENDBRANCH  36  37
ENDBRANCH  35  36
ENDBRANCH  34  35
ENDBRANCH   1  34
TORSDOF 27
ENDMDL
MODEL 3
REMARK VINA RESULT:      -8.1      3.962      6.044
REMARK SMILES CCSc1ccc(-c2cc(Cl)cc3c2O[C@@H](C(F)(F)F)C(C(=O)OCCOCCOCCOCCOC(=O)c2ccc(-c4c5nc(c(-c6cccc(S(=O)(=O)[O-])c6F)c6ccc([nH]6)c(-c6cccc(S(=O)(=O)[O-])c6F)c6nc(c(-c7cccc(S(=O)(=O)[O-])c7F)c7ccc4[nH]7)C=C6)C=C5)cc2)=C3)cc1
REMARK SMILES IDX 30 1 29 2 28 3 27 4 26 5 25 6 24 7 22 8 23 9 21 10 8 11 9 12
REMARK SMILES IDX 14 13 10 14 13 15 15 16 11 17 12 18 102 19 16 20 7 21 4 22
REMARK SMILES IDX 5 23 104 24 6 25 103 26 3 27 2 28 1 29 17 30 18 31 19 32
REMARK SMILES IDX 20 33 31 34 32 35 33 36 34 37 35 38 36 39 37 40 38 41 39 42
REMARK SMILES IDX 40 43 101 44 41 45 100 46 42 47 43 48 44 49 94 50 45 51
REMARK SMILES IDX 99 52 93 53 95 54 46 55 98 56 92 57 91 58 47 60 79 61 59 62
REMARK SMILES IDX 78 63 60 64 63 65 77 66 96 67 61 68 62 69 76 71 97 72 64 73
REMARK SMILES IDX 48 74 49 75 57 76 50 77 52 78 58 79 51 80 53 81 54 82 55 83
REMARK SMILES IDX 56 84 80 85 81 86 89 87 82 88 84 89 90 90 83 91 85 92 86 93
REMARK SMILES IDX 87 94 88 95 65 96 66 97 74 98 67 99 69 100 75 101 68 102
REMARK SMILES IDX 70 103 71 104 72 105 73 106
REMARK H PARENT 95 59 63 70
REMARK Flexibility Score: inf
ROOT
ATOM      1  O   UNL A   1      48.682  28.836  26.057  1.00  0.00    -0.377 OA
ENDROOT
BRANCH   1   2
ATOM      2  C   UNL A   1      47.997  27.617  25.866  1.00  0.00     0.188 C 
BRANCH   2   3
ATOM      3  C   UNL A   1      47.515  27.434  24.421  1.00  0.00     0.188 C 
BRANCH   3   4
ATOM      4  O   UNL A   1      46.135  27.103  24.299  1.00  0.00    -0.376 OA
BRANCH   4   5
ATOM      5  C   UNL A   1      45.214  27.719  25.200  1.00  0.00     0.202 C 
BRANCH   5   6
ATOM      6  C   UNL A   1      43.770  27.197  25.244  1.00  0.00     0.261 C 
BRANCH   6   7
ATOM      7  O   UNL A   1      43.351  26.962  26.607  1.00  0.00    -0.460 OA
BRANCH   7   8
ATOM      8  C   UNL A   1      42.669  27.959  27.190  1.00  0.00     0.338 C 
ATOM      9  O   UNL A   1      42.379  29.019  26.648  1.00  0.00    -0.246 OA
BRANCH   8  10
ATOM     10  C   UNL A   1      42.120  27.577  28.516  1.00  0.00     0.087 C 
ATOM     11  C   UNL A   1      42.773  30.378  31.501  1.00  0.00     0.026 A 
ATOM     12  C   UNL A   1      43.945  31.087  31.144  1.00  0.00     0.033 A 
ATOM     13  C   UNL A   1      42.434  29.298  30.662  1.00  0.00     0.135 A 
ATOM     14  C   UNL A   1      44.877  30.538  30.263  1.00  0.00     0.042 A 
ATOM     15  C   UNL A   1      43.461  28.637  29.971  1.00  0.00     0.019 A 
ATOM     16  O   UNL A   1      41.110  29.056  30.311  1.00  0.00    -0.475 OA
ATOM     17  Cl  UNL A   1      46.310  31.408  29.888  1.00  0.00    -0.084 Cl
ATOM     18  C   UNL A   1      44.686  29.261  29.758  1.00  0.00     0.032 A 
ATOM     19  C   UNL A   1      43.146  27.331  29.352  1.00  0.00     0.027 C 
ATOM     20  C   UNL A   1      40.860  28.073  29.207  1.00  0.00     0.316 C 
BRANCH  11  21
ATOM     21  C   UNL A   1      42.475  30.412  32.975  1.00  0.00    -0.015 A 
ATOM     22  C   UNL A   1      43.028  30.529  35.778  1.00  0.00     0.007 A 
ATOM     23  C   UNL A   1      42.723  31.686  35.057  1.00  0.00     0.015 A 
ATOM     24  C   UNL A   1      42.955  29.300  35.121  1.00  0.00     0.015 A 
ATOM     25  C   UNL A   1      42.428  31.628  33.683  1.00  0.00     0.010 A 
ATOM     26  C   UNL A   1      42.668  29.244  33.744  1.00  0.00     0.010 A 
BRANCH  22  27
ATOM     27  S   UNL A   1      43.672  30.715  37.435  1.00  0.00    -0.126 SA
BRANCH  27  28
ATOM     28  C   UNL A   1      43.090  32.374  37.916  1.00  0.00     0.071 C 
ATOM     29  C   UNL A   1      42.706  32.425  39.382  1.00  0.00     0.016 C 
ENDBRANCH  27  28
ENDBRANCH  22  27
ENDBRANCH  11  21
BRANCH  20  30
ATOM     30  C   UNL A   1      39.599  28.343  28.347  1.00  0.00     0.430 C 
ATOM     31  F   UNL A   1      38.488  28.138  29.107  1.00  0.00    -0.167 F 
ATOM     32  F   UNL A   1      39.553  29.637  27.947  1.00  0.00    -0.167 F 
ATOM     33  F   UNL A   1      39.456  27.587  27.253  1.00  0.00    -0.167 F 
ENDBRANCH  20  30
ENDBRANCH   8  10
ENDBRANCH   7   8
ENDBRANCH   6   7
ENDBRANCH   5   6
ENDBRANCH   4   5
ENDBRANCH   3   4
ENDBRANCH   2   3
ENDBRANCH   1   2
BRANCH   1  34
ATOM     34  C   UNL A   1      48.147  29.749  27.010  1.00  0.00     0.188 C 
BRANCH  34  35
ATOM     35  C   UNL A   1      47.812  31.207  26.618  1.00  0.00     0.188 C 
BRANCH  35  36
ATOM     36  O   UNL A   1      48.905  32.120  26.727  1.00  0.00    -0.376 OA
BRANCH  36  37
ATOM     37  C   UNL A   1      48.588  33.480  26.985  1.00  0.00     0.202 C 
BRANCH  37  38
ATOM     38  C   UNL A   1      48.175  34.281  25.744  1.00  0.00     0.261 C 
BRANCH  38  39
ATOM     39  O   UNL A   1      47.074  35.178  25.941  1.00  0.00    -0.460 OA
BRANCH  39  40
ATOM     40  C   UNL A   1      45.843  34.727  25.615  1.00  0.00     0.338 C 
ATOM     41  O   UNL A   1      45.498  34.235  24.553  1.00  0.00    -0.246 OA
BRANCH  40  42
ATOM     42  C   UNL A   1      45.020  34.739  26.839  1.00  0.00     0.060 A 
ATOM     43  C   UNL A   1      44.708  35.971  27.428  1.00  0.00     0.016 A 
ATOM     44  C   UNL A   1      44.538  33.547  27.384  1.00  0.00     0.016 A 
ATOM     45  C   UNL A   1      43.947  36.009  28.596  1.00  0.00     0.010 A 
ATOM     46  C   UNL A   1      43.793  33.585  28.562  1.00  0.00     0.010 A 
ATOM     47  C   UNL A   1      43.528  34.813  29.192  1.00  0.00    -0.014 A 
BRANCH  47  48
ATOM     48  C   UNL A   1      43.008  34.823  30.578  1.00  0.00     0.031 A 
ATOM     49  C   UNL A   1      41.548  34.524  30.784  1.00  0.00     0.074 A 
ATOM     50  C   UNL A   1      43.799  35.111  31.625  1.00  0.00     0.049 A 
ATOM     51  N   UNL A   1      40.851  34.512  31.888  1.00  0.00    -0.248 NA
ATOM     52  C   UNL A   1      40.768  34.204  29.575  1.00  0.00     0.031 C 
ATOM     53  C   UNL A   1      45.224  35.423  31.550  1.00  0.00     0.029 A 
ATOM     54  N   UNL A   1      43.498  35.217  32.961  1.00  0.00    -0.354 N 
ATOM     55  C   UNL A   1      39.551  34.203  31.509  1.00  0.00     0.074 A 
ATOM     56  C   UNL A   1      39.550  34.052  30.071  1.00  0.00     0.031 C 
ATOM     57  C   UNL A   1      45.667  35.723  32.784  1.00  0.00     0.029 A 
ATOM     58  C   UNL A   1      44.555  35.641  33.730  1.00  0.00     0.049 A 
ATOM     59  H   UNL A   1      42.610  35.010  33.332  1.00  0.00     0.167 HD
ATOM     60  C   UNL A   1      38.457  34.040  32.288  1.00  0.00     0.034 A 
ATOM     61  C   UNL A   1      44.608  35.948  35.041  1.00  0.00     0.034 A 
ATOM     62  C   UNL A   1      38.459  34.185  33.717  1.00  0.00     0.049 A 
ATOM     63  C   UNL A   1      43.369  35.783  35.886  1.00  0.00     0.074 A 
ATOM     64  C   UNL A   1      37.412  34.006  34.601  1.00  0.00     0.029 A 
ATOM     65  N   UNL A   1      39.562  34.562  34.469  1.00  0.00    -0.354 N 
ATOM     66  N   UNL A   1      42.177  35.365  35.535  1.00  0.00    -0.248 NA
ATOM     67  C   UNL A   1      43.492  36.102  37.318  1.00  0.00     0.031 C 
ATOM     68  C   UNL A   1      37.875  34.297  35.889  1.00  0.00     0.029 A 
ATOM     69  C   UNL A   1      39.219  34.630  35.807  1.00  0.00     0.049 A 
ATOM     70  H   UNL A   1      40.456  34.753  34.105  1.00  0.00     0.167 HD
ATOM     71  C   UNL A   1      41.420  35.335  36.703  1.00  0.00     0.074 A 
ATOM     72  C   UNL A   1      42.295  35.759  37.776  1.00  0.00     0.031 C 
ATOM     73  C   UNL A   1      40.116  35.000  36.872  1.00  0.00     0.034 A 
BRANCH  60  74
ATOM     74  C   UNL A   1      37.172  33.658  31.604  1.00  0.00     0.023 A 
ATOM     75  C   UNL A   1      36.035  34.479  31.756  1.00  0.00     0.012 A 
ATOM     76  C   UNL A   1      37.097  32.514  30.788  1.00  0.00     0.148 A 
ATOM     77  C   UNL A   1      34.834  34.147  31.132  1.00  0.00     0.002 A 
ATOM     78  C   UNL A   1      35.909  32.214  30.134  1.00  0.00     0.091 A 
ATOM     79  F   UNL A   1      38.182  31.734  30.679  1.00  0.00    -0.205 F 
ATOM     80  C   UNL A   1      34.773  33.023  30.314  1.00  0.00     0.022 A 
BRANCH  78  81
ATOM     81  S   UNL A   1      35.751  30.829  29.002  1.00  0.00     0.127 S 
ATOM     82  O   UNL A   1      35.984  29.692  29.893  1.00  0.00    -0.237 OA
ATOM     83  O   UNL A   1      34.370  30.965  28.539  1.00  0.00    -0.237 OA
ATOM     84  O   UNL A   1      36.760  31.035  27.973  1.00  0.00    -0.744 OA
ENDBRANCH  78  81
ENDBRANCH  60  74
BRANCH  61  85
ATOM     85  C   UNL A   1      45.887  36.412  35.648  1.00  0.00     0.023 A 
ATOM     86  C   UNL A   1      46.800  35.467  36.156  1.00  0.00     0.012 A 
ATOM     87  C   UNL A   1      46.208  37.783  35.717  1.00  0.00     0.148 A 
ATOM     88  C   UNL A   1      47.995  35.880  36.748  1.00  0.00     0.002 A 
ATOM     89  C   UNL A   1      47.424  38.183  36.259  1.00  0.00     0.091 A 
ATOM     90  F   UNL A   1      45.317  38.666  35.247  1.00  0.00    -0.205 F 
ATOM     91  C   UNL A   1      48.311  37.235  36.791  1.00  0.00     0.022 A 
BRANCH  89  92
ATOM     92  S   UNL A   1      47.966  39.896  36.249  1.00  0.00     0.127 S 
ATOM     93  O   UNL A   1      49.212  39.819  37.007  1.00  0.00    -0.237 OA
ATOM     94  O   UNL A   1      48.131  40.150  34.816  1.00  0.00    -0.237 OA
ATOM     95  O   UNL A   1      46.891  40.653  36.873  1.00  0.00    -0.744 OA
ENDBRANCH  89  92
ENDBRANCH  61  85
BRANCH  73  96
ATOM     96  C   UNL A   1      39.553  35.037  38.270  1.00  0.00     0.023 A 
ATOM     97  C   UNL A   1      39.277  36.276  38.881  1.00  0.00     0.012 A 
ATOM     98  C   UNL A   1      39.216  33.845  38.940  1.00  0.00     0.148 A 
ATOM     99  C   UNL A   1      38.701  36.328  40.149  1.00  0.00     0.002 A 
ATOM    100  C   UNL A   1      38.598  33.905  40.184  1.00  0.00     0.091 A 
ATOM    101  F   UNL A   1      39.501  32.676  38.349  1.00  0.00    -0.205 F 
ATOM    102  C   UNL A   1      38.351  35.144  40.795  1.00  0.00     0.022 A 
BRANCH 100 103
ATOM    103  S   UNL A   1      38.023  32.435  41.043  1.00  0.00     0.127 S 
ATOM    104  O   UNL A   1      39.266  31.685  41.216  1.00  0.00    -0.237 OA
ATOM    105  O   UNL A   1      37.472  32.993  42.279  1.00  0.00    -0.237 OA
ATOM    106  O   UNL A   1      37.035  31.819  40.167  1.00  0.00    -0.744 OA
ENDBRANCH 100 103
ENDBRANCH  73  96
ENDBRANCH  47  48
ENDBRANCH  40  42
ENDBRANCH  39  40
ENDBRANCH  38  39
ENDBRANCH  37  38
ENDBRANCH  36  37
ENDBRANCH  35  36
ENDBRANCH  34  35
ENDBRANCH   1  34
TORSDOF 27
ENDMDL
