MODEL 1
REMARK VINA RESULT:      -7.7      0.000      0.000
REMARK SMILES Cc1ccccc1-n1c(S[C@@H](C)C(=O)OCCOCCOCCOCCOC(=O)c2ccc(-c3c4nc(c(-c5cccc(S(=O)(=O)[O-])c5F)c5ccc([nH]5)c(-c5cccc(S(=O)(=O)[O-])c5F)c5nc(c(-c6cccc(S(=O)(=O)[O-])c6F)c6ccc3[nH]6)C=C5)C=C4)cc2)nc2sc3c(c2c1=O)C[C@@H](C(C)C)OC3
REMARK SMILES IDX 21 1 20 2 19 3 18 4 17 5 16 6 15 7 13 8 14 9 11 10 12 11
REMARK SMILES IDX 10 12 9 13 8 14 99 15 93 16 98 17 100 18 94 19 97 20 95 21
REMARK SMILES IDX 96 22 101 23 107 24 102 25 106 26 7 27 1 28 2 29 3 30 4 31
REMARK SMILES IDX 6 32 5 33 103 34 104 35 105 36 22 37 23 38 24 39 25 40 26 41
REMARK SMILES IDX 27 42 28 43 29 44 30 45 31 46 92 47 32 48 91 49 33 50 34 51
REMARK SMILES IDX 35 52 85 53 36 54 90 55 84 56 86 57 37 58 89 59 83 60 82 61
REMARK SMILES IDX 38 63 70 64 50 65 69 66 51 67 54 68 68 69 87 70 52 71 53 72
REMARK SMILES IDX 67 74 88 75 55 76 39 77 40 78 48 79 41 80 43 81 49 82 42 83
REMARK SMILES IDX 44 84 45 85 46 86 47 87 71 88 72 89 80 90 73 91 75 92 81 93
REMARK SMILES IDX 74 94 76 95 77 96 78 97 79 98 56 99 57 100 65 101 58 102
REMARK SMILES IDX 60 103 66 104 59 105 61 106 62 107 63 108 64 109
REMARK H PARENT 86 62 54 73
REMARK Flexibility Score: inf
ROOT
ATOM      1  O   UNL A   1      40.002  24.158  28.074  1.00  0.00    -0.377 OA
ENDROOT
BRANCH   1   2
ATOM      2  C   UNL A   1      39.531  23.617  26.837  1.00  0.00     0.188 C 
BRANCH   2   3
ATOM      3  C   UNL A   1      40.448  22.579  26.141  1.00  0.00     0.188 C 
BRANCH   3   4
ATOM      4  O   UNL A   1      40.726  21.313  26.733  1.00  0.00    -0.376 OA
BRANCH   4   5
ATOM      5  C   UNL A   1      41.475  21.188  27.916  1.00  0.00     0.202 C 
BRANCH   5   6
ATOM      6  C   UNL A   1      42.850  21.773  27.951  1.00  0.00     0.261 C 
BRANCH   6   7
ATOM      7  O   UNL A   1      43.345  21.580  26.637  1.00  0.00    -0.462 OA
BRANCH   7   8
ATOM      8  C   UNL A   1      44.264  22.498  26.276  1.00  0.00     0.319 C 
ATOM      9  O   UNL A   1      45.358  22.573  26.758  1.00  0.00    -0.251 OA
BRANCH   8  10
ATOM     10  C   UNL A   1      43.810  23.330  25.103  1.00  0.00     0.161 C 
ATOM     11  C   UNL A   1      44.910  23.279  24.074  1.00  0.00     0.032 C 
BRANCH  10  12
ATOM     12  S   UNL A   1      43.353  25.054  25.185  1.00  0.00    -0.072 SA
BRANCH  12  13
ATOM     13  C   UNL A   1      44.691  26.109  25.515  1.00  0.00     0.177 A 
ATOM     14  N   UNL A   1      44.589  27.474  25.894  1.00  0.00    -0.255 N 
ATOM     15  C   UNL A   1      45.756  28.218  25.670  1.00  0.00     0.267 A 
ATOM     16  N   UNL A   1      45.816  25.437  25.455  1.00  0.00    -0.212 NA
ATOM     17  C   UNL A   1      46.949  27.477  25.946  1.00  0.00     0.081 A 
ATOM     18  O   UNL A   1      45.891  29.384  25.323  1.00  0.00    -0.268 OA
ATOM     19  C   UNL A   1      46.917  26.125  25.801  1.00  0.00     0.132 A 
ATOM     20  C   UNL A   1      48.129  27.948  26.545  1.00  0.00    -0.014 A 
ATOM     21  S   UNL A   1      48.415  25.420  26.218  1.00  0.00    -0.117 S 
ATOM     22  C   UNL A   1      49.006  26.918  26.798  1.00  0.00     0.037 A 
ATOM     23  C   UNL A   1      48.361  29.301  27.115  1.00  0.00     0.070 C 
ATOM     24  C   UNL A   1      50.221  27.050  27.651  1.00  0.00     0.207 C 
ATOM     25  C   UNL A   1      49.115  29.114  28.443  1.00  0.00     0.125 C 
ATOM     26  O   UNL A   1      50.351  28.402  28.167  1.00  0.00    -0.372 OA
BRANCH  14  27
ATOM     27  C   UNL A   1      43.363  28.200  26.245  1.00  0.00     0.054 A 
ATOM     28  C   UNL A   1      44.171  29.343  28.423  1.00  0.00     0.046 C 
ATOM     29  C   UNL A   1      43.118  28.840  27.474  1.00  0.00    -0.027 A 
ATOM     30  C   UNL A   1      41.780  29.080  27.866  1.00  0.00     0.005 A 
ATOM     31  C   UNL A   1      40.712  28.810  27.023  1.00  0.00     0.000 A 
ATOM     32  C   UNL A   1      42.279  28.201  25.335  1.00  0.00     0.027 A 
ATOM     33  C   UNL A   1      40.969  28.444  25.726  1.00  0.00     0.002 A 
ENDBRANCH  14  27
BRANCH  25  34
ATOM     34  C   UNL A   1      48.292  28.439  29.583  1.00  0.00     0.012 C 
ATOM     35  C   UNL A   1      49.230  28.000  30.709  1.00  0.00     0.010 C 
ATOM     36  C   UNL A   1      47.185  29.333  30.153  1.00  0.00     0.010 C 
ENDBRANCH  25  34
ENDBRANCH  12  13
ENDBRANCH  10  12
ENDBRANCH   8  10
ENDBRANCH   7   8
ENDBRANCH   6   7
ENDBRANCH   5   6
ENDBRANCH   4   5
ENDBRANCH   3   4
ENDBRANCH   2   3
ENDBRANCH   1   2
BRANCH   1  37
ATOM     37  C   UNL A   1      40.924  25.246  27.943  1.00  0.00     0.188 C 
BRANCH  37  38
ATOM     38  C   UNL A   1      42.331  25.055  28.536  1.00  0.00     0.188 C 
BRANCH  38  39
ATOM     39  O   UNL A   1      42.596  26.025  29.525  1.00  0.00    -0.376 OA
BRANCH  39  40
ATOM     40  C   UNL A   1      43.933  26.212  29.926  1.00  0.00     0.202 C 
BRANCH  40  41
ATOM     41  C   UNL A   1      44.403  25.072  30.831  1.00  0.00     0.261 C 
BRANCH  41  42
ATOM     42  O   UNL A   1      45.406  25.564  31.765  1.00  0.00    -0.460 OA
BRANCH  42  43
ATOM     43  C   UNL A   1      45.238  25.363  33.112  1.00  0.00     0.338 C 
ATOM     44  O   UNL A   1      45.784  24.478  33.754  1.00  0.00    -0.246 OA
BRANCH  43  45
ATOM     45  C   UNL A   1      44.176  26.289  33.693  1.00  0.00     0.060 A 
ATOM     46  C   UNL A   1      42.911  25.862  34.192  1.00  0.00     0.016 A 
ATOM     47  C   UNL A   1      44.301  27.639  33.475  1.00  0.00     0.016 A 
ATOM     48  C   UNL A   1      41.749  26.763  34.347  1.00  0.00     0.010 A 
ATOM     49  C   UNL A   1      43.167  28.470  33.590  1.00  0.00     0.010 A 
ATOM     50  C   UNL A   1      41.823  28.123  34.004  1.00  0.00    -0.014 A 
BRANCH  50  51
ATOM     51  C   UNL A   1      40.738  29.279  33.751  1.00  0.00     0.031 A 
ATOM     52  C   UNL A   1      41.250  30.450  34.529  1.00  0.00     0.074 A 
ATOM     53  C   UNL A   1      39.490  29.742  33.333  1.00  0.00     0.049 A 
ATOM     54  N   UNL A   1      41.928  31.423  34.031  1.00  0.00    -0.248 NA
ATOM     55  C   UNL A   1      41.278  30.367  36.005  1.00  0.00     0.031 C 
ATOM     56  C   UNL A   1      38.172  29.123  33.145  1.00  0.00     0.029 A 
ATOM     57  N   UNL A   1      39.186  31.066  32.874  1.00  0.00    -0.354 N 
ATOM     58  C   UNL A   1      42.286  32.193  35.119  1.00  0.00     0.074 A 
ATOM     59  C   UNL A   1      42.069  31.403  36.306  1.00  0.00     0.031 C 
ATOM     60  C   UNL A   1      37.233  30.062  32.789  1.00  0.00     0.029 A 
ATOM     61  C   UNL A   1      37.851  31.384  32.549  1.00  0.00     0.049 A 
ATOM     62  H   UNL A   1      39.897  31.741  32.788  1.00  0.00     0.167 HD
ATOM     63  C   UNL A   1      42.340  33.537  35.003  1.00  0.00     0.034 A 
ATOM     64  C   UNL A   1      37.290  32.389  31.755  1.00  0.00     0.034 A 
ATOM     65  C   UNL A   1      41.643  33.923  33.820  1.00  0.00     0.049 A 
ATOM     66  C   UNL A   1      38.226  32.905  30.676  1.00  0.00     0.074 A 
ATOM     67  C   UNL A   1      40.282  34.074  33.722  1.00  0.00     0.029 A 
ATOM     68  N   UNL A   1      42.186  33.983  32.561  1.00  0.00    -0.354 N 
ATOM     69  N   UNL A   1      39.489  32.635  30.617  1.00  0.00    -0.248 NA
ATOM     70  C   UNL A   1      37.794  33.804  29.589  1.00  0.00     0.031 C 
ATOM     71  C   UNL A   1      40.111  34.667  32.497  1.00  0.00     0.029 A 
ATOM     72  C   UNL A   1      41.190  34.367  31.696  1.00  0.00     0.049 A 
ATOM     73  H   UNL A   1      43.120  33.785  32.320  1.00  0.00     0.167 HD
ATOM     74  C   UNL A   1      40.088  33.581  29.802  1.00  0.00     0.074 A 
ATOM     75  C   UNL A   1      38.973  34.200  29.082  1.00  0.00     0.031 C 
ATOM     76  C   UNL A   1      41.187  34.280  30.259  1.00  0.00     0.034 A 
BRANCH  63  77
ATOM     77  C   UNL A   1      42.396  34.522  36.126  1.00  0.00     0.023 A 
ATOM     78  C   UNL A   1      41.259  34.609  36.975  1.00  0.00     0.012 A 
ATOM     79  C   UNL A   1      43.437  35.426  36.342  1.00  0.00     0.148 A 
ATOM     80  C   UNL A   1      41.133  35.540  37.987  1.00  0.00     0.002 A 
ATOM     81  C   UNL A   1      43.308  36.375  37.359  1.00  0.00     0.091 A 
ATOM     82  F   UNL A   1      44.513  35.380  35.544  1.00  0.00    -0.205 F 
ATOM     83  C   UNL A   1      42.161  36.435  38.173  1.00  0.00     0.022 A 
BRANCH  81  84
ATOM     84  S   UNL A   1      44.581  37.582  37.709  1.00  0.00     0.127 S 
ATOM     85  O   UNL A   1      45.046  37.936  36.370  1.00  0.00    -0.237 OA
ATOM     86  O   UNL A   1      43.833  38.640  38.392  1.00  0.00    -0.237 OA
ATOM     87  O   UNL A   1      45.551  36.901  38.558  1.00  0.00    -0.744 OA
ENDBRANCH  81  84
ENDBRANCH  63  77
BRANCH  64  88
ATOM     88  C   UNL A   1      36.288  33.471  32.287  1.00  0.00     0.023 A 
ATOM     89  C   UNL A   1      36.321  34.077  33.551  1.00  0.00     0.012 A 
ATOM     90  C   UNL A   1      35.117  33.808  31.545  1.00  0.00     0.148 A 
ATOM     91  C   UNL A   1      35.357  35.062  33.926  1.00  0.00     0.002 A 
ATOM     92  C   UNL A   1      34.355  34.949  31.776  1.00  0.00     0.091 A 
ATOM     93  F   UNL A   1      34.365  32.773  31.138  1.00  0.00    -0.205 F 
ATOM     94  C   UNL A   1      34.429  35.561  33.008  1.00  0.00     0.022 A 
BRANCH  92  95
ATOM     95  S   UNL A   1      33.229  35.587  30.521  1.00  0.00     0.127 S 
ATOM     96  O   UNL A   1      31.916  35.302  31.097  1.00  0.00    -0.237 OA
ATOM     97  O   UNL A   1      33.598  37.001  30.505  1.00  0.00    -0.237 OA
ATOM     98  O   UNL A   1      33.547  34.847  29.310  1.00  0.00    -0.744 OA
ENDBRANCH  92  95
ENDBRANCH  64  88
BRANCH  76  99
ATOM     99  C   UNL A   1      42.345  34.521  29.330  1.00  0.00     0.023 A 
ATOM    100  C   UNL A   1      43.046  33.433  28.767  1.00  0.00     0.012 A 
ATOM    101  C   UNL A   1      42.921  35.808  29.188  1.00  0.00     0.148 A 
ATOM    102  C   UNL A   1      44.326  33.596  28.227  1.00  0.00     0.002 A 
ATOM    103  C   UNL A   1      44.180  35.968  28.622  1.00  0.00     0.091 A 
ATOM    104  F   UNL A   1      42.289  36.882  29.670  1.00  0.00    -0.205 F 
ATOM    105  C   UNL A   1      44.906  34.858  28.184  1.00  0.00     0.022 A 
BRANCH 103 106
ATOM    106  S   UNL A   1      44.990  37.569  28.504  1.00  0.00     0.127 S 
ATOM    107  O   UNL A   1      44.066  38.312  27.645  1.00  0.00    -0.237 OA
ATOM    108  O   UNL A   1      45.004  38.001  29.899  1.00  0.00    -0.237 OA
ATOM    109  O   UNL A   1      46.292  37.330  27.903  1.00  0.00    -0.744 OA
ENDBRANCH 103 106
ENDBRANCH  76  99
ENDBRANCH  50  51
ENDBRANCH  43  45
ENDBRANCH  42  43
ENDBRANCH  41  42
ENDBRANCH  40  41
ENDBRANCH  39  40
ENDBRANCH  38  39
ENDBRANCH  37  38
ENDBRANCH   1  37
TORSDOF 27
ENDMDL
MODEL 2
REMARK VINA RESULT:      -7.6      6.743     12.402
REMARK SMILES Cc1ccccc1-n1c(S[C@@H](C)C(=O)OCCOCCOCCOCCOC(=O)c2ccc(-c3c4nc(c(-c5cccc(S(=O)(=O)[O-])c5F)c5ccc([nH]5)c(-c5cccc(S(=O)(=O)[O-])c5F)c5nc(c(-c6cccc(S(=O)(=O)[O-])c6F)c6ccc3[nH]6)C=C5)C=C4)cc2)nc2sc3c(c2c1=O)C[C@@H](C(C)C)OC3
REMARK SMILES IDX 21 1 20 2 19 3 18 4 17 5 16 6 15 7 13 8 14 9 11 10 12 11
REMARK SMILES IDX 10 12 9 13 8 14 99 15 93 16 98 17 100 18 94 19 97 20 95 21
REMARK SMILES IDX 96 22 101 23 107 24 102 25 106 26 7 27 1 28 2 29 3 30 4 31
REMARK SMILES IDX 6 32 5 33 103 34 104 35 105 36 22 37 23 38 24 39 25 40 26 41
REMARK SMILES IDX 27 42 28 43 29 44 30 45 31 46 92 47 32 48 91 49 33 50 34 51
REMARK SMILES IDX 35 52 85 53 36 54 90 55 84 56 86 57 37 58 89 59 83 60 82 61
REMARK SMILES IDX 38 63 70 64 50 65 69 66 51 67 54 68 68 69 87 70 52 71 53 72
REMARK SMILES IDX 67 74 88 75 55 76 39 77 40 78 48 79 41 80 43 81 49 82 42 83
REMARK SMILES IDX 44 84 45 85 46 86 47 87 71 88 72 89 80 90 73 91 75 92 81 93
REMARK SMILES IDX 74 94 76 95 77 96 78 97 79 98 56 99 57 100 65 101 58 102
REMARK SMILES IDX 60 103 66 104 59 105 61 106 62 107 63 108 64 109
REMARK H PARENT 86 62 54 73
REMARK Flexibility Score: inf
ROOT
ATOM      1  O   UNL A   1      45.494  20.239  43.491  1.00  0.00    -0.377 OA
ENDROOT
BRANCH   1   2
ATOM      2  C   UNL A   1      45.900  19.641  44.725  1.00  0.00     0.188 C 
BRANCH   2   3
ATOM      3  C   UNL A   1      47.285  18.943  44.735  1.00  0.00     0.188 C 
BRANCH   3   4
ATOM      4  O   UNL A   1      48.181  19.048  43.632  1.00  0.00    -0.376 OA
BRANCH   4   5
ATOM      5  C   UNL A   1      49.576  19.006  43.796  1.00  0.00     0.202 C 
BRANCH   5   6
ATOM      6  C   UNL A   1      50.339  20.289  43.725  1.00  0.00     0.261 C 
BRANCH   6   7
ATOM      7  O   UNL A   1      50.749  20.376  42.371  1.00  0.00    -0.462 OA
BRANCH   7   8
ATOM      8  C   UNL A   1      52.043  20.728  42.231  1.00  0.00     0.319 C 
ATOM      9  O   UNL A   1      52.964  20.002  42.475  1.00  0.00    -0.251 OA
BRANCH   8  10
ATOM     10  C   UNL A   1      52.199  22.090  41.600  1.00  0.00     0.161 C 
ATOM     11  C   UNL A   1      52.991  22.934  42.565  1.00  0.00     0.032 C 
BRANCH  10  12
ATOM     12  S   UNL A   1      50.851  23.142  41.089  1.00  0.00    -0.072 SA
BRANCH  12  13
ATOM     13  C   UNL A   1      50.434  22.967  39.413  1.00  0.00     0.177 A 
ATOM     14  N   UNL A   1      50.247  24.035  38.494  1.00  0.00    -0.255 N 
ATOM     15  C   UNL A   1      49.499  23.688  37.361  1.00  0.00     0.267 A 
ATOM     16  N   UNL A   1      50.407  21.696  39.089  1.00  0.00    -0.212 NA
ATOM     17  C   UNL A   1      49.784  22.369  36.888  1.00  0.00     0.081 A 
ATOM     18  O   UNL A   1      48.694  24.349  36.718  1.00  0.00    -0.268 OA
ATOM     19  C   UNL A   1      50.203  21.437  37.786  1.00  0.00     0.132 A 
ATOM     20  C   UNL A   1      49.875  21.938  35.553  1.00  0.00    -0.014 A 
ATOM     21  S   UNL A   1      50.533  19.944  37.026  1.00  0.00    -0.117 S 
ATOM     22  C   UNL A   1      50.323  20.640  35.477  1.00  0.00     0.037 A 
ATOM     23  C   UNL A   1      49.791  22.787  34.336  1.00  0.00     0.070 C 
ATOM     24  C   UNL A   1      50.769  19.986  34.213  1.00  0.00     0.207 C 
ATOM     25  C   UNL A   1      50.886  22.306  33.368  1.00  0.00     0.125 C 
ATOM     26  O   UNL A   1      50.659  20.899  33.088  1.00  0.00    -0.372 OA
BRANCH  14  27
ATOM     27  C   UNL A   1      50.534  25.454  38.727  1.00  0.00     0.054 A 
ATOM     28  C   UNL A   1      48.479  26.055  40.184  1.00  0.00     0.046 C 
ATOM     29  C   UNL A   1      49.639  26.386  39.284  1.00  0.00    -0.027 A 
ATOM     30  C   UNL A   1      49.836  27.763  39.027  1.00  0.00     0.005 A 
ATOM     31  C   UNL A   1      50.950  28.226  38.343  1.00  0.00     0.000 A 
ATOM     32  C   UNL A   1      51.768  25.989  38.286  1.00  0.00     0.027 A 
ATOM     33  C   UNL A   1      51.956  27.343  38.042  1.00  0.00     0.002 A 
ENDBRANCH  14  27
BRANCH  25  34
ATOM     34  C   UNL A   1      52.350  22.582  33.833  1.00  0.00     0.012 C 
ATOM     35  C   UNL A   1      53.331  22.142  32.744  1.00  0.00     0.010 C 
ATOM     36  C   UNL A   1      52.611  24.047  34.202  1.00  0.00     0.010 C 
ENDBRANCH  25  34
ENDBRANCH  12  13
ENDBRANCH  10  12
ENDBRANCH   8  10
ENDBRANCH   7   8
ENDBRANCH   6   7
ENDBRANCH   5   6
ENDBRANCH   4   5
ENDBRANCH   3   4
ENDBRANCH   2   3
ENDBRANCH   1   2
BRANCH   1  37
ATOM     37  C   UNL A   1      44.669  19.410  42.663  1.00  0.00     0.188 C 
BRANCH  37  38
ATOM     38  C   UNL A   1      45.357  18.655  41.512  1.00  0.00     0.188 C 
BRANCH  38  39
ATOM     39  O   UNL A   1      45.695  19.537  40.464  1.00  0.00    -0.376 OA
BRANCH  39  40
ATOM     40  C   UNL A   1      46.944  19.368  39.835  1.00  0.00     0.202 C 
BRANCH  40  41
ATOM     41  C   UNL A   1      46.929  19.940  38.416  1.00  0.00     0.261 C 
BRANCH  41  42
ATOM     42  O   UNL A   1      45.868  20.930  38.294  1.00  0.00    -0.460 OA
BRANCH  42  43
ATOM     43  C   UNL A   1      46.184  22.264  38.241  1.00  0.00     0.338 C 
ATOM     44  O   UNL A   1      46.695  22.893  39.156  1.00  0.00    -0.246 OA
BRANCH  43  45
ATOM     45  C   UNL A   1      45.693  22.909  36.951  1.00  0.00     0.060 A 
ATOM     46  C   UNL A   1      46.020  22.456  35.639  1.00  0.00     0.016 A 
ATOM     47  C   UNL A   1      45.137  24.163  37.022  1.00  0.00     0.016 A 
ATOM     48  C   UNL A   1      45.909  23.303  34.433  1.00  0.00     0.010 A 
ATOM     49  C   UNL A   1      45.081  24.966  35.863  1.00  0.00     0.010 A 
ATOM     50  C   UNL A   1      45.466  24.633  34.507  1.00  0.00    -0.014 A 
BRANCH  50  51
ATOM     51  C   UNL A   1      45.511  25.892  33.510  1.00  0.00     0.031 A 
ATOM     52  C   UNL A   1      46.947  25.999  33.107  1.00  0.00     0.074 A 
ATOM     53  C   UNL A   1      44.971  27.045  32.940  1.00  0.00     0.049 A 
ATOM     54  N   UNL A   1      47.441  25.528  32.017  1.00  0.00    -0.248 NA
ATOM     55  C   UNL A   1      47.948  26.374  34.129  1.00  0.00     0.031 C 
ATOM     56  C   UNL A   1      43.937  28.006  33.343  1.00  0.00     0.029 A 
ATOM     57  N   UNL A   1      45.291  27.584  31.650  1.00  0.00    -0.354 N 
ATOM     58  C   UNL A   1      48.800  25.745  32.126  1.00  0.00     0.074 A 
ATOM     59  C   UNL A   1      49.087  26.050  33.506  1.00  0.00     0.031 C 
ATOM     60  C   UNL A   1      43.844  29.037  32.438  1.00  0.00     0.029 A 
ATOM     61  C   UNL A   1      44.696  28.799  31.253  1.00  0.00     0.049 A 
ATOM     62  H   UNL A   1      45.915  27.112  31.053  1.00  0.00     0.167 HD
ATOM     63  C   UNL A   1      49.520  26.062  31.029  1.00  0.00     0.034 A 
ATOM     64  C   UNL A   1      44.490  29.380  29.998  1.00  0.00     0.034 A 
ATOM     65  C   UNL A   1      48.626  26.470  29.996  1.00  0.00     0.049 A 
ATOM     66  C   UNL A   1      44.417  28.370  28.866  1.00  0.00     0.074 A 
ATOM     67  C   UNL A   1      48.083  27.725  29.874  1.00  0.00     0.029 A 
ATOM     68  N   UNL A   1      47.999  25.631  29.109  1.00  0.00    -0.354 N 
ATOM     69  N   UNL A   1      44.740  27.123  28.979  1.00  0.00    -0.248 NA
ATOM     70  C   UNL A   1      43.996  28.717  27.495  1.00  0.00     0.031 C 
ATOM     71  C   UNL A   1      47.495  27.704  28.635  1.00  0.00     0.029 A 
ATOM     72  C   UNL A   1      47.204  26.402  28.296  1.00  0.00     0.049 A 
ATOM     73  H   UNL A   1      48.100  24.652  29.063  1.00  0.00     0.167 HD
ATOM     74  C   UNL A   1      44.962  26.624  27.707  1.00  0.00     0.074 A 
ATOM     75  C   UNL A   1      44.355  27.615  26.816  1.00  0.00     0.031 C 
ATOM     76  C   UNL A   1      46.142  25.963  27.428  1.00  0.00     0.034 A 
BRANCH  63  77
ATOM     77  C   UNL A   1      50.904  26.629  31.010  1.00  0.00     0.023 A 
ATOM     78  C   UNL A   1      51.955  25.768  30.593  1.00  0.00     0.012 A 
ATOM     79  C   UNL A   1      51.249  27.903  31.462  1.00  0.00     0.148 A 
ATOM     80  C   UNL A   1      53.289  26.125  30.622  1.00  0.00     0.002 A 
ATOM     81  C   UNL A   1      52.597  28.264  31.500  1.00  0.00     0.091 A 
ATOM     82  F   UNL A   1      50.279  28.730  31.879  1.00  0.00    -0.205 F 
ATOM     83  C   UNL A   1      53.612  27.379  31.088  1.00  0.00     0.022 A 
BRANCH  81  84
ATOM     84  S   UNL A   1      53.143  29.869  32.070  1.00  0.00     0.127 S 
ATOM     85  O   UNL A   1      52.912  30.708  30.896  1.00  0.00    -0.237 OA
ATOM     86  O   UNL A   1      52.239  30.131  33.192  1.00  0.00    -0.237 OA
ATOM     87  O   UNL A   1      54.537  29.698  32.462  1.00  0.00    -0.744 OA
ENDBRANCH  81  84
ENDBRANCH  63  77
BRANCH  64  88
ATOM     88  C   UNL A   1      45.078  30.767  29.565  1.00  0.00     0.023 A 
ATOM     89  C   UNL A   1      46.098  31.472  30.219  1.00  0.00     0.012 A 
ATOM     90  C   UNL A   1      44.470  31.522  28.519  1.00  0.00     0.148 A 
ATOM     91  C   UNL A   1      46.563  32.730  29.727  1.00  0.00     0.002 A 
ATOM     92  C   UNL A   1      45.089  32.586  27.870  1.00  0.00     0.091 A 
ATOM     93  F   UNL A   1      43.142  31.696  28.619  1.00  0.00    -0.205 F 
ATOM     94  C   UNL A   1      46.120  33.244  28.506  1.00  0.00     0.022 A 
BRANCH  92  95
ATOM     95  S   UNL A   1      44.516  33.157  26.259  1.00  0.00     0.127 S 
ATOM     96  O   UNL A   1      45.765  33.483  25.574  1.00  0.00    -0.237 OA
ATOM     97  O   UNL A   1      43.838  31.960  25.763  1.00  0.00    -0.237 OA
ATOM     98  O   UNL A   1      43.650  34.290  26.541  1.00  0.00    -0.744 OA
ENDBRANCH  92  95
ENDBRANCH  64  88
BRANCH  76  99
ATOM     99  C   UNL A   1      46.107  24.714  26.593  1.00  0.00     0.023 A 
ATOM    100  C   UNL A   1      47.046  24.523  25.557  1.00  0.00     0.012 A 
ATOM    101  C   UNL A   1      45.006  23.822  26.644  1.00  0.00     0.148 A 
ATOM    102  C   UNL A   1      46.821  23.593  24.535  1.00  0.00     0.002 A 
ATOM    103  C   UNL A   1      44.805  22.879  25.643  1.00  0.00     0.091 A 
ATOM    104  F   UNL A   1      44.102  23.931  27.620  1.00  0.00    -0.205 F 
ATOM    105  C   UNL A   1      45.685  22.795  24.562  1.00  0.00     0.022 A 
BRANCH 103 106
ATOM    106  S   UNL A   1      43.375  21.790  25.617  1.00  0.00     0.127 S 
ATOM    107  O   UNL A   1      43.843  20.697  24.763  1.00  0.00    -0.237 OA
ATOM    108  O   UNL A   1      43.237  21.441  27.029  1.00  0.00    -0.237 OA
ATOM    109  O   UNL A   1      42.280  22.559  25.047  1.00  0.00    -0.744 OA
ENDBRANCH 103 106
ENDBRANCH  76  99
ENDBRANCH  50  51
ENDBRANCH  43  45
ENDBRANCH  42  43
ENDBRANCH  41  42
ENDBRANCH  40  41
ENDBRANCH  39  40
ENDBRANCH  38  39
ENDBRANCH  37  38
ENDBRANCH   1  37
TORSDOF 27
ENDMDL
MODEL 3
REMARK VINA RESULT:      -7.6      6.429     10.779
REMARK SMILES Cc1ccccc1-n1c(S[C@@H](C)C(=O)OCCOCCOCCOCCOC(=O)c2ccc(-c3c4nc(c(-c5cccc(S(=O)(=O)[O-])c5F)c5ccc([nH]5)c(-c5cccc(S(=O)(=O)[O-])c5F)c5nc(c(-c6cccc(S(=O)(=O)[O-])c6F)c6ccc3[nH]6)C=C5)C=C4)cc2)nc2sc3c(c2c1=O)C[C@@H](C(C)C)OC3
REMARK SMILES IDX 21 1 20 2 19 3 18 4 17 5 16 6 15 7 13 8 14 9 11 10 12 11
REMARK SMILES IDX 10 12 9 13 8 14 99 15 93 16 98 17 100 18 94 19 97 20 95 21
REMARK SMILES IDX 96 22 101 23 107 24 102 25 106 26 7 27 1 28 2 29 3 30 4 31
REMARK SMILES IDX 6 32 5 33 103 34 104 35 105 36 22 37 23 38 24 39 25 40 26 41
REMARK SMILES IDX 27 42 28 43 29 44 30 45 31 46 92 47 32 48 91 49 33 50 34 51
REMARK SMILES IDX 35 52 85 53 36 54 90 55 84 56 86 57 37 58 89 59 83 60 82 61
REMARK SMILES IDX 38 63 70 64 50 65 69 66 51 67 54 68 68 69 87 70 52 71 53 72
REMARK SMILES IDX 67 74 88 75 55 76 39 77 40 78 48 79 41 80 43 81 49 82 42 83
REMARK SMILES IDX 44 84 45 85 46 86 47 87 71 88 72 89 80 90 73 91 75 92 81 93
REMARK SMILES IDX 74 94 76 95 77 96 78 97 79 98 56 99 57 100 65 101 58 102
REMARK SMILES IDX 60 103 66 104 59 105 61 106 62 107 63 108 64 109
REMARK H PARENT 86 62 54 73
REMARK Flexibility Score: inf
ROOT
ATOM      1  O   UNL A   1      46.700  20.286  44.902  1.00  0.00    -0.377 OA
ENDROOT
BRANCH   1   2
ATOM      2  C   UNL A   1      47.650  19.254  45.178  1.00  0.00     0.188 C 
BRANCH   2   3
ATOM      3  C   UNL A   1      48.224  18.495  43.953  1.00  0.00     0.188 C 
BRANCH   3   4
ATOM      4  O   UNL A   1      48.208  19.065  42.648  1.00  0.00    -0.376 OA
BRANCH   4   5
ATOM      5  C   UNL A   1      47.826  18.326  41.514  1.00  0.00     0.202 C 
BRANCH   5   6
ATOM      6  C   UNL A   1      48.708  18.366  40.309  1.00  0.00     0.261 C 
BRANCH   6   7
ATOM      7  O   UNL A   1      49.017  19.740  40.149  1.00  0.00    -0.462 OA
BRANCH   7   8
ATOM      8  C   UNL A   1      50.328  19.967  39.930  1.00  0.00     0.319 C 
ATOM      9  O   UNL A   1      51.199  19.630  40.681  1.00  0.00    -0.251 OA
BRANCH   8  10
ATOM     10  C   UNL A   1      50.584  20.567  38.570  1.00  0.00     0.161 C 
ATOM     11  C   UNL A   1      49.432  21.492  38.273  1.00  0.00     0.032 C 
BRANCH  10  12
ATOM     12  S   UNL A   1      50.810  19.636  37.065  1.00  0.00    -0.072 SA
BRANCH  12  13
ATOM     13  C   UNL A   1      51.653  20.514  35.828  1.00  0.00     0.177 A 
ATOM     14  N   UNL A   1      51.064  21.049  34.651  1.00  0.00    -0.255 N 
ATOM     15  C   UNL A   1      51.979  21.306  33.621  1.00  0.00     0.267 A 
ATOM     16  N   UNL A   1      52.903  20.695  36.181  1.00  0.00    -0.212 NA
ATOM     17  C   UNL A   1      53.228  21.813  34.100  1.00  0.00     0.081 A 
ATOM     18  O   UNL A   1      51.849  21.200  32.408  1.00  0.00    -0.268 OA
ATOM     19  C   UNL A   1      53.631  21.460  35.350  1.00  0.00     0.132 A 
ATOM     20  C   UNL A   1      54.031  22.807  33.514  1.00  0.00    -0.014 A 
ATOM     21  S   UNL A   1      55.117  22.197  35.756  1.00  0.00    -0.117 S 
ATOM     22  C   UNL A   1      55.079  23.152  34.336  1.00  0.00     0.037 A 
ATOM     23  C   UNL A   1      53.706  23.621  32.314  1.00  0.00     0.070 C 
ATOM     24  C   UNL A   1      55.949  24.343  34.120  1.00  0.00     0.207 C 
ATOM     25  C   UNL A   1      54.126  25.069  32.617  1.00  0.00     0.125 C 
ATOM     26  O   UNL A   1      55.544  25.075  32.932  1.00  0.00    -0.372 OA
BRANCH  14  27
ATOM     27  C   UNL A   1      49.632  21.120  34.339  1.00  0.00     0.054 A 
ATOM     28  C   UNL A   1      49.233  23.636  34.804  1.00  0.00     0.046 C 
ATOM     29  C   UNL A   1      48.789  22.209  34.622  1.00  0.00    -0.027 A 
ATOM     30  C   UNL A   1      47.394  21.990  34.715  1.00  0.00     0.005 A 
ATOM     31  C   UNL A   1      46.827  20.759  34.419  1.00  0.00     0.000 A 
ATOM     32  C   UNL A   1      48.991  19.984  33.790  1.00  0.00     0.027 A 
ATOM     33  C   UNL A   1      47.620  19.778  33.879  1.00  0.00     0.002 A 
ENDBRANCH  14  27
BRANCH  25  34
ATOM     34  C   UNL A   1      53.279  25.789  33.713  1.00  0.00     0.012 C 
ATOM     35  C   UNL A   1      53.738  27.243  33.850  1.00  0.00     0.010 C 
ATOM     36  C   UNL A   1      51.770  25.747  33.449  1.00  0.00     0.010 C 
ENDBRANCH  25  34
ENDBRANCH  12  13
ENDBRANCH  10  12
ENDBRANCH   8  10
ENDBRANCH   7   8
ENDBRANCH   6   7
ENDBRANCH   5   6
ENDBRANCH   4   5
ENDBRANCH   3   4
ENDBRANCH   2   3
ENDBRANCH   1   2
BRANCH   1  37
ATOM     37  C   UNL A   1      45.330  19.867  44.932  1.00  0.00     0.188 C 
BRANCH  37  38
ATOM     38  C   UNL A   1      44.547  19.917  43.608  1.00  0.00     0.188 C 
BRANCH  38  39
ATOM     39  O   UNL A   1      45.253  20.655  42.635  1.00  0.00    -0.376 OA
BRANCH  39  40
ATOM     40  C   UNL A   1      44.799  20.595  41.303  1.00  0.00     0.202 C 
BRANCH  40  41
ATOM     41  C   UNL A   1      45.866  21.105  40.332  1.00  0.00     0.261 C 
BRANCH  41  42
ATOM     42  O   UNL A   1      45.384  22.298  39.650  1.00  0.00    -0.460 OA
BRANCH  42  43
ATOM     43  C   UNL A   1      46.249  23.328  39.387  1.00  0.00     0.338 C 
ATOM     44  O   UNL A   1      47.255  23.574  40.038  1.00  0.00    -0.246 OA
BRANCH  43  45
ATOM     45  C   UNL A   1      45.735  24.226  38.268  1.00  0.00     0.060 A 
ATOM     46  C   UNL A   1      44.369  24.589  38.080  1.00  0.00     0.016 A 
ATOM     47  C   UNL A   1      46.567  24.481  37.205  1.00  0.00     0.016 A 
ATOM     48  C   UNL A   1      43.826  25.082  36.796  1.00  0.00     0.010 A 
ATOM     49  C   UNL A   1      46.017  24.911  35.979  1.00  0.00     0.010 A 
ATOM     50  C   UNL A   1      44.639  25.224  35.660  1.00  0.00    -0.014 A 
BRANCH  50  51
ATOM     51  C   UNL A   1      44.356  25.418  34.091  1.00  0.00     0.031 A 
ATOM     52  C   UNL A   1      43.434  26.594  34.020  1.00  0.00     0.074 A 
ATOM     53  C   UNL A   1      44.369  24.988  32.764  1.00  0.00     0.049 A 
ATOM     54  N   UNL A   1      43.802  27.801  33.774  1.00  0.00    -0.248 NA
ATOM     55  C   UNL A   1      42.068  26.462  34.569  1.00  0.00     0.031 C 
ATOM     56  C   UNL A   1      44.423  23.676  32.107  1.00  0.00     0.029 A 
ATOM     57  N   UNL A   1      44.403  25.826  31.601  1.00  0.00    -0.354 N 
ATOM     58  C   UNL A   1      42.656  28.555  33.929  1.00  0.00     0.074 A 
ATOM     59  C   UNL A   1      41.689  27.744  34.627  1.00  0.00     0.031 C 
ATOM     60  C   UNL A   1      44.324  23.805  30.742  1.00  0.00     0.029 A 
ATOM     61  C   UNL A   1      44.347  25.225  30.326  1.00  0.00     0.049 A 
ATOM     62  H   UNL A   1      44.464  26.804  31.691  1.00  0.00     0.167 HD
ATOM     63  C   UNL A   1      42.437  29.620  33.128  1.00  0.00     0.034 A 
ATOM     64  C   UNL A   1      44.723  25.674  29.057  1.00  0.00     0.034 A 
ATOM     65  C   UNL A   1      43.309  29.533  32.003  1.00  0.00     0.049 A 
ATOM     66  C   UNL A   1      45.810  26.734  29.085  1.00  0.00     0.074 A 
ATOM     67  C   UNL A   1      43.075  28.774  30.883  1.00  0.00     0.029 A 
ATOM     68  N   UNL A   1      44.598  30.002  31.956  1.00  0.00    -0.354 N 
ATOM     69  N   UNL A   1      46.202  27.348  30.153  1.00  0.00    -0.248 NA
ATOM     70  C   UNL A   1      46.518  27.203  27.879  1.00  0.00     0.031 C 
ATOM     71  C   UNL A   1      44.046  29.186  30.005  1.00  0.00     0.029 A 
ATOM     72  C   UNL A   1      45.106  29.703  30.716  1.00  0.00     0.049 A 
ATOM     73  H   UNL A   1      45.074  30.470  32.681  1.00  0.00     0.167 HD
ATOM     74  C   UNL A   1      46.860  28.503  29.763  1.00  0.00     0.074 A 
ATOM     75  C   UNL A   1      47.147  28.295  28.342  1.00  0.00     0.031 C 
ATOM     76  C   UNL A   1      46.484  29.718  30.300  1.00  0.00     0.034 A 
BRANCH  63  77
ATOM     77  C   UNL A   1      41.140  30.340  32.945  1.00  0.00     0.023 A 
ATOM     78  C   UNL A   1      41.073  31.687  33.391  1.00  0.00     0.012 A 
ATOM     79  C   UNL A   1      39.968  29.758  32.460  1.00  0.00     0.148 A 
ATOM     80  C   UNL A   1      39.915  32.438  33.376  1.00  0.00     0.002 A 
ATOM     81  C   UNL A   1      38.793  30.512  32.452  1.00  0.00     0.091 A 
ATOM     82  F   UNL A   1      39.997  28.481  32.050  1.00  0.00    -0.205 F 
ATOM     83  C   UNL A   1      38.765  31.842  32.912  1.00  0.00     0.022 A 
BRANCH  81  84
ATOM     84  S   UNL A   1      37.238  29.856  31.859  1.00  0.00     0.127 S 
ATOM     85  O   UNL A   1      36.992  28.757  32.791  1.00  0.00    -0.237 OA
ATOM     86  O   UNL A   1      36.334  30.997  32.014  1.00  0.00    -0.237 OA
ATOM     87  O   UNL A   1      37.472  29.470  30.473  1.00  0.00    -0.744 OA
ENDBRANCH  81  84
ENDBRANCH  63  77
BRANCH  64  88
ATOM     88  C   UNL A   1      43.736  25.819  27.849  1.00  0.00     0.023 A 
ATOM     89  C   UNL A   1      44.092  26.069  26.516  1.00  0.00     0.012 A 
ATOM     90  C   UNL A   1      42.326  25.874  28.061  1.00  0.00     0.148 A 
ATOM     91  C   UNL A   1      43.103  26.173  25.491  1.00  0.00     0.002 A 
ATOM     92  C   UNL A   1      41.383  25.689  27.055  1.00  0.00     0.091 A 
ATOM     93  F   UNL A   1      41.909  26.750  28.989  1.00  0.00    -0.205 F 
ATOM     94  C   UNL A   1      41.758  25.896  25.745  1.00  0.00     0.022 A 
BRANCH  92  95
ATOM     95  S   UNL A   1      39.676  25.259  27.445  1.00  0.00     0.127 S 
ATOM     96  O   UNL A   1      39.112  26.541  27.863  1.00  0.00    -0.237 OA
ATOM     97  O   UNL A   1      39.205  24.774  26.149  1.00  0.00    -0.237 OA
ATOM     98  O   UNL A   1      39.765  24.252  28.490  1.00  0.00    -0.744 OA
ENDBRANCH  92  95
ENDBRANCH  64  88
BRANCH  76  99
ATOM     99  C   UNL A   1      47.546  30.704  30.703  1.00  0.00     0.023 A 
ATOM    100  C   UNL A   1      48.006  31.671  29.784  1.00  0.00     0.012 A 
ATOM    101  C   UNL A   1      48.283  30.545  31.903  1.00  0.00     0.148 A 
ATOM    102  C   UNL A   1      49.223  32.334  29.976  1.00  0.00     0.002 A 
ATOM    103  C   UNL A   1      49.476  31.231  32.103  1.00  0.00     0.091 A 
ATOM    104  F   UNL A   1      47.879  29.671  32.827  1.00  0.00    -0.205 F 
ATOM    105  C   UNL A   1      49.973  32.090  31.120  1.00  0.00     0.022 A 
BRANCH 103 106
ATOM    106  S   UNL A   1      50.493  30.993  33.566  1.00  0.00     0.127 S 
ATOM    107  O   UNL A   1      51.636  31.862  33.285  1.00  0.00    -0.237 OA
ATOM    108  O   UNL A   1      49.610  31.472  34.626  1.00  0.00    -0.237 OA
ATOM    109  O   UNL A   1      50.824  29.577  33.612  1.00  0.00    -0.744 OA
ENDBRANCH 103 106
ENDBRANCH  76  99
ENDBRANCH  50  51
ENDBRANCH  43  45
ENDBRANCH  42  43
ENDBRANCH  41  42
ENDBRANCH  40  41
ENDBRANCH  39  40
ENDBRANCH  38  39
ENDBRANCH  37  38
ENDBRANCH   1  37
TORSDOF 27
ENDMDL
