MODEL 1
REMARK VINA RESULT:      -9.2      0.000      0.000
REMARK SMILES Cc1cccc(C(=O)OCCOCCOCCOCCOC(=O)c2ccc(-c3c4nc(c(-c5cccc(S(=O)(=O)[O-])c5F)c5ccc([nH]5)c(-c5cccc(S(=O)(=O)[O-])c5F)c5nc(c(-c6cccc(S(=O)(=O)[O-])c6F)c6ccc3[nH]6)C=C5)C=C4)cc2)c1OC[C@@H]1C[C@H]2CC[C@@H]1C2
REMARK SMILES IDX 15 1 14 2 13 3 12 4 11 5 10 6 9 7 7 8 8 9 6 10 1 11 2 12
REMARK SMILES IDX 3 13 87 14 4 15 5 16 88 17 89 18 90 19 91 20 95 21 92 22
REMARK SMILES IDX 94 23 96 24 93 25 16 26 17 27 18 28 19 29 20 30 21 31 22 32
REMARK SMILES IDX 23 33 24 34 25 35 86 36 26 37 85 38 27 39 28 40 29 41 79 42
REMARK SMILES IDX 30 43 84 44 78 45 80 46 31 47 83 48 77 49 76 50 32 52 64 53
REMARK SMILES IDX 44 54 63 55 45 56 48 57 62 58 81 59 46 60 47 61 61 63 82 64
REMARK SMILES IDX 49 65 33 66 34 67 42 68 35 69 37 70 43 71 36 72 38 73 39 74
REMARK SMILES IDX 40 75 41 76 65 77 66 78 74 79 67 80 69 81 75 82 68 83 70 84
REMARK SMILES IDX 71 85 72 86 73 87 50 88 51 89 59 90 52 91 54 92 60 93 53 94
REMARK SMILES IDX 55 95 56 96 57 97 58 98
REMARK H PARENT 80 51 48 62
REMARK Flexibility Score: inf
ROOT
ATOM      1  O   UNL A   1      33.401  31.535  27.439  1.00  0.00    -0.377 OA
ENDROOT
BRANCH   1   2
ATOM      2  C   UNL A   1      33.483  30.121  27.480  1.00  0.00     0.188 C 
BRANCH   2   3
ATOM      3  C   UNL A   1      32.992  29.240  26.313  1.00  0.00     0.188 C 
BRANCH   3   4
ATOM      4  O   UNL A   1      33.032  29.693  24.973  1.00  0.00    -0.376 OA
BRANCH   4   5
ATOM      5  C   UNL A   1      34.008  29.081  24.128  1.00  0.00     0.202 C 
BRANCH   5   6
ATOM      6  C   UNL A   1      33.574  28.677  22.727  1.00  0.00     0.261 C 
BRANCH   6   7
ATOM      7  O   UNL A   1      33.989  27.322  22.522  1.00  0.00    -0.460 OA
BRANCH   7   8
ATOM      8  C   UNL A   1      33.051  26.511  22.000  1.00  0.00     0.342 C 
ATOM      9  O   UNL A   1      33.162  25.683  21.121  1.00  0.00    -0.246 OA
BRANCH   8  10
ATOM     10  C   UNL A   1      32.029  26.370  23.049  1.00  0.00     0.102 A 
ATOM     11  C   UNL A   1      30.728  24.551  26.161  1.00  0.00     0.048 C 
ATOM     12  C   UNL A   1      30.979  25.452  24.991  1.00  0.00    -0.008 A 
ATOM     13  C   UNL A   1      29.827  26.222  24.651  1.00  0.00     0.007 A 
ATOM     14  C   UNL A   1      32.133  25.545  24.194  1.00  0.00     0.136 A 
ATOM     15  C   UNL A   1      29.744  26.985  23.499  1.00  0.00     0.001 A 
ATOM     16  C   UNL A   1      30.848  27.050  22.687  1.00  0.00     0.019 A 
BRANCH  14  17
ATOM     17  O   UNL A   1      33.315  24.879  24.287  1.00  0.00    -0.492 OA
BRANCH  17  18
ATOM     18  C   UNL A   1      34.329  24.968  25.293  1.00  0.00     0.233 C 
BRANCH  18  19
ATOM     19  C   UNL A   1      35.154  23.687  25.341  1.00  0.00     0.030 C 
ATOM     20  C   UNL A   1      36.692  23.824  25.381  1.00  0.00     0.011 C 
ATOM     21  C   UNL A   1      34.969  22.747  24.122  1.00  0.00    -0.004 C 
ATOM     22  C   UNL A   1      37.148  22.641  24.500  1.00  0.00    -0.010 C 
ATOM     23  C   UNL A   1      35.110  21.326  24.662  1.00  0.00     0.004 C 
ATOM     24  C   UNL A   1      36.252  22.880  23.296  1.00  0.00     0.007 C 
ATOM     25  C   UNL A   1      36.600  21.294  25.040  1.00  0.00     0.004 C 
ENDBRANCH  18  19
ENDBRANCH  17  18
ENDBRANCH  14  17
ENDBRANCH   8  10
ENDBRANCH   7   8
ENDBRANCH   6   7
ENDBRANCH   5   6
ENDBRANCH   4   5
ENDBRANCH   3   4
ENDBRANCH   2   3
ENDBRANCH   1   2
BRANCH   1  26
ATOM     26  C   UNL A   1      34.481  32.301  27.971  1.00  0.00     0.188 C 
BRANCH  26  27
ATOM     27  C   UNL A   1      34.925  32.034  29.404  1.00  0.00     0.188 C 
BRANCH  27  28
ATOM     28  O   UNL A   1      34.515  33.149  30.184  1.00  0.00    -0.376 OA
BRANCH  28  29
ATOM     29  C   UNL A   1      34.374  32.963  31.581  1.00  0.00     0.202 C 
BRANCH  29  30
ATOM     30  C   UNL A   1      35.702  33.000  32.335  1.00  0.00     0.261 C 
BRANCH  30  31
ATOM     31  O   UNL A   1      36.419  34.202  31.983  1.00  0.00    -0.460 OA
BRANCH  31  32
ATOM     32  C   UNL A   1      37.475  34.493  32.796  1.00  0.00     0.338 C 
ATOM     33  O   UNL A   1      37.356  34.880  33.948  1.00  0.00    -0.246 OA
BRANCH  32  34
ATOM     34  C   UNL A   1      38.747  34.523  32.010  1.00  0.00     0.060 A 
ATOM     35  C   UNL A   1      38.731  34.297  30.628  1.00  0.00     0.016 A 
ATOM     36  C   UNL A   1      39.956  34.440  32.681  1.00  0.00     0.016 A 
ATOM     37  C   UNL A   1      39.860  33.748  29.985  1.00  0.00     0.010 A 
ATOM     38  C   UNL A   1      41.023  33.817  32.050  1.00  0.00     0.010 A 
ATOM     39  C   UNL A   1      40.976  33.378  30.714  1.00  0.00    -0.014 A 
BRANCH  39  40
ATOM     40  C   UNL A   1      42.121  32.550  30.239  1.00  0.00     0.031 A 
ATOM     41  C   UNL A   1      41.940  31.055  30.349  1.00  0.00     0.074 A 
ATOM     42  C   UNL A   1      43.099  33.034  29.411  1.00  0.00     0.049 A 
ATOM     43  N   UNL A   1      42.606  30.173  29.690  1.00  0.00    -0.248 NA
ATOM     44  C   UNL A   1      40.901  30.425  31.169  1.00  0.00     0.031 C 
ATOM     45  C   UNL A   1      43.743  32.255  28.345  1.00  0.00     0.029 A 
ATOM     46  N   UNL A   1      43.652  34.285  29.166  1.00  0.00    -0.354 N 
ATOM     47  C   UNL A   1      41.914  28.984  29.701  1.00  0.00     0.074 A 
ATOM     48  C   UNL A   1      40.889  29.173  30.692  1.00  0.00     0.031 C 
ATOM     49  C   UNL A   1      44.552  32.997  27.579  1.00  0.00     0.029 A 
ATOM     50  C   UNL A   1      44.793  34.182  28.346  1.00  0.00     0.049 A 
ATOM     51  H   UNL A   1      43.293  35.131  29.518  1.00  0.00     0.167 HD
ATOM     52  C   UNL A   1      42.237  28.039  28.772  1.00  0.00     0.034 A 
ATOM     53  C   UNL A   1      46.060  34.455  28.798  1.00  0.00     0.034 A 
ATOM     54  C   UNL A   1      43.516  28.364  28.095  1.00  0.00     0.049 A 
ATOM     55  C   UNL A   1      46.891  33.169  28.916  1.00  0.00     0.074 A 
ATOM     56  C   UNL A   1      43.907  28.502  26.777  1.00  0.00     0.029 A 
ATOM     57  N   UNL A   1      44.628  28.758  28.855  1.00  0.00    -0.354 N 
ATOM     58  N   UNL A   1      46.348  31.985  29.081  1.00  0.00    -0.248 NA
ATOM     59  C   UNL A   1      48.326  33.059  28.638  1.00  0.00     0.031 C 
ATOM     60  C   UNL A   1      45.172  29.163  26.758  1.00  0.00     0.029 A 
ATOM     61  C   UNL A   1      45.614  29.321  28.063  1.00  0.00     0.049 A 
ATOM     62  H   UNL A   1      44.698  28.648  29.831  1.00  0.00     0.167 HD
ATOM     63  C   UNL A   1      47.241  31.001  28.773  1.00  0.00     0.074 A 
ATOM     64  C   UNL A   1      48.492  31.721  28.576  1.00  0.00     0.031 C 
ATOM     65  C   UNL A   1      46.919  29.679  28.608  1.00  0.00     0.034 A 
BRANCH  52  66
ATOM     66  C   UNL A   1      41.354  26.864  28.331  1.00  0.00     0.023 A 
ATOM     67  C   UNL A   1      39.955  27.085  28.316  1.00  0.00     0.012 A 
ATOM     68  C   UNL A   1      41.763  25.536  28.027  1.00  0.00     0.148 A 
ATOM     69  C   UNL A   1      39.022  26.075  28.045  1.00  0.00     0.002 A 
ATOM     70  C   UNL A   1      40.830  24.540  27.682  1.00  0.00     0.091 A 
ATOM     71  F   UNL A   1      43.051  25.194  28.136  1.00  0.00    -0.205 F 
ATOM     72  C   UNL A   1      39.459  24.805  27.712  1.00  0.00     0.022 A 
BRANCH  70  73
ATOM     73  S   UNL A   1      41.292  22.876  27.150  1.00  0.00     0.127 S 
ATOM     74  O   UNL A   1      41.781  22.274  28.392  1.00  0.00    -0.237 OA
ATOM     75  O   UNL A   1      40.016  22.335  26.680  1.00  0.00    -0.237 OA
ATOM     76  O   UNL A   1      42.298  23.043  26.109  1.00  0.00    -0.744 OA
ENDBRANCH  70  73
ENDBRANCH  52  66
BRANCH  53  77
ATOM     77  C   UNL A   1      46.063  35.723  29.592  1.00  0.00     0.023 A 
ATOM     78  C   UNL A   1      45.464  36.810  28.896  1.00  0.00     0.012 A 
ATOM     79  C   UNL A   1      45.894  35.644  30.984  1.00  0.00     0.148 A 
ATOM     80  C   UNL A   1      44.459  37.567  29.503  1.00  0.00     0.002 A 
ATOM     81  C   UNL A   1      44.914  36.431  31.592  1.00  0.00     0.091 A 
ATOM     82  F   UNL A   1      46.586  34.719  31.664  1.00  0.00    -0.205 F 
ATOM     83  C   UNL A   1      44.140  37.330  30.835  1.00  0.00     0.022 A 
BRANCH  81  84
ATOM     84  S   UNL A   1      44.494  36.190  33.323  1.00  0.00     0.127 S 
ATOM     85  O   UNL A   1      43.451  37.190  33.523  1.00  0.00    -0.237 OA
ATOM     86  O   UNL A   1      44.020  34.805  33.350  1.00  0.00    -0.237 OA
ATOM     87  O   UNL A   1      45.742  36.406  34.041  1.00  0.00    -0.744 OA
ENDBRANCH  81  84
ENDBRANCH  53  77
BRANCH  65  88
ATOM     88  C   UNL A   1      47.874  28.553  28.942  1.00  0.00     0.023 A 
ATOM     89  C   UNL A   1      47.992  28.090  30.265  1.00  0.00     0.012 A 
ATOM     90  C   UNL A   1      48.477  27.764  27.923  1.00  0.00     0.148 A 
ATOM     91  C   UNL A   1      48.706  26.933  30.576  1.00  0.00     0.002 A 
ATOM     92  C   UNL A   1      49.091  26.557  28.228  1.00  0.00     0.091 A 
ATOM     93  F   UNL A   1      48.454  28.170  26.648  1.00  0.00    -0.205 F 
ATOM     94  C   UNL A   1      49.234  26.154  29.556  1.00  0.00     0.022 A 
BRANCH  92  95
ATOM     95  S   UNL A   1      49.582  25.387  26.952  1.00  0.00     0.127 S 
ATOM     96  O   UNL A   1      50.034  24.250  27.753  1.00  0.00    -0.237 OA
ATOM     97  O   UNL A   1      48.322  25.170  26.241  1.00  0.00    -0.237 OA
ATOM     98  O   UNL A   1      50.611  26.050  26.163  1.00  0.00    -0.744 OA
ENDBRANCH  92  95
ENDBRANCH  65  88
ENDBRANCH  39  40
ENDBRANCH  32  34
ENDBRANCH  31  32
ENDBRANCH  30  31
ENDBRANCH  29  30
ENDBRANCH  28  29
ENDBRANCH  27  28
ENDBRANCH  26  27
ENDBRANCH   1  26
TORSDOF 26
ENDMDL
MODEL 2
REMARK VINA RESULT:      -8.6      4.106      7.768
REMARK SMILES Cc1cccc(C(=O)OCCOCCOCCOCCOC(=O)c2ccc(-c3c4nc(c(-c5cccc(S(=O)(=O)[O-])c5F)c5ccc([nH]5)c(-c5cccc(S(=O)(=O)[O-])c5F)c5nc(c(-c6cccc(S(=O)(=O)[O-])c6F)c6ccc3[nH]6)C=C5)C=C4)cc2)c1OC[C@@H]1C[C@H]2CC[C@@H]1C2
REMARK SMILES IDX 15 1 14 2 13 3 12 4 11 5 10 6 9 7 7 8 8 9 6 10 1 11 2 12
REMARK SMILES IDX 3 13 87 14 4 15 5 16 88 17 89 18 90 19 91 20 95 21 92 22
REMARK SMILES IDX 94 23 96 24 93 25 16 26 17 27 18 28 19 29 20 30 21 31 22 32
REMARK SMILES IDX 23 33 24 34 25 35 86 36 26 37 85 38 27 39 28 40 29 41 79 42
REMARK SMILES IDX 30 43 84 44 78 45 80 46 31 47 83 48 77 49 76 50 32 52 64 53
REMARK SMILES IDX 44 54 63 55 45 56 48 57 62 58 81 59 46 60 47 61 61 63 82 64
REMARK SMILES IDX 49 65 33 66 34 67 42 68 35 69 37 70 43 71 36 72 38 73 39 74
REMARK SMILES IDX 40 75 41 76 65 77 66 78 74 79 67 80 69 81 75 82 68 83 70 84
REMARK SMILES IDX 71 85 72 86 73 87 50 88 51 89 59 90 52 91 54 92 60 93 53 94
REMARK SMILES IDX 55 95 56 96 57 97 58 98
REMARK H PARENT 80 51 48 62
REMARK Flexibility Score: inf
ROOT
ATOM      1  O   UNL A   1      37.827  29.951  30.283  1.00  0.00    -0.377 OA
ENDROOT
BRANCH   1   2
ATOM      2  C   UNL A   1      37.952  30.320  28.921  1.00  0.00     0.188 C 
BRANCH   2   3
ATOM      3  C   UNL A   1      36.840  30.028  27.891  1.00  0.00     0.188 C 
BRANCH   3   4
ATOM      4  O   UNL A   1      35.553  29.594  28.289  1.00  0.00    -0.376 OA
BRANCH   4   5
ATOM      5  C   UNL A   1      34.687  29.148  27.246  1.00  0.00     0.202 C 
BRANCH   5   6
ATOM      6  C   UNL A   1      33.338  29.838  27.105  1.00  0.00     0.261 C 
BRANCH   6   7
ATOM      7  O   UNL A   1      32.550  29.062  26.196  1.00  0.00    -0.460 OA
BRANCH   7   8
ATOM      8  C   UNL A   1      32.013  27.943  26.716  1.00  0.00     0.342 C 
ATOM      9  O   UNL A   1      31.181  27.833  27.591  1.00  0.00    -0.246 OA
BRANCH   8  10
ATOM     10  C   UNL A   1      32.153  26.919  25.669  1.00  0.00     0.102 A 
ATOM     11  C   UNL A   1      31.829  25.903  21.988  1.00  0.00     0.048 C 
ATOM     12  C   UNL A   1      32.073  26.001  23.463  1.00  0.00    -0.008 A 
ATOM     13  C   UNL A   1      32.264  24.719  24.061  1.00  0.00     0.007 A 
ATOM     14  C   UNL A   1      32.049  27.147  24.276  1.00  0.00     0.136 A 
ATOM     15  C   UNL A   1      32.318  24.528  25.431  1.00  0.00     0.001 A 
ATOM     16  C   UNL A   1      32.250  25.634  26.239  1.00  0.00     0.019 A 
BRANCH  14  17
ATOM     17  O   UNL A   1      31.832  28.449  23.945  1.00  0.00    -0.492 OA
BRANCH  17  18
ATOM     18  C   UNL A   1      31.159  28.995  22.807  1.00  0.00     0.233 C 
BRANCH  18  19
ATOM     19  C   UNL A   1      29.855  29.666  23.223  1.00  0.00     0.030 C 
ATOM     20  C   UNL A   1      28.592  28.783  23.316  1.00  0.00     0.011 C 
ATOM     21  C   UNL A   1      29.368  30.787  22.269  1.00  0.00    -0.004 C 
ATOM     22  C   UNL A   1      27.492  29.730  22.788  1.00  0.00    -0.010 C 
ATOM     23  C   UNL A   1      28.676  31.820  23.155  1.00  0.00     0.004 C 
ATOM     24  C   UNL A   1      28.173  30.198  21.512  1.00  0.00     0.007 C 
ATOM     25  C   UNL A   1      27.434  31.041  23.615  1.00  0.00     0.004 C 
ENDBRANCH  18  19
ENDBRANCH  17  18
ENDBRANCH  14  17
ENDBRANCH   8  10
ENDBRANCH   7   8
ENDBRANCH   6   7
ENDBRANCH   5   6
ENDBRANCH   4   5
ENDBRANCH   3   4
ENDBRANCH   2   3
ENDBRANCH   1   2
BRANCH   1  26
ATOM     26  C   UNL A   1      37.246  30.882  31.196  1.00  0.00     0.188 C 
BRANCH  26  27
ATOM     27  C   UNL A   1      37.169  32.348  30.789  1.00  0.00     0.188 C 
BRANCH  27  28
ATOM     28  O   UNL A   1      37.056  33.109  31.984  1.00  0.00    -0.376 OA
BRANCH  28  29
ATOM     29  C   UNL A   1      36.303  32.559  33.051  1.00  0.00     0.202 C 
BRANCH  29  30
ATOM     30  C   UNL A   1      36.488  33.305  34.371  1.00  0.00     0.261 C 
BRANCH  30  31
ATOM     31  O   UNL A   1      37.008  32.400  35.366  1.00  0.00    -0.460 OA
BRANCH  31  32
ATOM     32  C   UNL A   1      38.025  32.905  36.120  1.00  0.00     0.338 C 
ATOM     33  O   UNL A   1      37.947  33.949  36.751  1.00  0.00    -0.246 OA
BRANCH  32  34
ATOM     34  C   UNL A   1      39.293  32.158  35.857  1.00  0.00     0.060 A 
ATOM     35  C   UNL A   1      40.492  32.850  35.647  1.00  0.00     0.016 A 
ATOM     36  C   UNL A   1      39.225  30.823  35.493  1.00  0.00     0.016 A 
ATOM     37  C   UNL A   1      41.511  32.282  34.854  1.00  0.00     0.010 A 
ATOM     38  C   UNL A   1      40.198  30.318  34.643  1.00  0.00     0.010 A 
ATOM     39  C   UNL A   1      41.321  31.061  34.232  1.00  0.00    -0.014 A 
BRANCH  39  40
ATOM     40  C   UNL A   1      42.169  30.459  33.163  1.00  0.00     0.031 A 
ATOM     41  C   UNL A   1      41.994  31.043  31.781  1.00  0.00     0.074 A 
ATOM     42  C   UNL A   1      43.293  29.723  33.427  1.00  0.00     0.049 A 
ATOM     43  N   UNL A   1      42.842  30.948  30.819  1.00  0.00    -0.248 NA
ATOM     44  C   UNL A   1      40.856  31.882  31.397  1.00  0.00     0.031 C 
ATOM     45  C   UNL A   1      44.514  29.753  32.612  1.00  0.00     0.029 A 
ATOM     46  N   UNL A   1      43.723  28.929  34.483  1.00  0.00    -0.354 N 
ATOM     47  C   UNL A   1      42.581  31.925  29.888  1.00  0.00     0.074 A 
ATOM     48  C   UNL A   1      41.292  32.441  30.259  1.00  0.00     0.031 C 
ATOM     49  C   UNL A   1      45.521  29.065  33.165  1.00  0.00     0.029 A 
ATOM     50  C   UNL A   1      44.896  28.225  34.141  1.00  0.00     0.049 A 
ATOM     51  H   UNL A   1      43.271  28.868  35.355  1.00  0.00     0.167 HD
ATOM     52  C   UNL A   1      43.560  32.245  28.993  1.00  0.00     0.034 A 
ATOM     53  C   UNL A   1      44.925  26.861  33.986  1.00  0.00     0.034 A 
ATOM     54  C   UNL A   1      44.649  31.238  29.003  1.00  0.00     0.049 A 
ATOM     55  C   UNL A   1      45.104  26.480  32.510  1.00  0.00     0.074 A 
ATOM     56  C   UNL A   1      46.021  31.297  29.160  1.00  0.00     0.029 A 
ATOM     57  N   UNL A   1      44.336  29.871  28.976  1.00  0.00    -0.354 N 
ATOM     58  N   UNL A   1      44.751  27.271  31.524  1.00  0.00    -0.248 NA
ATOM     59  C   UNL A   1      45.874  25.333  32.019  1.00  0.00     0.031 C 
ATOM     60  C   UNL A   1      46.492  29.975  29.424  1.00  0.00     0.029 A 
ATOM     61  C   UNL A   1      45.430  29.090  29.309  1.00  0.00     0.049 A 
ATOM     62  H   UNL A   1      43.449  29.511  28.748  1.00  0.00     0.167 HD
ATOM     63  C   UNL A   1      45.352  26.885  30.362  1.00  0.00     0.074 A 
ATOM     64  C   UNL A   1      45.985  25.619  30.705  1.00  0.00     0.031 C 
ATOM     65  C   UNL A   1      45.386  27.634  29.215  1.00  0.00     0.034 A 
BRANCH  52  66
ATOM     66  C   UNL A   1      43.653  33.541  28.177  1.00  0.00     0.023 A 
ATOM     67  C   UNL A   1      44.042  33.417  26.820  1.00  0.00     0.012 A 
ATOM     68  C   UNL A   1      43.492  34.875  28.643  1.00  0.00     0.148 A 
ATOM     69  C   UNL A   1      44.278  34.518  25.986  1.00  0.00     0.002 A 
ATOM     70  C   UNL A   1      43.656  35.979  27.785  1.00  0.00     0.091 A 
ATOM     71  F   UNL A   1      43.249  35.103  29.938  1.00  0.00    -0.205 F 
ATOM     72  C   UNL A   1      44.070  35.801  26.463  1.00  0.00     0.022 A 
BRANCH  70  73
ATOM     73  S   UNL A   1      43.331  37.687  28.278  1.00  0.00     0.127 S 
ATOM     74  O   UNL A   1      43.840  38.446  27.134  1.00  0.00    -0.237 OA
ATOM     75  O   UNL A   1      41.873  37.700  28.408  1.00  0.00    -0.237 OA
ATOM     76  O   UNL A   1      44.051  37.897  29.527  1.00  0.00    -0.744 OA
ENDBRANCH  70  73
ENDBRANCH  52  66
BRANCH  53  77
ATOM     77  C   UNL A   1      44.189  26.198  35.108  1.00  0.00     0.023 A 
ATOM     78  C   UNL A   1      43.048  25.472  34.665  1.00  0.00     0.012 A 
ATOM     79  C   UNL A   1      44.928  25.690  36.189  1.00  0.00     0.148 A 
ATOM     80  C   UNL A   1      42.870  24.139  35.043  1.00  0.00     0.002 A 
ATOM     81  C   UNL A   1      44.720  24.369  36.589  1.00  0.00     0.091 A 
ATOM     82  F   UNL A   1      45.902  26.447  36.712  1.00  0.00    -0.205 F 
ATOM     83  C   UNL A   1      43.749  23.569  35.957  1.00  0.00     0.022 A 
BRANCH  81  84
ATOM     84  S   UNL A   1      45.805  23.600  37.798  1.00  0.00     0.127 S 
ATOM     85  O   UNL A   1      45.167  23.973  39.055  1.00  0.00    -0.237 OA
ATOM     86  O   UNL A   1      45.703  22.178  37.464  1.00  0.00    -0.237 OA
ATOM     87  O   UNL A   1      47.116  24.179  37.541  1.00  0.00    -0.744 OA
ENDBRANCH  81  84
ENDBRANCH  53  77
BRANCH  65  88
ATOM     88  C   UNL A   1      45.408  27.019  27.832  1.00  0.00     0.023 A 
ATOM     89  C   UNL A   1      44.261  26.392  27.314  1.00  0.00     0.012 A 
ATOM     90  C   UNL A   1      46.473  27.275  26.922  1.00  0.00     0.148 A 
ATOM     91  C   UNL A   1      44.182  25.993  25.980  1.00  0.00     0.002 A 
ATOM     92  C   UNL A   1      46.343  26.976  25.573  1.00  0.00     0.091 A 
ATOM     93  F   UNL A   1      47.618  27.819  27.354  1.00  0.00    -0.205 F 
ATOM     94  C   UNL A   1      45.212  26.307  25.104  1.00  0.00     0.022 A 
BRANCH  92  95
ATOM     95  S   UNL A   1      47.523  27.562  24.348  1.00  0.00     0.127 S 
ATOM     96  O   UNL A   1      47.719  26.365  23.531  1.00  0.00    -0.237 OA
ATOM     97  O   UNL A   1      46.769  28.630  23.691  1.00  0.00    -0.237 OA
ATOM     98  O   UNL A   1      48.691  28.019  25.088  1.00  0.00    -0.744 OA
ENDBRANCH  92  95
ENDBRANCH  65  88
ENDBRANCH  39  40
ENDBRANCH  32  34
ENDBRANCH  31  32
ENDBRANCH  30  31
ENDBRANCH  29  30
ENDBRANCH  28  29
ENDBRANCH  27  28
ENDBRANCH  26  27
ENDBRANCH   1  26
TORSDOF 26
ENDMDL
MODEL 3
REMARK VINA RESULT:      -8.5      5.490     10.062
REMARK SMILES Cc1cccc(C(=O)OCCOCCOCCOCCOC(=O)c2ccc(-c3c4nc(c(-c5cccc(S(=O)(=O)[O-])c5F)c5ccc([nH]5)c(-c5cccc(S(=O)(=O)[O-])c5F)c5nc(c(-c6cccc(S(=O)(=O)[O-])c6F)c6ccc3[nH]6)C=C5)C=C4)cc2)c1OC[C@@H]1C[C@H]2CC[C@@H]1C2
REMARK SMILES IDX 15 1 14 2 13 3 12 4 11 5 10 6 9 7 7 8 8 9 6 10 1 11 2 12
REMARK SMILES IDX 3 13 87 14 4 15 5 16 88 17 89 18 90 19 91 20 95 21 92 22
REMARK SMILES IDX 94 23 96 24 93 25 16 26 17 27 18 28 19 29 20 30 21 31 22 32
REMARK SMILES IDX 23 33 24 34 25 35 86 36 26 37 85 38 27 39 28 40 29 41 79 42
REMARK SMILES IDX 30 43 84 44 78 45 80 46 31 47 83 48 77 49 76 50 32 52 64 53
REMARK SMILES IDX 44 54 63 55 45 56 48 57 62 58 81 59 46 60 47 61 61 63 82 64
REMARK SMILES IDX 49 65 33 66 34 67 42 68 35 69 37 70 43 71 36 72 38 73 39 74
REMARK SMILES IDX 40 75 41 76 65 77 66 78 74 79 67 80 69 81 75 82 68 83 70 84
REMARK SMILES IDX 71 85 72 86 73 87 50 88 51 89 59 90 52 91 54 92 60 93 53 94
REMARK SMILES IDX 55 95 56 96 57 97 58 98
REMARK H PARENT 80 51 48 62
REMARK Flexibility Score: inf
ROOT
ATOM      1  O   UNL A   1      42.235  35.635  35.458  1.00  0.00    -0.377 OA
ENDROOT
BRANCH   1   2
ATOM      2  C   UNL A   1      41.208  34.711  35.144  1.00  0.00     0.188 C 
BRANCH   2   3
ATOM      3  C   UNL A   1      39.872  35.157  34.514  1.00  0.00     0.188 C 
BRANCH   3   4
ATOM      4  O   UNL A   1      39.505  34.777  33.201  1.00  0.00    -0.376 OA
BRANCH   4   5
ATOM      5  C   UNL A   1      38.222  34.167  33.056  1.00  0.00     0.202 C 
BRANCH   5   6
ATOM      6  C   UNL A   1      37.306  34.154  34.271  1.00  0.00     0.261 C 
BRANCH   6   7
ATOM      7  O   UNL A   1      36.137  34.911  33.937  1.00  0.00    -0.460 OA
BRANCH   7   8
ATOM      8  C   UNL A   1      35.089  34.184  33.507  1.00  0.00     0.342 C 
ATOM      9  O   UNL A   1      34.542  33.245  34.044  1.00  0.00    -0.246 OA
BRANCH   8  10
ATOM     10  C   UNL A   1      34.355  35.065  32.586  1.00  0.00     0.102 A 
ATOM     11  C   UNL A   1      32.923  35.721  29.092  1.00  0.00     0.048 C 
ATOM     12  C   UNL A   1      33.344  35.748  30.529  1.00  0.00    -0.008 A 
ATOM     13  C   UNL A   1      33.216  37.049  31.100  1.00  0.00     0.007 A 
ATOM     14  C   UNL A   1      33.897  34.707  31.295  1.00  0.00     0.136 A 
ATOM     15  C   UNL A   1      33.715  37.375  32.350  1.00  0.00     0.001 A 
ATOM     16  C   UNL A   1      34.298  36.379  33.092  1.00  0.00     0.019 A 
BRANCH  14  17
ATOM     17  O   UNL A   1      34.164  33.417  30.954  1.00  0.00    -0.492 OA
BRANCH  17  18
ATOM     18  C   UNL A   1      34.900  32.909  29.836  1.00  0.00     0.233 C 
BRANCH  18  19
ATOM     19  C   UNL A   1      36.277  32.424  30.274  1.00  0.00     0.030 C 
ATOM     20  C   UNL A   1      37.512  33.114  29.654  1.00  0.00     0.011 C 
ATOM     21  C   UNL A   1      36.574  30.936  29.957  1.00  0.00    -0.004 C 
ATOM     22  C   UNL A   1      38.494  31.934  29.484  1.00  0.00    -0.010 C 
ATOM     23  C   UNL A   1      37.461  30.433  31.093  1.00  0.00     0.004 C 
ATOM     24  C   UNL A   1      37.566  30.950  28.789  1.00  0.00     0.007 C 
ATOM     25  C   UNL A   1      38.756  31.221  30.836  1.00  0.00     0.004 C 
ENDBRANCH  18  19
ENDBRANCH  17  18
ENDBRANCH  14  17
ENDBRANCH   8  10
ENDBRANCH   7   8
ENDBRANCH   6   7
ENDBRANCH   5   6
ENDBRANCH   4   5
ENDBRANCH   3   4
ENDBRANCH   2   3
ENDBRANCH   1   2
BRANCH   1  26
ATOM     26  C   UNL A   1      42.522  36.683  34.532  1.00  0.00     0.188 C 
BRANCH  26  27
ATOM     27  C   UNL A   1      43.869  36.676  33.821  1.00  0.00     0.188 C 
BRANCH  27  28
ATOM     28  O   UNL A   1      43.612  36.838  32.433  1.00  0.00    -0.376 OA
BRANCH  28  29
ATOM     29  C   UNL A   1      44.448  37.719  31.703  1.00  0.00     0.202 C 
BRANCH  29  30
ATOM     30  C   UNL A   1      43.921  38.033  30.304  1.00  0.00     0.261 C 
BRANCH  30  31
ATOM     31  O   UNL A   1      44.047  36.863  29.470  1.00  0.00    -0.460 OA
BRANCH  31  32
ATOM     32  C   UNL A   1      42.908  36.511  28.807  1.00  0.00     0.338 C 
ATOM     33  O   UNL A   1      42.156  37.314  28.277  1.00  0.00    -0.246 OA
BRANCH  32  34
ATOM     34  C   UNL A   1      42.588  35.069  29.047  1.00  0.00     0.060 A 
ATOM     35  C   UNL A   1      41.610  34.708  29.982  1.00  0.00     0.016 A 
ATOM     36  C   UNL A   1      43.472  34.100  28.604  1.00  0.00     0.016 A 
ATOM     37  C   UNL A   1      41.687  33.465  30.645  1.00  0.00     0.010 A 
ATOM     38  C   UNL A   1      43.583  32.923  29.329  1.00  0.00     0.010 A 
ATOM     39  C   UNL A   1      42.751  32.611  30.421  1.00  0.00    -0.014 A 
BRANCH  39  40
ATOM     40  C   UNL A   1      43.120  31.410  31.224  1.00  0.00     0.031 A 
ATOM     41  C   UNL A   1      43.655  31.685  32.609  1.00  0.00     0.074 A 
ATOM     42  C   UNL A   1      42.667  30.151  30.934  1.00  0.00     0.049 A 
ATOM     43  N   UNL A   1      43.687  30.839  33.578  1.00  0.00    -0.248 NA
ATOM     44  C   UNL A   1      44.126  33.002  33.046  1.00  0.00     0.031 C 
ATOM     45  C   UNL A   1      42.313  29.144  31.943  1.00  0.00     0.029 A 
ATOM     46  N   UNL A   1      42.259  29.493  29.779  1.00  0.00    -0.354 N 
ATOM     47  C   UNL A   1      43.818  31.519  34.766  1.00  0.00     0.074 A 
ATOM     48  C   UNL A   1      44.155  32.861  34.378  1.00  0.00     0.031 C 
ATOM     49  C   UNL A   1      41.751  28.052  31.408  1.00  0.00     0.029 A 
ATOM     50  C   UNL A   1      42.085  28.115  30.017  1.00  0.00     0.049 A 
ATOM     51  H   UNL A   1      42.111  29.932  28.911  1.00  0.00     0.167 HD
ATOM     52  C   UNL A   1      43.502  30.867  35.922  1.00  0.00     0.034 A 
ATOM     53  C   UNL A   1      42.901  27.157  29.468  1.00  0.00     0.034 A 
ATOM     54  C   UNL A   1      43.357  29.408  35.696  1.00  0.00     0.049 A 
ATOM     55  C   UNL A   1      43.793  26.515  30.540  1.00  0.00     0.074 A 
ATOM     56  C   UNL A   1      42.366  28.481  35.958  1.00  0.00     0.029 A 
ATOM     57  N   UNL A   1      44.323  28.718  34.950  1.00  0.00    -0.354 N 
ATOM     58  N   UNL A   1      44.115  27.127  31.656  1.00  0.00    -0.248 NA
ATOM     59  C   UNL A   1      44.199  25.107  30.572  1.00  0.00     0.031 C 
ATOM     60  C   UNL A   1      42.651  27.304  35.202  1.00  0.00     0.029 A 
ATOM     61  C   UNL A   1      43.877  27.463  34.572  1.00  0.00     0.049 A 
ATOM     62  H   UNL A   1      45.209  29.081  34.722  1.00  0.00     0.167 HD
ATOM     63  C   UNL A   1      44.572  26.232  32.578  1.00  0.00     0.074 A 
ATOM     64  C   UNL A   1      44.681  24.989  31.827  1.00  0.00     0.031 C 
ATOM     65  C   UNL A   1      44.757  26.507  33.908  1.00  0.00     0.034 A 
BRANCH  52  66
ATOM     66  C   UNL A   1      43.169  31.522  37.270  1.00  0.00     0.023 A 
ATOM     67  C   UNL A   1      44.191  31.520  38.252  1.00  0.00     0.012 A 
ATOM     68  C   UNL A   1      41.919  32.049  37.695  1.00  0.00     0.148 A 
ATOM     69  C   UNL A   1      43.996  31.979  39.562  1.00  0.00     0.002 A 
ATOM     70  C   UNL A   1      41.745  32.580  38.987  1.00  0.00     0.091 A 
ATOM     71  F   UNL A   1      40.857  31.983  36.883  1.00  0.00    -0.205 F 
ATOM     72  C   UNL A   1      42.777  32.524  39.926  1.00  0.00     0.022 A 
BRANCH  70  73
ATOM     73  S   UNL A   1      40.228  33.389  39.541  1.00  0.00     0.127 S 
ATOM     74  O   UNL A   1      39.255  32.297  39.499  1.00  0.00    -0.237 OA
ATOM     75  O   UNL A   1      40.584  33.826  40.892  1.00  0.00    -0.237 OA
ATOM     76  O   UNL A   1      39.976  34.476  38.602  1.00  0.00    -0.744 OA
ENDBRANCH  70  73
ENDBRANCH  52  66
BRANCH  53  77
ATOM     77  C   UNL A   1      43.129  27.443  28.018  1.00  0.00     0.023 A 
ATOM     78  C   UNL A   1      41.917  27.642  27.298  1.00  0.00     0.012 A 
ATOM     79  C   UNL A   1      44.257  28.193  27.649  1.00  0.00     0.148 A 
ATOM     80  C   UNL A   1      41.748  28.779  26.503  1.00  0.00     0.002 A 
ATOM     81  C   UNL A   1      44.089  29.307  26.824  1.00  0.00     0.091 A 
ATOM     82  F   UNL A   1      45.436  27.896  28.212  1.00  0.00    -0.205 F 
ATOM     83  C   UNL A   1      42.819  29.646  26.322  1.00  0.00     0.022 A 
BRANCH  81  84
ATOM     84  S   UNL A   1      45.455  30.436  26.525  1.00  0.00     0.127 S 
ATOM     85  O   UNL A   1      46.235  29.709  25.530  1.00  0.00    -0.237 OA
ATOM     86  O   UNL A   1      44.780  31.630  26.014  1.00  0.00    -0.237 OA
ATOM     87  O   UNL A   1      46.078  30.617  27.828  1.00  0.00    -0.744 OA
ENDBRANCH  81  84
ENDBRANCH  53  77
BRANCH  65  88
ATOM     88  C   UNL A   1      45.828  25.840  34.744  1.00  0.00     0.023 A 
ATOM     89  C   UNL A   1      47.149  26.322  34.724  1.00  0.00     0.012 A 
ATOM     90  C   UNL A   1      45.498  24.895  35.756  1.00  0.00     0.148 A 
ATOM     91  C   UNL A   1      48.111  25.863  35.624  1.00  0.00     0.002 A 
ATOM     92  C   UNL A   1      46.431  24.526  36.716  1.00  0.00     0.091 A 
ATOM     93  F   UNL A   1      44.276  24.350  35.803  1.00  0.00    -0.205 F 
ATOM     94  C   UNL A   1      47.747  24.985  36.634  1.00  0.00     0.022 A 
BRANCH  92  95
ATOM     95  S   UNL A   1      45.972  23.588  38.181  1.00  0.00     0.127 S 
ATOM     96  O   UNL A   1      44.799  24.326  38.648  1.00  0.00    -0.237 OA
ATOM     97  O   UNL A   1      45.679  22.271  37.616  1.00  0.00    -0.237 OA
ATOM     98  O   UNL A   1      47.128  23.619  39.066  1.00  0.00    -0.744 OA
ENDBRANCH  92  95
ENDBRANCH  65  88
ENDBRANCH  39  40
ENDBRANCH  32  34
ENDBRANCH  31  32
ENDBRANCH  30  31
ENDBRANCH  29  30
ENDBRANCH  28  29
ENDBRANCH  27  28
ENDBRANCH  26  27
ENDBRANCH   1  26
TORSDOF 26
ENDMDL
