MODEL 1
REMARK VINA RESULT:     -10.7      0.000      0.000
REMARK SMILES O=C(C[C@H](NC(=O)[C@]12C[C@H]3C[C@H](C[C@H](C3)C1)C2)c1ccc(Cl)cc1Cl)OCCOCCOCCOCCOC(=O)c1ccc(-c2c3nc(c(-c4cccc(S(=O)(=O)[O-])c4F)c4ccc([nH]4)c(-c4cccc(S(=O)(=O)[O-])c4F)c4nc(c(-c5cccc(S(=O)(=O)[O-])c5F)c5ccc2[nH]5)C=C4)C=C3)cc1
REMARK SMILES IDX 32 1 31 2 30 3 29 4 28 5 27 6 26 7 2 8 1 9 3 10 4 11 18 12
REMARK SMILES IDX 19 13 24 14 20 15 23 16 25 17 21 18 22 19 5 20 6 21 7 23
REMARK SMILES IDX 8 24 9 25 16 26 17 27 10 28 14 29 12 30 11 31 15 32 13 33
REMARK SMILES IDX 33 34 34 35 35 36 36 37 37 38 38 39 39 40 40 41 41 42 42 43
REMARK SMILES IDX 103 44 43 45 102 46 44 47 45 48 46 49 96 50 47 51 101 52
REMARK SMILES IDX 95 53 97 54 48 55 100 56 94 57 93 58 49 60 81 61 61 62 80 63
REMARK SMILES IDX 62 64 65 65 79 66 98 67 63 68 64 69 78 71 99 72 66 73 50 74
REMARK SMILES IDX 51 75 59 76 52 77 54 78 60 79 53 80 55 81 56 82 57 83 58 84
REMARK SMILES IDX 82 85 83 86 91 87 84 88 86 89 92 90 85 91 87 92 88 93 89 94
REMARK SMILES IDX 90 95 67 96 68 97 76 98 69 99 71 100 77 101 70 102 72 103
REMARK SMILES IDX 73 104 74 105 75 106
REMARK H PARENT 5 22 97 59 65 70
REMARK Flexibility Score: inf
ROOT
ATOM      1  O   UNL A   1      33.956  28.342  26.445  1.00  0.00    -0.377 OA
ENDROOT
BRANCH   1   2
ATOM      2  C   UNL A   1      33.550  27.246  25.659  1.00  0.00     0.188 C 
BRANCH   2   3
ATOM      3  C   UNL A   1      33.194  27.372  24.164  1.00  0.00     0.188 C 
BRANCH   3   4
ATOM      4  O   UNL A   1      33.730  26.658  23.065  1.00  0.00    -0.376 OA
BRANCH   4   5
ATOM      5  C   UNL A   1      33.047  25.954  22.051  1.00  0.00     0.202 C 
BRANCH   5   6
ATOM      6  C   UNL A   1      32.450  24.559  22.237  1.00  0.00     0.261 C 
BRANCH   6   7
ATOM      7  O   UNL A   1      31.251  24.466  23.006  1.00  0.00    -0.463 OA
BRANCH   7   8
ATOM      8  C   UNL A   1      31.279  23.690  24.124  1.00  0.00     0.308 C 
ATOM      9  O   UNL A   1      31.028  24.144  25.230  1.00  0.00    -0.252 OA
BRANCH   8  10
ATOM     10  C   UNL A   1      31.857  22.316  23.901  1.00  0.00     0.152 C 
BRANCH  10  11
ATOM     11  C   UNL A   1      31.807  21.411  25.102  1.00  0.00     0.125 C 
BRANCH  11  12
ATOM     12  C   UNL A   1      32.197  20.006  24.620  1.00  0.00    -0.006 A 
ATOM     13  C   UNL A   1      32.629  19.025  25.522  1.00  0.00     0.009 A 
ATOM     14  C   UNL A   1      32.316  19.719  23.235  1.00  0.00     0.047 A 
ATOM     15  C   UNL A   1      33.226  17.843  25.071  1.00  0.00     0.021 A 
ATOM     16  C   UNL A   1      32.929  18.546  22.785  1.00  0.00     0.041 A 
ATOM     17  Cl  UNL A   1      31.758  20.812  22.011  1.00  0.00    -0.084 Cl
ATOM     18  C   UNL A   1      33.393  17.620  23.708  1.00  0.00     0.042 A 
ATOM     19  Cl  UNL A   1      34.181  16.191  23.162  1.00  0.00    -0.084 Cl
ENDBRANCH  11  12
BRANCH  11  20
ATOM     20  N   UNL A   1      32.535  21.884  26.296  1.00  0.00    -0.348 N 
ATOM     21  C   UNL A   1      33.745  22.276  26.753  1.00  0.00     0.226 C 
ATOM     22  H   UNL A   1      31.896  21.933  27.044  1.00  0.00     0.164 HD
ATOM     23  O   UNL A   1      33.697  22.570  27.961  1.00  0.00    -0.274 OA
BRANCH  21  24
ATOM     24  C   UNL A   1      35.123  22.366  26.019  1.00  0.00     0.050 C 
ATOM     25  C   UNL A   1      36.284  22.724  26.972  1.00  0.00     0.020 C 
ATOM     26  C   UNL A   1      35.011  23.556  24.992  1.00  0.00     0.020 C 
ATOM     27  C   UNL A   1      35.492  21.140  25.150  1.00  0.00     0.020 C 
ATOM     28  C   UNL A   1      37.599  22.961  26.202  1.00  0.00    -0.010 C 
ATOM     29  C   UNL A   1      36.318  23.795  24.217  1.00  0.00    -0.010 C 
ATOM     30  C   UNL A   1      36.835  21.355  24.411  1.00  0.00    -0.010 C 
ATOM     31  C   UNL A   1      37.955  21.702  25.405  1.00  0.00     0.007 C 
ATOM     32  C   UNL A   1      37.430  24.126  25.221  1.00  0.00     0.007 C 
ATOM     33  C   UNL A   1      36.688  22.526  23.434  1.00  0.00     0.007 C 
ENDBRANCH  21  24
ENDBRANCH  11  20
ENDBRANCH  10  11
ENDBRANCH   8  10
ENDBRANCH   7   8
ENDBRANCH   6   7
ENDBRANCH   5   6
ENDBRANCH   4   5
ENDBRANCH   3   4
ENDBRANCH   2   3
ENDBRANCH   1   2
BRANCH   1  34
ATOM     34  C   UNL A   1      33.314  29.552  26.131  1.00  0.00     0.188 C 
BRANCH  34  35
ATOM     35  C   UNL A   1      32.476  30.089  27.304  1.00  0.00     0.188 C 
BRANCH  35  36
ATOM     36  O   UNL A   1      31.346  30.844  26.865  1.00  0.00    -0.376 OA
BRANCH  36  37
ATOM     37  C   UNL A   1      31.605  32.163  26.401  1.00  0.00     0.202 C 
BRANCH  37  38
ATOM     38  C   UNL A   1      32.147  33.196  27.403  1.00  0.00     0.261 C 
BRANCH  38  39
ATOM     39  O   UNL A   1      33.519  33.583  27.258  1.00  0.00    -0.460 OA
BRANCH  39  40
ATOM     40  C   UNL A   1      34.145  34.202  28.279  1.00  0.00     0.338 C 
ATOM     41  O   UNL A   1      33.772  35.202  28.869  1.00  0.00    -0.246 OA
BRANCH  40  42
ATOM     42  C   UNL A   1      35.215  33.278  28.729  1.00  0.00     0.060 A 
ATOM     43  C   UNL A   1      34.874  31.953  29.050  1.00  0.00     0.016 A 
ATOM     44  C   UNL A   1      36.558  33.666  28.668  1.00  0.00     0.016 A 
ATOM     45  C   UNL A   1      35.879  31.007  29.274  1.00  0.00     0.010 A 
ATOM     46  C   UNL A   1      37.558  32.737  28.953  1.00  0.00     0.010 A 
ATOM     47  C   UNL A   1      37.222  31.411  29.276  1.00  0.00    -0.014 A 
BRANCH  47  48
ATOM     48  C   UNL A   1      38.239  30.577  29.953  1.00  0.00     0.031 A 
ATOM     49  C   UNL A   1      38.521  30.921  31.389  1.00  0.00     0.074 A 
ATOM     50  C   UNL A   1      38.957  29.638  29.315  1.00  0.00     0.049 A 
ATOM     51  N   UNL A   1      39.443  30.464  32.190  1.00  0.00    -0.248 NA
ATOM     52  C   UNL A   1      37.643  31.938  31.997  1.00  0.00     0.031 C 
ATOM     53  C   UNL A   1      38.780  29.231  27.923  1.00  0.00     0.029 A 
ATOM     54  N   UNL A   1      40.026  28.894  29.753  1.00  0.00    -0.354 N 
ATOM     55  C   UNL A   1      39.281  31.167  33.376  1.00  0.00     0.074 A 
ATOM     56  C   UNL A   1      38.171  32.071  33.199  1.00  0.00     0.031 C 
ATOM     57  C   UNL A   1      39.746  28.350  27.603  1.00  0.00     0.029 A 
ATOM     58  C   UNL A   1      40.626  28.160  28.757  1.00  0.00     0.049 A 
ATOM     59  H   UNL A   1      40.331  28.886  30.689  1.00  0.00     0.167 HD
ATOM     60  C   UNL A   1      40.001  31.080  34.517  1.00  0.00     0.034 A 
ATOM     61  C   UNL A   1      41.779  27.458  28.769  1.00  0.00     0.034 A 
ATOM     62  C   UNL A   1      41.122  30.206  34.680  1.00  0.00     0.049 A 
ATOM     63  C   UNL A   1      42.582  27.383  30.044  1.00  0.00     0.074 A 
ATOM     64  C   UNL A   1      41.895  30.000  35.805  1.00  0.00     0.029 A 
ATOM     65  N   UNL A   1      41.653  29.416  33.671  1.00  0.00    -0.354 N 
ATOM     66  N   UNL A   1      42.340  27.944  31.206  1.00  0.00    -0.248 NA
ATOM     67  C   UNL A   1      43.801  26.561  30.022  1.00  0.00     0.031 C 
ATOM     68  C   UNL A   1      42.919  29.110  35.467  1.00  0.00     0.029 A 
ATOM     69  C   UNL A   1      42.756  28.731  34.142  1.00  0.00     0.049 A 
ATOM     70  H   UNL A   1      41.297  29.354  32.755  1.00  0.00     0.167 HD
ATOM     71  C   UNL A   1      43.352  27.516  32.059  1.00  0.00     0.074 A 
ATOM     72  C   UNL A   1      44.208  26.641  31.284  1.00  0.00     0.031 C 
ATOM     73  C   UNL A   1      43.560  27.821  33.365  1.00  0.00     0.034 A 
BRANCH  60  74
ATOM     74  C   UNL A   1      39.588  31.976  35.651  1.00  0.00     0.023 A 
ATOM     75  C   UNL A   1      40.157  33.261  35.773  1.00  0.00     0.012 A 
ATOM     76  C   UNL A   1      38.657  31.536  36.608  1.00  0.00     0.148 A 
ATOM     77  C   UNL A   1      39.840  34.075  36.859  1.00  0.00     0.002 A 
ATOM     78  C   UNL A   1      38.308  32.374  37.660  1.00  0.00     0.091 A 
ATOM     79  F   UNL A   1      38.160  30.296  36.498  1.00  0.00    -0.205 F 
ATOM     80  C   UNL A   1      38.908  33.635  37.796  1.00  0.00     0.022 A 
BRANCH  78  81
ATOM     81  S   UNL A   1      37.060  31.922  38.869  1.00  0.00     0.127 S 
ATOM     82  O   UNL A   1      35.928  32.747  38.448  1.00  0.00    -0.237 OA
ATOM     83  O   UNL A   1      36.895  30.489  38.621  1.00  0.00    -0.237 OA
ATOM     84  O   UNL A   1      37.629  32.248  40.168  1.00  0.00    -0.744 OA
ENDBRANCH  78  81
ENDBRANCH  60  74
BRANCH  61  85
ATOM     85  C   UNL A   1      42.236  26.767  27.530  1.00  0.00     0.023 A 
ATOM     86  C   UNL A   1      42.891  27.499  26.521  1.00  0.00     0.012 A 
ATOM     87  C   UNL A   1      42.063  25.377  27.365  1.00  0.00     0.148 A 
ATOM     88  C   UNL A   1      43.351  26.865  25.365  1.00  0.00     0.002 A 
ATOM     89  C   UNL A   1      42.570  24.744  26.237  1.00  0.00     0.091 A 
ATOM     90  F   UNL A   1      41.423  24.702  28.330  1.00  0.00    -0.205 F 
ATOM     91  C   UNL A   1      43.202  25.488  25.229  1.00  0.00     0.022 A 
BRANCH  89  92
ATOM     92  S   UNL A   1      42.534  22.959  26.028  1.00  0.00     0.127 S 
ATOM     93  O   UNL A   1      43.034  22.808  24.664  1.00  0.00    -0.237 OA
ATOM     94  O   UNL A   1      43.455  22.521  27.075  1.00  0.00    -0.237 OA
ATOM     95  O   UNL A   1      41.148  22.565  26.235  1.00  0.00    -0.744 OA
ENDBRANCH  89  92
ENDBRANCH  61  85
BRANCH  73  96
ATOM     96  C   UNL A   1      44.720  27.174  34.073  1.00  0.00     0.023 A 
ATOM     97  C   UNL A   1      45.986  27.791  34.066  1.00  0.00     0.012 A 
ATOM     98  C   UNL A   1      44.513  26.023  34.861  1.00  0.00     0.148 A 
ATOM     99  C   UNL A   1      47.033  27.261  34.819  1.00  0.00     0.002 A 
ATOM    100  C   UNL A   1      45.546  25.531  35.648  1.00  0.00     0.091 A 
ATOM    101  F   UNL A   1      43.302  25.446  34.841  1.00  0.00    -0.205 F 
ATOM    102  C   UNL A   1      46.809  26.142  35.621  1.00  0.00     0.022 A 
BRANCH 100 103
ATOM    103  S   UNL A   1      45.317  24.164  36.791  1.00  0.00     0.127 S 
ATOM    104  O   UNL A   1      44.813  23.116  35.905  1.00  0.00    -0.237 OA
ATOM    105  O   UNL A   1      46.676  23.943  37.285  1.00  0.00    -0.237 OA
ATOM    106  O   UNL A   1      44.376  24.633  37.799  1.00  0.00    -0.744 OA
ENDBRANCH 100 103
ENDBRANCH  73  96
ENDBRANCH  47  48
ENDBRANCH  40  42
ENDBRANCH  39  40
ENDBRANCH  38  39
ENDBRANCH  37  38
ENDBRANCH  36  37
ENDBRANCH  35  36
ENDBRANCH  34  35
ENDBRANCH   1  34
TORSDOF 27
ENDMDL
MODEL 2
REMARK VINA RESULT:      -9.3      1.615      2.065
REMARK SMILES O=C(C[C@H](NC(=O)[C@]12C[C@H]3C[C@H](C[C@H](C3)C1)C2)c1ccc(Cl)cc1Cl)OCCOCCOCCOCCOC(=O)c1ccc(-c2c3nc(c(-c4cccc(S(=O)(=O)[O-])c4F)c4ccc([nH]4)c(-c4cccc(S(=O)(=O)[O-])c4F)c4nc(c(-c5cccc(S(=O)(=O)[O-])c5F)c5ccc2[nH]5)C=C4)C=C3)cc1
REMARK SMILES IDX 32 1 31 2 30 3 29 4 28 5 27 6 26 7 2 8 1 9 3 10 4 11 18 12
REMARK SMILES IDX 19 13 24 14 20 15 23 16 25 17 21 18 22 19 5 20 6 21 7 23
REMARK SMILES IDX 8 24 9 25 16 26 17 27 10 28 14 29 12 30 11 31 15 32 13 33
REMARK SMILES IDX 33 34 34 35 35 36 36 37 37 38 38 39 39 40 40 41 41 42 42 43
REMARK SMILES IDX 103 44 43 45 102 46 44 47 45 48 46 49 96 50 47 51 101 52
REMARK SMILES IDX 95 53 97 54 48 55 100 56 94 57 93 58 49 60 81 61 61 62 80 63
REMARK SMILES IDX 62 64 65 65 79 66 98 67 63 68 64 69 78 71 99 72 66 73 50 74
REMARK SMILES IDX 51 75 59 76 52 77 54 78 60 79 53 80 55 81 56 82 57 83 58 84
REMARK SMILES IDX 82 85 83 86 91 87 84 88 86 89 92 90 85 91 87 92 88 93 89 94
REMARK SMILES IDX 90 95 67 96 68 97 76 98 69 99 71 100 77 101 70 102 72 103
REMARK SMILES IDX 73 104 74 105 75 106
REMARK H PARENT 5 22 97 59 65 70
REMARK Flexibility Score: inf
ROOT
ATOM      1  O   UNL A   1      32.669  28.048  26.224  1.00  0.00    -0.377 OA
ENDROOT
BRANCH   1   2
ATOM      2  C   UNL A   1      32.660  27.099  25.183  1.00  0.00     0.188 C 
BRANCH   2   3
ATOM      3  C   UNL A   1      33.172  27.408  23.761  1.00  0.00     0.188 C 
BRANCH   3   4
ATOM      4  O   UNL A   1      33.836  26.548  22.854  1.00  0.00    -0.376 OA
BRANCH   4   5
ATOM      5  C   UNL A   1      33.293  25.792  21.794  1.00  0.00     0.202 C 
BRANCH   5   6
ATOM      6  C   UNL A   1      32.356  24.601  21.990  1.00  0.00     0.261 C 
BRANCH   6   7
ATOM      7  O   UNL A   1      31.148  24.839  22.712  1.00  0.00    -0.463 OA
BRANCH   7   8
ATOM      8  C   UNL A   1      30.870  24.018  23.762  1.00  0.00     0.308 C 
ATOM      9  O   UNL A   1      30.464  24.453  24.830  1.00  0.00    -0.252 OA
BRANCH   8  10
ATOM     10  C   UNL A   1      31.318  22.594  23.561  1.00  0.00     0.152 C 
BRANCH  10  11
ATOM     11  C   UNL A   1      31.632  21.849  24.830  1.00  0.00     0.125 C 
BRANCH  11  12
ATOM     12  C   UNL A   1      32.334  20.545  24.421  1.00  0.00    -0.006 A 
ATOM     13  C   UNL A   1      32.343  20.115  23.087  1.00  0.00     0.009 A 
ATOM     14  C   UNL A   1      32.827  19.646  25.401  1.00  0.00     0.047 A 
ATOM     15  C   UNL A   1      32.748  18.820  22.750  1.00  0.00     0.021 A 
ATOM     16  C   UNL A   1      33.215  18.345  25.067  1.00  0.00     0.041 A 
ATOM     17  Cl  UNL A   1      32.939  20.073  27.078  1.00  0.00    -0.084 Cl
ATOM     18  C   UNL A   1      33.161  17.936  23.743  1.00  0.00     0.042 A 
ATOM     19  Cl  UNL A   1      33.602  16.325  23.329  1.00  0.00    -0.084 Cl
ENDBRANCH  11  12
BRANCH  11  20
ATOM     20  N   UNL A   1      32.322  22.625  25.879  1.00  0.00    -0.348 N 
ATOM     21  C   UNL A   1      33.522  23.113  26.264  1.00  0.00     0.226 C 
ATOM     22  H   UNL A   1      31.655  22.886  26.554  1.00  0.00     0.164 HD
ATOM     23  O   UNL A   1      33.432  23.731  27.341  1.00  0.00    -0.274 OA
BRANCH  21  24
ATOM     24  C   UNL A   1      34.930  22.981  25.598  1.00  0.00     0.050 C 
ATOM     25  C   UNL A   1      34.855  22.889  24.058  1.00  0.00     0.020 C 
ATOM     26  C   UNL A   1      35.537  21.612  26.093  1.00  0.00     0.020 C 
ATOM     27  C   UNL A   1      35.970  24.042  26.028  1.00  0.00     0.020 C 
ATOM     28  C   UNL A   1      36.237  22.601  23.438  1.00  0.00    -0.010 C 
ATOM     29  C   UNL A   1      36.918  21.322  25.481  1.00  0.00    -0.010 C 
ATOM     30  C   UNL A   1      37.347  23.783  25.371  1.00  0.00    -0.010 C 
ATOM     31  C   UNL A   1      37.216  23.708  23.842  1.00  0.00     0.007 C 
ATOM     32  C   UNL A   1      36.776  21.263  23.954  1.00  0.00     0.007 C 
ATOM     33  C   UNL A   1      37.896  22.442  25.868  1.00  0.00     0.007 C 
ENDBRANCH  21  24
ENDBRANCH  11  20
ENDBRANCH  10  11
ENDBRANCH   8  10
ENDBRANCH   7   8
ENDBRANCH   6   7
ENDBRANCH   5   6
ENDBRANCH   4   5
ENDBRANCH   3   4
ENDBRANCH   2   3
ENDBRANCH   1   2
BRANCH   1  34
ATOM     34  C   UNL A   1      32.333  29.352  25.824  1.00  0.00     0.188 C 
BRANCH  34  35
ATOM     35  C   UNL A   1      32.130  30.296  27.022  1.00  0.00     0.188 C 
BRANCH  35  36
ATOM     36  O   UNL A   1      31.049  31.208  26.820  1.00  0.00    -0.376 OA
BRANCH  36  37
ATOM     37  C   UNL A   1      31.395  32.517  26.385  1.00  0.00     0.202 C 
BRANCH  37  38
ATOM     38  C   UNL A   1      32.219  33.405  27.332  1.00  0.00     0.261 C 
BRANCH  38  39
ATOM     39  O   UNL A   1      33.568  33.000  27.592  1.00  0.00    -0.460 OA
BRANCH  39  40
ATOM     40  C   UNL A   1      34.383  33.816  28.292  1.00  0.00     0.338 C 
ATOM     41  O   UNL A   1      34.132  34.943  28.683  1.00  0.00    -0.246 OA
BRANCH  40  42
ATOM     42  C   UNL A   1      35.524  32.977  28.736  1.00  0.00     0.060 A 
ATOM     43  C   UNL A   1      35.320  31.598  28.915  1.00  0.00     0.016 A 
ATOM     44  C   UNL A   1      36.813  33.516  28.807  1.00  0.00     0.016 A 
ATOM     45  C   UNL A   1      36.413  30.752  29.129  1.00  0.00     0.010 A 
ATOM     46  C   UNL A   1      37.896  32.681  29.083  1.00  0.00     0.010 A 
ATOM     47  C   UNL A   1      37.697  31.301  29.264  1.00  0.00    -0.014 A 
BRANCH  47  48
ATOM     48  C   UNL A   1      38.761  30.523  29.939  1.00  0.00     0.031 A 
ATOM     49  C   UNL A   1      39.088  30.941  31.345  1.00  0.00     0.074 A 
ATOM     50  C   UNL A   1      39.478  29.573  29.316  1.00  0.00     0.049 A 
ATOM     51  N   UNL A   1      40.052  30.546  32.128  1.00  0.00    -0.248 NA
ATOM     52  C   UNL A   1      38.208  31.965  31.939  1.00  0.00     0.031 C 
ATOM     53  C   UNL A   1      39.257  29.097  27.953  1.00  0.00     0.029 A 
ATOM     54  N   UNL A   1      40.581  28.877  29.745  1.00  0.00    -0.354 N 
ATOM     55  C   UNL A   1      39.917  31.300  33.287  1.00  0.00     0.074 A 
ATOM     56  C   UNL A   1      38.778  32.167  33.112  1.00  0.00     0.031 C 
ATOM     57  C   UNL A   1      40.233  28.225  27.635  1.00  0.00     0.029 A 
ATOM     58  C   UNL A   1      41.161  28.111  28.761  1.00  0.00     0.049 A 
ATOM     59  H   UNL A   1      40.922  28.920  30.668  1.00  0.00     0.167 HD
ATOM     60  C   UNL A   1      40.682  31.283  34.401  1.00  0.00     0.034 A 
ATOM     61  C   UNL A   1      42.331  27.438  28.761  1.00  0.00     0.034 A 
ATOM     62  C   UNL A   1      41.831  30.445  34.560  1.00  0.00     0.049 A 
ATOM     63  C   UNL A   1      43.185  27.443  30.005  1.00  0.00     0.074 A 
ATOM     64  C   UNL A   1      42.652  30.311  35.662  1.00  0.00     0.029 A 
ATOM     65  N   UNL A   1      42.343  29.621  33.568  1.00  0.00    -0.354 N 
ATOM     66  N   UNL A   1      42.972  28.051  31.149  1.00  0.00    -0.248 NA
ATOM     67  C   UNL A   1      44.422  26.649  29.973  1.00  0.00     0.031 C 
ATOM     68  C   UNL A   1      43.684  29.430  35.325  1.00  0.00     0.029 A 
ATOM     69  C   UNL A   1      43.481  28.986  34.026  1.00  0.00     0.049 A 
ATOM     70  H   UNL A   1      41.954  29.507  32.671  1.00  0.00     0.167 HD
ATOM     71  C   UNL A   1      44.027  27.688  31.980  1.00  0.00     0.074 A 
ATOM     72  C   UNL A   1      44.875  26.799  31.212  1.00  0.00     0.031 C 
ATOM     73  C   UNL A   1      44.277  28.060  33.261  1.00  0.00     0.034 A 
BRANCH  60  74
ATOM     74  C   UNL A   1      40.290  32.222  35.508  1.00  0.00     0.023 A 
ATOM     75  C   UNL A   1      39.487  31.757  36.570  1.00  0.00     0.012 A 
ATOM     76  C   UNL A   1      40.697  33.568  35.482  1.00  0.00     0.148 A 
ATOM     77  C   UNL A   1      39.056  32.632  37.566  1.00  0.00     0.002 A 
ATOM     78  C   UNL A   1      40.304  34.421  36.505  1.00  0.00     0.091 A 
ATOM     79  F   UNL A   1      41.424  33.999  34.442  1.00  0.00    -0.205 F 
ATOM     80  C   UNL A   1      39.472  33.960  37.538  1.00  0.00     0.022 A 
BRANCH  78  81
ATOM     81  S   UNL A   1      40.857  36.127  36.593  1.00  0.00     0.127 S 
ATOM     82  O   UNL A   1      42.210  36.027  36.049  1.00  0.00    -0.237 OA
ATOM     83  O   UNL A   1      39.898  36.807  35.721  1.00  0.00    -0.237 OA
ATOM     84  O   UNL A   1      40.767  36.503  37.996  1.00  0.00    -0.744 OA
ENDBRANCH  78  81
ENDBRANCH  60  74
BRANCH  61  85
ATOM     85  C   UNL A   1      42.759  26.700  27.538  1.00  0.00     0.023 A 
ATOM     86  C   UNL A   1      43.531  27.355  26.559  1.00  0.00     0.012 A 
ATOM     87  C   UNL A   1      42.439  25.339  27.360  1.00  0.00     0.148 A 
ATOM     88  C   UNL A   1      43.964  26.674  25.420  1.00  0.00     0.002 A 
ATOM     89  C   UNL A   1      42.917  24.653  26.250  1.00  0.00     0.091 A 
ATOM     90  F   UNL A   1      41.690  24.739  28.295  1.00  0.00    -0.205 F 
ATOM     91  C   UNL A   1      43.668  25.322  25.271  1.00  0.00     0.022 A 
BRANCH  89  92
ATOM     92  S   UNL A   1      42.692  22.884  26.031  1.00  0.00     0.127 S 
ATOM     93  O   UNL A   1      41.235  22.768  26.010  1.00  0.00    -0.237 OA
ATOM     94  O   UNL A   1      43.347  22.660  24.743  1.00  0.00    -0.237 OA
ATOM     95  O   UNL A   1      43.354  22.257  27.166  1.00  0.00    -0.744 OA
ENDBRANCH  89  92
ENDBRANCH  61  85
BRANCH  73  96
ATOM     96  C   UNL A   1      45.480  27.475  33.952  1.00  0.00     0.023 A 
ATOM     97  C   UNL A   1      46.764  27.989  33.691  1.00  0.00     0.012 A 
ATOM     98  C   UNL A   1      45.312  26.506  34.963  1.00  0.00     0.148 A 
ATOM     99  C   UNL A   1      47.866  27.534  34.416  1.00  0.00     0.002 A 
ATOM    100  C   UNL A   1      46.404  26.097  35.715  1.00  0.00     0.091 A 
ATOM    101  F   UNL A   1      44.080  26.023  35.184  1.00  0.00    -0.205 F 
ATOM    102  C   UNL A   1      47.684  26.602  35.437  1.00  0.00     0.022 A 
BRANCH 100 103
ATOM    103  S   UNL A   1      46.246  24.984  37.116  1.00  0.00     0.127 S 
ATOM    104  O   UNL A   1      45.373  25.748  38.006  1.00  0.00    -0.237 OA
ATOM    105  O   UNL A   1      45.620  23.809  36.509  1.00  0.00    -0.237 OA
ATOM    106  O   UNL A   1      47.598  24.762  37.611  1.00  0.00    -0.744 OA
ENDBRANCH 100 103
ENDBRANCH  73  96
ENDBRANCH  47  48
ENDBRANCH  40  42
ENDBRANCH  39  40
ENDBRANCH  38  39
ENDBRANCH  37  38
ENDBRANCH  36  37
ENDBRANCH  35  36
ENDBRANCH  34  35
ENDBRANCH   1  34
TORSDOF 27
ENDMDL
MODEL 3
REMARK VINA RESULT:      -8.5      4.852     10.053
REMARK SMILES O=C(C[C@H](NC(=O)[C@]12C[C@H]3C[C@H](C[C@H](C3)C1)C2)c1ccc(Cl)cc1Cl)OCCOCCOCCOCCOC(=O)c1ccc(-c2c3nc(c(-c4cccc(S(=O)(=O)[O-])c4F)c4ccc([nH]4)c(-c4cccc(S(=O)(=O)[O-])c4F)c4nc(c(-c5cccc(S(=O)(=O)[O-])c5F)c5ccc2[nH]5)C=C4)C=C3)cc1
REMARK SMILES IDX 32 1 31 2 30 3 29 4 28 5 27 6 26 7 2 8 1 9 3 10 4 11 18 12
REMARK SMILES IDX 19 13 24 14 20 15 23 16 25 17 21 18 22 19 5 20 6 21 7 23
REMARK SMILES IDX 8 24 9 25 16 26 17 27 10 28 14 29 12 30 11 31 15 32 13 33
REMARK SMILES IDX 33 34 34 35 35 36 36 37 37 38 38 39 39 40 40 41 41 42 42 43
REMARK SMILES IDX 103 44 43 45 102 46 44 47 45 48 46 49 96 50 47 51 101 52
REMARK SMILES IDX 95 53 97 54 48 55 100 56 94 57 93 58 49 60 81 61 61 62 80 63
REMARK SMILES IDX 62 64 65 65 79 66 98 67 63 68 64 69 78 71 99 72 66 73 50 74
REMARK SMILES IDX 51 75 59 76 52 77 54 78 60 79 53 80 55 81 56 82 57 83 58 84
REMARK SMILES IDX 82 85 83 86 91 87 84 88 86 89 92 90 85 91 87 92 88 93 89 94
REMARK SMILES IDX 90 95 67 96 68 97 76 98 69 99 71 100 77 101 70 102 72 103
REMARK SMILES IDX 73 104 74 105 75 106
REMARK H PARENT 5 22 97 59 65 70
REMARK Flexibility Score: inf
ROOT
ATOM      1  O   UNL A   1      38.535  29.022  29.855  1.00  0.00    -0.377 OA
ENDROOT
BRANCH   1   2
ATOM      2  C   UNL A   1      37.891  29.178  28.611  1.00  0.00     0.188 C 
BRANCH   2   3
ATOM      3  C   UNL A   1      36.437  29.675  28.475  1.00  0.00     0.188 C 
BRANCH   3   4
ATOM      4  O   UNL A   1      35.951  30.802  27.772  1.00  0.00    -0.376 OA
BRANCH   4   5
ATOM      5  C   UNL A   1      34.628  31.285  27.682  1.00  0.00     0.202 C 
BRANCH   5   6
ATOM      6  C   UNL A   1      33.455  30.463  27.148  1.00  0.00     0.261 C 
BRANCH   6   7
ATOM      7  O   UNL A   1      33.129  29.267  27.854  1.00  0.00    -0.463 OA
BRANCH   7   8
ATOM      8  C   UNL A   1      32.103  28.512  27.373  1.00  0.00     0.308 C 
ATOM      9  O   UNL A   1      31.223  28.080  28.103  1.00  0.00    -0.252 OA
BRANCH   8  10
ATOM     10  C   UNL A   1      32.279  28.084  25.939  1.00  0.00     0.152 C 
BRANCH  10  11
ATOM     11  C   UNL A   1      31.334  27.003  25.486  1.00  0.00     0.125 C 
BRANCH  11  12
ATOM     12  C   UNL A   1      31.584  26.791  23.985  1.00  0.00    -0.006 A 
ATOM     13  C   UNL A   1      30.678  26.071  23.195  1.00  0.00     0.009 A 
ATOM     14  C   UNL A   1      32.824  27.150  23.396  1.00  0.00     0.047 A 
ATOM     15  C   UNL A   1      31.019  25.656  21.904  1.00  0.00     0.021 A 
ATOM     16  C   UNL A   1      33.172  26.720  22.112  1.00  0.00     0.041 A 
ATOM     17  Cl  UNL A   1      34.008  28.100  24.234  1.00  0.00    -0.084 Cl
ATOM     18  C   UNL A   1      32.270  25.963  21.378  1.00  0.00     0.042 A 
ATOM     19  Cl  UNL A   1      32.705  25.400  19.812  1.00  0.00    -0.084 Cl
ENDBRANCH  11  12
BRANCH  11  20
ATOM     20  N   UNL A   1      31.331  25.769  26.296  1.00  0.00    -0.348 N 
ATOM     21  C   UNL A   1      31.973  24.598  26.505  1.00  0.00     0.226 C 
ATOM     22  H   UNL A   1      30.572  25.817  26.923  1.00  0.00     0.164 HD
ATOM     23  O   UNL A   1      31.424  23.938  27.405  1.00  0.00    -0.274 OA
BRANCH  21  24
ATOM     24  C   UNL A   1      33.217  23.984  25.785  1.00  0.00     0.050 C 
ATOM     25  C   UNL A   1      32.862  23.339  24.427  1.00  0.00     0.020 C 
ATOM     26  C   UNL A   1      33.742  22.816  26.705  1.00  0.00     0.020 C 
ATOM     27  C   UNL A   1      34.431  24.931  25.634  1.00  0.00     0.020 C 
ATOM     28  C   UNL A   1      34.070  22.605  23.813  1.00  0.00    -0.010 C 
ATOM     29  C   UNL A   1      34.951  22.083  26.100  1.00  0.00    -0.010 C 
ATOM     30  C   UNL A   1      35.632  24.211  24.975  1.00  0.00    -0.010 C 
ATOM     31  C   UNL A   1      35.225  23.595  23.628  1.00  0.00     0.007 C 
ATOM     32  C   UNL A   1      34.536  21.485  24.749  1.00  0.00     0.007 C 
ATOM     33  C   UNL A   1      36.103  23.079  25.893  1.00  0.00     0.007 C 
ENDBRANCH  21  24
ENDBRANCH  11  20
ENDBRANCH  10  11
ENDBRANCH   8  10
ENDBRANCH   7   8
ENDBRANCH   6   7
ENDBRANCH   5   6
ENDBRANCH   4   5
ENDBRANCH   3   4
ENDBRANCH   2   3
ENDBRANCH   1   2
BRANCH   1  34
ATOM     34  C   UNL A   1      38.818  30.229  30.517  1.00  0.00     0.188 C 
BRANCH  34  35
ATOM     35  C   UNL A   1      38.596  30.125  32.037  1.00  0.00     0.188 C 
BRANCH  35  36
ATOM     36  O   UNL A   1      37.549  30.983  32.494  1.00  0.00    -0.376 OA
BRANCH  36  37
ATOM     37  C   UNL A   1      36.348  30.981  31.733  1.00  0.00     0.202 C 
BRANCH  37  38
ATOM     38  C   UNL A   1      35.381  32.166  31.894  1.00  0.00     0.261 C 
BRANCH  38  39
ATOM     39  O   UNL A   1      35.134  32.626  33.228  1.00  0.00    -0.460 OA
BRANCH  39  40
ATOM     40  C   UNL A   1      35.341  33.923  33.531  1.00  0.00     0.338 C 
ATOM     41  O   UNL A   1      34.538  34.835  33.438  1.00  0.00    -0.246 OA
BRANCH  40  42
ATOM     42  C   UNL A   1      36.632  33.975  34.261  1.00  0.00     0.060 A 
ATOM     43  C   UNL A   1      37.748  34.545  33.623  1.00  0.00     0.016 A 
ATOM     44  C   UNL A   1      36.696  33.624  35.614  1.00  0.00     0.016 A 
ATOM     45  C   UNL A   1      38.915  34.797  34.350  1.00  0.00     0.010 A 
ATOM     46  C   UNL A   1      37.881  33.818  36.322  1.00  0.00     0.010 A 
ATOM     47  C   UNL A   1      39.000  34.387  35.689  1.00  0.00    -0.014 A 
BRANCH  47  48
ATOM     48  C   UNL A   1      40.327  34.211  36.320  1.00  0.00     0.031 A 
ATOM     49  C   UNL A   1      41.032  32.919  36.017  1.00  0.00     0.074 A 
ATOM     50  C   UNL A   1      40.839  35.087  37.200  1.00  0.00     0.049 A 
ATOM     51  N   UNL A   1      42.127  32.428  36.526  1.00  0.00    -0.248 NA
ATOM     52  C   UNL A   1      40.396  32.053  35.006  1.00  0.00     0.031 C 
ATOM     53  C   UNL A   1      40.237  36.364  37.578  1.00  0.00     0.029 A 
ATOM     54  N   UNL A   1      41.968  35.000  37.978  1.00  0.00    -0.354 N 
ATOM     55  C   UNL A   1      42.286  31.185  35.930  1.00  0.00     0.074 A 
ATOM     56  C   UNL A   1      41.186  30.997  35.015  1.00  0.00     0.031 C 
ATOM     57  C   UNL A   1      40.975  36.916  38.561  1.00  0.00     0.029 A 
ATOM     58  C   UNL A   1      42.077  36.015  38.899  1.00  0.00     0.049 A 
ATOM     59  H   UNL A   1      42.634  34.281  37.884  1.00  0.00     0.167 HD
ATOM     60  C   UNL A   1      43.258  30.267  36.130  1.00  0.00     0.034 A 
ATOM     61  C   UNL A   1      42.941  36.168  39.925  1.00  0.00     0.034 A 
ATOM     62  C   UNL A   1      44.331  30.442  37.061  1.00  0.00     0.049 A 
ATOM     63  C   UNL A   1      44.010  35.127  40.150  1.00  0.00     0.074 A 
ATOM     64  C   UNL A   1      45.396  29.600  37.313  1.00  0.00     0.029 A 
ATOM     65  N   UNL A   1      44.453  31.522  37.923  1.00  0.00    -0.354 N 
ATOM     66  N   UNL A   1      44.235  34.018  39.483  1.00  0.00    -0.248 NA
ATOM     67  C   UNL A   1      44.960  35.366  41.246  1.00  0.00     0.031 C 
ATOM     68  C   UNL A   1      46.146  30.155  38.354  1.00  0.00     0.029 A 
ATOM     69  C   UNL A   1      45.569  31.362  38.721  1.00  0.00     0.049 A 
ATOM     70  H   UNL A   1      43.835  32.288  37.960  1.00  0.00     0.167 HD
ATOM     71  C   UNL A   1      45.368  33.448  40.055  1.00  0.00     0.074 A 
ATOM     72  C   UNL A   1      45.790  34.338  41.118  1.00  0.00     0.031 C 
ATOM     73  C   UNL A   1      46.001  32.291  39.735  1.00  0.00     0.034 A 
BRANCH  60  74
ATOM     74  C   UNL A   1      43.169  28.997  35.331  1.00  0.00     0.023 A 
ATOM     75  C   UNL A   1      43.632  28.972  33.999  1.00  0.00     0.012 A 
ATOM     76  C   UNL A   1      42.604  27.837  35.891  1.00  0.00     0.148 A 
ATOM     77  C   UNL A   1      43.490  27.824  33.222  1.00  0.00     0.002 A 
ATOM     78  C   UNL A   1      42.513  26.682  35.126  1.00  0.00     0.091 A 
ATOM     79  F   UNL A   1      42.132  27.894  37.145  1.00  0.00    -0.205 F 
ATOM     80  C   UNL A   1      42.941  26.677  33.789  1.00  0.00     0.022 A 
BRANCH  78  81
ATOM     81  S   UNL A   1      41.891  25.137  35.797  1.00  0.00     0.127 S 
ATOM     82  O   UNL A   1      42.293  24.183  34.764  1.00  0.00    -0.237 OA
ATOM     83  O   UNL A   1      42.636  25.024  37.053  1.00  0.00    -0.237 OA
ATOM     84  O   UNL A   1      40.457  25.323  35.961  1.00  0.00    -0.744 OA
ENDBRANCH  78  81
ENDBRANCH  60  74
BRANCH  61  85
ATOM     85  C   UNL A   1      42.828  37.359  40.815  1.00  0.00     0.023 A 
ATOM     86  C   UNL A   1      43.462  38.563  40.455  1.00  0.00     0.012 A 
ATOM     87  C   UNL A   1      42.060  37.315  41.996  1.00  0.00     0.148 A 
ATOM     88  C   UNL A   1      43.346  39.698  41.261  1.00  0.00     0.002 A 
ATOM     89  C   UNL A   1      41.905  38.462  42.766  1.00  0.00     0.091 A 
ATOM     90  F   UNL A   1      41.478  36.154  42.329  1.00  0.00    -0.205 F 
ATOM     91  C   UNL A   1      42.559  39.651  42.408  1.00  0.00     0.022 A 
BRANCH  89  92
ATOM     92  S   UNL A   1      40.816  38.532  44.193  1.00  0.00     0.127 S 
ATOM     93  O   UNL A   1      39.526  38.823  43.571  1.00  0.00    -0.237 OA
ATOM     94  O   UNL A   1      40.950  37.180  44.734  1.00  0.00    -0.237 OA
ATOM     95  O   UNL A   1      41.351  39.583  45.048  1.00  0.00    -0.744 OA
ENDBRANCH  89  92
ENDBRANCH  61  85
BRANCH  73  96
ATOM     96  C   UNL A   1      47.250  31.928  40.492  1.00  0.00     0.023 A 
ATOM     97  C   UNL A   1      48.480  32.522  40.152  1.00  0.00     0.012 A 
ATOM     98  C   UNL A   1      47.171  31.098  41.630  1.00  0.00     0.148 A 
ATOM     99  C   UNL A   1      49.617  32.283  40.925  1.00  0.00     0.002 A 
ATOM    100  C   UNL A   1      48.293  30.906  42.423  1.00  0.00     0.091 A 
ATOM    101  F   UNL A   1      45.990  30.533  41.925  1.00  0.00    -0.205 F 
ATOM    102  C   UNL A   1      49.520  31.489  42.067  1.00  0.00     0.022 A 
BRANCH 100 103
ATOM    103  S   UNL A   1      48.235  29.990  43.967  1.00  0.00     0.127 S 
ATOM    104  O   UNL A   1      47.638  30.970  44.873  1.00  0.00    -0.237 OA
ATOM    105  O   UNL A   1      47.365  28.864  43.626  1.00  0.00    -0.237 OA
ATOM    106  O   UNL A   1      49.612  29.620  44.270  1.00  0.00    -0.744 OA
ENDBRANCH 100 103
ENDBRANCH  73  96
ENDBRANCH  47  48
ENDBRANCH  40  42
ENDBRANCH  39  40
ENDBRANCH  38  39
ENDBRANCH  37  38
ENDBRANCH  36  37
ENDBRANCH  35  36
ENDBRANCH  34  35
ENDBRANCH   1  34
TORSDOF 27
ENDMDL
