MODEL 1
REMARK VINA RESULT:      -9.2      0.000      0.000
REMARK SMILES COc1ccc(N2C(=O)S[C@H](CC(=O)Nc3ccc(O)c(C(=O)OCCOCCOCCOCCOC(=O)c4ccc(-c5c6nc(c(-c7cccc(S(=O)(=O)[O-])c7F)c7ccc([nH]7)c(-c7cccc(S(=O)(=O)[O-])c7F)c7nc(c(-c8cccc(S(=O)(=O)[O-])c8F)c8ccc5[nH]8)C=C7)C=C6)cc4)c3)C2=O)c(OC)c1
REMARK SMILES IDX 29 1 28 2 27 3 26 4 25 5 24 6 22 7 23 8 21 9 16 10 17 11
REMARK SMILES IDX 102 12 18 13 19 14 15 15 13 16 14 17 12 19 11 20 7 21 8 22
REMARK SMILES IDX 103 23 9 24 10 25 104 26 6 27 3 28 4 29 108 30 5 31 105 32
REMARK SMILES IDX 2 33 1 34 106 35 107 36 20 37 30 39 31 40 32 41 33 42 34 43
REMARK SMILES IDX 35 44 36 45 37 46 38 47 39 48 40 49 101 50 41 51 100 52
REMARK SMILES IDX 42 53 43 54 44 55 94 56 45 57 99 58 93 59 95 60 46 61 98 62
REMARK SMILES IDX 92 63 91 64 47 66 79 67 59 68 78 69 60 70 63 71 77 72 96 73
REMARK SMILES IDX 61 74 62 75 76 77 97 78 64 79 48 80 49 81 57 82 50 83 52 84
REMARK SMILES IDX 58 85 51 86 53 87 54 88 55 89 56 90 80 91 81 92 89 93 82 94
REMARK SMILES IDX 84 95 90 96 83 97 85 98 86 99 87 100 88 101 65 102 66 103
REMARK SMILES IDX 74 104 67 105 69 106 75 107 68 108 70 109 71 110 72 111
REMARK SMILES IDX 73 112
REMARK H PARENT 15 18 20 38 95 65 63 76
REMARK Flexibility Score: inf
ROOT
ATOM      1  C   UNL A   1      42.038  23.196  28.824  1.00  0.00     0.188 C 
ENDROOT
BRANCH   1   2
ATOM      2  C   UNL A   1      41.688  24.517  28.095  1.00  0.00     0.188 C 
BRANCH   2   3
ATOM      3  O   UNL A   1      40.330  24.891  27.856  1.00  0.00    -0.376 OA
BRANCH   3   4
ATOM      4  C   UNL A   1      39.653  24.378  26.717  1.00  0.00     0.202 C 
BRANCH   4   5
ATOM      5  C   UNL A   1      38.130  24.422  26.738  1.00  0.00     0.261 C 
BRANCH   5   6
ATOM      6  O   UNL A   1      37.538  23.656  25.676  1.00  0.00    -0.460 OA
BRANCH   6   7
ATOM      7  C   UNL A   1      37.683  22.312  25.716  1.00  0.00     0.342 C 
ATOM      8  O   UNL A   1      38.748  21.704  25.731  1.00  0.00    -0.246 OA
BRANCH   7   9
ATOM      9  C   UNL A   1      36.377  21.582  25.783  1.00  0.00     0.103 A 
ATOM     10  C   UNL A   1      34.009  21.520  26.418  1.00  0.00     0.042 A 
ATOM     11  C   UNL A   1      33.870  20.334  25.694  1.00  0.00     0.030 A 
ATOM     12  C   UNL A   1      35.289  22.051  26.542  1.00  0.00     0.045 A 
ATOM     13  C   UNL A   1      34.963  19.792  24.997  1.00  0.00     0.049 A 
ATOM     14  C   UNL A   1      36.197  20.438  25.008  1.00  0.00     0.130 A 
BRANCH  10  15
ATOM     15  N   UNL A   1      32.884  22.058  27.077  1.00  0.00    -0.326 N 
ATOM     16  C   UNL A   1      31.885  22.923  26.685  1.00  0.00     0.226 C 
ATOM     17  O   UNL A   1      31.261  23.507  27.576  1.00  0.00    -0.275 OA
ATOM     18  H   UNL A   1      32.793  21.751  28.008  1.00  0.00     0.169 HD
BRANCH  16  19
ATOM     19  C   UNL A   1      31.379  22.983  25.239  1.00  0.00     0.125 C 
BRANCH  19  20
ATOM     20  C   UNL A   1      32.008  24.080  24.349  1.00  0.00     0.156 C 
ATOM     21  N   UNL A   1      31.396  26.201  25.334  1.00  0.00    -0.236 N 
ATOM     22  C   UNL A   1      30.258  25.672  24.859  1.00  0.00     0.293 C 
ATOM     23  C   UNL A   1      32.470  25.359  25.128  1.00  0.00     0.248 C 
ATOM     24  O   UNL A   1      29.226  25.517  25.486  1.00  0.00    -0.261 OA
ATOM     25  S   UNL A   1      30.654  24.820  23.375  1.00  0.00    -0.050 SA
ATOM     26  O   UNL A   1      33.600  25.534  25.563  1.00  0.00    -0.273 OA
BRANCH  21  27
ATOM     27  C   UNL A   1      31.360  27.560  25.731  1.00  0.00     0.095 A 
ATOM     28  C   UNL A   1      32.168  30.081  26.650  1.00  0.00     0.122 A 
ATOM     29  C   UNL A   1      31.874  29.068  27.560  1.00  0.00     0.049 A 
ATOM     30  C   UNL A   1      32.071  29.852  25.280  1.00  0.00     0.095 A 
ATOM     31  C   UNL A   1      31.442  27.818  27.107  1.00  0.00     0.034 A 
ATOM     32  C   UNL A   1      31.671  28.598  24.813  1.00  0.00     0.146 A 
BRANCH  28  33
ATOM     33  O   UNL A   1      32.597  31.277  27.158  1.00  0.00    -0.497 OA
ATOM     34  C   UNL A   1      31.667  32.325  26.884  1.00  0.00     0.278 C 
ENDBRANCH  28  33
BRANCH  32  35
ATOM     35  O   UNL A   1      31.503  28.331  23.475  1.00  0.00    -0.494 OA
ATOM     36  C   UNL A   1      30.355  28.896  22.842  1.00  0.00     0.278 C 
ENDBRANCH  32  35
ENDBRANCH  21  27
ENDBRANCH  19  20
ENDBRANCH  16  19
ENDBRANCH  10  15
BRANCH  14  37
ATOM     37  O   UNL A   1      37.192  19.886  24.246  1.00  0.00    -0.507 OA
ATOM     38  H   UNL A   1      38.089  19.996  24.495  1.00  0.00     0.293 HD
ENDBRANCH  14  37
ENDBRANCH   7   9
ENDBRANCH   6   7
ENDBRANCH   5   6
ENDBRANCH   4   5
ENDBRANCH   3   4
ENDBRANCH   2   3
ENDBRANCH   1   2
BRANCH   1  39
ATOM     39  O   UNL A   1      42.888  22.321  28.100  1.00  0.00    -0.377 OA
BRANCH  39  40
ATOM     40  C   UNL A   1      42.221  21.387  27.257  1.00  0.00     0.188 C 
BRANCH  40  41
ATOM     41  C   UNL A   1      42.391  21.623  25.748  1.00  0.00     0.188 C 
BRANCH  41  42
ATOM     42  O   UNL A   1      43.291  20.693  25.140  1.00  0.00    -0.376 OA
BRANCH  42  43
ATOM     43  C   UNL A   1      44.682  20.878  25.372  1.00  0.00     0.202 C 
BRANCH  43  44
ATOM     44  C   UNL A   1      45.284  22.146  24.750  1.00  0.00     0.261 C 
BRANCH  44  45
ATOM     45  O   UNL A   1      45.509  23.231  25.664  1.00  0.00    -0.460 OA
BRANCH  45  46
ATOM     46  C   UNL A   1      46.016  24.376  25.155  1.00  0.00     0.338 C 
ATOM     47  O   UNL A   1      46.721  24.500  24.179  1.00  0.00    -0.246 OA
BRANCH  46  48
ATOM     48  C   UNL A   1      45.388  25.499  25.881  1.00  0.00     0.060 A 
ATOM     49  C   UNL A   1      45.002  26.630  25.152  1.00  0.00     0.016 A 
ATOM     50  C   UNL A   1      45.213  25.442  27.265  1.00  0.00     0.016 A 
ATOM     51  C   UNL A   1      44.493  27.742  25.820  1.00  0.00     0.010 A 
ATOM     52  C   UNL A   1      44.722  26.562  27.934  1.00  0.00     0.010 A 
ATOM     53  C   UNL A   1      44.407  27.729  27.217  1.00  0.00    -0.014 A 
BRANCH  53  54
ATOM     54  C   UNL A   1      44.229  29.004  27.946  1.00  0.00     0.031 A 
ATOM     55  C   UNL A   1      45.444  29.863  28.166  1.00  0.00     0.074 A 
ATOM     56  C   UNL A   1      43.030  29.378  28.420  1.00  0.00     0.049 A 
ATOM     57  N   UNL A   1      45.551  31.002  28.794  1.00  0.00    -0.248 NA
ATOM     58  C   UNL A   1      46.712  29.362  27.604  1.00  0.00     0.031 C 
ATOM     59  C   UNL A   1      41.788  28.622  28.274  1.00  0.00     0.029 A 
ATOM     60  N   UNL A   1      42.673  30.483  29.149  1.00  0.00    -0.354 N 
ATOM     61  C   UNL A   1      46.896  31.345  28.722  1.00  0.00     0.074 A 
ATOM     62  C   UNL A   1      47.569  30.288  28.002  1.00  0.00     0.031 C 
ATOM     63  C   UNL A   1      40.807  29.271  28.928  1.00  0.00     0.029 A 
ATOM     64  C   UNL A   1      41.359  30.475  29.547  1.00  0.00     0.049 A 
ATOM     65  H   UNL A   1      43.299  31.211  29.366  1.00  0.00     0.167 HD
ATOM     66  C   UNL A   1      47.514  32.450  29.197  1.00  0.00     0.034 A 
ATOM     67  C   UNL A   1      40.688  31.336  30.340  1.00  0.00     0.034 A 
ATOM     68  C   UNL A   1      46.842  33.500  29.908  1.00  0.00     0.049 A 
ATOM     69  C   UNL A   1      41.402  32.548  30.879  1.00  0.00     0.074 A 
ATOM     70  C   UNL A   1      47.366  34.684  30.394  1.00  0.00     0.029 A 
ATOM     71  N   UNL A   1      45.498  33.484  30.250  1.00  0.00    -0.354 N 
ATOM     72  N   UNL A   1      42.642  32.931  30.687  1.00  0.00    -0.248 NA
ATOM     73  C   UNL A   1      40.615  33.465  31.718  1.00  0.00     0.031 C 
ATOM     74  C   UNL A   1      46.341  35.376  31.049  1.00  0.00     0.029 A 
ATOM     75  C   UNL A   1      45.175  34.632  30.952  1.00  0.00     0.049 A 
ATOM     76  H   UNL A   1      44.867  32.763  30.026  1.00  0.00     0.167 HD
ATOM     77  C   UNL A   1      42.775  34.145  31.352  1.00  0.00     0.074 A 
ATOM     78  C   UNL A   1      41.484  34.444  31.937  1.00  0.00     0.031 C 
ATOM     79  C   UNL A   1      43.870  34.936  31.480  1.00  0.00     0.034 A 
BRANCH  66  80
ATOM     80  C   UNL A   1      48.989  32.582  28.935  1.00  0.00     0.023 A 
ATOM     81  C   UNL A   1      49.908  32.089  29.884  1.00  0.00     0.012 A 
ATOM     82  C   UNL A   1      49.466  33.171  27.749  1.00  0.00     0.148 A 
ATOM     83  C   UNL A   1      51.281  32.210  29.671  1.00  0.00     0.002 A 
ATOM     84  C   UNL A   1      50.835  33.252  27.527  1.00  0.00     0.091 A 
ATOM     85  F   UNL A   1      48.577  33.663  26.876  1.00  0.00    -0.205 F 
ATOM     86  C   UNL A   1      51.744  32.782  28.490  1.00  0.00     0.022 A 
BRANCH  84  87
ATOM     87  S   UNL A   1      51.524  33.914  26.005  1.00  0.00     0.127 S 
ATOM     88  O   UNL A   1      50.880  33.073  24.998  1.00  0.00    -0.237 OA
ATOM     89  O   UNL A   1      51.058  35.301  26.030  1.00  0.00    -0.237 OA
ATOM     90  O   UNL A   1      52.968  33.760  26.125  1.00  0.00    -0.744 OA
ENDBRANCH  84  87
ENDBRANCH  66  80
BRANCH  67  91
ATOM     91  C   UNL A   1      39.249  31.099  30.637  1.00  0.00     0.023 A 
ATOM     92  C   UNL A   1      38.888  30.138  31.602  1.00  0.00     0.012 A 
ATOM     93  C   UNL A   1      38.240  31.839  29.991  1.00  0.00     0.148 A 
ATOM     94  C   UNL A   1      37.546  29.903  31.903  1.00  0.00     0.002 A 
ATOM     95  C   UNL A   1      36.909  31.637  30.333  1.00  0.00     0.091 A 
ATOM     96  F   UNL A   1      38.605  32.733  29.062  1.00  0.00    -0.205 F 
ATOM     97  C   UNL A   1      36.557  30.659  31.278  1.00  0.00     0.022 A 
BRANCH  95  98
ATOM     98  S   UNL A   1      35.584  32.655  29.675  1.00  0.00     0.127 S 
ATOM     99  O   UNL A   1      36.073  34.002  29.961  1.00  0.00    -0.237 OA
ATOM    100  O   UNL A   1      35.594  32.282  28.261  1.00  0.00    -0.237 OA
ATOM    101  O   UNL A   1      34.385  32.246  30.394  1.00  0.00    -0.744 OA
ENDBRANCH  95  98
ENDBRANCH  67  91
BRANCH  79 102
ATOM    102  C   UNL A   1      43.723  36.217  32.258  1.00  0.00     0.023 A 
ATOM    103  C   UNL A   1      43.741  36.184  33.666  1.00  0.00     0.012 A 
ATOM    104  C   UNL A   1      43.663  37.459  31.595  1.00  0.00     0.148 A 
ATOM    105  C   UNL A   1      43.674  37.366  34.402  1.00  0.00     0.002 A 
ATOM    106  C   UNL A   1      43.643  38.635  32.335  1.00  0.00     0.091 A 
ATOM    107  F   UNL A   1      43.628  37.468  30.254  1.00  0.00    -0.205 F 
ATOM    108  C   UNL A   1      43.639  38.590  33.738  1.00  0.00     0.022 A 
BRANCH 106 109
ATOM    109  S   UNL A   1      43.694  40.256  31.560  1.00  0.00     0.127 S 
ATOM    110  O   UNL A   1      43.593  41.143  32.718  1.00  0.00    -0.237 OA
ATOM    111  O   UNL A   1      45.004  40.250  30.909  1.00  0.00    -0.237 OA
ATOM    112  O   UNL A   1      42.565  40.293  30.640  1.00  0.00    -0.744 OA
ENDBRANCH 106 109
ENDBRANCH  79 102
ENDBRANCH  53  54
ENDBRANCH  46  48
ENDBRANCH  45  46
ENDBRANCH  44  45
ENDBRANCH  43  44
ENDBRANCH  42  43
ENDBRANCH  41  42
ENDBRANCH  40  41
ENDBRANCH  39  40
ENDBRANCH   1  39
TORSDOF 30
ENDMDL
MODEL 2
REMARK VINA RESULT:      -8.6      6.049      6.961
REMARK SMILES COc1ccc(N2C(=O)S[C@H](CC(=O)Nc3ccc(O)c(C(=O)OCCOCCOCCOCCOC(=O)c4ccc(-c5c6nc(c(-c7cccc(S(=O)(=O)[O-])c7F)c7ccc([nH]7)c(-c7cccc(S(=O)(=O)[O-])c7F)c7nc(c(-c8cccc(S(=O)(=O)[O-])c8F)c8ccc5[nH]8)C=C7)C=C6)cc4)c3)C2=O)c(OC)c1
REMARK SMILES IDX 29 1 28 2 27 3 26 4 25 5 24 6 22 7 23 8 21 9 16 10 17 11
REMARK SMILES IDX 102 12 18 13 19 14 15 15 13 16 14 17 12 19 11 20 7 21 8 22
REMARK SMILES IDX 103 23 9 24 10 25 104 26 6 27 3 28 4 29 108 30 5 31 105 32
REMARK SMILES IDX 2 33 1 34 106 35 107 36 20 37 30 39 31 40 32 41 33 42 34 43
REMARK SMILES IDX 35 44 36 45 37 46 38 47 39 48 40 49 101 50 41 51 100 52
REMARK SMILES IDX 42 53 43 54 44 55 94 56 45 57 99 58 93 59 95 60 46 61 98 62
REMARK SMILES IDX 92 63 91 64 47 66 79 67 59 68 78 69 60 70 63 71 77 72 96 73
REMARK SMILES IDX 61 74 62 75 76 77 97 78 64 79 48 80 49 81 57 82 50 83 52 84
REMARK SMILES IDX 58 85 51 86 53 87 54 88 55 89 56 90 80 91 81 92 89 93 82 94
REMARK SMILES IDX 84 95 90 96 83 97 85 98 86 99 87 100 88 101 65 102 66 103
REMARK SMILES IDX 74 104 67 105 69 106 75 107 68 108 70 109 71 110 72 111
REMARK SMILES IDX 73 112
REMARK H PARENT 15 18 20 38 95 65 63 76
REMARK Flexibility Score: inf
ROOT
ATOM      1  C   UNL A   1      41.757  23.592  28.018  1.00  0.00     0.188 C 
ENDROOT
BRANCH   1   2
ATOM      2  C   UNL A   1      41.566  25.065  27.579  1.00  0.00     0.188 C 
BRANCH   2   3
ATOM      3  O   UNL A   1      40.267  25.591  27.305  1.00  0.00    -0.376 OA
BRANCH   3   4
ATOM      4  C   UNL A   1      39.402  24.894  26.418  1.00  0.00     0.202 C 
BRANCH   4   5
ATOM      5  C   UNL A   1      38.165  24.244  27.024  1.00  0.00     0.261 C 
BRANCH   5   6
ATOM      6  O   UNL A   1      37.375  23.539  26.052  1.00  0.00    -0.460 OA
BRANCH   6   7
ATOM      7  C   UNL A   1      37.642  22.227  25.860  1.00  0.00     0.342 C 
ATOM      8  O   UNL A   1      38.758  21.720  25.813  1.00  0.00    -0.246 OA
BRANCH   7   9
ATOM      9  C   UNL A   1      36.408  21.388  25.739  1.00  0.00     0.103 A 
ATOM     10  C   UNL A   1      33.988  21.117  26.028  1.00  0.00     0.042 A 
ATOM     11  C   UNL A   1      34.056  19.932  25.294  1.00  0.00     0.030 A 
ATOM     12  C   UNL A   1      35.186  21.754  26.334  1.00  0.00     0.045 A 
ATOM     13  C   UNL A   1      35.280  19.493  24.762  1.00  0.00     0.049 A 
ATOM     14  C   UNL A   1      36.440  20.241  24.949  1.00  0.00     0.130 A 
BRANCH  10  15
ATOM     15  N   UNL A   1      32.738  21.551  26.518  1.00  0.00    -0.326 N 
ATOM     16  C   UNL A   1      32.150  22.792  26.639  1.00  0.00     0.226 C 
ATOM     17  O   UNL A   1      31.221  22.902  27.444  1.00  0.00    -0.275 OA
ATOM     18  H   UNL A   1      32.168  20.815  26.838  1.00  0.00     0.169 HD
BRANCH  16  19
ATOM     19  C   UNL A   1      32.441  23.931  25.654  1.00  0.00     0.125 C 
BRANCH  19  20
ATOM     20  C   UNL A   1      32.578  25.341  26.276  1.00  0.00     0.156 C 
ATOM     21  N   UNL A   1      31.769  26.906  24.620  1.00  0.00    -0.236 N 
ATOM     22  C   UNL A   1      32.905  26.395  24.122  1.00  0.00     0.293 C 
ATOM     23  C   UNL A   1      31.459  26.350  25.846  1.00  0.00     0.248 C 
ATOM     24  O   UNL A   1      33.037  25.890  23.022  1.00  0.00    -0.261 OA
ATOM     25  S   UNL A   1      34.004  26.145  25.468  1.00  0.00    -0.050 SA
ATOM     26  O   UNL A   1      30.424  26.543  26.470  1.00  0.00    -0.273 OA
BRANCH  21  27
ATOM     27  C   UNL A   1      31.227  28.039  23.966  1.00  0.00     0.095 A 
ATOM     28  C   UNL A   1      29.408  29.975  23.075  1.00  0.00     0.122 A 
ATOM     29  C   UNL A   1      29.506  28.753  22.413  1.00  0.00     0.049 A 
ATOM     30  C   UNL A   1      30.203  30.245  24.186  1.00  0.00     0.095 A 
ATOM     31  C   UNL A   1      30.434  27.796  22.836  1.00  0.00     0.034 A 
ATOM     32  C   UNL A   1      31.111  29.285  24.638  1.00  0.00     0.146 A 
BRANCH  28  33
ATOM     33  O   UNL A   1      28.472  30.863  22.618  1.00  0.00    -0.497 OA
ATOM     34  C   UNL A   1      27.527  31.197  23.634  1.00  0.00     0.278 C 
ENDBRANCH  28  33
BRANCH  32  35
ATOM     35  O   UNL A   1      31.962  29.517  25.693  1.00  0.00    -0.494 OA
ATOM     36  C   UNL A   1      33.307  29.869  25.374  1.00  0.00     0.278 C 
ENDBRANCH  32  35
ENDBRANCH  21  27
ENDBRANCH  19  20
ENDBRANCH  16  19
ENDBRANCH  10  15
BRANCH  14  37
ATOM     37  O   UNL A   1      37.577  19.784  24.339  1.00  0.00    -0.507 OA
ATOM     38  H   UNL A   1      37.782  20.057  23.466  1.00  0.00     0.293 HD
ENDBRANCH  14  37
ENDBRANCH   7   9
ENDBRANCH   6   7
ENDBRANCH   5   6
ENDBRANCH   4   5
ENDBRANCH   3   4
ENDBRANCH   2   3
ENDBRANCH   1   2
BRANCH   1  39
ATOM     39  O   UNL A   1      42.761  22.882  27.312  1.00  0.00    -0.377 OA
BRANCH  39  40
ATOM     40  C   UNL A   1      42.379  22.411  26.024  1.00  0.00     0.188 C 
BRANCH  40  41
ATOM     41  C   UNL A   1      43.209  22.953  24.850  1.00  0.00     0.188 C 
BRANCH  41  42
ATOM     42  O   UNL A   1      44.154  22.001  24.355  1.00  0.00    -0.376 OA
BRANCH  42  43
ATOM     43  C   UNL A   1      45.490  22.091  24.835  1.00  0.00     0.202 C 
BRANCH  43  44
ATOM     44  C   UNL A   1      46.397  23.058  24.062  1.00  0.00     0.261 C 
BRANCH  44  45
ATOM     45  O   UNL A   1      46.066  24.449  24.195  1.00  0.00    -0.460 OA
BRANCH  45  46
ATOM     46  C   UNL A   1      47.016  25.267  24.702  1.00  0.00     0.338 C 
ATOM     47  O   UNL A   1      48.007  25.679  24.145  1.00  0.00    -0.246 OA
BRANCH  46  48
ATOM     48  C   UNL A   1      46.530  25.752  26.010  1.00  0.00     0.060 A 
ATOM     49  C   UNL A   1      47.204  26.818  26.617  1.00  0.00     0.016 A 
ATOM     50  C   UNL A   1      45.442  25.141  26.637  1.00  0.00     0.016 A 
ATOM     51  C   UNL A   1      46.829  27.237  27.892  1.00  0.00     0.010 A 
ATOM     52  C   UNL A   1      45.080  25.547  27.920  1.00  0.00     0.010 A 
ATOM     53  C   UNL A   1      45.804  26.564  28.567  1.00  0.00    -0.014 A 
BRANCH  53  54
ATOM     54  C   UNL A   1      45.653  26.747  30.027  1.00  0.00     0.031 A 
ATOM     55  C   UNL A   1      46.795  26.326  30.910  1.00  0.00     0.074 A 
ATOM     56  C   UNL A   1      44.526  27.250  30.556  1.00  0.00     0.049 A 
ATOM     57  N   UNL A   1      46.892  26.360  32.211  1.00  0.00    -0.248 NA
ATOM     58  C   UNL A   1      47.986  25.788  30.229  1.00  0.00     0.031 C 
ATOM     59  C   UNL A   1      43.353  27.682  29.799  1.00  0.00     0.029 A 
ATOM     60  N   UNL A   1      44.179  27.453  31.867  1.00  0.00    -0.354 N 
ATOM     61  C   UNL A   1      48.143  25.831  32.507  1.00  0.00     0.074 A 
ATOM     62  C   UNL A   1      48.763  25.471  31.253  1.00  0.00     0.031 C 
ATOM     63  C   UNL A   1      42.397  28.068  30.663  1.00  0.00     0.029 A 
ATOM     64  C   UNL A   1      42.888  27.894  32.030  1.00  0.00     0.049 A 
ATOM     65  H   UNL A   1      44.795  27.297  32.619  1.00  0.00     0.167 HD
ATOM     66  C   UNL A   1      48.731  25.675  33.715  1.00  0.00     0.034 A 
ATOM     67  C   UNL A   1      42.182  28.111  33.158  1.00  0.00     0.034 A 
ATOM     68  C   UNL A   1      48.114  26.038  34.960  1.00  0.00     0.049 A 
ATOM     69  C   UNL A   1      42.848  27.908  34.493  1.00  0.00     0.074 A 
ATOM     70  C   UNL A   1      48.640  25.962  36.236  1.00  0.00     0.029 A 
ATOM     71  N   UNL A   1      46.824  26.531  35.084  1.00  0.00    -0.354 N 
ATOM     72  N   UNL A   1      44.080  27.538  34.755  1.00  0.00    -0.248 NA
ATOM     73  C   UNL A   1      42.038  28.183  35.690  1.00  0.00     0.031 C 
ATOM     74  C   UNL A   1      47.659  26.392  37.136  1.00  0.00     0.029 A 
ATOM     75  C   UNL A   1      46.530  26.754  36.417  1.00  0.00     0.049 A 
ATOM     76  H   UNL A   1      46.209  26.698  34.334  1.00  0.00     0.167 HD
ATOM     77  C   UNL A   1      44.202  27.567  36.140  1.00  0.00     0.074 A 
ATOM     78  C   UNL A   1      42.925  28.008  36.662  1.00  0.00     0.031 C 
ATOM     79  C   UNL A   1      45.270  27.245  36.913  1.00  0.00     0.034 A 
BRANCH  66  80
ATOM     80  C   UNL A   1      50.124  25.108  33.735  1.00  0.00     0.023 A 
ATOM     81  C   UNL A   1      51.228  25.985  33.718  1.00  0.00     0.012 A 
ATOM     82  C   UNL A   1      50.342  23.719  33.789  1.00  0.00     0.148 A 
ATOM     83  C   UNL A   1      52.530  25.486  33.722  1.00  0.00     0.002 A 
ATOM     84  C   UNL A   1      51.643  23.231  33.833  1.00  0.00     0.091 A 
ATOM     85  F   UNL A   1      49.280  22.902  33.770  1.00  0.00    -0.205 F 
ATOM     86  C   UNL A   1      52.737  24.111  33.789  1.00  0.00     0.022 A 
BRANCH  84  87
ATOM     87  S   UNL A   1      52.007  21.479  33.985  1.00  0.00     0.127 S 
ATOM     88  O   UNL A   1      53.468  21.481  34.005  1.00  0.00    -0.237 OA
ATOM     89  O   UNL A   1      51.380  21.142  35.264  1.00  0.00    -0.237 OA
ATOM     90  O   UNL A   1      51.393  20.844  32.827  1.00  0.00    -0.744 OA
ENDBRANCH  84  87
ENDBRANCH  66  80
BRANCH  67  91
ATOM     91  C   UNL A   1      40.773  28.585  33.068  1.00  0.00     0.023 A 
ATOM     92  C   UNL A   1      39.753  27.672  32.738  1.00  0.00     0.012 A 
ATOM     93  C   UNL A   1      40.437  29.926  33.337  1.00  0.00     0.148 A 
ATOM     94  C   UNL A   1      38.425  28.091  32.656  1.00  0.00     0.002 A 
ATOM     95  C   UNL A   1      39.107  30.325  33.304  1.00  0.00     0.091 A 
ATOM     96  F   UNL A   1      41.426  30.782  33.629  1.00  0.00    -0.205 F 
ATOM     97  C   UNL A   1      38.100  29.413  32.949  1.00  0.00     0.022 A 
BRANCH  95  98
ATOM     98  S   UNL A   1      38.586  31.972  33.795  1.00  0.00     0.127 S 
ATOM     99  O   UNL A   1      37.137  31.812  33.883  1.00  0.00    -0.237 OA
ATOM    100  O   UNL A   1      39.270  32.130  35.079  1.00  0.00    -0.237 OA
ATOM    101  O   UNL A   1      39.068  32.861  32.747  1.00  0.00    -0.744 OA
ENDBRANCH  95  98
ENDBRANCH  67  91
BRANCH  79 102
ATOM    102  C   UNL A   1      45.122  27.380  38.405  1.00  0.00     0.023 A 
ATOM    103  C   UNL A   1      44.686  26.278  39.166  1.00  0.00     0.012 A 
ATOM    104  C   UNL A   1      45.505  28.566  39.062  1.00  0.00     0.148 A 
ATOM    105  C   UNL A   1      44.607  26.363  40.555  1.00  0.00     0.002 A 
ATOM    106  C   UNL A   1      45.468  28.629  40.450  1.00  0.00     0.091 A 
ATOM    107  F   UNL A   1      45.899  29.610  38.319  1.00  0.00    -0.205 F 
ATOM    108  C   UNL A   1      45.010  27.532  41.197  1.00  0.00     0.022 A 
BRANCH 106 109
ATOM    109  S   UNL A   1      46.060  30.060  41.361  1.00  0.00     0.127 S 
ATOM    110  O   UNL A   1      46.287  29.495  42.690  1.00  0.00    -0.237 OA
ATOM    111  O   UNL A   1      47.279  30.413  40.631  1.00  0.00    -0.237 OA
ATOM    112  O   UNL A   1      44.998  31.054  41.274  1.00  0.00    -0.744 OA
ENDBRANCH 106 109
ENDBRANCH  79 102
ENDBRANCH  53  54
ENDBRANCH  46  48
ENDBRANCH  45  46
ENDBRANCH  44  45
ENDBRANCH  43  44
ENDBRANCH  42  43
ENDBRANCH  41  42
ENDBRANCH  40  41
ENDBRANCH  39  40
ENDBRANCH   1  39
TORSDOF 30
ENDMDL
MODEL 3
REMARK VINA RESULT:      -7.3      4.872     11.255
REMARK SMILES COc1ccc(N2C(=O)S[C@H](CC(=O)Nc3ccc(O)c(C(=O)OCCOCCOCCOCCOC(=O)c4ccc(-c5c6nc(c(-c7cccc(S(=O)(=O)[O-])c7F)c7ccc([nH]7)c(-c7cccc(S(=O)(=O)[O-])c7F)c7nc(c(-c8cccc(S(=O)(=O)[O-])c8F)c8ccc5[nH]8)C=C7)C=C6)cc4)c3)C2=O)c(OC)c1
REMARK SMILES IDX 29 1 28 2 27 3 26 4 25 5 24 6 22 7 23 8 21 9 16 10 17 11
REMARK SMILES IDX 102 12 18 13 19 14 15 15 13 16 14 17 12 19 11 20 7 21 8 22
REMARK SMILES IDX 103 23 9 24 10 25 104 26 6 27 3 28 4 29 108 30 5 31 105 32
REMARK SMILES IDX 2 33 1 34 106 35 107 36 20 37 30 39 31 40 32 41 33 42 34 43
REMARK SMILES IDX 35 44 36 45 37 46 38 47 39 48 40 49 101 50 41 51 100 52
REMARK SMILES IDX 42 53 43 54 44 55 94 56 45 57 99 58 93 59 95 60 46 61 98 62
REMARK SMILES IDX 92 63 91 64 47 66 79 67 59 68 78 69 60 70 63 71 77 72 96 73
REMARK SMILES IDX 61 74 62 75 76 77 97 78 64 79 48 80 49 81 57 82 50 83 52 84
REMARK SMILES IDX 58 85 51 86 53 87 54 88 55 89 56 90 80 91 81 92 89 93 82 94
REMARK SMILES IDX 84 95 90 96 83 97 85 98 86 99 87 100 88 101 65 102 66 103
REMARK SMILES IDX 74 104 67 105 69 106 75 107 68 108 70 109 71 110 72 111
REMARK SMILES IDX 73 112
REMARK H PARENT 15 18 20 38 95 65 63 76
REMARK Flexibility Score: inf
ROOT
ATOM      1  C   UNL A   1      52.669  29.321  33.252  1.00  0.00     0.188 C 
ENDROOT
BRANCH   1   2
ATOM      2  C   UNL A   1      52.709  28.312  34.426  1.00  0.00     0.188 C 
BRANCH   2   3
ATOM      3  O   UNL A   1      51.812  27.202  34.476  1.00  0.00    -0.376 OA
BRANCH   3   4
ATOM      4  C   UNL A   1      50.490  27.347  33.974  1.00  0.00     0.202 C 
BRANCH   4   5
ATOM      5  C   UNL A   1      49.879  26.140  33.274  1.00  0.00     0.261 C 
BRANCH   5   6
ATOM      6  O   UNL A   1      48.575  26.413  32.735  1.00  0.00    -0.460 OA
BRANCH   6   7
ATOM      7  C   UNL A   1      47.533  25.700  33.221  1.00  0.00     0.342 C 
ATOM      8  O   UNL A   1      47.598  24.578  33.712  1.00  0.00    -0.246 OA
BRANCH   7   9
ATOM      9  C   UNL A   1      46.231  26.435  33.145  1.00  0.00     0.103 A 
ATOM     10  C   UNL A   1      44.981  28.501  32.714  1.00  0.00     0.042 A 
ATOM     11  C   UNL A   1      43.796  27.765  32.755  1.00  0.00     0.030 A 
ATOM     12  C   UNL A   1      46.162  27.837  33.028  1.00  0.00     0.045 A 
ATOM     13  C   UNL A   1      43.827  26.375  32.959  1.00  0.00     0.049 A 
ATOM     14  C   UNL A   1      45.042  25.711  33.110  1.00  0.00     0.130 A 
BRANCH  10  15
ATOM     15  N   UNL A   1      44.919  29.889  32.471  1.00  0.00    -0.326 N 
ATOM     16  C   UNL A   1      44.368  30.945  33.166  1.00  0.00     0.226 C 
ATOM     17  O   UNL A   1      44.137  31.979  32.533  1.00  0.00    -0.275 OA
ATOM     18  H   UNL A   1      45.361  30.160  31.635  1.00  0.00     0.169 HD
BRANCH  16  19
ATOM     19  C   UNL A   1      44.277  30.955  34.697  1.00  0.00     0.125 C 
BRANCH  19  20
ATOM     20  C   UNL A   1      42.917  30.521  35.293  1.00  0.00     0.156 C 
ATOM     21  N   UNL A   1      41.453  32.439  35.137  1.00  0.00    -0.236 N 
ATOM     22  C   UNL A   1      42.390  32.762  36.042  1.00  0.00     0.293 C 
ATOM     23  C   UNL A   1      41.670  31.182  34.610  1.00  0.00     0.248 C 
ATOM     24  O   UNL A   1      43.077  33.766  36.030  1.00  0.00    -0.261 OA
ATOM     25  S   UNL A   1      42.781  31.302  36.937  1.00  0.00    -0.050 SA
ATOM     26  O   UNL A   1      41.043  30.683  33.685  1.00  0.00    -0.273 OA
BRANCH  21  27
ATOM     27  C   UNL A   1      40.322  33.287  35.047  1.00  0.00     0.095 A 
ATOM     28  C   UNL A   1      37.857  34.351  34.245  1.00  0.00     0.122 A 
ATOM     29  C   UNL A   1      39.007  34.621  33.506  1.00  0.00     0.049 A 
ATOM     30  C   UNL A   1      37.917  33.547  35.381  1.00  0.00     0.095 A 
ATOM     31  C   UNL A   1      40.244  34.116  33.919  1.00  0.00     0.034 A 
ATOM     32  C   UNL A   1      39.142  33.011  35.787  1.00  0.00     0.146 A 
BRANCH  28  33
ATOM     33  O   UNL A   1      36.677  34.864  33.780  1.00  0.00    -0.497 OA
ATOM     34  C   UNL A   1      35.591  33.965  34.003  1.00  0.00     0.278 C 
ENDBRANCH  28  33
BRANCH  32  35
ATOM     35  O   UNL A   1      39.272  32.259  36.930  1.00  0.00    -0.494 OA
ATOM     36  C   UNL A   1      38.394  32.569  38.011  1.00  0.00     0.278 C 
ENDBRANCH  32  35
ENDBRANCH  21  27
ENDBRANCH  19  20
ENDBRANCH  16  19
ENDBRANCH  10  15
BRANCH  14  37
ATOM     37  O   UNL A   1      44.992  24.348  33.231  1.00  0.00    -0.507 OA
ATOM     38  H   UNL A   1      44.429  23.955  33.870  1.00  0.00     0.293 HD
ENDBRANCH  14  37
ENDBRANCH   7   9
ENDBRANCH   6   7
ENDBRANCH   5   6
ENDBRANCH   4   5
ENDBRANCH   3   4
ENDBRANCH   2   3
ENDBRANCH   1   2
BRANCH   1  39
ATOM     39  O   UNL A   1      53.806  29.298  32.404  1.00  0.00    -0.377 OA
BRANCH  39  40
ATOM     40  C   UNL A   1      54.893  30.116  32.825  1.00  0.00     0.188 C 
BRANCH  40  41
ATOM     41  C   UNL A   1      55.690  30.785  31.694  1.00  0.00     0.188 C 
BRANCH  41  42
ATOM     42  O   UNL A   1      55.814  29.954  30.538  1.00  0.00    -0.376 OA
BRANCH  42  43
ATOM     43  C   UNL A   1      55.128  30.360  29.360  1.00  0.00     0.202 C 
BRANCH  43  44
ATOM     44  C   UNL A   1      54.185  29.308  28.759  1.00  0.00     0.261 C 
BRANCH  44  45
ATOM     45  O   UNL A   1      53.098  29.832  27.979  1.00  0.00    -0.460 OA
BRANCH  45  46
ATOM     46  C   UNL A   1      52.139  28.963  27.589  1.00  0.00     0.338 C 
ATOM     47  O   UNL A   1      52.290  27.837  27.174  1.00  0.00    -0.246 OA
BRANCH  46  48
ATOM     48  C   UNL A   1      50.834  29.552  27.952  1.00  0.00     0.060 A 
ATOM     49  C   UNL A   1      50.441  29.523  29.295  1.00  0.00     0.016 A 
ATOM     50  C   UNL A   1      50.001  30.098  26.972  1.00  0.00     0.016 A 
ATOM     51  C   UNL A   1      49.177  29.986  29.655  1.00  0.00     0.010 A 
ATOM     52  C   UNL A   1      48.730  30.542  27.330  1.00  0.00     0.010 A 
ATOM     53  C   UNL A   1      48.300  30.443  28.664  1.00  0.00    -0.014 A 
BRANCH  53  54
ATOM     54  C   UNL A   1      46.860  30.579  28.975  1.00  0.00     0.031 A 
ATOM     55  C   UNL A   1      46.015  29.335  28.954  1.00  0.00     0.074 A 
ATOM     56  C   UNL A   1      46.312  31.775  29.245  1.00  0.00     0.049 A 
ATOM     57  N   UNL A   1      44.734  29.199  29.164  1.00  0.00    -0.248 NA
ATOM     58  C   UNL A   1      46.714  28.074  28.649  1.00  0.00     0.031 C 
ATOM     59  C   UNL A   1      47.031  33.047  29.285  1.00  0.00     0.029 A 
ATOM     60  N   UNL A   1      45.009  32.111  29.509  1.00  0.00    -0.354 N 
ATOM     61  C   UNL A   1      44.469  27.846  28.996  1.00  0.00     0.074 A 
ATOM     62  C   UNL A   1      45.717  27.203  28.654  1.00  0.00     0.031 C 
ATOM     63  C   UNL A   1      46.150  34.035  29.522  1.00  0.00     0.029 A 
ATOM     64  C   UNL A   1      44.808  33.464  29.636  1.00  0.00     0.049 A 
ATOM     65  H   UNL A   1      44.288  31.447  29.598  1.00  0.00     0.167 HD
ATOM     66  C   UNL A   1      43.292  27.190  29.132  1.00  0.00     0.034 A 
ATOM     67  C   UNL A   1      43.664  34.158  29.805  1.00  0.00     0.034 A 
ATOM     68  C   UNL A   1      42.055  27.831  29.476  1.00  0.00     0.049 A 
ATOM     69  C   UNL A   1      42.362  33.412  29.930  1.00  0.00     0.074 A 
ATOM     70  C   UNL A   1      40.815  27.254  29.683  1.00  0.00     0.029 A 
ATOM     71  N   UNL A   1      41.897  29.198  29.649  1.00  0.00    -0.354 N 
ATOM     72  N   UNL A   1      42.146  32.117  29.907  1.00  0.00    -0.248 NA
ATOM     73  C   UNL A   1      41.150  34.218  30.136  1.00  0.00     0.031 C 
ATOM     74  C   UNL A   1      39.901  28.277  29.961  1.00  0.00     0.029 A 
ATOM     75  C   UNL A   1      40.578  29.487  29.948  1.00  0.00     0.049 A 
ATOM     76  H   UNL A   1      42.618  29.863  29.571  1.00  0.00     0.167 HD
ATOM     77  C   UNL A   1      40.782  31.953  30.127  1.00  0.00     0.074 A 
ATOM     78  C   UNL A   1      40.226  33.279  30.300  1.00  0.00     0.031 C 
ATOM     79  C   UNL A   1      40.054  30.810  30.170  1.00  0.00     0.034 A 
BRANCH  66  80
ATOM     80  C   UNL A   1      43.306  25.700  28.931  1.00  0.00     0.023 A 
ATOM     81  C   UNL A   1      43.449  24.852  30.049  1.00  0.00     0.012 A 
ATOM     82  C   UNL A   1      43.162  25.139  27.649  1.00  0.00     0.148 A 
ATOM     83  C   UNL A   1      43.478  23.467  29.889  1.00  0.00     0.002 A 
ATOM     84  C   UNL A   1      43.152  23.757  27.503  1.00  0.00     0.091 A 
ATOM     85  F   UNL A   1      43.062  25.963  26.597  1.00  0.00    -0.205 F 
ATOM     86  C   UNL A   1      43.321  22.920  28.619  1.00  0.00     0.022 A 
BRANCH  84  87
ATOM     87  S   UNL A   1      42.889  22.961  25.914  1.00  0.00     0.127 S 
ATOM     88  O   UNL A   1      41.627  22.260  26.140  1.00  0.00    -0.237 OA
ATOM     89  O   UNL A   1      42.798  24.104  25.005  1.00  0.00    -0.237 OA
ATOM     90  O   UNL A   1      44.053  22.111  25.700  1.00  0.00    -0.744 OA
ENDBRANCH  84  87
ENDBRANCH  66  80
BRANCH  67  91
ATOM     91  C   UNL A   1      43.709  35.644  29.905  1.00  0.00     0.023 A 
ATOM     92  C   UNL A   1      43.933  36.248  31.157  1.00  0.00     0.012 A 
ATOM     93  C   UNL A   1      43.560  36.456  28.765  1.00  0.00     0.148 A 
ATOM     94  C   UNL A   1      43.987  37.637  31.275  1.00  0.00     0.002 A 
ATOM     95  C   UNL A   1      43.666  37.836  28.881  1.00  0.00     0.091 A 
ATOM     96  F   UNL A   1      43.327  35.860  27.587  1.00  0.00    -0.205 F 
ATOM     97  C   UNL A   1      43.865  38.431  30.138  1.00  0.00     0.022 A 
BRANCH  95  98
ATOM     98  S   UNL A   1      43.653  38.923  27.452  1.00  0.00     0.127 S 
ATOM     99  O   UNL A   1      44.834  38.470  26.721  1.00  0.00    -0.237 OA
ATOM    100  O   UNL A   1      42.373  38.582  26.829  1.00  0.00    -0.237 OA
ATOM    101  O   UNL A   1      43.715  40.275  27.991  1.00  0.00    -0.744 OA
ENDBRANCH  95  98
ENDBRANCH  67  91
BRANCH  79 102
ATOM    102  C   UNL A   1      38.576  30.930  30.439  1.00  0.00     0.023 A 
ATOM    103  C   UNL A   1      38.106  30.917  31.766  1.00  0.00     0.012 A 
ATOM    104  C   UNL A   1      37.669  31.148  29.384  1.00  0.00     0.148 A 
ATOM    105  C   UNL A   1      36.750  31.095  32.038  1.00  0.00     0.002 A 
ATOM    106  C   UNL A   1      36.325  31.371  29.666  1.00  0.00     0.091 A 
ATOM    107  F   UNL A   1      38.133  31.137  28.126  1.00  0.00    -0.205 F 
ATOM    108  C   UNL A   1      35.863  31.334  30.991  1.00  0.00     0.022 A 
BRANCH 106 109
ATOM    109  S   UNL A   1      35.133  31.782  28.386  1.00  0.00     0.127 S 
ATOM    110  O   UNL A   1      33.996  32.250  29.176  1.00  0.00    -0.237 OA
ATOM    111  O   UNL A   1      35.828  32.829  27.636  1.00  0.00    -0.237 OA
ATOM    112  O   UNL A   1      34.913  30.551  27.637  1.00  0.00    -0.744 OA
ENDBRANCH 106 109
ENDBRANCH  79 102
ENDBRANCH  53  54
ENDBRANCH  46  48
ENDBRANCH  45  46
ENDBRANCH  44  45
ENDBRANCH  43  44
ENDBRANCH  42  43
ENDBRANCH  41  42
ENDBRANCH  40  41
ENDBRANCH  39  40
ENDBRANCH   1  39
TORSDOF 30
ENDMDL
