MODEL 1
REMARK VINA RESULT:      -9.5      0.000      0.000
REMARK SMILES Cc1ccc(N2C(=O)C[C@H](Sc3ccccc3C(=O)OCCOCCOCCOCCOC(=O)c3ccc(-c4c5nc(c(-c6cccc(S(=O)(=O)[O-])c6F)c6ccc([nH]6)c(-c6cccc(S(=O)(=O)[O-])c6F)c6nc(c(-c7cccc(S(=O)(=O)[O-])c7F)c7ccc4[nH]7)C=C6)C=C5)cc3)C2=O)cc1
REMARK SMILES IDX 26 1 25 2 24 3 23 4 22 5 21 6 20 7 18 8 19 9 17 10 12 11
REMARK SMILES IDX 13 12 14 13 16 14 15 15 11 16 10 17 6 18 7 19 98 20 8 21
REMARK SMILES IDX 9 22 99 23 5 24 1 25 2 26 3 27 101 28 4 29 100 30 27 31
REMARK SMILES IDX 28 32 29 33 30 34 31 35 32 36 33 37 34 38 35 39 36 40 97 41
REMARK SMILES IDX 37 42 96 43 38 44 39 45 40 46 90 47 41 48 95 49 89 50 91 51
REMARK SMILES IDX 42 52 94 53 88 54 87 55 43 57 75 58 55 59 74 60 56 61 59 62
REMARK SMILES IDX 73 63 92 64 57 65 58 66 72 68 93 69 60 70 44 71 45 72 53 73
REMARK SMILES IDX 46 74 48 75 54 76 47 77 49 78 50 79 51 80 52 81 76 82 77 83
REMARK SMILES IDX 85 84 78 85 80 86 86 87 79 88 81 89 82 90 83 91 84 92 61 93
REMARK SMILES IDX 62 94 70 95 63 96 65 97 71 98 64 99 66 100 67 101 68 102
REMARK SMILES IDX 69 103
REMARK H PARENT 91 56 59 67
REMARK Flexibility Score: inf
ROOT
ATOM      1  O   UNL A   1      40.794  26.229  28.404  1.00  0.00    -0.377 OA
ENDROOT
BRANCH   1   2
ATOM      2  C   UNL A   1      40.352  24.904  28.086  1.00  0.00     0.188 C 
BRANCH   2   3
ATOM      3  C   UNL A   1      39.766  24.776  26.680  1.00  0.00     0.188 C 
BRANCH   3   4
ATOM      4  O   UNL A   1      38.954  23.613  26.595  1.00  0.00    -0.376 OA
BRANCH   4   5
ATOM      5  C   UNL A   1      37.613  23.763  26.148  1.00  0.00     0.202 C 
BRANCH   5   6
ATOM      6  C   UNL A   1      37.181  22.847  25.029  1.00  0.00     0.261 C 
BRANCH   6   7
ATOM      7  O   UNL A   1      35.943  22.235  25.332  1.00  0.00    -0.460 OA
BRANCH   7   8
ATOM      8  C   UNL A   1      34.903  22.671  24.612  1.00  0.00     0.339 C 
ATOM      9  O   UNL A   1      34.745  23.762  24.105  1.00  0.00    -0.246 OA
BRANCH   8  10
ATOM     10  C   UNL A   1      34.137  21.451  24.321  1.00  0.00     0.073 A 
ATOM     11  C   UNL A   1      32.999  21.499  23.496  1.00  0.00     0.023 A 
ATOM     12  C   UNL A   1      32.269  20.313  23.364  1.00  0.00     0.016 A 
ATOM     13  C   UNL A   1      32.697  19.114  23.953  1.00  0.00     0.001 A 
ATOM     14  C   UNL A   1      34.599  20.232  24.873  1.00  0.00     0.017 A 
ATOM     15  C   UNL A   1      33.881  19.061  24.677  1.00  0.00     0.001 A 
BRANCH  11  16
ATOM     16  S   UNL A   1      32.251  22.974  22.778  1.00  0.00    -0.111 SA
BRANCH  16  17
ATOM     17  C   UNL A   1      31.148  23.727  24.054  1.00  0.00     0.151 C 
ATOM     18  N   UNL A   1      32.053  25.324  25.498  1.00  0.00    -0.250 N 
ATOM     19  C   UNL A   1      31.664  24.269  26.268  1.00  0.00     0.235 C 
ATOM     20  C   UNL A   1      31.457  25.197  24.278  1.00  0.00     0.247 C 
ATOM     21  O   UNL A   1      31.530  24.270  27.457  1.00  0.00    -0.274 OA
ATOM     22  C   UNL A   1      31.181  23.139  25.429  1.00  0.00     0.126 C 
ATOM     23  O   UNL A   1      31.146  26.093  23.503  1.00  0.00    -0.273 OA
BRANCH  18  24
ATOM     24  C   UNL A   1      32.406  26.530  26.148  1.00  0.00     0.052 A 
ATOM     25  C   UNL A   1      33.323  30.555  27.444  1.00  0.00     0.044 C 
ATOM     26  C   UNL A   1      33.003  29.139  27.058  1.00  0.00    -0.051 A 
ATOM     27  C   UNL A   1      34.009  28.309  26.543  1.00  0.00     0.005 A 
ATOM     28  C   UNL A   1      31.693  28.649  27.120  1.00  0.00     0.005 A 
ATOM     29  C   UNL A   1      33.717  27.012  26.100  1.00  0.00     0.027 A 
ATOM     30  C   UNL A   1      31.394  27.364  26.647  1.00  0.00     0.027 A 
ENDBRANCH  18  24
ENDBRANCH  16  17
ENDBRANCH  11  16
ENDBRANCH   8  10
ENDBRANCH   7   8
ENDBRANCH   6   7
ENDBRANCH   5   6
ENDBRANCH   4   5
ENDBRANCH   3   4
ENDBRANCH   2   3
ENDBRANCH   1   2
BRANCH   1  31
ATOM     31  C   UNL A   1      40.231  27.243  27.561  1.00  0.00     0.188 C 
BRANCH  31  32
ATOM     32  C   UNL A   1      41.178  28.274  26.825  1.00  0.00     0.188 C 
BRANCH  32  33
ATOM     33  O   UNL A   1      42.546  27.991  26.667  1.00  0.00    -0.376 OA
BRANCH  33  34
ATOM     34  C   UNL A   1      42.787  27.538  25.347  1.00  0.00     0.202 C 
BRANCH  34  35
ATOM     35  C   UNL A   1      42.868  25.966  25.071  1.00  0.00     0.261 C 
BRANCH  35  36
ATOM     36  O   UNL A   1      43.207  25.074  26.235  1.00  0.00    -0.460 OA
BRANCH  36  37
ATOM     37  C   UNL A   1      43.785  23.816  26.275  1.00  0.00     0.338 C 
ATOM     38  O   UNL A   1      43.918  23.105  25.294  1.00  0.00    -0.246 OA
BRANCH  37  39
ATOM     39  C   UNL A   1      44.248  23.436  27.726  1.00  0.00     0.060 A 
ATOM     40  C   UNL A   1      43.450  22.833  28.677  1.00  0.00     0.016 A 
ATOM     41  C   UNL A   1      45.485  23.766  28.250  1.00  0.00     0.016 A 
ATOM     42  C   UNL A   1      43.601  23.165  30.056  1.00  0.00     0.010 A 
ATOM     43  C   UNL A   1      45.559  24.289  29.544  1.00  0.00     0.010 A 
ATOM     44  C   UNL A   1      44.512  24.130  30.440  1.00  0.00    -0.014 A 
BRANCH  44  45
ATOM     45  C   UNL A   1      44.467  25.018  31.639  1.00  0.00     0.031 A 
ATOM     46  C   UNL A   1      43.936  26.444  31.459  1.00  0.00     0.074 A 
ATOM     47  C   UNL A   1      44.437  24.427  32.875  1.00  0.00     0.049 A 
ATOM     48  N   UNL A   1      43.600  27.280  32.390  1.00  0.00    -0.248 NA
ATOM     49  C   UNL A   1      43.646  27.009  30.138  1.00  0.00     0.031 C 
ATOM     50  C   UNL A   1      43.743  24.982  34.029  1.00  0.00     0.029 A 
ATOM     51  N   UNL A   1      44.777  23.169  33.376  1.00  0.00    -0.354 N 
ATOM     52  C   UNL A   1      42.789  28.281  31.853  1.00  0.00     0.074 A 
ATOM     53  C   UNL A   1      42.928  28.102  30.430  1.00  0.00     0.031 C 
ATOM     54  C   UNL A   1      43.492  24.051  34.960  1.00  0.00     0.029 A 
ATOM     55  C   UNL A   1      44.512  23.071  34.766  1.00  0.00     0.049 A 
ATOM     56  H   UNL A   1      45.154  22.440  32.833  1.00  0.00     0.167 HD
ATOM     57  C   UNL A   1      41.998  29.063  32.668  1.00  0.00     0.034 A 
ATOM     58  C   UNL A   1      45.505  23.076  35.724  1.00  0.00     0.034 A 
ATOM     59  C   UNL A   1      42.248  28.787  34.130  1.00  0.00     0.049 A 
ATOM     60  C   UNL A   1      45.769  24.502  36.342  1.00  0.00     0.074 A 
ATOM     61  C   UNL A   1      41.475  28.637  35.277  1.00  0.00     0.029 A 
ATOM     62  N   UNL A   1      43.543  28.480  34.560  1.00  0.00    -0.354 N 
ATOM     63  N   UNL A   1      44.883  25.479  36.477  1.00  0.00    -0.248 NA
ATOM     64  C   UNL A   1      47.084  24.949  36.785  1.00  0.00     0.031 C 
ATOM     65  C   UNL A   1      42.306  28.144  36.344  1.00  0.00     0.029 A 
ATOM     66  C   UNL A   1      43.610  28.067  35.887  1.00  0.00     0.049 A 
ATOM     67  H   UNL A   1      44.332  28.550  33.978  1.00  0.00     0.167 HD
ATOM     68  C   UNL A   1      45.517  26.695  36.671  1.00  0.00     0.074 A 
ATOM     69  C   UNL A   1      46.885  26.269  36.971  1.00  0.00     0.031 C 
ATOM     70  C   UNL A   1      44.945  27.950  36.490  1.00  0.00     0.034 A 
BRANCH  57  71
ATOM     71  C   UNL A   1      40.846  30.029  32.207  1.00  0.00     0.023 A 
ATOM     72  C   UNL A   1      41.140  31.417  32.218  1.00  0.00     0.012 A 
ATOM     73  C   UNL A   1      39.500  29.724  31.833  1.00  0.00     0.148 A 
ATOM     74  C   UNL A   1      40.193  32.423  31.948  1.00  0.00     0.002 A 
ATOM     75  C   UNL A   1      38.569  30.733  31.483  1.00  0.00     0.091 A 
ATOM     76  F   UNL A   1      39.068  28.460  31.867  1.00  0.00    -0.205 F 
ATOM     77  C   UNL A   1      38.910  32.083  31.570  1.00  0.00     0.022 A 
BRANCH  75  78
ATOM     78  S   UNL A   1      36.888  30.412  30.877  1.00  0.00     0.127 S 
ATOM     79  O   UNL A   1      36.332  31.761  30.764  1.00  0.00    -0.237 OA
ATOM     80  O   UNL A   1      37.136  29.755  29.593  1.00  0.00    -0.237 OA
ATOM     81  O   UNL A   1      36.249  29.570  31.879  1.00  0.00    -0.744 OA
ENDBRANCH  75  78
ENDBRANCH  57  71
BRANCH  58  82
ATOM     82  C   UNL A   1      46.416  21.901  35.495  1.00  0.00     0.023 A 
ATOM     83  C   UNL A   1      47.520  22.196  34.642  1.00  0.00     0.012 A 
ATOM     84  C   UNL A   1      46.624  21.030  36.571  1.00  0.00     0.148 A 
ATOM     85  C   UNL A   1      48.830  21.911  35.040  1.00  0.00     0.002 A 
ATOM     86  C   UNL A   1      47.931  20.792  36.987  1.00  0.00     0.091 A 
ATOM     87  F   UNL A   1      45.561  20.625  37.279  1.00  0.00    -0.205 F 
ATOM     88  C   UNL A   1      49.033  21.275  36.253  1.00  0.00     0.022 A 
BRANCH  86  89
ATOM     89  S   UNL A   1      48.264  20.302  38.676  1.00  0.00     0.127 S 
ATOM     90  O   UNL A   1      47.401  21.174  39.459  1.00  0.00    -0.237 OA
ATOM     91  O   UNL A   1      47.828  18.910  38.629  1.00  0.00    -0.237 OA
ATOM     92  O   UNL A   1      49.695  20.503  38.852  1.00  0.00    -0.744 OA
ENDBRANCH  86  89
ENDBRANCH  58  82
BRANCH  70  93
ATOM     93  C   UNL A   1      45.648  29.310  36.735  1.00  0.00     0.023 A 
ATOM     94  C   UNL A   1      45.405  30.068  37.887  1.00  0.00     0.012 A 
ATOM     95  C   UNL A   1      46.521  29.924  35.776  1.00  0.00     0.148 A 
ATOM     96  C   UNL A   1      46.119  31.241  38.170  1.00  0.00     0.002 A 
ATOM     97  C   UNL A   1      47.231  31.087  36.053  1.00  0.00     0.091 A 
ATOM     98  F   UNL A   1      46.614  29.449  34.532  1.00  0.00    -0.205 F 
ATOM     99  C   UNL A   1      47.060  31.730  37.273  1.00  0.00     0.022 A 
BRANCH  97 100
ATOM    100  S   UNL A   1      48.364  31.839  34.868  1.00  0.00     0.127 S 
ATOM    101  O   UNL A   1      47.442  32.276  33.819  1.00  0.00    -0.237 OA
ATOM    102  O   UNL A   1      48.947  32.924  35.658  1.00  0.00    -0.237 OA
ATOM    103  O   UNL A   1      49.306  30.801  34.476  1.00  0.00    -0.744 OA
ENDBRANCH  97 100
ENDBRANCH  70  93
ENDBRANCH  44  45
ENDBRANCH  37  39
ENDBRANCH  36  37
ENDBRANCH  35  36
ENDBRANCH  34  35
ENDBRANCH  33  34
ENDBRANCH  32  33
ENDBRANCH  31  32
ENDBRANCH   1  31
TORSDOF 26
ENDMDL
MODEL 2
REMARK VINA RESULT:      -9.2      5.428     10.576
REMARK SMILES Cc1ccc(N2C(=O)C[C@H](Sc3ccccc3C(=O)OCCOCCOCCOCCOC(=O)c3ccc(-c4c5nc(c(-c6cccc(S(=O)(=O)[O-])c6F)c6ccc([nH]6)c(-c6cccc(S(=O)(=O)[O-])c6F)c6nc(c(-c7cccc(S(=O)(=O)[O-])c7F)c7ccc4[nH]7)C=C6)C=C5)cc3)C2=O)cc1
REMARK SMILES IDX 26 1 25 2 24 3 23 4 22 5 21 6 20 7 18 8 19 9 17 10 12 11
REMARK SMILES IDX 13 12 14 13 16 14 15 15 11 16 10 17 6 18 7 19 98 20 8 21
REMARK SMILES IDX 9 22 99 23 5 24 1 25 2 26 3 27 101 28 4 29 100 30 27 31
REMARK SMILES IDX 28 32 29 33 30 34 31 35 32 36 33 37 34 38 35 39 36 40 97 41
REMARK SMILES IDX 37 42 96 43 38 44 39 45 40 46 90 47 41 48 95 49 89 50 91 51
REMARK SMILES IDX 42 52 94 53 88 54 87 55 43 57 75 58 55 59 74 60 56 61 59 62
REMARK SMILES IDX 73 63 92 64 57 65 58 66 72 68 93 69 60 70 44 71 45 72 53 73
REMARK SMILES IDX 46 74 48 75 54 76 47 77 49 78 50 79 51 80 52 81 76 82 77 83
REMARK SMILES IDX 85 84 78 85 80 86 86 87 79 88 81 89 82 90 83 91 84 92 61 93
REMARK SMILES IDX 62 94 70 95 63 96 65 97 71 98 64 99 66 100 67 101 68 102
REMARK SMILES IDX 69 103
REMARK H PARENT 91 56 59 67
REMARK Flexibility Score: inf
ROOT
ATOM      1  O   UNL A   1      37.995  32.750  29.150  1.00  0.00    -0.377 OA
ENDROOT
BRANCH   1   2
ATOM      2  C   UNL A   1      36.686  32.168  29.162  1.00  0.00     0.188 C 
BRANCH   2   3
ATOM      3  C   UNL A   1      36.464  31.142  28.050  1.00  0.00     0.188 C 
BRANCH   3   4
ATOM      4  O   UNL A   1      35.274  30.406  28.298  1.00  0.00    -0.376 OA
BRANCH   4   5
ATOM      5  C   UNL A   1      34.746  29.610  27.246  1.00  0.00     0.202 C 
BRANCH   5   6
ATOM      6  C   UNL A   1      33.249  29.424  27.241  1.00  0.00     0.261 C 
BRANCH   6   7
ATOM      7  O   UNL A   1      32.823  28.817  26.037  1.00  0.00    -0.460 OA
BRANCH   7   8
ATOM      8  C   UNL A   1      31.920  27.841  26.183  1.00  0.00     0.339 C 
ATOM      9  O   UNL A   1      31.697  27.163  27.164  1.00  0.00    -0.246 OA
BRANCH   8  10
ATOM     10  C   UNL A   1      31.062  27.973  24.997  1.00  0.00     0.073 A 
ATOM     11  C   UNL A   1      30.282  26.890  24.553  1.00  0.00     0.023 A 
ATOM     12  C   UNL A   1      29.582  27.070  23.354  1.00  0.00     0.016 A 
ATOM     13  C   UNL A   1      29.588  28.297  22.674  1.00  0.00     0.001 A 
ATOM     14  C   UNL A   1      31.027  29.227  24.341  1.00  0.00     0.017 A 
ATOM     15  C   UNL A   1      30.279  29.389  23.184  1.00  0.00     0.001 A 
BRANCH  11  16
ATOM     16  S   UNL A   1      30.268  25.222  25.235  1.00  0.00    -0.111 SA
BRANCH  16  17
ATOM     17  C   UNL A   1      31.282  24.148  24.126  1.00  0.00     0.151 C 
ATOM     18  N   UNL A   1      33.529  23.805  24.666  1.00  0.00    -0.250 N 
ATOM     19  C   UNL A   1      33.504  24.449  23.465  1.00  0.00     0.235 C 
ATOM     20  C   UNL A   1      32.281  23.308  24.903  1.00  0.00     0.247 C 
ATOM     21  O   UNL A   1      34.416  24.552  22.697  1.00  0.00    -0.274 OA
ATOM     22  C   UNL A   1      32.115  24.825  23.084  1.00  0.00     0.126 C 
ATOM     23  O   UNL A   1      31.985  22.320  25.563  1.00  0.00    -0.273 OA
BRANCH  18  24
ATOM     24  C   UNL A   1      34.757  23.258  25.105  1.00  0.00     0.052 A 
ATOM     25  C   UNL A   1      38.779  21.791  25.734  1.00  0.00     0.044 C 
ATOM     26  C   UNL A   1      37.372  22.296  25.581  1.00  0.00    -0.051 A 
ATOM     27  C   UNL A   1      36.374  21.448  25.082  1.00  0.00     0.005 A 
ATOM     28  C   UNL A   1      37.049  23.632  25.846  1.00  0.00     0.005 A 
ATOM     29  C   UNL A   1      35.074  21.920  24.854  1.00  0.00     0.027 A 
ATOM     30  C   UNL A   1      35.758  24.114  25.588  1.00  0.00     0.027 A 
ENDBRANCH  18  24
ENDBRANCH  16  17
ENDBRANCH  11  16
ENDBRANCH   8  10
ENDBRANCH   7   8
ENDBRANCH   6   7
ENDBRANCH   5   6
ENDBRANCH   4   5
ENDBRANCH   3   4
ENDBRANCH   2   3
ENDBRANCH   1   2
BRANCH   1  31
ATOM     31  C   UNL A   1      38.065  34.029  29.795  1.00  0.00     0.188 C 
BRANCH  31  32
ATOM     32  C   UNL A   1      39.284  34.372  30.742  1.00  0.00     0.188 C 
BRANCH  32  33
ATOM     33  O   UNL A   1      40.554  33.826  30.486  1.00  0.00    -0.376 OA
BRANCH  33  34
ATOM     34  C   UNL A   1      41.455  34.226  31.502  1.00  0.00     0.202 C 
BRANCH  34  35
ATOM     35  C   UNL A   1      41.216  33.710  32.996  1.00  0.00     0.261 C 
BRANCH  35  36
ATOM     36  O   UNL A   1      41.234  32.222  33.227  1.00  0.00    -0.460 OA
BRANCH  36  37
ATOM     37  C   UNL A   1      40.337  31.236  32.854  1.00  0.00     0.338 C 
ATOM     38  O   UNL A   1      39.136  31.423  32.750  1.00  0.00    -0.246 OA
BRANCH  37  39
ATOM     39  C   UNL A   1      41.058  29.869  32.580  1.00  0.00     0.060 A 
ATOM     40  C   UNL A   1      42.239  29.468  33.168  1.00  0.00     0.016 A 
ATOM     41  C   UNL A   1      40.641  28.957  31.628  1.00  0.00     0.016 A 
ATOM     42  C   UNL A   1      43.181  28.689  32.432  1.00  0.00     0.010 A 
ATOM     43  C   UNL A   1      41.588  28.374  30.781  1.00  0.00     0.010 A 
ATOM     44  C   UNL A   1      42.936  28.378  31.108  1.00  0.00    -0.014 A 
BRANCH  44  45
ATOM     45  C   UNL A   1      43.926  28.109  30.024  1.00  0.00     0.031 A 
ATOM     46  C   UNL A   1      44.205  26.650  29.649  1.00  0.00     0.074 A 
ATOM     47  C   UNL A   1      44.175  29.109  29.119  1.00  0.00     0.049 A 
ATOM     48  N   UNL A   1      44.836  26.215  28.604  1.00  0.00    -0.248 NA
ATOM     49  C   UNL A   1      43.675  25.528  30.429  1.00  0.00     0.031 C 
ATOM     50  C   UNL A   1      44.507  28.879  27.720  1.00  0.00     0.029 A 
ATOM     51  N   UNL A   1      43.998  30.493  29.104  1.00  0.00    -0.354 N 
ATOM     52  C   UNL A   1      44.527  24.869  28.395  1.00  0.00     0.074 A 
ATOM     53  C   UNL A   1      43.867  24.480  29.615  1.00  0.00     0.031 C 
ATOM     54  C   UNL A   1      44.280  29.962  26.965  1.00  0.00     0.029 A 
ATOM     55  C   UNL A   1      44.407  31.059  27.870  1.00  0.00     0.049 A 
ATOM     56  H   UNL A   1      43.634  31.013  29.856  1.00  0.00     0.167 HD
ATOM     57  C   UNL A   1      44.750  24.276  27.171  1.00  0.00     0.034 A 
ATOM     58  C   UNL A   1      45.567  31.793  27.726  1.00  0.00     0.034 A 
ATOM     59  C   UNL A   1      45.468  25.198  26.218  1.00  0.00     0.049 A 
ATOM     60  C   UNL A   1      46.786  30.936  27.212  1.00  0.00     0.074 A 
ATOM     61  C   UNL A   1      45.373  25.533  24.871  1.00  0.00     0.029 A 
ATOM     62  N   UNL A   1      46.434  26.080  26.712  1.00  0.00    -0.354 N 
ATOM     63  N   UNL A   1      46.725  29.864  26.435  1.00  0.00    -0.248 NA
ATOM     64  C   UNL A   1      48.166  31.195  27.606  1.00  0.00     0.031 C 
ATOM     65  C   UNL A   1      46.210  26.676  24.610  1.00  0.00     0.029 A 
ATOM     66  C   UNL A   1      46.887  27.000  25.772  1.00  0.00     0.049 A 
ATOM     67  H   UNL A   1      46.762  26.052  27.639  1.00  0.00     0.167 HD
ATOM     68  C   UNL A   1      47.902  29.137  26.506  1.00  0.00     0.074 A 
ATOM     69  C   UNL A   1      48.798  30.091  27.162  1.00  0.00     0.031 C 
ATOM     70  C   UNL A   1      48.063  27.807  26.130  1.00  0.00     0.034 A 
BRANCH  57  71
ATOM     71  C   UNL A   1      44.214  22.874  26.699  1.00  0.00     0.023 A 
ATOM     72  C   UNL A   1      42.957  22.469  27.216  1.00  0.00     0.012 A 
ATOM     73  C   UNL A   1      44.840  21.897  25.863  1.00  0.00     0.148 A 
ATOM     74  C   UNL A   1      42.385  21.203  26.991  1.00  0.00     0.002 A 
ATOM     75  C   UNL A   1      44.227  20.653  25.570  1.00  0.00     0.091 A 
ATOM     76  F   UNL A   1      46.066  22.117  25.382  1.00  0.00    -0.205 F 
ATOM     77  C   UNL A   1      43.014  20.296  26.160  1.00  0.00     0.022 A 
BRANCH  75  78
ATOM     78  S   UNL A   1      44.902  19.423  24.420  1.00  0.00     0.127 S 
ATOM     79  O   UNL A   1      46.321  19.404  24.776  1.00  0.00    -0.237 OA
ATOM     80  O   UNL A   1      44.174  18.210  24.794  1.00  0.00    -0.237 OA
ATOM     81  O   UNL A   1      44.615  19.917  23.080  1.00  0.00    -0.744 OA
ENDBRANCH  75  78
ENDBRANCH  57  71
BRANCH  58  82
ATOM     82  C   UNL A   1      45.499  33.002  28.618  1.00  0.00     0.023 A 
ATOM     83  C   UNL A   1      46.466  32.990  29.666  1.00  0.00     0.012 A 
ATOM     84  C   UNL A   1      45.187  34.227  28.016  1.00  0.00     0.148 A 
ATOM     85  C   UNL A   1      47.321  34.079  29.865  1.00  0.00     0.002 A 
ATOM     86  C   UNL A   1      46.071  35.290  28.184  1.00  0.00     0.091 A 
ATOM     87  F   UNL A   1      44.170  34.270  27.146  1.00  0.00    -0.205 F 
ATOM     88  C   UNL A   1      47.166  35.200  29.067  1.00  0.00     0.022 A 
BRANCH  86  89
ATOM     89  S   UNL A   1      46.146  36.599  26.967  1.00  0.00     0.127 S 
ATOM     90  O   UNL A   1      47.186  37.480  27.477  1.00  0.00    -0.237 OA
ATOM     91  O   UNL A   1      46.536  35.830  25.789  1.00  0.00    -0.237 OA
ATOM     92  O   UNL A   1      44.803  37.159  26.930  1.00  0.00    -0.744 OA
ENDBRANCH  86  89
ENDBRANCH  58  82
BRANCH  70  93
ATOM     93  C   UNL A   1      49.387  27.003  26.184  1.00  0.00     0.023 A 
ATOM     94  C   UNL A   1      49.670  26.119  27.232  1.00  0.00     0.012 A 
ATOM     95  C   UNL A   1      50.442  27.167  25.225  1.00  0.00     0.148 A 
ATOM     96  C   UNL A   1      50.812  25.306  27.231  1.00  0.00     0.002 A 
ATOM     97  C   UNL A   1      51.576  26.362  25.220  1.00  0.00     0.091 A 
ATOM     98  F   UNL A   1      50.419  28.173  24.347  1.00  0.00    -0.205 F 
ATOM     99  C   UNL A   1      51.745  25.398  26.206  1.00  0.00     0.022 A 
BRANCH  97 100
ATOM    100  S   UNL A   1      52.884  26.535  23.991  1.00  0.00     0.127 S 
ATOM    101  O   UNL A   1      53.503  27.797  24.397  1.00  0.00    -0.237 OA
ATOM    102  O   UNL A   1      53.697  25.346  24.250  1.00  0.00    -0.237 OA
ATOM    103  O   UNL A   1      52.233  26.551  22.689  1.00  0.00    -0.744 OA
ENDBRANCH  97 100
ENDBRANCH  70  93
ENDBRANCH  44  45
ENDBRANCH  37  39
ENDBRANCH  36  37
ENDBRANCH  35  36
ENDBRANCH  34  35
ENDBRANCH  33  34
ENDBRANCH  32  33
ENDBRANCH  31  32
ENDBRANCH   1  31
TORSDOF 26
ENDMDL
MODEL 3
REMARK VINA RESULT:      -8.9      2.934      8.106
REMARK SMILES Cc1ccc(N2C(=O)C[C@H](Sc3ccccc3C(=O)OCCOCCOCCOCCOC(=O)c3ccc(-c4c5nc(c(-c6cccc(S(=O)(=O)[O-])c6F)c6ccc([nH]6)c(-c6cccc(S(=O)(=O)[O-])c6F)c6nc(c(-c7cccc(S(=O)(=O)[O-])c7F)c7ccc4[nH]7)C=C6)C=C5)cc3)C2=O)cc1
REMARK SMILES IDX 26 1 25 2 24 3 23 4 22 5 21 6 20 7 18 8 19 9 17 10 12 11
REMARK SMILES IDX 13 12 14 13 16 14 15 15 11 16 10 17 6 18 7 19 98 20 8 21
REMARK SMILES IDX 9 22 99 23 5 24 1 25 2 26 3 27 101 28 4 29 100 30 27 31
REMARK SMILES IDX 28 32 29 33 30 34 31 35 32 36 33 37 34 38 35 39 36 40 97 41
REMARK SMILES IDX 37 42 96 43 38 44 39 45 40 46 90 47 41 48 95 49 89 50 91 51
REMARK SMILES IDX 42 52 94 53 88 54 87 55 43 57 75 58 55 59 74 60 56 61 59 62
REMARK SMILES IDX 73 63 92 64 57 65 58 66 72 68 93 69 60 70 44 71 45 72 53 73
REMARK SMILES IDX 46 74 48 75 54 76 47 77 49 78 50 79 51 80 52 81 76 82 77 83
REMARK SMILES IDX 85 84 78 85 80 86 86 87 79 88 81 89 82 90 83 91 84 92 61 93
REMARK SMILES IDX 62 94 70 95 63 96 65 97 71 98 64 99 66 100 67 101 68 102
REMARK SMILES IDX 69 103
REMARK H PARENT 91 56 59 67
REMARK Flexibility Score: inf
ROOT
ATOM      1  O   UNL A   1      41.418  21.555  25.851  1.00  0.00    -0.377 OA
ENDROOT
BRANCH   1   2
ATOM      2  C   UNL A   1      40.069  21.555  26.334  1.00  0.00     0.188 C 
BRANCH   2   3
ATOM      3  C   UNL A   1      39.213  20.429  25.754  1.00  0.00     0.188 C 
BRANCH   3   4
ATOM      4  O   UNL A   1      38.020  20.963  25.194  1.00  0.00    -0.376 OA
BRANCH   4   5
ATOM      5  C   UNL A   1      37.735  22.339  25.410  1.00  0.00     0.202 C 
BRANCH   5   6
ATOM      6  C   UNL A   1      37.019  23.051  24.289  1.00  0.00     0.261 C 
BRANCH   6   7
ATOM      7  O   UNL A   1      35.861  22.338  23.902  1.00  0.00    -0.460 OA
BRANCH   7   8
ATOM      8  C   UNL A   1      34.859  22.358  24.788  1.00  0.00     0.339 C 
ATOM      9  O   UNL A   1      34.557  23.243  25.561  1.00  0.00    -0.246 OA
BRANCH   8  10
ATOM     10  C   UNL A   1      34.032  21.202  24.415  1.00  0.00     0.073 A 
ATOM     11  C   UNL A   1      32.983  21.341  23.489  1.00  0.00     0.023 A 
ATOM     12  C   UNL A   1      32.178  20.216  23.277  1.00  0.00     0.016 A 
ATOM     13  C   UNL A   1      32.456  18.985  23.891  1.00  0.00     0.001 A 
ATOM     14  C   UNL A   1      34.345  19.949  24.994  1.00  0.00     0.017 A 
ATOM     15  C   UNL A   1      33.561  18.838  24.721  1.00  0.00     0.001 A 
BRANCH  11  16
ATOM     16  S   UNL A   1      32.421  22.872  22.720  1.00  0.00    -0.111 SA
BRANCH  16  17
ATOM     17  C   UNL A   1      31.219  23.675  23.870  1.00  0.00     0.151 C 
ATOM     18  N   UNL A   1      32.025  25.256  25.389  1.00  0.00    -0.250 N 
ATOM     19  C   UNL A   1      31.523  24.222  26.123  1.00  0.00     0.235 C 
ATOM     20  C   UNL A   1      31.553  25.135  24.115  1.00  0.00     0.247 C 
ATOM     21  O   UNL A   1      31.268  24.240  27.291  1.00  0.00    -0.274 OA
ATOM     22  C   UNL A   1      31.090  23.100  25.245  1.00  0.00     0.126 C 
ATOM     23  O   UNL A   1      31.354  26.033  23.306  1.00  0.00    -0.273 OA
BRANCH  18  24
ATOM     24  C   UNL A   1      32.350  26.456  26.063  1.00  0.00     0.052 A 
ATOM     25  C   UNL A   1      33.237  30.466  27.425  1.00  0.00     0.044 C 
ATOM     26  C   UNL A   1      32.923  29.055  27.016  1.00  0.00    -0.051 A 
ATOM     27  C   UNL A   1      33.949  28.210  26.571  1.00  0.00     0.005 A 
ATOM     28  C   UNL A   1      31.604  28.585  26.986  1.00  0.00     0.005 A 
ATOM     29  C   UNL A   1      33.668  26.917  26.107  1.00  0.00     0.027 A 
ATOM     30  C   UNL A   1      31.319  27.305  26.492  1.00  0.00     0.027 A 
ENDBRANCH  18  24
ENDBRANCH  16  17
ENDBRANCH  11  16
ENDBRANCH   8  10
ENDBRANCH   7   8
ENDBRANCH   6   7
ENDBRANCH   5   6
ENDBRANCH   4   5
ENDBRANCH   3   4
ENDBRANCH   2   3
ENDBRANCH   1   2
BRANCH   1  31
ATOM     31  C   UNL A   1      42.049  20.269  25.899  1.00  0.00     0.188 C 
BRANCH  31  32
ATOM     32  C   UNL A   1      43.618  20.152  25.750  1.00  0.00     0.188 C 
BRANCH  32  33
ATOM     33  O   UNL A   1      44.422  21.304  25.807  1.00  0.00    -0.376 OA
BRANCH  33  34
ATOM     34  C   UNL A   1      45.723  20.998  25.340  1.00  0.00     0.202 C 
BRANCH  34  35
ATOM     35  C   UNL A   1      46.406  21.960  24.263  1.00  0.00     0.261 C 
BRANCH  35  36
ATOM     36  O   UNL A   1      45.863  23.359  24.140  1.00  0.00    -0.460 OA
BRANCH  36  37
ATOM     37  C   UNL A   1      46.464  24.587  24.359  1.00  0.00     0.338 C 
ATOM     38  O   UNL A   1      47.555  24.893  23.908  1.00  0.00    -0.246 OA
BRANCH  37  39
ATOM     39  C   UNL A   1      45.566  25.524  25.242  1.00  0.00     0.060 A 
ATOM     40  C   UNL A   1      45.812  26.861  25.478  1.00  0.00     0.016 A 
ATOM     41  C   UNL A   1      44.481  25.080  25.976  1.00  0.00     0.016 A 
ATOM     42  C   UNL A   1      45.492  27.438  26.743  1.00  0.00     0.010 A 
ATOM     43  C   UNL A   1      44.326  25.516  27.295  1.00  0.00     0.010 A 
ATOM     44  C   UNL A   1      44.982  26.648  27.754  1.00  0.00    -0.014 A 
BRANCH  44  45
ATOM     45  C   UNL A   1      45.102  26.845  29.230  1.00  0.00     0.031 A 
ATOM     46  C   UNL A   1      46.384  26.367  29.918  1.00  0.00     0.074 A 
ATOM     47  C   UNL A   1      44.334  27.821  29.811  1.00  0.00     0.049 A 
ATOM     48  N   UNL A   1      46.781  26.647  31.120  1.00  0.00    -0.248 NA
ATOM     49  C   UNL A   1      47.399  25.575  29.218  1.00  0.00     0.031 C 
ATOM     50  C   UNL A   1      44.749  28.605  30.966  1.00  0.00     0.029 A 
ATOM     51  N   UNL A   1      43.174  28.508  29.452  1.00  0.00    -0.354 N 
ATOM     52  C   UNL A   1      48.148  26.391  31.235  1.00  0.00     0.074 A 
ATOM     53  C   UNL A   1      48.454  25.644  30.041  1.00  0.00     0.031 C 
ATOM     54  C   UNL A   1      44.055  29.746  31.074  1.00  0.00     0.029 A 
ATOM     55  C   UNL A   1      42.811  29.467  30.432  1.00  0.00     0.049 A 
ATOM     56  H   UNL A   1      42.670  28.349  28.622  1.00  0.00     0.167 HD
ATOM     57  C   UNL A   1      48.887  26.945  32.259  1.00  0.00     0.034 A 
ATOM     58  C   UNL A   1      41.744  29.297  31.292  1.00  0.00     0.034 A 
ATOM     59  C   UNL A   1      48.019  27.686  33.244  1.00  0.00     0.049 A 
ATOM     60  C   UNL A   1      42.161  28.702  32.691  1.00  0.00     0.074 A 
ATOM     61  C   UNL A   1      48.082  28.887  33.944  1.00  0.00     0.029 A 
ATOM     62  N   UNL A   1      46.741  27.199  33.537  1.00  0.00    -0.354 N 
ATOM     63  N   UNL A   1      43.327  28.862  33.301  1.00  0.00    -0.248 NA
ATOM     64  C   UNL A   1      41.303  27.815  33.468  1.00  0.00     0.031 C 
ATOM     65  C   UNL A   1      46.805  29.143  34.559  1.00  0.00     0.029 A 
ATOM     66  C   UNL A   1      45.974  28.064  34.312  1.00  0.00     0.049 A 
ATOM     67  H   UNL A   1      46.415  26.325  33.225  1.00  0.00     0.167 HD
ATOM     68  C   UNL A   1      43.503  27.903  34.285  1.00  0.00     0.074 A 
ATOM     69  C   UNL A   1      42.149  27.361  34.412  1.00  0.00     0.031 C 
ATOM     70  C   UNL A   1      44.716  27.541  34.862  1.00  0.00     0.034 A 
BRANCH  57  71
ATOM     71  C   UNL A   1      50.455  26.977  32.371  1.00  0.00     0.023 A 
ATOM     72  C   UNL A   1      51.093  25.754  32.700  1.00  0.00     0.012 A 
ATOM     73  C   UNL A   1      51.352  28.085  32.252  1.00  0.00     0.148 A 
ATOM     74  C   UNL A   1      52.472  25.629  32.953  1.00  0.00     0.002 A 
ATOM     75  C   UNL A   1      52.750  27.944  32.426  1.00  0.00     0.091 A 
ATOM     76  F   UNL A   1      50.871  29.311  32.030  1.00  0.00    -0.205 F 
ATOM     77  C   UNL A   1      53.305  26.720  32.807  1.00  0.00     0.022 A 
BRANCH  75  78
ATOM     78  S   UNL A   1      53.957  29.274  32.166  1.00  0.00     0.127 S 
ATOM     79  O   UNL A   1      53.714  29.652  30.774  1.00  0.00    -0.237 OA
ATOM     80  O   UNL A   1      53.533  30.279  33.143  1.00  0.00    -0.237 OA
ATOM     81  O   UNL A   1      55.267  28.691  32.423  1.00  0.00    -0.744 OA
ENDBRANCH  75  78
ENDBRANCH  57  71
BRANCH  58  82
ATOM     82  C   UNL A   1      40.479  29.175  30.489  1.00  0.00     0.023 A 
ATOM     83  C   UNL A   1      39.974  27.842  30.424  1.00  0.00     0.012 A 
ATOM     84  C   UNL A   1      39.560  30.228  30.572  1.00  0.00     0.148 A 
ATOM     85  C   UNL A   1      38.649  27.560  30.768  1.00  0.00     0.002 A 
ATOM     86  C   UNL A   1      38.255  29.939  30.961  1.00  0.00     0.091 A 
ATOM     87  F   UNL A   1      40.019  31.483  30.473  1.00  0.00    -0.205 F 
ATOM     88  C   UNL A   1      37.812  28.610  31.110  1.00  0.00     0.022 A 
BRANCH  86  89
ATOM     89  S   UNL A   1      37.250  31.197  31.742  1.00  0.00     0.127 S 
ATOM     90  O   UNL A   1      36.047  30.476  32.134  1.00  0.00    -0.237 OA
ATOM     91  O   UNL A   1      38.119  31.565  32.855  1.00  0.00    -0.237 OA
ATOM     92  O   UNL A   1      37.070  32.222  30.725  1.00  0.00    -0.744 OA
ENDBRANCH  86  89
ENDBRANCH  58  82
BRANCH  70  93
ATOM     93  C   UNL A   1      44.907  26.489  35.984  1.00  0.00     0.023 A 
ATOM     94  C   UNL A   1      44.854  26.838  37.339  1.00  0.00     0.012 A 
ATOM     95  C   UNL A   1      45.232  25.115  35.722  1.00  0.00     0.148 A 
ATOM     96  C   UNL A   1      44.913  25.876  38.358  1.00  0.00     0.002 A 
ATOM     97  C   UNL A   1      45.291  24.159  36.730  1.00  0.00     0.091 A 
ATOM     98  F   UNL A   1      45.587  24.717  34.498  1.00  0.00    -0.205 F 
ATOM     99  C   UNL A   1      45.092  24.533  38.053  1.00  0.00     0.022 A 
BRANCH  97 100
ATOM    100  S   UNL A   1      45.655  22.423  36.401  1.00  0.00     0.127 S 
ATOM    101  O   UNL A   1      44.571  22.065  35.485  1.00  0.00    -0.237 OA
ATOM    102  O   UNL A   1      46.976  22.508  35.778  1.00  0.00    -0.237 OA
ATOM    103  O   UNL A   1      45.634  21.742  37.687  1.00  0.00    -0.744 OA
ENDBRANCH  97 100
ENDBRANCH  70  93
ENDBRANCH  44  45
ENDBRANCH  37  39
ENDBRANCH  36  37
ENDBRANCH  35  36
ENDBRANCH  34  35
ENDBRANCH  33  34
ENDBRANCH  32  33
ENDBRANCH  31  32
ENDBRANCH   1  31
TORSDOF 26
ENDMDL
