MODEL 1
REMARK VINA RESULT:      -8.4      0.000      0.000
REMARK SMILES O=C(OCCOCCOCCOCCOC(=O)c1nc(F)ccc1Br)c1ccc(-c2c3nc(c(-c4cccc(S(=O)(=O)[O-])c4F)c4ccc([nH]4)c(-c4cccc(S(=O)(=O)[O-])c4F)c4nc(c(-c5cccc(S(=O)(=O)[O-])c5F)c5ccc2[nH]5)C=C4)C=C3)cc1
REMARK SMILES IDX 7 1 6 2 5 3 4 4 3 5 2 6 1 7 26 8 27 9 88 10 28 11 87 12
REMARK SMILES IDX 29 13 30 14 31 15 81 16 32 17 86 18 80 19 82 20 33 21 85 22
REMARK SMILES IDX 79 23 78 24 34 26 66 27 46 28 65 29 47 30 50 31 64 32 83 33
REMARK SMILES IDX 48 34 49 35 63 37 84 38 51 39 35 40 36 41 44 42 37 43 39 44
REMARK SMILES IDX 45 45 38 46 40 47 41 48 42 49 43 50 67 51 68 52 76 53 69 54
REMARK SMILES IDX 71 55 77 56 70 57 72 58 73 59 74 60 75 61 52 62 53 63 61 64
REMARK SMILES IDX 54 65 56 66 62 67 55 68 57 69 58 70 59 71 60 72 8 73 9 74
REMARK SMILES IDX 10 75 11 76 12 77 13 78 14 79 15 80 16 81 17 82 18 83 19 84
REMARK SMILES IDX 24 85 20 86 23 87 25 88 21 89 22 90
REMARK H PARENT 82 25 50 36
REMARK Flexibility Score: inf
ROOT
ATOM      1  C   UNL A   1      34.534  34.232  27.686  1.00  0.00     0.188 C 
ENDROOT
BRANCH   1   2
ATOM      2  O   UNL A   1      34.271  35.283  28.622  1.00  0.00    -0.376 OA
BRANCH   2   3
ATOM      3  C   UNL A   1      32.888  35.493  28.900  1.00  0.00     0.202 C 
BRANCH   3   4
ATOM      4  C   UNL A   1      32.588  36.779  29.670  1.00  0.00     0.261 C 
BRANCH   4   5
ATOM      5  O   UNL A   1      32.917  36.687  31.061  1.00  0.00    -0.460 OA
BRANCH   5   6
ATOM      6  C   UNL A   1      32.892  35.601  31.871  1.00  0.00     0.338 C 
ATOM      7  O   UNL A   1      31.847  35.403  32.498  1.00  0.00    -0.246 OA
BRANCH   6   8
ATOM      8  C   UNL A   1      34.035  34.646  32.105  1.00  0.00     0.060 A 
ATOM      9  C   UNL A   1      35.243  34.955  31.446  1.00  0.00     0.016 A 
ATOM     10  C   UNL A   1      34.023  33.495  32.900  1.00  0.00     0.016 A 
ATOM     11  C   UNL A   1      36.394  34.175  31.616  1.00  0.00     0.010 A 
ATOM     12  C   UNL A   1      35.164  32.711  33.077  1.00  0.00     0.010 A 
ATOM     13  C   UNL A   1      36.363  33.065  32.462  1.00  0.00    -0.014 A 
BRANCH  13  14
ATOM     14  C   UNL A   1      37.602  32.406  32.916  1.00  0.00     0.031 A 
ATOM     15  C   UNL A   1      38.204  31.257  32.172  1.00  0.00     0.074 A 
ATOM     16  C   UNL A   1      38.071  32.782  34.122  1.00  0.00     0.049 A 
ATOM     17  N   UNL A   1      39.291  30.590  32.454  1.00  0.00    -0.248 NA
ATOM     18  C   UNL A   1      37.493  30.776  30.976  1.00  0.00     0.031 C 
ATOM     19  C   UNL A   1      37.444  33.793  34.982  1.00  0.00     0.029 A 
ATOM     20  N   UNL A   1      39.136  32.337  34.854  1.00  0.00    -0.354 N 
ATOM     21  C   UNL A   1      39.403  29.612  31.475  1.00  0.00     0.074 A 
ATOM     22  C   UNL A   1      38.256  29.752  30.603  1.00  0.00     0.031 C 
ATOM     23  C   UNL A   1      38.124  33.874  36.133  1.00  0.00     0.029 A 
ATOM     24  C   UNL A   1      39.241  32.937  36.087  1.00  0.00     0.049 A 
ATOM     25  H   UNL A   1      39.766  31.653  34.532  1.00  0.00     0.167 HD
ATOM     26  C   UNL A   1      40.396  28.705  31.316  1.00  0.00     0.034 A 
ATOM     27  C   UNL A   1      40.148  32.767  37.065  1.00  0.00     0.034 A 
ATOM     28  C   UNL A   1      41.531  28.607  32.197  1.00  0.00     0.049 A 
ATOM     29  C   UNL A   1      41.291  31.835  36.815  1.00  0.00     0.074 A 
ATOM     30  C   UNL A   1      42.653  27.809  32.069  1.00  0.00     0.029 A 
ATOM     31  N   UNL A   1      41.680  29.326  33.374  1.00  0.00    -0.354 N 
ATOM     32  N   UNL A   1      41.493  31.056  35.779  1.00  0.00    -0.248 NA
ATOM     33  C   UNL A   1      42.355  31.791  37.824  1.00  0.00     0.031 C 
ATOM     34  C   UNL A   1      43.479  28.042  33.172  1.00  0.00     0.029 A 
ATOM     35  C   UNL A   1      42.876  28.990  33.984  1.00  0.00     0.049 A 
ATOM     36  H   UNL A   1      41.031  29.978  33.724  1.00  0.00     0.167 HD
ATOM     37  C   UNL A   1      42.718  30.443  35.998  1.00  0.00     0.074 A 
ATOM     38  C   UNL A   1      43.217  30.951  37.262  1.00  0.00     0.031 C 
ATOM     39  C   UNL A   1      43.361  29.536  35.226  1.00  0.00     0.034 A 
BRANCH  26  40
ATOM     40  C   UNL A   1      40.374  27.815  30.101  1.00  0.00     0.023 A 
ATOM     41  C   UNL A   1      39.441  26.760  30.057  1.00  0.00     0.012 A 
ATOM     42  C   UNL A   1      41.150  28.102  28.960  1.00  0.00     0.148 A 
ATOM     43  C   UNL A   1      39.282  25.999  28.899  1.00  0.00     0.002 A 
ATOM     44  C   UNL A   1      40.967  27.355  27.800  1.00  0.00     0.091 A 
ATOM     45  F   UNL A   1      42.030  29.110  29.025  1.00  0.00    -0.205 F 
ATOM     46  C   UNL A   1      40.036  26.302  27.770  1.00  0.00     0.022 A 
BRANCH  44  47
ATOM     47  S   UNL A   1      41.842  27.691  26.267  1.00  0.00     0.127 S 
ATOM     48  O   UNL A   1      41.348  29.026  25.929  1.00  0.00    -0.237 OA
ATOM     49  O   UNL A   1      43.238  27.649  26.697  1.00  0.00    -0.237 OA
ATOM     50  O   UNL A   1      41.449  26.640  25.338  1.00  0.00    -0.744 OA
ENDBRANCH  44  47
ENDBRANCH  26  40
BRANCH  27  51
ATOM     51  C   UNL A   1      40.045  33.617  38.280  1.00  0.00     0.023 A 
ATOM     52  C   UNL A   1      40.716  34.854  38.302  1.00  0.00     0.012 A 
ATOM     53  C   UNL A   1      39.160  33.289  39.326  1.00  0.00     0.148 A 
ATOM     54  C   UNL A   1      40.504  35.755  39.347  1.00  0.00     0.002 A 
ATOM     55  C   UNL A   1      38.925  34.207  40.343  1.00  0.00     0.091 A 
ATOM     56  F   UNL A   1      38.529  32.107  39.276  1.00  0.00    -0.205 F 
ATOM     57  C   UNL A   1      39.601  35.439  40.358  1.00  0.00     0.022 A 
BRANCH  55  58
ATOM     58  S   UNL A   1      37.683  33.946  41.616  1.00  0.00     0.127 S 
ATOM     59  O   UNL A   1      36.556  33.441  40.836  1.00  0.00    -0.237 OA
ATOM     60  O   UNL A   1      38.333  32.954  42.474  1.00  0.00    -0.237 OA
ATOM     61  O   UNL A   1      37.484  35.244  42.245  1.00  0.00    -0.744 OA
ENDBRANCH  55  58
ENDBRANCH  27  51
BRANCH  39  62
ATOM     62  C   UNL A   1      44.678  29.014  35.721  1.00  0.00     0.023 A 
ATOM     63  C   UNL A   1      44.701  27.837  36.494  1.00  0.00     0.012 A 
ATOM     64  C   UNL A   1      45.886  29.611  35.317  1.00  0.00     0.148 A 
ATOM     65  C   UNL A   1      45.914  27.262  36.863  1.00  0.00     0.002 A 
ATOM     66  C   UNL A   1      47.091  29.015  35.661  1.00  0.00     0.091 A 
ATOM     67  F   UNL A   1      45.830  30.737  34.590  1.00  0.00    -0.205 F 
ATOM     68  C   UNL A   1      47.108  27.843  36.438  1.00  0.00     0.022 A 
BRANCH  66  69
ATOM     69  S   UNL A   1      48.678  29.644  35.104  1.00  0.00     0.127 S 
ATOM     70  O   UNL A   1      48.687  30.986  35.686  1.00  0.00    -0.237 OA
ATOM     71  O   UNL A   1      49.616  28.706  35.720  1.00  0.00    -0.237 OA
ATOM     72  O   UNL A   1      48.641  29.602  33.648  1.00  0.00    -0.744 OA
ENDBRANCH  66  69
ENDBRANCH  39  62
ENDBRANCH  13  14
ENDBRANCH   6   8
ENDBRANCH   5   6
ENDBRANCH   4   5
ENDBRANCH   3   4
ENDBRANCH   2   3
ENDBRANCH   1   2
BRANCH   1  73
ATOM     73  C   UNL A   1      34.448  32.870  28.367  1.00  0.00     0.188 C 
BRANCH  73  74
ATOM     74  O   UNL A   1      33.683  31.906  27.650  1.00  0.00    -0.377 OA
BRANCH  74  75
ATOM     75  C   UNL A   1      34.224  30.594  27.558  1.00  0.00     0.188 C 
BRANCH  75  76
ATOM     76  C   UNL A   1      33.615  29.598  26.551  1.00  0.00     0.188 C 
BRANCH  76  77
ATOM     77  O   UNL A   1      34.222  28.313  26.555  1.00  0.00    -0.376 OA
BRANCH  77  78
ATOM     78  C   UNL A   1      33.374  27.241  26.150  1.00  0.00     0.202 C 
BRANCH  78  79
ATOM     79  C   UNL A   1      33.470  26.944  24.653  1.00  0.00     0.261 C 
BRANCH  79  80
ATOM     80  O   UNL A   1      34.390  25.888  24.330  1.00  0.00    -0.458 OA
BRANCH  80  81
ATOM     81  C   UNL A   1      33.913  24.783  23.703  1.00  0.00     0.358 C 
ATOM     82  O   UNL A   1      33.575  24.694  22.542  1.00  0.00    -0.244 OA
BRANCH  81  83
ATOM     83  C   UNL A   1      34.019  23.663  24.690  1.00  0.00     0.165 A 
ATOM     84  N   UNL A   1      33.013  23.616  25.615  1.00  0.00    -0.211 NA
ATOM     85  C   UNL A   1      35.168  22.874  24.771  1.00  0.00     0.051 A 
ATOM     86  C   UNL A   1      33.188  22.799  26.666  1.00  0.00     0.213 A 
ATOM     87  C   UNL A   1      35.310  22.041  25.885  1.00  0.00     0.023 A 
ATOM     88  Br  UNL A   1      36.605  22.925  23.542  1.00  0.00    -0.048 Br
ATOM     89  F   UNL A   1      32.221  22.761  27.592  1.00  0.00    -0.185 F 
ATOM     90  C   UNL A   1      34.310  22.012  26.853  1.00  0.00     0.061 A 
ENDBRANCH  81  83
ENDBRANCH  80  81
ENDBRANCH  79  80
ENDBRANCH  78  79
ENDBRANCH  77  78
ENDBRANCH  76  77
ENDBRANCH  75  76
ENDBRANCH  74  75
ENDBRANCH  73  74
ENDBRANCH   1  73
TORSDOF 23
ENDMDL
MODEL 2
REMARK VINA RESULT:      -8.4      4.843      5.771
REMARK SMILES O=C(OCCOCCOCCOCCOC(=O)c1nc(F)ccc1Br)c1ccc(-c2c3nc(c(-c4cccc(S(=O)(=O)[O-])c4F)c4ccc([nH]4)c(-c4cccc(S(=O)(=O)[O-])c4F)c4nc(c(-c5cccc(S(=O)(=O)[O-])c5F)c5ccc2[nH]5)C=C4)C=C3)cc1
REMARK SMILES IDX 7 1 6 2 5 3 4 4 3 5 2 6 1 7 26 8 27 9 88 10 28 11 87 12
REMARK SMILES IDX 29 13 30 14 31 15 81 16 32 17 86 18 80 19 82 20 33 21 85 22
REMARK SMILES IDX 79 23 78 24 34 26 66 27 46 28 65 29 47 30 50 31 64 32 83 33
REMARK SMILES IDX 48 34 49 35 63 37 84 38 51 39 35 40 36 41 44 42 37 43 39 44
REMARK SMILES IDX 45 45 38 46 40 47 41 48 42 49 43 50 67 51 68 52 76 53 69 54
REMARK SMILES IDX 71 55 77 56 70 57 72 58 73 59 74 60 75 61 52 62 53 63 61 64
REMARK SMILES IDX 54 65 56 66 62 67 55 68 57 69 58 70 59 71 60 72 8 73 9 74
REMARK SMILES IDX 10 75 11 76 12 77 13 78 14 79 15 80 16 81 17 82 18 83 19 84
REMARK SMILES IDX 24 85 20 86 23 87 25 88 21 89 22 90
REMARK H PARENT 82 25 50 36
REMARK Flexibility Score: inf
ROOT
ATOM      1  C   UNL A   1      32.908  35.378  28.981  1.00  0.00     0.188 C 
ENDROOT
BRANCH   1   2
ATOM      2  O   UNL A   1      32.724  34.959  30.338  1.00  0.00    -0.376 OA
BRANCH   2   3
ATOM      3  C   UNL A   1      32.574  36.027  31.271  1.00  0.00     0.202 C 
BRANCH   3   4
ATOM      4  C   UNL A   1      33.745  36.188  32.239  1.00  0.00     0.261 C 
BRANCH   4   5
ATOM      5  O   UNL A   1      33.826  35.128  33.199  1.00  0.00    -0.460 OA
BRANCH   5   6
ATOM      6  C   UNL A   1      34.210  33.841  33.015  1.00  0.00     0.338 C 
ATOM      7  O   UNL A   1      33.362  32.973  33.238  1.00  0.00    -0.246 OA
BRANCH   6   8
ATOM      8  C   UNL A   1      35.586  33.379  32.606  1.00  0.00     0.060 A 
ATOM      9  C   UNL A   1      36.028  33.805  31.336  1.00  0.00     0.016 A 
ATOM     10  C   UNL A   1      36.462  32.579  33.346  1.00  0.00     0.016 A 
ATOM     11  C   UNL A   1      37.304  33.484  30.855  1.00  0.00     0.010 A 
ATOM     12  C   UNL A   1      37.736  32.254  32.878  1.00  0.00     0.010 A 
ATOM     13  C   UNL A   1      38.175  32.732  31.645  1.00  0.00    -0.014 A 
BRANCH  13  14
ATOM     14  C   UNL A   1      39.613  32.633  31.330  1.00  0.00     0.031 A 
ATOM     15  C   UNL A   1      40.156  31.561  30.441  1.00  0.00     0.074 A 
ATOM     16  C   UNL A   1      40.431  33.456  32.015  1.00  0.00     0.049 A 
ATOM     17  N   UNL A   1      41.393  31.361  30.075  1.00  0.00    -0.248 NA
ATOM     18  C   UNL A   1      39.202  30.572  29.910  1.00  0.00     0.031 C 
ATOM     19  C   UNL A   1      39.986  34.428  33.020  1.00  0.00     0.029 A 
ATOM     20  N   UNL A   1      41.793  33.578  32.015  1.00  0.00    -0.354 N 
ATOM     21  C   UNL A   1      41.376  30.230  29.271  1.00  0.00     0.074 A 
ATOM     22  C   UNL A   1      40.005  29.766  29.222  1.00  0.00     0.031 C 
ATOM     23  C   UNL A   1      41.057  35.030  33.554  1.00  0.00     0.029 A 
ATOM     24  C   UNL A   1      42.258  34.502  32.920  1.00  0.00     0.049 A 
ATOM     25  H   UNL A   1      42.383  33.056  31.425  1.00  0.00     0.167 HD
ATOM     26  C   UNL A   1      42.415  29.659  28.615  1.00  0.00     0.034 A 
ATOM     27  C   UNL A   1      43.514  34.897  33.196  1.00  0.00     0.034 A 
ATOM     28  C   UNL A   1      43.763  30.161  28.676  1.00  0.00     0.049 A 
ATOM     29  C   UNL A   1      44.631  34.323  32.381  1.00  0.00     0.074 A 
ATOM     30  C   UNL A   1      44.871  29.738  27.965  1.00  0.00     0.029 A 
ATOM     31  N   UNL A   1      44.186  31.191  29.504  1.00  0.00    -0.354 N 
ATOM     32  N   UNL A   1      44.571  33.385  31.467  1.00  0.00    -0.248 NA
ATOM     33  C   UNL A   1      45.969  34.888  32.584  1.00  0.00     0.031 C 
ATOM     34  C   UNL A   1      45.965  30.510  28.366  1.00  0.00     0.029 A 
ATOM     35  C   UNL A   1      45.538  31.418  29.322  1.00  0.00     0.049 A 
ATOM     36  H   UNL A   1      43.609  31.687  30.129  1.00  0.00     0.167 HD
ATOM     37  C   UNL A   1      45.858  33.259  30.967  1.00  0.00     0.074 A 
ATOM     38  C   UNL A   1      46.675  34.227  31.674  1.00  0.00     0.031 C 
ATOM     39  C   UNL A   1      46.319  32.410  30.017  1.00  0.00     0.034 A 
BRANCH  26  40
ATOM     40  C   UNL A   1      42.139  28.502  27.693  1.00  0.00     0.023 A 
ATOM     41  C   UNL A   1      41.942  28.766  26.322  1.00  0.00     0.012 A 
ATOM     42  C   UNL A   1      42.223  27.167  28.135  1.00  0.00     0.148 A 
ATOM     43  C   UNL A   1      41.828  27.721  25.406  1.00  0.00     0.002 A 
ATOM     44  C   UNL A   1      42.135  26.130  27.211  1.00  0.00     0.091 A 
ATOM     45  F   UNL A   1      42.412  26.939  29.443  1.00  0.00    -0.205 F 
ATOM     46  C   UNL A   1      41.933  26.406  25.848  1.00  0.00     0.022 A 
BRANCH  44  47
ATOM     47  S   UNL A   1      42.312  24.398  27.657  1.00  0.00     0.127 S 
ATOM     48  O   UNL A   1      41.034  24.128  28.316  1.00  0.00    -0.237 OA
ATOM     49  O   UNL A   1      42.470  23.762  26.350  1.00  0.00    -0.237 OA
ATOM     50  O   UNL A   1      43.478  24.322  28.527  1.00  0.00    -0.744 OA
ENDBRANCH  44  47
ENDBRANCH  26  40
BRANCH  27  51
ATOM     51  C   UNL A   1      43.712  35.980  34.195  1.00  0.00     0.023 A 
ATOM     52  C   UNL A   1      44.160  35.639  35.485  1.00  0.00     0.012 A 
ATOM     53  C   UNL A   1      43.628  37.336  33.826  1.00  0.00     0.148 A 
ATOM     54  C   UNL A   1      44.525  36.634  36.393  1.00  0.00     0.002 A 
ATOM     55  C   UNL A   1      44.029  38.321  34.722  1.00  0.00     0.091 A 
ATOM     56  F   UNL A   1      43.204  37.632  32.589  1.00  0.00    -0.205 F 
ATOM     57  C   UNL A   1      44.472  37.971  36.008  1.00  0.00     0.022 A 
BRANCH  55  58
ATOM     58  S   UNL A   1      44.122  40.058  34.273  1.00  0.00     0.127 S 
ATOM     59  O   UNL A   1      44.519  40.673  35.537  1.00  0.00    -0.237 OA
ATOM     60  O   UNL A   1      45.157  40.051  33.240  1.00  0.00    -0.237 OA
ATOM     61  O   UNL A   1      42.794  40.413  33.790  1.00  0.00    -0.744 OA
ENDBRANCH  55  58
ENDBRANCH  27  51
BRANCH  39  62
ATOM     62  C   UNL A   1      47.780  32.473  29.683  1.00  0.00     0.023 A 
ATOM     63  C   UNL A   1      48.681  31.660  30.398  1.00  0.00     0.012 A 
ATOM     64  C   UNL A   1      48.236  33.230  28.588  1.00  0.00     0.148 A 
ATOM     65  C   UNL A   1      50.022  31.605  30.029  1.00  0.00     0.002 A 
ATOM     66  C   UNL A   1      49.567  33.146  28.206  1.00  0.00     0.091 A 
ATOM     67  F   UNL A   1      47.355  34.001  27.934  1.00  0.00    -0.205 F 
ATOM     68  C   UNL A   1      50.463  32.337  28.927  1.00  0.00     0.022 A 
BRANCH  66  69
ATOM     69  S   UNL A   1      50.217  33.991  26.761  1.00  0.00     0.127 S 
ATOM     70  O   UNL A   1      51.627  33.606  26.801  1.00  0.00    -0.237 OA
ATOM     71  O   UNL A   1      49.448  33.382  25.676  1.00  0.00    -0.237 OA
ATOM     72  O   UNL A   1      49.957  35.409  26.971  1.00  0.00    -0.744 OA
ENDBRANCH  66  69
ENDBRANCH  39  62
ENDBRANCH  13  14
ENDBRANCH   6   8
ENDBRANCH   5   6
ENDBRANCH   4   5
ENDBRANCH   3   4
ENDBRANCH   2   3
ENDBRANCH   1   2
BRANCH   1  73
ATOM     73  C   UNL A   1      34.361  35.199  28.554  1.00  0.00     0.188 C 
BRANCH  73  74
ATOM     74  O   UNL A   1      34.576  34.117  27.653  1.00  0.00    -0.377 OA
BRANCH  74  75
ATOM     75  C   UNL A   1      34.693  32.819  28.223  1.00  0.00     0.188 C 
BRANCH  75  76
ATOM     76  C   UNL A   1      34.388  31.584  27.352  1.00  0.00     0.188 C 
BRANCH  76  77
ATOM     77  O   UNL A   1      33.217  30.874  27.729  1.00  0.00    -0.376 OA
BRANCH  77  78
ATOM     78  C   UNL A   1      32.793  29.873  26.807  1.00  0.00     0.202 C 
BRANCH  78  79
ATOM     79  C   UNL A   1      33.913  28.902  26.430  1.00  0.00     0.261 C 
BRANCH  79  80
ATOM     80  O   UNL A   1      33.631  27.534  26.764  1.00  0.00    -0.458 OA
BRANCH  80  81
ATOM     81  C   UNL A   1      33.517  26.631  25.756  1.00  0.00     0.358 C 
ATOM     82  O   UNL A   1      34.365  25.851  25.381  1.00  0.00    -0.244 OA
BRANCH  81  83
ATOM     83  C   UNL A   1      32.095  26.695  25.295  1.00  0.00     0.165 A 
ATOM     84  N   UNL A   1      31.193  26.100  26.133  1.00  0.00    -0.211 NA
ATOM     85  C   UNL A   1      31.767  27.140  24.013  1.00  0.00     0.051 A 
ATOM     86  C   UNL A   1      29.953  25.905  25.655  1.00  0.00     0.213 A 
ATOM     87  C   UNL A   1      30.466  26.911  23.556  1.00  0.00     0.023 A 
ATOM     88  Br  UNL A   1      32.983  27.933  22.800  1.00  0.00    -0.048 Br
ATOM     89  F   UNL A   1      29.065  25.302  26.458  1.00  0.00    -0.185 F 
ATOM     90  C   UNL A   1      29.548  26.274  24.386  1.00  0.00     0.061 A 
ENDBRANCH  81  83
ENDBRANCH  80  81
ENDBRANCH  79  80
ENDBRANCH  78  79
ENDBRANCH  77  78
ENDBRANCH  76  77
ENDBRANCH  75  76
ENDBRANCH  74  75
ENDBRANCH  73  74
ENDBRANCH   1  73
TORSDOF 23
ENDMDL
MODEL 3
REMARK VINA RESULT:      -8.0     12.065     15.694
REMARK SMILES O=C(OCCOCCOCCOCCOC(=O)c1nc(F)ccc1Br)c1ccc(-c2c3nc(c(-c4cccc(S(=O)(=O)[O-])c4F)c4ccc([nH]4)c(-c4cccc(S(=O)(=O)[O-])c4F)c4nc(c(-c5cccc(S(=O)(=O)[O-])c5F)c5ccc2[nH]5)C=C4)C=C3)cc1
REMARK SMILES IDX 7 1 6 2 5 3 4 4 3 5 2 6 1 7 26 8 27 9 88 10 28 11 87 12
REMARK SMILES IDX 29 13 30 14 31 15 81 16 32 17 86 18 80 19 82 20 33 21 85 22
REMARK SMILES IDX 79 23 78 24 34 26 66 27 46 28 65 29 47 30 50 31 64 32 83 33
REMARK SMILES IDX 48 34 49 35 63 37 84 38 51 39 35 40 36 41 44 42 37 43 39 44
REMARK SMILES IDX 45 45 38 46 40 47 41 48 42 49 43 50 67 51 68 52 76 53 69 54
REMARK SMILES IDX 71 55 77 56 70 57 72 58 73 59 74 60 75 61 52 62 53 63 61 64
REMARK SMILES IDX 54 65 56 66 62 67 55 68 57 69 58 70 59 71 60 72 8 73 9 74
REMARK SMILES IDX 10 75 11 76 12 77 13 78 14 79 15 80 16 81 17 82 18 83 19 84
REMARK SMILES IDX 24 85 20 86 23 87 25 88 21 89 22 90
REMARK H PARENT 82 25 50 36
REMARK Flexibility Score: inf
ROOT
ATOM      1  C   UNL A   1      45.214  39.905  25.923  1.00  0.00     0.188 C 
ENDROOT
BRANCH   1   2
ATOM      2  O   UNL A   1      44.488  38.943  26.697  1.00  0.00    -0.376 OA
BRANCH   2   3
ATOM      3  C   UNL A   1      43.570  39.509  27.631  1.00  0.00     0.202 C 
BRANCH   3   4
ATOM      4  C   UNL A   1      42.483  38.547  28.107  1.00  0.00     0.261 C 
BRANCH   4   5
ATOM      5  O   UNL A   1      42.215  37.497  27.170  1.00  0.00    -0.460 OA
BRANCH   5   6
ATOM      6  C   UNL A   1      42.051  36.171  27.401  1.00  0.00     0.338 C 
ATOM      7  O   UNL A   1      40.930  35.808  27.766  1.00  0.00    -0.246 OA
BRANCH   6   8
ATOM      8  C   UNL A   1      43.124  35.116  27.294  1.00  0.00     0.060 A 
ATOM      9  C   UNL A   1      43.348  34.592  26.004  1.00  0.00     0.016 A 
ATOM     10  C   UNL A   1      43.912  34.607  28.331  1.00  0.00     0.016 A 
ATOM     11  C   UNL A   1      44.346  33.641  25.759  1.00  0.00     0.010 A 
ATOM     12  C   UNL A   1      44.911  33.660  28.099  1.00  0.00     0.010 A 
ATOM     13  C   UNL A   1      45.155  33.196  26.808  1.00  0.00    -0.014 A 
BRANCH  13  14
ATOM     14  C   UNL A   1      46.401  32.448  26.558  1.00  0.00     0.031 A 
ATOM     15  C   UNL A   1      46.473  30.962  26.702  1.00  0.00     0.074 A 
ATOM     16  C   UNL A   1      47.510  33.187  26.357  1.00  0.00     0.049 A 
ATOM     17  N   UNL A   1      47.499  30.178  26.507  1.00  0.00    -0.248 NA
ATOM     18  C   UNL A   1      45.253  30.262  27.140  1.00  0.00     0.031 C 
ATOM     19  C   UNL A   1      47.546  34.654  26.358  1.00  0.00     0.029 A 
ATOM     20  N   UNL A   1      48.813  32.822  26.164  1.00  0.00    -0.354 N 
ATOM     21  C   UNL A   1      47.058  28.893  26.793  1.00  0.00     0.074 A 
ATOM     22  C   UNL A   1      45.674  29.002  27.204  1.00  0.00     0.031 C 
ATOM     23  C   UNL A   1      48.811  35.063  26.197  1.00  0.00     0.029 A 
ATOM     24  C   UNL A   1      49.670  33.892  26.064  1.00  0.00     0.049 A 
ATOM     25  H   UNL A   1      49.110  31.886  26.103  1.00  0.00     0.167 HD
ATOM     26  C   UNL A   1      47.750  27.734  26.689  1.00  0.00     0.034 A 
ATOM     27  C   UNL A   1      51.000  33.929  25.867  1.00  0.00     0.034 A 
ATOM     28  C   UNL A   1      49.123  27.665  26.260  1.00  0.00     0.049 A 
ATOM     29  C   UNL A   1      51.719  32.635  25.651  1.00  0.00     0.074 A 
ATOM     30  C   UNL A   1      49.890  26.543  26.005  1.00  0.00     0.029 A 
ATOM     31  N   UNL A   1      49.936  28.767  26.034  1.00  0.00    -0.354 N 
ATOM     32  N   UNL A   1      51.239  31.417  25.725  1.00  0.00    -0.248 NA
ATOM     33  C   UNL A   1      53.134  32.707  25.273  1.00  0.00     0.031 C 
ATOM     34  C   UNL A   1      51.168  26.965  25.629  1.00  0.00     0.029 A 
ATOM     35  C   UNL A   1      51.196  28.351  25.642  1.00  0.00     0.049 A 
ATOM     36  H   UNL A   1      49.657  29.705  26.137  1.00  0.00     0.167 HD
ATOM     37  C   UNL A   1      52.285  30.574  25.382  1.00  0.00     0.074 A 
ATOM     38  C   UNL A   1      53.424  31.424  25.089  1.00  0.00     0.031 C 
ATOM     39  C   UNL A   1      52.301  29.221  25.326  1.00  0.00     0.034 A 
BRANCH  26  40
ATOM     40  C   UNL A   1      47.028  26.436  26.934  1.00  0.00     0.023 A 
ATOM     41  C   UNL A   1      47.006  25.914  28.243  1.00  0.00     0.012 A 
ATOM     42  C   UNL A   1      46.256  25.818  25.930  1.00  0.00     0.148 A 
ATOM     43  C   UNL A   1      46.232  24.796  28.550  1.00  0.00     0.002 A 
ATOM     44  C   UNL A   1      45.465  24.719  26.250  1.00  0.00     0.091 A 
ATOM     45  F   UNL A   1      46.290  26.332  24.692  1.00  0.00    -0.205 F 
ATOM     46  C   UNL A   1      45.455  24.205  27.559  1.00  0.00     0.022 A 
BRANCH  44  47
ATOM     47  S   UNL A   1      44.381  23.909  25.067  1.00  0.00     0.127 S 
ATOM     48  O   UNL A   1      43.894  22.768  25.843  1.00  0.00    -0.237 OA
ATOM     49  O   UNL A   1      43.380  24.945  24.814  1.00  0.00    -0.237 OA
ATOM     50  O   UNL A   1      45.215  23.562  23.925  1.00  0.00    -0.744 OA
ENDBRANCH  44  47
ENDBRANCH  26  40
BRANCH  27  51
ATOM     51  C   UNL A   1      51.660  35.255  25.733  1.00  0.00     0.023 A 
ATOM     52  C   UNL A   1      51.825  35.804  24.448  1.00  0.00     0.012 A 
ATOM     53  C   UNL A   1      51.960  36.037  26.865  1.00  0.00     0.148 A 
ATOM     54  C   UNL A   1      52.277  37.115  24.291  1.00  0.00     0.002 A 
ATOM     55  C   UNL A   1      52.373  37.355  26.703  1.00  0.00     0.091 A 
ATOM     56  F   UNL A   1      51.786  35.491  28.077  1.00  0.00    -0.205 F 
ATOM     57  C   UNL A   1      52.538  37.893  25.416  1.00  0.00     0.022 A 
BRANCH  55  58
ATOM     58  S   UNL A   1      52.606  38.474  28.089  1.00  0.00     0.127 S 
ATOM     59  O   UNL A   1      53.597  37.759  28.888  1.00  0.00    -0.237 OA
ATOM     60  O   UNL A   1      53.102  39.680  27.425  1.00  0.00    -0.237 OA
ATOM     61  O   UNL A   1      51.292  38.624  28.701  1.00  0.00    -0.744 OA
ENDBRANCH  55  58
ENDBRANCH  27  51
BRANCH  39  62
ATOM     62  C   UNL A   1      53.591  28.558  24.944  1.00  0.00     0.023 A 
ATOM     63  C   UNL A   1      54.383  27.971  25.949  1.00  0.00     0.012 A 
ATOM     64  C   UNL A   1      53.949  28.407  23.591  1.00  0.00     0.148 A 
ATOM     65  C   UNL A   1      55.521  27.243  25.612  1.00  0.00     0.002 A 
ATOM     66  C   UNL A   1      55.067  27.653  23.261  1.00  0.00     0.091 A 
ATOM     67  F   UNL A   1      53.179  28.986  22.659  1.00  0.00    -0.205 F 
ATOM     68  C   UNL A   1      55.857  27.074  24.270  1.00  0.00     0.022 A 
BRANCH  66  69
ATOM     69  S   UNL A   1      55.541  27.317  21.562  1.00  0.00     0.127 S 
ATOM     70  O   UNL A   1      54.390  26.555  21.078  1.00  0.00    -0.237 OA
ATOM     71  O   UNL A   1      55.660  28.663  21.003  1.00  0.00    -0.237 OA
ATOM     72  O   UNL A   1      56.791  26.572  21.630  1.00  0.00    -0.744 OA
ENDBRANCH  66  69
ENDBRANCH  39  62
ENDBRANCH  13  14
ENDBRANCH   6   8
ENDBRANCH   5   6
ENDBRANCH   4   5
ENDBRANCH   3   4
ENDBRANCH   2   3
ENDBRANCH   1   2
BRANCH   1  73
ATOM     73  C   UNL A   1      44.486  41.245  25.909  1.00  0.00     0.188 C 
BRANCH  73  74
ATOM     74  O   UNL A   1      44.391  41.844  24.620  1.00  0.00    -0.377 OA
BRANCH  74  75
ATOM     75  C   UNL A   1      43.117  42.347  24.237  1.00  0.00     0.188 C 
BRANCH  75  76
ATOM     76  C   UNL A   1      43.011  43.271  23.008  1.00  0.00     0.188 C 
BRANCH  76  77
ATOM     77  O   UNL A   1      44.237  43.480  22.322  1.00  0.00    -0.376 OA
BRANCH  77  78
ATOM     78  C   UNL A   1      44.149  44.299  21.159  1.00  0.00     0.202 C 
BRANCH  78  79
ATOM     79  C   UNL A   1      44.314  43.506  19.862  1.00  0.00     0.261 C 
BRANCH  79  80
ATOM     80  O   UNL A   1      44.675  44.314  18.730  1.00  0.00    -0.458 OA
BRANCH  80  81
ATOM     81  C   UNL A   1      43.932  44.213  17.598  1.00  0.00     0.358 C 
ATOM     82  O   UNL A   1      43.612  43.193  17.027  1.00  0.00    -0.244 OA
BRANCH  81  83
ATOM     83  C   UNL A   1      43.471  45.599  17.275  1.00  0.00     0.165 A 
ATOM     84  N   UNL A   1      44.445  46.430  16.793  1.00  0.00    -0.211 NA
ATOM     85  C   UNL A   1      42.201  46.046  17.642  1.00  0.00     0.051 A 
ATOM     86  C   UNL A   1      44.152  47.739  16.726  1.00  0.00     0.213 A 
ATOM     87  C   UNL A   1      41.943  47.418  17.562  1.00  0.00     0.023 A 
ATOM     88  Br  UNL A   1      40.831  44.949  18.350  1.00  0.00    -0.048 Br
ATOM     89  F   UNL A   1      45.105  48.567  16.278  1.00  0.00    -0.185 F 
ATOM     90  C   UNL A   1      42.937  48.278  17.107  1.00  0.00     0.061 A 
ENDBRANCH  81  83
ENDBRANCH  80  81
ENDBRANCH  79  80
ENDBRANCH  78  79
ENDBRANCH  77  78
ENDBRANCH  76  77
ENDBRANCH  75  76
ENDBRANCH  74  75
ENDBRANCH  73  74
ENDBRANCH   1  73
TORSDOF 23
ENDMDL
