MODEL 1
REMARK VINA RESULT:      -8.3      0.000      0.000
REMARK SMILES CCC(CC)NC(=O)N[C@@H]1C=C[C@@H](C(=O)OCCOCCOCCOCCOC(=O)c2ccc(-c3c4nc(c(-c5cccc(S(=O)(=O)[O-])c5F)c5ccc([nH]5)c(-c5cccc(S(=O)(=O)[O-])c5F)c5nc(c(-c6cccc(S(=O)(=O)[O-])c6F)c6ccc3[nH]6)C=C5)C=C4)cc2)C1
REMARK SMILES IDX 22 1 21 2 20 3 19 4 18 5 17 6 16 7 14 8 15 9 13 10 10 11
REMARK SMILES IDX 11 12 94 13 12 14 9 15 6 16 7 17 8 19 3 21 2 22 1 23 4 24
REMARK SMILES IDX 5 25 23 26 24 27 25 28 26 29 27 30 28 31 29 32 30 33 31 34
REMARK SMILES IDX 32 35 93 36 33 37 92 38 34 39 35 40 36 41 86 42 37 43 91 44
REMARK SMILES IDX 85 45 87 46 38 47 90 48 84 49 83 50 39 52 71 53 51 54 70 55
REMARK SMILES IDX 52 56 55 57 69 58 88 59 53 60 54 61 68 63 89 64 56 65 40 66
REMARK SMILES IDX 41 67 49 68 42 69 44 70 50 71 43 72 45 73 46 74 47 75 48 76
REMARK SMILES IDX 72 77 73 78 81 79 74 80 76 81 82 82 75 83 77 84 78 85 79 86
REMARK SMILES IDX 80 87 57 88 58 89 66 90 59 91 61 92 67 93 60 94 62 95 63 96
REMARK SMILES IDX 64 97 65 98
REMARK H PARENT 6 18 9 20 87 51 55 62
REMARK Flexibility Score: inf
ROOT
ATOM      1  O   UNL A   1      40.081  25.680  27.224  1.00  0.00    -0.377 OA
ENDROOT
BRANCH   1   2
ATOM      2  C   UNL A   1      40.423  24.357  27.575  1.00  0.00     0.188 C 
BRANCH   2   3
ATOM      3  C   UNL A   1      41.145  23.563  26.474  1.00  0.00     0.188 C 
BRANCH   3   4
ATOM      4  O   UNL A   1      40.632  22.324  26.009  1.00  0.00    -0.376 OA
BRANCH   4   5
ATOM      5  C   UNL A   1      39.359  21.849  26.434  1.00  0.00     0.202 C 
BRANCH   5   6
ATOM      6  C   UNL A   1      38.135  21.805  25.501  1.00  0.00     0.261 C 
BRANCH   6   7
ATOM      7  O   UNL A   1      36.922  22.335  26.050  1.00  0.00    -0.463 OA
BRANCH   7   8
ATOM      8  C   UNL A   1      35.885  22.526  25.199  1.00  0.00     0.312 C 
ATOM      9  O   UNL A   1      36.010  22.801  24.010  1.00  0.00    -0.252 OA
BRANCH   8  10
ATOM     10  C   UNL A   1      34.526  22.221  25.841  1.00  0.00     0.124 C 
ATOM     11  C   UNL A   1      32.153  22.826  25.390  1.00  0.00     0.107 C 
ATOM     12  C   UNL A   1      32.539  21.512  24.793  1.00  0.00    -0.006 C 
ATOM     13  C   UNL A   1      33.485  23.348  25.937  1.00  0.00     0.048 C 
ATOM     14  C   UNL A   1      33.810  21.181  25.038  1.00  0.00    -0.014 C 
BRANCH  11  15
ATOM     15  N   UNL A   1      31.187  22.574  26.441  1.00  0.00    -0.332 N 
ATOM     16  N   UNL A   1      29.833  24.515  26.574  1.00  0.00    -0.335 N 
ATOM     17  C   UNL A   1      30.149  23.264  26.933  1.00  0.00     0.315 C 
ATOM     18  H   UNL A   1      28.985  24.824  26.967  1.00  0.00     0.165 HD
ATOM     19  O   UNL A   1      29.442  22.710  27.780  1.00  0.00    -0.249 OA
ATOM     20  H   UNL A   1      31.323  21.709  26.890  1.00  0.00     0.165 HD
BRANCH  16  21
ATOM     21  C   UNL A   1      30.469  25.522  25.728  1.00  0.00     0.083 C 
BRANCH  21  22
ATOM     22  C   UNL A   1      29.416  26.254  24.884  1.00  0.00     0.021 C 
ATOM     23  C   UNL A   1      29.839  26.398  23.429  1.00  0.00     0.006 C 
ENDBRANCH  21  22
BRANCH  21  24
ATOM     24  C   UNL A   1      31.383  26.439  26.569  1.00  0.00     0.021 C 
ATOM     25  C   UNL A   1      31.521  27.874  26.077  1.00  0.00     0.006 C 
ENDBRANCH  21  24
ENDBRANCH  16  21
ENDBRANCH  11  15
ENDBRANCH   8  10
ENDBRANCH   7   8
ENDBRANCH   6   7
ENDBRANCH   5   6
ENDBRANCH   4   5
ENDBRANCH   3   4
ENDBRANCH   2   3
ENDBRANCH   1   2
BRANCH   1  26
ATOM     26  C   UNL A   1      39.339  26.429  28.178  1.00  0.00     0.188 C 
BRANCH  26  27
ATOM     27  C   UNL A   1      39.112  27.934  27.916  1.00  0.00     0.188 C 
BRANCH  27  28
ATOM     28  O   UNL A   1      38.533  28.643  29.005  1.00  0.00    -0.376 OA
BRANCH  28  29
ATOM     29  C   UNL A   1      37.551  29.631  28.729  1.00  0.00     0.202 C 
BRANCH  29  30
ATOM     30  C   UNL A   1      36.326  29.713  29.658  1.00  0.00     0.261 C 
BRANCH  30  31
ATOM     31  O   UNL A   1      36.524  29.306  31.021  1.00  0.00    -0.460 OA
BRANCH  31  32
ATOM     32  C   UNL A   1      37.109  30.180  31.865  1.00  0.00     0.338 C 
ATOM     33  O   UNL A   1      36.571  31.109  32.447  1.00  0.00    -0.246 OA
BRANCH  32  34
ATOM     34  C   UNL A   1      38.478  29.696  32.138  1.00  0.00     0.060 A 
ATOM     35  C   UNL A   1      39.560  30.555  31.896  1.00  0.00     0.016 A 
ATOM     36  C   UNL A   1      38.695  28.410  32.635  1.00  0.00     0.016 A 
ATOM     37  C   UNL A   1      40.865  30.114  32.112  1.00  0.00     0.010 A 
ATOM     38  C   UNL A   1      40.004  27.961  32.829  1.00  0.00     0.010 A 
ATOM     39  C   UNL A   1      41.095  28.799  32.532  1.00  0.00    -0.014 A 
BRANCH  39  40
ATOM     40  C   UNL A   1      42.465  28.234  32.466  1.00  0.00     0.031 A 
ATOM     41  C   UNL A   1      43.363  28.403  33.661  1.00  0.00     0.074 A 
ATOM     42  C   UNL A   1      42.914  27.600  31.369  1.00  0.00     0.049 A 
ATOM     43  N   UNL A   1      44.613  28.057  33.815  1.00  0.00    -0.248 NA
ATOM     44  C   UNL A   1      42.769  29.057  34.839  1.00  0.00     0.031 C 
ATOM     45  C   UNL A   1      42.140  27.366  30.153  1.00  0.00     0.029 A 
ATOM     46  N   UNL A   1      44.151  27.069  31.095  1.00  0.00    -0.354 N 
ATOM     47  C   UNL A   1      44.971  28.492  35.085  1.00  0.00     0.074 A 
ATOM     48  C   UNL A   1      43.805  29.125  35.661  1.00  0.00     0.031 C 
ATOM     49  C   UNL A   1      42.933  26.775  29.242  1.00  0.00     0.029 A 
ATOM     50  C   UNL A   1      44.276  26.622  29.801  1.00  0.00     0.049 A 
ATOM     51  H   UNL A   1      44.875  27.014  31.759  1.00  0.00     0.167 HD
ATOM     52  C   UNL A   1      46.160  28.372  35.719  1.00  0.00     0.034 A 
ATOM     53  C   UNL A   1      45.360  26.178  29.133  1.00  0.00     0.034 A 
ATOM     54  C   UNL A   1      47.314  27.731  35.150  1.00  0.00     0.049 A 
ATOM     55  C   UNL A   1      46.683  26.072  29.849  1.00  0.00     0.074 A 
ATOM     56  C   UNL A   1      48.545  27.498  35.738  1.00  0.00     0.029 A 
ATOM     57  N   UNL A   1      47.392  27.247  33.853  1.00  0.00    -0.354 N 
ATOM     58  N   UNL A   1      46.975  26.373  31.091  1.00  0.00    -0.248 NA
ATOM     59  C   UNL A   1      47.817  25.537  29.081  1.00  0.00     0.031 C 
ATOM     60  C   UNL A   1      49.383  26.922  34.780  1.00  0.00     0.029 A 
ATOM     61  C   UNL A   1      48.658  26.743  33.613  1.00  0.00     0.049 A 
ATOM     62  H   UNL A   1      46.655  27.261  33.201  1.00  0.00     0.167 HD
ATOM     63  C   UNL A   1      48.313  26.032  31.265  1.00  0.00     0.074 A 
ATOM     64  C   UNL A   1      48.770  25.488  30.003  1.00  0.00     0.031 C 
ATOM     65  C   UNL A   1      49.092  26.165  32.366  1.00  0.00     0.034 A 
BRANCH  52  66
ATOM     66  C   UNL A   1      46.278  28.964  37.099  1.00  0.00     0.023 A 
ATOM     67  C   UNL A   1      46.790  30.265  37.273  1.00  0.00     0.012 A 
ATOM     68  C   UNL A   1      45.846  28.235  38.223  1.00  0.00     0.148 A 
ATOM     69  C   UNL A   1      46.906  30.816  38.549  1.00  0.00     0.002 A 
ATOM     70  C   UNL A   1      45.917  28.810  39.486  1.00  0.00     0.091 A 
ATOM     71  F   UNL A   1      45.385  26.988  38.040  1.00  0.00    -0.205 F 
ATOM     72  C   UNL A   1      46.460  30.094  39.652  1.00  0.00     0.022 A 
BRANCH  70  73
ATOM     73  S   UNL A   1      45.291  27.991  40.956  1.00  0.00     0.127 S 
ATOM     74  O   UNL A   1      46.527  27.526  41.583  1.00  0.00    -0.237 OA
ATOM     75  O   UNL A   1      44.627  29.090  41.659  1.00  0.00    -0.237 OA
ATOM     76  O   UNL A   1      44.396  26.944  40.484  1.00  0.00    -0.744 OA
ENDBRANCH  70  73
ENDBRANCH  52  66
BRANCH  53  77
ATOM     77  C   UNL A   1      45.238  25.800  27.696  1.00  0.00     0.023 A 
ATOM     78  C   UNL A   1      45.420  26.771  26.694  1.00  0.00     0.012 A 
ATOM     79  C   UNL A   1      44.969  24.468  27.324  1.00  0.00     0.148 A 
ATOM     80  C   UNL A   1      45.311  26.428  25.346  1.00  0.00     0.002 A 
ATOM     81  C   UNL A   1      44.921  24.121  25.980  1.00  0.00     0.091 A 
ATOM     82  F   UNL A   1      44.784  23.563  28.295  1.00  0.00    -0.205 F 
ATOM     83  C   UNL A   1      45.074  25.103  24.988  1.00  0.00     0.022 A 
BRANCH  81  84
ATOM     84  S   UNL A   1      44.758  22.420  25.428  1.00  0.00     0.127 S 
ATOM     85  O   UNL A   1      44.219  22.593  24.081  1.00  0.00    -0.237 OA
ATOM     86  O   UNL A   1      46.144  21.955  25.485  1.00  0.00    -0.237 OA
ATOM     87  O   UNL A   1      43.867  21.776  26.384  1.00  0.00    -0.744 OA
ENDBRANCH  81  84
ENDBRANCH  53  77
BRANCH  65  88
ATOM     88  C   UNL A   1      50.517  25.672  32.289  1.00  0.00     0.023 A 
ATOM     89  C   UNL A   1      51.567  26.572  32.028  1.00  0.00     0.012 A 
ATOM     90  C   UNL A   1      50.816  24.322  32.568  1.00  0.00     0.148 A 
ATOM     91  C   UNL A   1      52.891  26.132  32.013  1.00  0.00     0.002 A 
ATOM     92  C   UNL A   1      52.140  23.903  32.605  1.00  0.00     0.091 A 
ATOM     93  F   UNL A   1      49.802  23.477  32.801  1.00  0.00    -0.205 F 
ATOM     94  C   UNL A   1      53.179  24.802  32.315  1.00  0.00     0.022 A 
BRANCH  92  95
ATOM     95  S   UNL A   1      52.612  22.235  33.082  1.00  0.00     0.127 S 
ATOM     96  O   UNL A   1      52.018  22.127  34.414  1.00  0.00    -0.237 OA
ATOM     97  O   UNL A   1      51.958  21.425  32.054  1.00  0.00    -0.237 OA
ATOM     98  O   UNL A   1      54.068  22.202  33.045  1.00  0.00    -0.744 OA
ENDBRANCH  92  95
ENDBRANCH  65  88
ENDBRANCH  39  40
ENDBRANCH  32  34
ENDBRANCH  31  32
ENDBRANCH  30  31
ENDBRANCH  29  30
ENDBRANCH  28  29
ENDBRANCH  27  28
ENDBRANCH  26  27
ENDBRANCH   1  26
TORSDOF 27
ENDMDL
MODEL 2
REMARK VINA RESULT:      -7.5      7.054     11.301
REMARK SMILES CCC(CC)NC(=O)N[C@@H]1C=C[C@@H](C(=O)OCCOCCOCCOCCOC(=O)c2ccc(-c3c4nc(c(-c5cccc(S(=O)(=O)[O-])c5F)c5ccc([nH]5)c(-c5cccc(S(=O)(=O)[O-])c5F)c5nc(c(-c6cccc(S(=O)(=O)[O-])c6F)c6ccc3[nH]6)C=C5)C=C4)cc2)C1
REMARK SMILES IDX 22 1 21 2 20 3 19 4 18 5 17 6 16 7 14 8 15 9 13 10 10 11
REMARK SMILES IDX 11 12 94 13 12 14 9 15 6 16 7 17 8 19 3 21 2 22 1 23 4 24
REMARK SMILES IDX 5 25 23 26 24 27 25 28 26 29 27 30 28 31 29 32 30 33 31 34
REMARK SMILES IDX 32 35 93 36 33 37 92 38 34 39 35 40 36 41 86 42 37 43 91 44
REMARK SMILES IDX 85 45 87 46 38 47 90 48 84 49 83 50 39 52 71 53 51 54 70 55
REMARK SMILES IDX 52 56 55 57 69 58 88 59 53 60 54 61 68 63 89 64 56 65 40 66
REMARK SMILES IDX 41 67 49 68 42 69 44 70 50 71 43 72 45 73 46 74 47 75 48 76
REMARK SMILES IDX 72 77 73 78 81 79 74 80 76 81 82 82 75 83 77 84 78 85 79 86
REMARK SMILES IDX 80 87 57 88 58 89 66 90 59 91 61 92 67 93 60 94 62 95 63 96
REMARK SMILES IDX 64 97 65 98
REMARK H PARENT 6 18 9 20 87 51 55 62
REMARK Flexibility Score: inf
ROOT
ATOM      1  O   UNL A   1      38.708  29.798  28.440  1.00  0.00    -0.377 OA
ENDROOT
BRANCH   1   2
ATOM      2  C   UNL A   1      39.137  30.400  29.642  1.00  0.00     0.188 C 
BRANCH   2   3
ATOM      3  C   UNL A   1      38.145  30.287  30.810  1.00  0.00     0.188 C 
BRANCH   3   4
ATOM      4  O   UNL A   1      38.078  31.290  31.814  1.00  0.00    -0.376 OA
BRANCH   4   5
ATOM      5  C   UNL A   1      38.755  31.132  33.056  1.00  0.00     0.202 C 
BRANCH   5   6
ATOM      6  C   UNL A   1      39.039  32.311  34.003  1.00  0.00     0.261 C 
BRANCH   6   7
ATOM      7  O   UNL A   1      38.323  33.520  33.717  1.00  0.00    -0.463 OA
BRANCH   7   8
ATOM      8  C   UNL A   1      37.276  33.828  34.519  1.00  0.00     0.312 C 
ATOM      9  O   UNL A   1      37.298  33.751  35.743  1.00  0.00    -0.252 OA
BRANCH   8  10
ATOM     10  C   UNL A   1      36.093  34.426  33.748  1.00  0.00     0.124 C 
ATOM     11  C   UNL A   1      34.986  34.012  31.556  1.00  0.00     0.107 C 
ATOM     12  C   UNL A   1      34.317  33.301  32.687  1.00  0.00    -0.006 C 
ATOM     13  C   UNL A   1      36.223  34.616  32.228  1.00  0.00     0.048 C 
ATOM     14  C   UNL A   1      34.905  33.526  33.866  1.00  0.00    -0.014 C 
BRANCH  11  15
ATOM     15  N   UNL A   1      34.075  35.027  31.064  1.00  0.00    -0.332 N 
ATOM     16  N   UNL A   1      33.405  34.323  28.902  1.00  0.00    -0.335 N 
ATOM     17  C   UNL A   1      33.346  35.157  29.948  1.00  0.00     0.315 C 
ATOM     18  H   UNL A   1      32.729  34.521  28.215  1.00  0.00     0.165 HD
ATOM     19  O   UNL A   1      32.570  36.116  29.878  1.00  0.00    -0.249 OA
ATOM     20  H   UNL A   1      33.971  35.785  31.684  1.00  0.00     0.165 HD
BRANCH  16  21
ATOM     21  C   UNL A   1      34.254  33.185  28.557  1.00  0.00     0.083 C 
BRANCH  21  22
ATOM     22  C   UNL A   1      33.470  32.171  27.711  1.00  0.00     0.021 C 
ATOM     23  C   UNL A   1      34.178  30.827  27.616  1.00  0.00     0.006 C 
ENDBRANCH  21  22
BRANCH  21  24
ATOM     24  C   UNL A   1      35.581  33.667  27.933  1.00  0.00     0.021 C 
ATOM     25  C   UNL A   1      36.851  33.243  28.659  1.00  0.00     0.006 C 
ENDBRANCH  21  24
ENDBRANCH  16  21
ENDBRANCH  11  15
ENDBRANCH   8  10
ENDBRANCH   7   8
ENDBRANCH   6   7
ENDBRANCH   5   6
ENDBRANCH   4   5
ENDBRANCH   3   4
ENDBRANCH   2   3
ENDBRANCH   1   2
BRANCH   1  26
ATOM     26  C   UNL A   1      39.484  28.712  27.949  1.00  0.00     0.188 C 
BRANCH  26  27
ATOM     27  C   UNL A   1      40.566  28.108  28.870  1.00  0.00     0.188 C 
BRANCH  27  28
ATOM     28  O   UNL A   1      40.937  26.772  28.549  1.00  0.00    -0.376 OA
BRANCH  28  29
ATOM     29  C   UNL A   1      39.929  25.772  28.530  1.00  0.00     0.202 C 
BRANCH  29  30
ATOM     30  C   UNL A   1      40.320  24.359  28.060  1.00  0.00     0.261 C 
BRANCH  30  31
ATOM     31  O   UNL A   1      41.579  24.232  27.382  1.00  0.00    -0.460 OA
BRANCH  31  32
ATOM     32  C   UNL A   1      42.637  23.787  28.088  1.00  0.00     0.338 C 
ATOM     33  O   UNL A   1      42.738  22.711  28.658  1.00  0.00    -0.246 OA
BRANCH  32  34
ATOM     34  C   UNL A   1      43.750  24.737  27.882  1.00  0.00     0.060 A 
ATOM     35  C   UNL A   1      44.163  25.538  28.955  1.00  0.00     0.016 A 
ATOM     36  C   UNL A   1      44.387  24.832  26.643  1.00  0.00     0.016 A 
ATOM     37  C   UNL A   1      45.187  26.468  28.781  1.00  0.00     0.010 A 
ATOM     38  C   UNL A   1      45.397  25.780  26.463  1.00  0.00     0.010 A 
ATOM     39  C   UNL A   1      45.775  26.628  27.521  1.00  0.00    -0.014 A 
BRANCH  39  40
ATOM     40  C   UNL A   1      46.633  27.807  27.253  1.00  0.00     0.031 A 
ATOM     41  C   UNL A   1      48.126  27.634  27.326  1.00  0.00     0.074 A 
ATOM     42  C   UNL A   1      46.108  29.011  26.967  1.00  0.00     0.049 A 
ATOM     43  N   UNL A   1      49.072  28.525  27.198  1.00  0.00    -0.248 NA
ATOM     44  C   UNL A   1      48.614  26.269  27.586  1.00  0.00     0.031 C 
ATOM     45  C   UNL A   1      44.682  29.306  26.859  1.00  0.00     0.029 A 
ATOM     46  N   UNL A   1      46.723  30.220  26.752  1.00  0.00    -0.354 N 
ATOM     47  C   UNL A   1      50.264  27.842  27.409  1.00  0.00     0.074 A 
ATOM     48  C   UNL A   1      49.921  26.461  27.671  1.00  0.00     0.031 C 
ATOM     49  C   UNL A   1      44.526  30.623  26.640  1.00  0.00     0.029 A 
ATOM     50  C   UNL A   1      45.841  31.266  26.626  1.00  0.00     0.049 A 
ATOM     51  H   UNL A   1      47.700  30.326  26.693  1.00  0.00     0.167 HD
ATOM     52  C   UNL A   1      51.530  28.318  27.382  1.00  0.00     0.034 A 
ATOM     53  C   UNL A   1      46.066  32.594  26.550  1.00  0.00     0.034 A 
ATOM     54  C   UNL A   1      51.869  29.687  27.109  1.00  0.00     0.049 A 
ATOM     55  C   UNL A   1      47.483  33.108  26.545  1.00  0.00     0.074 A 
ATOM     56  C   UNL A   1      53.126  30.254  26.992  1.00  0.00     0.029 A 
ATOM     57  N   UNL A   1      50.950  30.712  26.940  1.00  0.00    -0.354 N 
ATOM     58  N   UNL A   1      48.605  32.434  26.620  1.00  0.00    -0.248 NA
ATOM     59  C   UNL A   1      47.667  34.561  26.412  1.00  0.00     0.031 C 
ATOM     60  C   UNL A   1      52.967  31.631  26.805  1.00  0.00     0.029 A 
ATOM     61  C   UNL A   1      51.612  31.912  26.749  1.00  0.00     0.049 A 
ATOM     62  H   UNL A   1      49.973  30.601  26.955  1.00  0.00     0.167 HD
ATOM     63  C   UNL A   1      49.626  33.374  26.510  1.00  0.00     0.074 A 
ATOM     64  C   UNL A   1      48.987  34.663  26.347  1.00  0.00     0.031 C 
ATOM     65  C   UNL A   1      50.968  33.186  26.546  1.00  0.00     0.034 A 
BRANCH  52  66
ATOM     66  C   UNL A   1      52.646  27.349  27.673  1.00  0.00     0.023 A 
ATOM     67  C   UNL A   1      53.198  27.269  28.967  1.00  0.00     0.012 A 
ATOM     68  C   UNL A   1      53.122  26.491  26.664  1.00  0.00     0.148 A 
ATOM     69  C   UNL A   1      54.235  26.378  29.241  1.00  0.00     0.002 A 
ATOM     70  C   UNL A   1      54.120  25.570  26.957  1.00  0.00     0.091 A 
ATOM     71  F   UNL A   1      52.602  26.599  25.433  1.00  0.00    -0.205 F 
ATOM     72  C   UNL A   1      54.688  25.522  28.241  1.00  0.00     0.022 A 
BRANCH  70  73
ATOM     73  S   UNL A   1      54.709  24.370  25.759  1.00  0.00     0.127 S 
ATOM     74  O   UNL A   1      55.594  23.544  26.579  1.00  0.00    -0.237 OA
ATOM     75  O   UNL A   1      53.467  23.712  25.349  1.00  0.00    -0.237 OA
ATOM     76  O   UNL A   1      55.364  25.137  24.710  1.00  0.00    -0.744 OA
ENDBRANCH  70  73
ENDBRANCH  52  66
BRANCH  53  77
ATOM     77  C   UNL A   1      44.912  33.534  26.475  1.00  0.00     0.023 A 
ATOM     78  C   UNL A   1      44.276  33.772  25.243  1.00  0.00     0.012 A 
ATOM     79  C   UNL A   1      44.428  34.171  27.635  1.00  0.00     0.148 A 
ATOM     80  C   UNL A   1      43.192  34.648  25.162  1.00  0.00     0.002 A 
ATOM     81  C   UNL A   1      43.312  34.995  27.558  1.00  0.00     0.091 A 
ATOM     82  F   UNL A   1      45.059  33.942  28.795  1.00  0.00    -0.205 F 
ATOM     83  C   UNL A   1      42.703  35.249  26.319  1.00  0.00     0.022 A 
BRANCH  81  84
ATOM     84  S   UNL A   1      42.533  35.701  29.014  1.00  0.00     0.127 S 
ATOM     85  O   UNL A   1      43.102  37.047  29.034  1.00  0.00    -0.237 OA
ATOM     86  O   UNL A   1      41.117  35.634  28.654  1.00  0.00    -0.237 OA
ATOM     87  O   UNL A   1      42.914  34.841  30.125  1.00  0.00    -0.744 OA
ENDBRANCH  81  84
ENDBRANCH  53  77
BRANCH  65  88
ATOM     88  C   UNL A   1      51.857  34.391  26.360  1.00  0.00     0.023 A 
ATOM     89  C   UNL A   1      52.142  35.239  27.448  1.00  0.00     0.012 A 
ATOM     90  C   UNL A   1      52.482  34.626  25.117  1.00  0.00     0.148 A 
ATOM     91  C   UNL A   1      53.010  36.321  27.295  1.00  0.00     0.002 A 
ATOM     92  C   UNL A   1      53.387  35.673  24.987  1.00  0.00     0.091 A 
ATOM     93  F   UNL A   1      52.187  33.817  24.090  1.00  0.00    -0.205 F 
ATOM     94  C   UNL A   1      53.642  36.530  26.070  1.00  0.00     0.022 A 
BRANCH  92  95
ATOM     95  S   UNL A   1      54.323  35.958  23.480  1.00  0.00     0.127 S 
ATOM     96  O   UNL A   1      55.503  35.124  23.700  1.00  0.00    -0.237 OA
ATOM     97  O   UNL A   1      53.408  35.463  22.451  1.00  0.00    -0.237 OA
ATOM     98  O   UNL A   1      54.576  37.392  23.427  1.00  0.00    -0.744 OA
ENDBRANCH  92  95
ENDBRANCH  65  88
ENDBRANCH  39  40
ENDBRANCH  32  34
ENDBRANCH  31  32
ENDBRANCH  30  31
ENDBRANCH  29  30
ENDBRANCH  28  29
ENDBRANCH  27  28
ENDBRANCH  26  27
ENDBRANCH   1  26
TORSDOF 27
ENDMDL
MODEL 3
REMARK VINA RESULT:      -7.5      6.959     15.873
REMARK SMILES CCC(CC)NC(=O)N[C@@H]1C=C[C@@H](C(=O)OCCOCCOCCOCCOC(=O)c2ccc(-c3c4nc(c(-c5cccc(S(=O)(=O)[O-])c5F)c5ccc([nH]5)c(-c5cccc(S(=O)(=O)[O-])c5F)c5nc(c(-c6cccc(S(=O)(=O)[O-])c6F)c6ccc3[nH]6)C=C5)C=C4)cc2)C1
REMARK SMILES IDX 22 1 21 2 20 3 19 4 18 5 17 6 16 7 14 8 15 9 13 10 10 11
REMARK SMILES IDX 11 12 94 13 12 14 9 15 6 16 7 17 8 19 3 21 2 22 1 23 4 24
REMARK SMILES IDX 5 25 23 26 24 27 25 28 26 29 27 30 28 31 29 32 30 33 31 34
REMARK SMILES IDX 32 35 93 36 33 37 92 38 34 39 35 40 36 41 86 42 37 43 91 44
REMARK SMILES IDX 85 45 87 46 38 47 90 48 84 49 83 50 39 52 71 53 51 54 70 55
REMARK SMILES IDX 52 56 55 57 69 58 88 59 53 60 54 61 68 63 89 64 56 65 40 66
REMARK SMILES IDX 41 67 49 68 42 69 44 70 50 71 43 72 45 73 46 74 47 75 48 76
REMARK SMILES IDX 72 77 73 78 81 79 74 80 76 81 82 82 75 83 77 84 78 85 79 86
REMARK SMILES IDX 80 87 57 88 58 89 66 90 59 91 61 92 67 93 60 94 62 95 63 96
REMARK SMILES IDX 64 97 65 98
REMARK H PARENT 6 18 9 20 87 51 55 62
REMARK Flexibility Score: inf
ROOT
ATOM      1  O   UNL A   1      49.943  21.414  36.808  1.00  0.00    -0.377 OA
ENDROOT
BRANCH   1   2
ATOM      2  C   UNL A   1      49.660  21.330  35.428  1.00  0.00     0.188 C 
BRANCH   2   3
ATOM      3  C   UNL A   1      48.171  21.459  35.066  1.00  0.00     0.188 C 
BRANCH   3   4
ATOM      4  O   UNL A   1      47.281  20.365  35.231  1.00  0.00    -0.376 OA
BRANCH   4   5
ATOM      5  C   UNL A   1      46.472  20.245  36.397  1.00  0.00     0.202 C 
BRANCH   5   6
ATOM      6  C   UNL A   1      46.951  19.526  37.670  1.00  0.00     0.261 C 
BRANCH   6   7
ATOM      7  O   UNL A   1      46.074  19.622  38.800  1.00  0.00    -0.463 OA
BRANCH   7   8
ATOM      8  C   UNL A   1      46.559  19.222  40.000  1.00  0.00     0.312 C 
ATOM      9  O   UNL A   1      47.663  19.535  40.437  1.00  0.00    -0.252 OA
BRANCH   8  10
ATOM     10  C   UNL A   1      45.527  18.451  40.832  1.00  0.00     0.124 C 
ATOM     11  C   UNL A   1      45.543  16.428  42.282  1.00  0.00     0.107 C 
ATOM     12  C   UNL A   1      45.709  17.695  43.055  1.00  0.00    -0.006 C 
ATOM     13  C   UNL A   1      45.578  16.915  40.830  1.00  0.00     0.048 C 
ATOM     14  C   UNL A   1      45.695  18.784  42.280  1.00  0.00    -0.014 C 
BRANCH  11  15
ATOM     15  N   UNL A   1      44.261  15.850  42.638  1.00  0.00    -0.332 N 
ATOM     16  N   UNL A   1      44.693  14.312  44.390  1.00  0.00    -0.335 N 
ATOM     17  C   UNL A   1      43.864  14.977  43.574  1.00  0.00     0.315 C 
ATOM     18  H   UNL A   1      44.218  13.788  45.074  1.00  0.00     0.165 HD
ATOM     19  O   UNL A   1      42.653  14.767  43.685  1.00  0.00    -0.249 OA
ATOM     20  H   UNL A   1      43.524  16.168  42.069  1.00  0.00     0.165 HD
BRANCH  16  21
ATOM     21  C   UNL A   1      46.146  14.192  44.486  1.00  0.00     0.083 C 
BRANCH  21  22
ATOM     22  C   UNL A   1      46.664  14.947  45.718  1.00  0.00     0.021 C 
ATOM     23  C   UNL A   1      47.979  15.664  45.447  1.00  0.00     0.006 C 
ENDBRANCH  21  22
BRANCH  21  24
ATOM     24  C   UNL A   1      46.575  12.711  44.400  1.00  0.00     0.021 C 
ATOM     25  C   UNL A   1      46.622  11.954  45.721  1.00  0.00     0.006 C 
ENDBRANCH  21  24
ENDBRANCH  16  21
ENDBRANCH  11  15
ENDBRANCH   8  10
ENDBRANCH   7   8
ENDBRANCH   6   7
ENDBRANCH   5   6
ENDBRANCH   4   5
ENDBRANCH   3   4
ENDBRANCH   2   3
ENDBRANCH   1   2
BRANCH   1  26
ATOM     26  C   UNL A   1      51.180  22.010  37.178  1.00  0.00     0.188 C 
BRANCH  26  27
ATOM     27  C   UNL A   1      51.636  23.281  36.430  1.00  0.00     0.188 C 
BRANCH  27  28
ATOM     28  O   UNL A   1      50.701  24.353  36.462  1.00  0.00    -0.376 OA
BRANCH  28  29
ATOM     29  C   UNL A   1      49.876  24.503  37.608  1.00  0.00     0.202 C 
BRANCH  29  30
ATOM     30  C   UNL A   1      49.127  25.835  37.792  1.00  0.00     0.261 C 
BRANCH  30  31
ATOM     31  O   UNL A   1      48.151  26.167  36.794  1.00  0.00    -0.460 OA
BRANCH  31  32
ATOM     32  C   UNL A   1      48.126  27.432  36.327  1.00  0.00     0.338 C 
ATOM     33  O   UNL A   1      48.996  28.279  36.459  1.00  0.00    -0.246 OA
BRANCH  32  34
ATOM     34  C   UNL A   1      46.951  27.563  35.441  1.00  0.00     0.060 A 
ATOM     35  C   UNL A   1      46.925  28.605  34.503  1.00  0.00     0.016 A 
ATOM     36  C   UNL A   1      45.888  26.663  35.527  1.00  0.00     0.016 A 
ATOM     37  C   UNL A   1      45.814  28.774  33.677  1.00  0.00     0.010 A 
ATOM     38  C   UNL A   1      44.766  26.847  34.714  1.00  0.00     0.010 A 
ATOM     39  C   UNL A   1      44.709  27.926  33.813  1.00  0.00    -0.014 A 
BRANCH  39  40
ATOM     40  C   UNL A   1      43.423  28.283  33.167  1.00  0.00     0.031 A 
ATOM     41  C   UNL A   1      43.195  27.848  31.746  1.00  0.00     0.074 A 
ATOM     42  C   UNL A   1      42.481  28.990  33.815  1.00  0.00     0.049 A 
ATOM     43  N   UNL A   1      42.186  28.096  30.953  1.00  0.00    -0.248 NA
ATOM     44  C   UNL A   1      44.254  27.027  31.135  1.00  0.00     0.031 C 
ATOM     45  C   UNL A   1      42.578  29.461  35.194  1.00  0.00     0.029 A 
ATOM     46  N   UNL A   1      41.269  29.465  33.377  1.00  0.00    -0.354 N 
ATOM     47  C   UNL A   1      42.508  27.506  29.737  1.00  0.00     0.074 A 
ATOM     48  C   UNL A   1      43.805  26.884  29.897  1.00  0.00     0.031 C 
ATOM     49  C   UNL A   1      41.490  30.198  35.478  1.00  0.00     0.029 A 
ATOM     50  C   UNL A   1      40.638  30.275  34.291  1.00  0.00     0.049 A 
ATOM     51  H   UNL A   1      40.890  29.246  32.496  1.00  0.00     0.167 HD
ATOM     52  C   UNL A   1      41.789  27.477  28.592  1.00  0.00     0.034 A 
ATOM     53  C   UNL A   1      39.524  31.025  34.170  1.00  0.00     0.034 A 
ATOM     54  C   UNL A   1      40.495  28.084  28.439  1.00  0.00     0.049 A 
ATOM     55  C   UNL A   1      38.747  30.998  32.878  1.00  0.00     0.074 A 
ATOM     56  C   UNL A   1      39.656  28.052  27.339  1.00  0.00     0.029 A 
ATOM     57  N   UNL A   1      39.865  28.858  29.401  1.00  0.00    -0.354 N 
ATOM     58  N   UNL A   1      39.001  30.333  31.777  1.00  0.00    -0.248 NA
ATOM     59  C   UNL A   1      37.515  31.799  32.822  1.00  0.00     0.031 C 
ATOM     60  C   UNL A   1      38.542  28.850  27.618  1.00  0.00     0.029 A 
ATOM     61  C   UNL A   1      38.661  29.332  28.911  1.00  0.00     0.049 A 
ATOM     62  H   UNL A   1      40.222  29.042  30.300  1.00  0.00     0.167 HD
ATOM     63  C   UNL A   1      37.945  30.607  30.911  1.00  0.00     0.074 A 
ATOM     64  C   UNL A   1      37.042  31.487  31.624  1.00  0.00     0.031 C 
ATOM     65  C   UNL A   1      37.747  30.175  29.642  1.00  0.00     0.034 A 
BRANCH  52  66
ATOM     66  C   UNL A   1      42.395  26.778  27.404  1.00  0.00     0.023 A 
ATOM     67  C   UNL A   1      43.166  27.500  26.471  1.00  0.00     0.012 A 
ATOM     68  C   UNL A   1      42.228  25.390  27.235  1.00  0.00     0.148 A 
ATOM     69  C   UNL A   1      43.726  26.859  25.366  1.00  0.00     0.002 A 
ATOM     70  C   UNL A   1      42.832  24.749  26.161  1.00  0.00     0.091 A 
ATOM     71  F   UNL A   1      41.471  24.724  28.120  1.00  0.00    -0.205 F 
ATOM     72  C   UNL A   1      43.568  25.484  25.217  1.00  0.00     0.022 A 
BRANCH  70  73
ATOM     73  S   UNL A   1      42.755  22.970  25.931  1.00  0.00     0.127 S 
ATOM     74  O   UNL A   1      41.338  22.703  26.172  1.00  0.00    -0.237 OA
ATOM     75  O   UNL A   1      43.175  22.823  24.536  1.00  0.00    -0.237 OA
ATOM     76  O   UNL A   1      43.674  22.398  26.905  1.00  0.00    -0.744 OA
ENDBRANCH  70  73
ENDBRANCH  52  66
BRANCH  53  77
ATOM     77  C   UNL A   1      39.076  31.870  35.313  1.00  0.00     0.023 A 
ATOM     78  C   UNL A   1      38.179  31.352  36.265  1.00  0.00     0.012 A 
ATOM     79  C   UNL A   1      39.565  33.182  35.470  1.00  0.00     0.148 A 
ATOM     80  C   UNL A   1      37.756  32.133  37.341  1.00  0.00     0.002 A 
ATOM     81  C   UNL A   1      39.187  33.934  36.575  1.00  0.00     0.091 A 
ATOM     82  F   UNL A   1      40.407  33.661  34.543  1.00  0.00    -0.205 F 
ATOM     83  C   UNL A   1      38.269  33.419  37.503  1.00  0.00     0.022 A 
BRANCH  81  84
ATOM     84  S   UNL A   1      39.901  35.542  36.937  1.00  0.00     0.127 S 
ATOM     85  O   UNL A   1      39.220  35.898  38.180  1.00  0.00    -0.237 OA
ATOM     86  O   UNL A   1      41.319  35.212  37.081  1.00  0.00    -0.237 OA
ATOM     87  O   UNL A   1      39.591  36.382  35.788  1.00  0.00    -0.744 OA
ENDBRANCH  81  84
ENDBRANCH  53  77
BRANCH  65  88
ATOM     88  C   UNL A   1      36.481  30.599  28.938  1.00  0.00     0.023 A 
ATOM     89  C   UNL A   1      35.568  29.633  28.474  1.00  0.00     0.012 A 
ATOM     90  C   UNL A   1      36.160  31.967  28.820  1.00  0.00     0.148 A 
ATOM     91  C   UNL A   1      34.369  30.021  27.875  1.00  0.00     0.002 A 
ATOM     92  C   UNL A   1      34.941  32.345  28.271  1.00  0.00     0.091 A 
ATOM     93  F   UNL A   1      37.049  32.872  29.254  1.00  0.00    -0.205 F 
ATOM     94  C   UNL A   1      34.050  31.375  27.785  1.00  0.00     0.022 A 
BRANCH  92  95
ATOM     95  S   UNL A   1      34.401  34.058  28.206  1.00  0.00     0.127 S 
ATOM     96  O   UNL A   1      32.978  33.909  27.907  1.00  0.00    -0.237 OA
ATOM     97  O   UNL A   1      34.695  34.525  29.561  1.00  0.00    -0.237 OA
ATOM     98  O   UNL A   1      35.193  34.691  27.160  1.00  0.00    -0.744 OA
ENDBRANCH  92  95
ENDBRANCH  65  88
ENDBRANCH  39  40
ENDBRANCH  32  34
ENDBRANCH  31  32
ENDBRANCH  30  31
ENDBRANCH  29  30
ENDBRANCH  28  29
ENDBRANCH  27  28
ENDBRANCH  26  27
ENDBRANCH   1  26
TORSDOF 27
ENDMDL
