MODEL 1
REMARK VINA RESULT:      -9.3      0.000      0.000
REMARK SMILES Cn1ncc(C(=O)OCCOCCOCCOCCOC(=O)c2ccc(-c3c4nc(c(-c5cccc(S(=O)(=O)[O-])c5F)c5ccc([nH]5)c(-c5cccc(S(=O)(=O)[O-])c5F)c5nc(c(-c6cccc(S(=O)(=O)[O-])c6F)c6ccc3[nH]6)C=C5)C=C4)cc2)c1C(=O)Nc1ccccn1
REMARK SMILES IDX 15 1 14 2 13 3 12 4 11 5 10 6 9 7 8 8 6 9 7 10 5 11 1 12
REMARK SMILES IDX 2 13 3 14 86 15 4 16 87 17 88 18 89 19 90 21 91 22 95 23
REMARK SMILES IDX 92 24 94 25 93 26 16 27 17 28 18 29 19 30 20 31 21 32 22 33
REMARK SMILES IDX 23 34 24 35 85 36 25 37 84 38 26 39 27 40 28 41 78 42 29 43
REMARK SMILES IDX 83 44 77 45 79 46 30 47 82 48 76 49 75 50 31 52 63 53 43 54
REMARK SMILES IDX 62 55 44 56 47 57 61 58 80 59 45 60 46 61 60 63 81 64 48 65
REMARK SMILES IDX 32 66 33 67 41 68 34 69 36 70 42 71 35 72 37 73 38 74 39 75
REMARK SMILES IDX 40 76 64 77 65 78 73 79 66 80 68 81 74 82 67 83 69 84 70 85
REMARK SMILES IDX 71 86 72 87 49 88 50 89 58 90 51 91 53 92 59 93 52 94 54 95
REMARK SMILES IDX 55 96 56 97 57 98
REMARK H PARENT 89 20 79 51 47 62
REMARK Flexibility Score: inf
ROOT
ATOM      1  C   UNL A   1      33.264  35.763  31.248  1.00  0.00     0.188 C 
ENDROOT
BRANCH   1   2
ATOM      2  O   UNL A   1      32.731  35.062  30.131  1.00  0.00    -0.377 OA
BRANCH   2   3
ATOM      3  C   UNL A   1      33.682  34.581  29.190  1.00  0.00     0.188 C 
BRANCH   3   4
ATOM      4  C   UNL A   1      33.200  33.673  28.039  1.00  0.00     0.188 C 
BRANCH   4   5
ATOM      5  O   UNL A   1      33.823  32.385  28.000  1.00  0.00    -0.376 OA
BRANCH   5   6
ATOM      6  C   UNL A   1      33.094  31.331  27.379  1.00  0.00     0.202 C 
BRANCH   6   7
ATOM      7  C   UNL A   1      33.983  30.176  26.906  1.00  0.00     0.261 C 
BRANCH   7   8
ATOM      8  O   UNL A   1      33.252  28.956  26.743  1.00  0.00    -0.460 OA
BRANCH   8   9
ATOM      9  C   UNL A   1      32.602  28.783  25.569  1.00  0.00     0.342 C 
ATOM     10  O   UNL A   1      32.800  29.457  24.563  1.00  0.00    -0.246 OA
BRANCH   9  11
ATOM     11  C   UNL A   1      31.813  27.565  25.533  1.00  0.00     0.111 A 
ATOM     12  C   UNL A   1      31.030  24.239  24.691  1.00  0.00     0.174 C 
ATOM     13  N   UNL A   1      30.943  25.628  25.079  1.00  0.00    -0.262 N 
ATOM     14  N   UNL A   1      30.597  25.843  26.369  1.00  0.00    -0.180 NA
ATOM     15  C   UNL A   1      31.442  26.751  24.448  1.00  0.00     0.140 A 
ATOM     16  C   UNL A   1      31.236  26.968  26.669  1.00  0.00     0.151 A 
BRANCH  15  17
ATOM     17  C   UNL A   1      31.769  27.010  23.054  1.00  0.00     0.275 C 
ATOM     18  O   UNL A   1      32.699  26.398  22.520  1.00  0.00    -0.267 OA
ATOM     19  N   UNL A   1      31.083  27.832  22.204  1.00  0.00    -0.305 N 
ATOM     20  H   UNL A   1      31.485  27.872  21.306  1.00  0.00     0.171 HD
BRANCH  19  21
ATOM     21  C   UNL A   1      29.954  28.617  22.318  1.00  0.00     0.132 A 
ATOM     22  C   UNL A   1      28.819  28.248  23.021  1.00  0.00     0.047 A 
ATOM     23  N   UNL A   1      30.062  29.793  21.665  1.00  0.00    -0.239 NA
ATOM     24  C   UNL A   1      27.724  29.118  22.997  1.00  0.00     0.005 A 
ATOM     25  C   UNL A   1      28.984  30.598  21.630  1.00  0.00     0.113 A 
ATOM     26  C   UNL A   1      27.796  30.301  22.265  1.00  0.00     0.020 A 
ENDBRANCH  19  21
ENDBRANCH  15  17
ENDBRANCH   9  11
ENDBRANCH   8   9
ENDBRANCH   7   8
ENDBRANCH   6   7
ENDBRANCH   5   6
ENDBRANCH   4   5
ENDBRANCH   3   4
ENDBRANCH   2   3
ENDBRANCH   1   2
BRANCH   1  27
ATOM     27  C   UNL A   1      33.544  34.805  32.419  1.00  0.00     0.188 C 
BRANCH  27  28
ATOM     28  O   UNL A   1      34.826  34.175  32.325  1.00  0.00    -0.376 OA
BRANCH  28  29
ATOM     29  C   UNL A   1      34.827  32.751  32.375  1.00  0.00     0.202 C 
BRANCH  29  30
ATOM     30  C   UNL A   1      36.160  32.059  32.710  1.00  0.00     0.261 C 
BRANCH  30  31
ATOM     31  O   UNL A   1      36.392  30.802  32.051  1.00  0.00    -0.460 OA
BRANCH  31  32
ATOM     32  C   UNL A   1      37.353  29.994  32.547  1.00  0.00     0.338 C 
ATOM     33  O   UNL A   1      37.208  29.052  33.305  1.00  0.00    -0.246 OA
BRANCH  32  34
ATOM     34  C   UNL A   1      38.617  30.325  31.859  1.00  0.00     0.060 A 
ATOM     35  C   UNL A   1      39.760  30.570  32.631  1.00  0.00     0.016 A 
ATOM     36  C   UNL A   1      38.675  30.382  30.464  1.00  0.00     0.016 A 
ATOM     37  C   UNL A   1      40.960  30.913  32.006  1.00  0.00     0.010 A 
ATOM     38  C   UNL A   1      39.870  30.744  29.842  1.00  0.00     0.010 A 
ATOM     39  C   UNL A   1      41.007  31.043  30.611  1.00  0.00    -0.014 A 
BRANCH  39  40
ATOM     40  C   UNL A   1      42.176  31.687  29.968  1.00  0.00     0.031 A 
ATOM     41  C   UNL A   1      43.351  30.819  29.606  1.00  0.00     0.074 A 
ATOM     42  C   UNL A   1      42.213  33.011  29.740  1.00  0.00     0.049 A 
ATOM     43  N   UNL A   1      44.486  31.151  29.052  1.00  0.00    -0.248 NA
ATOM     44  C   UNL A   1      43.227  29.383  29.914  1.00  0.00     0.031 C 
ATOM     45  C   UNL A   1      41.147  33.957  30.062  1.00  0.00     0.029 A 
ATOM     46  N   UNL A   1      43.209  33.791  29.205  1.00  0.00    -0.354 N 
ATOM     47  C   UNL A   1      45.216  29.973  28.957  1.00  0.00     0.074 A 
ATOM     48  C   UNL A   1      44.405  28.920  29.525  1.00  0.00     0.031 C 
ATOM     49  C   UNL A   1      41.559  35.199  29.747  1.00  0.00     0.029 A 
ATOM     50  C   UNL A   1      42.919  35.135  29.212  1.00  0.00     0.049 A 
ATOM     51  H   UNL A   1      44.050  33.422  28.850  1.00  0.00     0.167 HD
ATOM     52  C   UNL A   1      46.445  29.779  28.426  1.00  0.00     0.034 A 
ATOM     53  C   UNL A   1      43.672  36.189  28.839  1.00  0.00     0.034 A 
ATOM     54  C   UNL A   1      47.251  30.821  27.855  1.00  0.00     0.049 A 
ATOM     55  C   UNL A   1      45.051  35.948  28.274  1.00  0.00     0.074 A 
ATOM     56  C   UNL A   1      48.490  30.717  27.250  1.00  0.00     0.029 A 
ATOM     57  N   UNL A   1      46.904  32.162  27.832  1.00  0.00    -0.354 N 
ATOM     58  N   UNL A   1      45.666  34.812  28.049  1.00  0.00    -0.248 NA
ATOM     59  C   UNL A   1      45.827  37.136  27.880  1.00  0.00     0.031 C 
ATOM     60  C   UNL A   1      48.900  32.000  26.873  1.00  0.00     0.029 A 
ATOM     61  C   UNL A   1      47.910  32.900  27.234  1.00  0.00     0.049 A 
ATOM     62  H   UNL A   1      46.065  32.536  28.189  1.00  0.00     0.167 HD
ATOM     63  C   UNL A   1      46.883  35.144  27.462  1.00  0.00     0.074 A 
ATOM     64  C   UNL A   1      46.909  36.587  27.345  1.00  0.00     0.031 C 
ATOM     65  C   UNL A   1      47.896  34.331  27.071  1.00  0.00     0.034 A 
BRANCH  52  66
ATOM     66  C   UNL A   1      46.973  28.373  28.403  1.00  0.00     0.023 A 
ATOM     67  C   UNL A   1      47.740  27.909  29.490  1.00  0.00     0.012 A 
ATOM     68  C   UNL A   1      46.681  27.501  27.337  1.00  0.00     0.148 A 
ATOM     69  C   UNL A   1      48.230  26.604  29.507  1.00  0.00     0.002 A 
ATOM     70  C   UNL A   1      47.143  26.192  27.377  1.00  0.00     0.091 A 
ATOM     71  F   UNL A   1      45.976  27.973  26.299  1.00  0.00    -0.205 F 
ATOM     72  C   UNL A   1      47.923  25.743  28.455  1.00  0.00     0.022 A 
BRANCH  70  73
ATOM     73  S   UNL A   1      46.751  24.991  26.099  1.00  0.00     0.127 S 
ATOM     74  O   UNL A   1      47.134  23.737  26.745  1.00  0.00    -0.237 OA
ATOM     75  O   UNL A   1      45.309  25.175  25.933  1.00  0.00    -0.237 OA
ATOM     76  O   UNL A   1      47.547  25.368  24.940  1.00  0.00    -0.744 OA
ENDBRANCH  70  73
ENDBRANCH  52  66
BRANCH  53  77
ATOM     77  C   UNL A   1      43.128  37.573  28.942  1.00  0.00     0.023 A 
ATOM     78  C   UNL A   1      42.359  38.092  27.883  1.00  0.00     0.012 A 
ATOM     79  C   UNL A   1      43.364  38.372  30.077  1.00  0.00     0.148 A 
ATOM     80  C   UNL A   1      41.858  39.394  27.939  1.00  0.00     0.002 A 
ATOM     81  C   UNL A   1      42.821  39.651  30.148  1.00  0.00     0.091 A 
ATOM     82  F   UNL A   1      44.119  37.870  31.063  1.00  0.00    -0.205 F 
ATOM     83  C   UNL A   1      42.080  40.169  29.075  1.00  0.00     0.022 A 
BRANCH  81  84
ATOM     84  S   UNL A   1      42.967  40.671  31.619  1.00  0.00     0.127 S 
ATOM     85  O   UNL A   1      41.748  41.473  31.551  1.00  0.00    -0.237 OA
ATOM     86  O   UNL A   1      42.988  39.670  32.686  1.00  0.00    -0.237 OA
ATOM     87  O   UNL A   1      44.218  41.401  31.460  1.00  0.00    -0.744 OA
ENDBRANCH  81  84
ENDBRANCH  53  77
BRANCH  65  88
ATOM     88  C   UNL A   1      49.115  34.968  26.459  1.00  0.00     0.023 A 
ATOM     89  C   UNL A   1      49.110  35.301  25.090  1.00  0.00     0.012 A 
ATOM     90  C   UNL A   1      50.223  35.322  27.253  1.00  0.00     0.148 A 
ATOM     91  C   UNL A   1      50.199  35.956  24.517  1.00  0.00     0.002 A 
ATOM     92  C   UNL A   1      51.287  36.014  26.684  1.00  0.00     0.091 A 
ATOM     93  F   UNL A   1      50.218  34.979  28.550  1.00  0.00    -0.205 F 
ATOM     94  C   UNL A   1      51.280  36.324  25.315  1.00  0.00     0.022 A 
BRANCH  92  95
ATOM     95  S   UNL A   1      52.675  36.608  27.659  1.00  0.00     0.127 S 
ATOM     96  O   UNL A   1      52.007  37.461  28.640  1.00  0.00    -0.237 OA
ATOM     97  O   UNL A   1      53.229  35.369  28.206  1.00  0.00    -0.237 OA
ATOM     98  O   UNL A   1      53.553  37.295  26.721  1.00  0.00    -0.744 OA
ENDBRANCH  92  95
ENDBRANCH  65  88
ENDBRANCH  39  40
ENDBRANCH  32  34
ENDBRANCH  31  32
ENDBRANCH  30  31
ENDBRANCH  29  30
ENDBRANCH  28  29
ENDBRANCH  27  28
ENDBRANCH   1  27
TORSDOF 25
ENDMDL
MODEL 2
REMARK VINA RESULT:      -9.3      3.374      8.779
REMARK SMILES Cn1ncc(C(=O)OCCOCCOCCOCCOC(=O)c2ccc(-c3c4nc(c(-c5cccc(S(=O)(=O)[O-])c5F)c5ccc([nH]5)c(-c5cccc(S(=O)(=O)[O-])c5F)c5nc(c(-c6cccc(S(=O)(=O)[O-])c6F)c6ccc3[nH]6)C=C5)C=C4)cc2)c1C(=O)Nc1ccccn1
REMARK SMILES IDX 15 1 14 2 13 3 12 4 11 5 10 6 9 7 8 8 6 9 7 10 5 11 1 12
REMARK SMILES IDX 2 13 3 14 86 15 4 16 87 17 88 18 89 19 90 21 91 22 95 23
REMARK SMILES IDX 92 24 94 25 93 26 16 27 17 28 18 29 19 30 20 31 21 32 22 33
REMARK SMILES IDX 23 34 24 35 85 36 25 37 84 38 26 39 27 40 28 41 78 42 29 43
REMARK SMILES IDX 83 44 77 45 79 46 30 47 82 48 76 49 75 50 31 52 63 53 43 54
REMARK SMILES IDX 62 55 44 56 47 57 61 58 80 59 45 60 46 61 60 63 81 64 48 65
REMARK SMILES IDX 32 66 33 67 41 68 34 69 36 70 42 71 35 72 37 73 38 74 39 75
REMARK SMILES IDX 40 76 64 77 65 78 73 79 66 80 68 81 74 82 67 83 69 84 70 85
REMARK SMILES IDX 71 86 72 87 49 88 50 89 58 90 51 91 53 92 59 93 52 94 54 95
REMARK SMILES IDX 55 96 56 97 57 98
REMARK H PARENT 89 20 79 51 47 62
REMARK Flexibility Score: inf
ROOT
ATOM      1  C   UNL A   1      33.239  34.629  29.401  1.00  0.00     0.188 C 
ENDROOT
BRANCH   1   2
ATOM      2  O   UNL A   1      33.321  34.108  28.080  1.00  0.00    -0.377 OA
BRANCH   2   3
ATOM      3  C   UNL A   1      34.509  33.392  27.768  1.00  0.00     0.188 C 
BRANCH   3   4
ATOM      4  C   UNL A   1      34.456  31.851  27.703  1.00  0.00     0.188 C 
BRANCH   4   5
ATOM      5  O   UNL A   1      35.738  31.214  27.731  1.00  0.00    -0.376 OA
BRANCH   5   6
ATOM      6  C   UNL A   1      35.756  29.791  27.653  1.00  0.00     0.202 C 
BRANCH   6   7
ATOM      7  C   UNL A   1      34.358  29.175  27.526  1.00  0.00     0.261 C 
BRANCH   7   8
ATOM      8  O   UNL A   1      34.229  28.352  26.362  1.00  0.00    -0.460 OA
BRANCH   8   9
ATOM      9  C   UNL A   1      33.055  28.418  25.692  1.00  0.00     0.342 C 
ATOM     10  O   UNL A   1      32.263  29.353  25.775  1.00  0.00    -0.246 OA
BRANCH   9  11
ATOM     11  C   UNL A   1      32.925  27.391  24.675  1.00  0.00     0.111 A 
ATOM     12  C   UNL A   1      31.366  24.808  22.863  1.00  0.00     0.174 C 
ATOM     13  N   UNL A   1      32.345  25.688  23.459  1.00  0.00    -0.262 N 
ATOM     14  N   UNL A   1      32.992  26.499  22.591  1.00  0.00    -0.180 NA
ATOM     15  C   UNL A   1      32.513  26.051  24.781  1.00  0.00     0.140 A 
ATOM     16  C   UNL A   1      33.233  27.585  23.316  1.00  0.00     0.151 A 
BRANCH  15  17
ATOM     17  C   UNL A   1      32.145  25.381  26.020  1.00  0.00     0.275 C 
ATOM     18  O   UNL A   1      31.229  25.834  26.713  1.00  0.00    -0.267 OA
ATOM     19  N   UNL A   1      32.668  24.207  26.487  1.00  0.00    -0.305 N 
ATOM     20  H   UNL A   1      32.285  23.938  27.354  1.00  0.00     0.171 HD
BRANCH  19  21
ATOM     21  C   UNL A   1      33.609  23.312  26.019  1.00  0.00     0.132 A 
ATOM     22  C   UNL A   1      34.858  23.130  26.589  1.00  0.00     0.047 A 
ATOM     23  N   UNL A   1      33.191  22.626  24.935  1.00  0.00    -0.239 NA
ATOM     24  C   UNL A   1      35.735  22.235  25.969  1.00  0.00     0.005 A 
ATOM     25  C   UNL A   1      34.063  21.793  24.338  1.00  0.00     0.113 A 
ATOM     26  C   UNL A   1      35.342  21.575  24.806  1.00  0.00     0.020 A 
ENDBRANCH  19  21
ENDBRANCH  15  17
ENDBRANCH   9  11
ENDBRANCH   8   9
ENDBRANCH   7   8
ENDBRANCH   6   7
ENDBRANCH   5   6
ENDBRANCH   4   5
ENDBRANCH   3   4
ENDBRANCH   2   3
ENDBRANCH   1   2
BRANCH   1  27
ATOM     27  C   UNL A   1      33.259  36.167  29.391  1.00  0.00     0.188 C 
BRANCH  27  28
ATOM     28  O   UNL A   1      33.288  36.729  30.707  1.00  0.00    -0.376 OA
BRANCH  28  29
ATOM     29  C   UNL A   1      33.203  35.801  31.785  1.00  0.00     0.202 C 
BRANCH  29  30
ATOM     30  C   UNL A   1      34.425  35.684  32.713  1.00  0.00     0.261 C 
BRANCH  30  31
ATOM     31  O   UNL A   1      35.448  34.769  32.283  1.00  0.00    -0.460 OA
BRANCH  31  32
ATOM     32  C   UNL A   1      35.425  33.514  32.779  1.00  0.00     0.338 C 
ATOM     33  O   UNL A   1      34.601  33.034  33.536  1.00  0.00    -0.246 OA
BRANCH  32  34
ATOM     34  C   UNL A   1      36.479  32.741  32.092  1.00  0.00     0.060 A 
ATOM     35  C   UNL A   1      37.243  31.833  32.837  1.00  0.00     0.016 A 
ATOM     36  C   UNL A   1      36.703  32.903  30.722  1.00  0.00     0.016 A 
ATOM     37  C   UNL A   1      38.263  31.111  32.217  1.00  0.00     0.010 A 
ATOM     38  C   UNL A   1      37.736  32.195  30.108  1.00  0.00     0.010 A 
ATOM     39  C   UNL A   1      38.542  31.322  30.859  1.00  0.00    -0.014 A 
BRANCH  39  40
ATOM     40  C   UNL A   1      39.794  30.793  30.271  1.00  0.00     0.031 A 
ATOM     41  C   UNL A   1      40.992  31.702  30.223  1.00  0.00     0.074 A 
ATOM     42  C   UNL A   1      39.862  29.551  29.763  1.00  0.00     0.049 A 
ATOM     43  N   UNL A   1      42.186  31.474  29.748  1.00  0.00    -0.248 NA
ATOM     44  C   UNL A   1      40.815  33.053  30.784  1.00  0.00     0.031 C 
ATOM     45  C   UNL A   1      38.767  28.584  29.735  1.00  0.00     0.029 A 
ATOM     46  N   UNL A   1      40.902  28.902  29.144  1.00  0.00    -0.354 N 
ATOM     47  C   UNL A   1      42.899  32.651  29.938  1.00  0.00     0.074 A 
ATOM     48  C   UNL A   1      42.000  33.598  30.557  1.00  0.00     0.031 C 
ATOM     49  C   UNL A   1      39.183  27.474  29.100  1.00  0.00     0.029 A 
ATOM     50  C   UNL A   1      40.569  27.656  28.668  1.00  0.00     0.049 A 
ATOM     51  H   UNL A   1      41.801  29.293  29.049  1.00  0.00     0.167 HD
ATOM     52  C   UNL A   1      44.192  32.915  29.643  1.00  0.00     0.034 A 
ATOM     53  C   UNL A   1      41.298  26.773  27.957  1.00  0.00     0.034 A 
ATOM     54  C   UNL A   1      45.089  31.974  29.034  1.00  0.00     0.049 A 
ATOM     55  C   UNL A   1      42.731  27.103  27.618  1.00  0.00     0.074 A 
ATOM     56  C   UNL A   1      46.431  32.132  28.739  1.00  0.00     0.029 A 
ATOM     57  N   UNL A   1      44.732  30.703  28.614  1.00  0.00    -0.354 N 
ATOM     58  N   UNL A   1      43.436  28.161  27.941  1.00  0.00    -0.248 NA
ATOM     59  C   UNL A   1      43.480  26.100  26.842  1.00  0.00     0.031 C 
ATOM     60  C   UNL A   1      46.883  30.960  28.124  1.00  0.00     0.029 A 
ATOM     61  C   UNL A   1      45.823  30.068  28.049  1.00  0.00     0.049 A 
ATOM     62  H   UNL A   1      43.833  30.310  28.703  1.00  0.00     0.167 HD
ATOM     63  C   UNL A   1      44.714  27.938  27.438  1.00  0.00     0.074 A 
ATOM     64  C   UNL A   1      44.693  26.636  26.807  1.00  0.00     0.031 C 
ATOM     65  C   UNL A   1      45.802  28.746  27.478  1.00  0.00     0.034 A 
BRANCH  52  66
ATOM     66  C   UNL A   1      44.722  34.270  30.018  1.00  0.00     0.023 A 
ATOM     67  C   UNL A   1      45.325  34.447  31.280  1.00  0.00     0.012 A 
ATOM     68  C   UNL A   1      44.663  35.351  29.120  1.00  0.00     0.148 A 
ATOM     69  C   UNL A   1      45.843  35.686  31.651  1.00  0.00     0.002 A 
ATOM     70  C   UNL A   1      45.211  36.575  29.483  1.00  0.00     0.091 A 
ATOM     71  F   UNL A   1      44.057  35.169  27.937  1.00  0.00    -0.205 F 
ATOM     72  C   UNL A   1      45.794  36.747  30.750  1.00  0.00     0.022 A 
BRANCH  70  73
ATOM     73  S   UNL A   1      45.251  37.984  28.369  1.00  0.00     0.127 S 
ATOM     74  O   UNL A   1      44.734  37.398  27.134  1.00  0.00    -0.237 OA
ATOM     75  O   UNL A   1      44.343  38.924  29.025  1.00  0.00    -0.237 OA
ATOM     76  O   UNL A   1      46.641  38.417  28.324  1.00  0.00    -0.744 OA
ENDBRANCH  70  73
ENDBRANCH  52  66
BRANCH  53  77
ATOM     77  C   UNL A   1      40.706  25.467  27.551  1.00  0.00     0.023 A 
ATOM     78  C   UNL A   1      39.462  25.448  26.891  1.00  0.00     0.012 A 
ATOM     79  C   UNL A   1      41.364  24.250  27.812  1.00  0.00     0.148 A 
ATOM     80  C   UNL A   1      38.870  24.239  26.522  1.00  0.00     0.002 A 
ATOM     81  C   UNL A   1      40.792  23.051  27.398  1.00  0.00     0.091 A 
ATOM     82  F   UNL A   1      42.534  24.286  28.464  1.00  0.00    -0.205 F 
ATOM     83  C   UNL A   1      39.539  23.042  26.766  1.00  0.00     0.022 A 
BRANCH  81  84
ATOM     84  S   UNL A   1      41.638  21.477  27.576  1.00  0.00     0.127 S 
ATOM     85  O   UNL A   1      42.252  21.315  26.261  1.00  0.00    -0.237 OA
ATOM     86  O   UNL A   1      42.576  21.753  28.664  1.00  0.00    -0.237 OA
ATOM     87  O   UNL A   1      40.596  20.515  27.915  1.00  0.00    -0.744 OA
ENDBRANCH  81  84
ENDBRANCH  53  77
BRANCH  65  88
ATOM     88  C   UNL A   1      47.074  28.249  26.843  1.00  0.00     0.023 A 
ATOM     89  C   UNL A   1      48.129  27.803  27.663  1.00  0.00     0.012 A 
ATOM     90  C   UNL A   1      47.189  28.133  25.444  1.00  0.00     0.148 A 
ATOM     91  C   UNL A   1      49.288  27.271  27.100  1.00  0.00     0.002 A 
ATOM     92  C   UNL A   1      48.329  27.562  24.890  1.00  0.00     0.091 A 
ATOM     93  F   UNL A   1      46.182  28.582  24.680  1.00  0.00    -0.205 F 
ATOM     94  C   UNL A   1      49.383  27.138  25.716  1.00  0.00     0.022 A 
BRANCH  92  95
ATOM     95  S   UNL A   1      48.493  27.268  23.125  1.00  0.00     0.127 S 
ATOM     96  O   UNL A   1      49.912  27.541  22.908  1.00  0.00    -0.237 OA
ATOM     97  O   UNL A   1      48.117  25.859  23.005  1.00  0.00    -0.237 OA
ATOM     98  O   UNL A   1      47.568  28.193  22.482  1.00  0.00    -0.744 OA
ENDBRANCH  92  95
ENDBRANCH  65  88
ENDBRANCH  39  40
ENDBRANCH  32  34
ENDBRANCH  31  32
ENDBRANCH  30  31
ENDBRANCH  29  30
ENDBRANCH  28  29
ENDBRANCH  27  28
ENDBRANCH   1  27
TORSDOF 25
ENDMDL
MODEL 3
REMARK VINA RESULT:      -9.1      6.675      9.745
REMARK SMILES Cn1ncc(C(=O)OCCOCCOCCOCCOC(=O)c2ccc(-c3c4nc(c(-c5cccc(S(=O)(=O)[O-])c5F)c5ccc([nH]5)c(-c5cccc(S(=O)(=O)[O-])c5F)c5nc(c(-c6cccc(S(=O)(=O)[O-])c6F)c6ccc3[nH]6)C=C5)C=C4)cc2)c1C(=O)Nc1ccccn1
REMARK SMILES IDX 15 1 14 2 13 3 12 4 11 5 10 6 9 7 8 8 6 9 7 10 5 11 1 12
REMARK SMILES IDX 2 13 3 14 86 15 4 16 87 17 88 18 89 19 90 21 91 22 95 23
REMARK SMILES IDX 92 24 94 25 93 26 16 27 17 28 18 29 19 30 20 31 21 32 22 33
REMARK SMILES IDX 23 34 24 35 85 36 25 37 84 38 26 39 27 40 28 41 78 42 29 43
REMARK SMILES IDX 83 44 77 45 79 46 30 47 82 48 76 49 75 50 31 52 63 53 43 54
REMARK SMILES IDX 62 55 44 56 47 57 61 58 80 59 45 60 46 61 60 63 81 64 48 65
REMARK SMILES IDX 32 66 33 67 41 68 34 69 36 70 42 71 35 72 37 73 38 74 39 75
REMARK SMILES IDX 40 76 64 77 65 78 73 79 66 80 68 81 74 82 67 83 69 84 70 85
REMARK SMILES IDX 71 86 72 87 49 88 50 89 58 90 51 91 53 92 59 93 52 94 54 95
REMARK SMILES IDX 55 96 56 97 57 98
REMARK H PARENT 89 20 79 51 47 62
REMARK Flexibility Score: inf
ROOT
ATOM      1  C   UNL A   1      33.223  30.723  27.088  1.00  0.00     0.188 C 
ENDROOT
BRANCH   1   2
ATOM      2  O   UNL A   1      33.433  29.356  27.424  1.00  0.00    -0.377 OA
BRANCH   2   3
ATOM      3  C   UNL A   1      33.011  28.408  26.453  1.00  0.00     0.188 C 
BRANCH   3   4
ATOM      4  C   UNL A   1      31.951  27.358  26.846  1.00  0.00     0.188 C 
BRANCH   4   5
ATOM      5  O   UNL A   1      30.862  27.242  25.923  1.00  0.00    -0.376 OA
BRANCH   5   6
ATOM      6  C   UNL A   1      30.622  25.954  25.365  1.00  0.00     0.202 C 
BRANCH   6   7
ATOM      7  C   UNL A   1      31.520  24.861  25.954  1.00  0.00     0.261 C 
BRANCH   7   8
ATOM      8  O   UNL A   1      30.848  24.077  26.945  1.00  0.00    -0.460 OA
BRANCH   8   9
ATOM      9  C   UNL A   1      30.891  22.733  26.797  1.00  0.00     0.342 C 
ATOM     10  O   UNL A   1      29.928  22.041  26.478  1.00  0.00    -0.246 OA
BRANCH   9  11
ATOM     11  C   UNL A   1      32.243  22.204  26.815  1.00  0.00     0.111 A 
ATOM     12  C   UNL A   1      35.498  21.598  25.624  1.00  0.00     0.174 C 
ATOM     13  N   UNL A   1      34.242  21.509  26.333  1.00  0.00    -0.262 N 
ATOM     14  N   UNL A   1      34.308  21.790  27.655  1.00  0.00    -0.180 NA
ATOM     15  C   UNL A   1      32.952  21.483  25.839  1.00  0.00     0.140 A 
ATOM     16  C   UNL A   1      33.120  22.326  27.908  1.00  0.00     0.151 A 
BRANCH  15  17
ATOM     17  C   UNL A   1      32.421  21.069  24.548  1.00  0.00     0.275 C 
ATOM     18  O   UNL A   1      31.933  21.911  23.788  1.00  0.00    -0.267 OA
ATOM     19  N   UNL A   1      32.475  19.809  24.022  1.00  0.00    -0.305 N 
ATOM     20  H   UNL A   1      32.043  19.746  23.139  1.00  0.00     0.171 HD
BRANCH  19  21
ATOM     21  C   UNL A   1      33.000  18.604  24.445  1.00  0.00     0.132 A 
ATOM     22  C   UNL A   1      34.328  18.240  24.294  1.00  0.00     0.047 A 
ATOM     23  N   UNL A   1      32.081  17.803  25.022  1.00  0.00    -0.239 NA
ATOM     24  C   UNL A   1      34.705  16.959  24.712  1.00  0.00     0.005 A 
ATOM     25  C   UNL A   1      32.461  16.565  25.387  1.00  0.00     0.113 A 
ATOM     26  C   UNL A   1      33.749  16.095  25.242  1.00  0.00     0.020 A 
ENDBRANCH  19  21
ENDBRANCH  15  17
ENDBRANCH   9  11
ENDBRANCH   8   9
ENDBRANCH   7   8
ENDBRANCH   6   7
ENDBRANCH   5   6
ENDBRANCH   4   5
ENDBRANCH   3   4
ENDBRANCH   2   3
ENDBRANCH   1   2
BRANCH   1  27
ATOM     27  C   UNL A   1      34.191  31.637  27.858  1.00  0.00     0.188 C 
BRANCH  27  28
ATOM     28  O   UNL A   1      35.397  30.968  28.240  1.00  0.00    -0.376 OA
BRANCH  28  29
ATOM     29  C   UNL A   1      36.540  31.799  28.428  1.00  0.00     0.202 C 
BRANCH  29  30
ATOM     30  C   UNL A   1      37.741  31.189  29.172  1.00  0.00     0.261 C 
BRANCH  30  31
ATOM     31  O   UNL A   1      37.684  31.256  30.608  1.00  0.00    -0.460 OA
BRANCH  31  32
ATOM     32  C   UNL A   1      37.417  30.119  31.285  1.00  0.00     0.338 C 
ATOM     33  O   UNL A   1      36.364  29.509  31.319  1.00  0.00    -0.246 OA
BRANCH  32  34
ATOM     34  C   UNL A   1      38.690  29.619  31.840  1.00  0.00     0.060 A 
ATOM     35  C   UNL A   1      39.720  30.534  32.095  1.00  0.00     0.016 A 
ATOM     36  C   UNL A   1      38.862  28.260  32.117  1.00  0.00     0.016 A 
ATOM     37  C   UNL A   1      40.942  30.082  32.593  1.00  0.00     0.010 A 
ATOM     38  C   UNL A   1      40.091  27.808  32.597  1.00  0.00     0.010 A 
ATOM     39  C   UNL A   1      41.147  28.712  32.804  1.00  0.00    -0.014 A 
BRANCH  39  40
ATOM     40  C   UNL A   1      42.515  28.197  33.044  1.00  0.00     0.031 A 
ATOM     41  C   UNL A   1      43.327  27.766  31.854  1.00  0.00     0.074 A 
ATOM     42  C   UNL A   1      43.016  28.084  34.287  1.00  0.00     0.049 A 
ATOM     43  N   UNL A   1      44.535  27.273  31.810  1.00  0.00    -0.248 NA
ATOM     44  C   UNL A   1      42.686  27.907  30.534  1.00  0.00     0.031 C 
ATOM     45  C   UNL A   1      42.321  28.451  35.518  1.00  0.00     0.029 A 
ATOM     46  N   UNL A   1      44.227  27.595  34.713  1.00  0.00    -0.354 N 
ATOM     47  C   UNL A   1      44.795  27.032  30.467  1.00  0.00     0.074 A 
ATOM     48  C   UNL A   1      43.615  27.418  29.728  1.00  0.00     0.031 C 
ATOM     49  C   UNL A   1      43.106  28.145  36.567  1.00  0.00     0.029 A 
ATOM     50  C   UNL A   1      44.351  27.551  36.082  1.00  0.00     0.049 A 
ATOM     51  H   UNL A   1      44.937  27.304  34.097  1.00  0.00     0.167 HD
ATOM     52  C   UNL A   1      45.923  26.553  29.895  1.00  0.00     0.034 A 
ATOM     53  C   UNL A   1      45.352  27.075  36.848  1.00  0.00     0.034 A 
ATOM     54  C   UNL A   1      47.101  26.175  30.626  1.00  0.00     0.049 A 
ATOM     55  C   UNL A   1      46.590  26.521  36.186  1.00  0.00     0.074 A 
ATOM     56  C   UNL A   1      48.311  25.723  30.132  1.00  0.00     0.029 A 
ATOM     57  N   UNL A   1      47.210  26.193  32.006  1.00  0.00    -0.354 N 
ATOM     58  N   UNL A   1      46.881  26.442  34.910  1.00  0.00    -0.248 NA
ATOM     59  C   UNL A   1      47.652  26.017  37.073  1.00  0.00     0.031 C 
ATOM     60  C   UNL A   1      49.149  25.452  31.219  1.00  0.00     0.029 A 
ATOM     61  C   UNL A   1      48.463  25.747  32.387  1.00  0.00     0.049 A 
ATOM     62  H   UNL A   1      46.500  26.480  32.627  1.00  0.00     0.167 HD
ATOM     63  C   UNL A   1      48.167  25.913  34.841  1.00  0.00     0.074 A 
ATOM     64  C   UNL A   1      48.607  25.710  36.205  1.00  0.00     0.031 C 
ATOM     65  C   UNL A   1      48.909  25.606  33.749  1.00  0.00     0.034 A 
BRANCH  52  66
ATOM     66  C   UNL A   1      45.948  26.450  28.396  1.00  0.00     0.023 A 
ATOM     67  C   UNL A   1      46.315  27.579  27.637  1.00  0.00     0.012 A 
ATOM     68  C   UNL A   1      45.650  25.240  27.742  1.00  0.00     0.148 A 
ATOM     69  C   UNL A   1      46.364  27.512  26.245  1.00  0.00     0.002 A 
ATOM     70  C   UNL A   1      45.735  25.172  26.357  1.00  0.00     0.091 A 
ATOM     71  F   UNL A   1      45.273  24.188  28.483  1.00  0.00    -0.205 F 
ATOM     72  C   UNL A   1      46.084  26.307  25.607  1.00  0.00     0.022 A 
BRANCH  70  73
ATOM     73  S   UNL A   1      45.451  23.648  25.448  1.00  0.00     0.127 S 
ATOM     74  O   UNL A   1      46.277  22.701  26.193  1.00  0.00    -0.237 OA
ATOM     75  O   UNL A   1      44.009  23.456  25.606  1.00  0.00    -0.237 OA
ATOM     76  O   UNL A   1      45.879  23.914  24.082  1.00  0.00    -0.744 OA
ENDBRANCH  70  73
ENDBRANCH  52  66
BRANCH  53  77
ATOM     77  C   UNL A   1      45.253  27.139  38.334  1.00  0.00     0.023 A 
ATOM     78  C   UNL A   1      44.700  26.051  39.036  1.00  0.00     0.012 A 
ATOM     79  C   UNL A   1      45.703  28.263  39.052  1.00  0.00     0.148 A 
ATOM     80  C   UNL A   1      44.571  26.093  40.426  1.00  0.00     0.002 A 
ATOM     81  C   UNL A   1      45.616  28.279  40.440  1.00  0.00     0.091 A 
ATOM     82  F   UNL A   1      46.203  29.300  38.364  1.00  0.00    -0.205 F 
ATOM     83  C   UNL A   1      45.038  27.202  41.128  1.00  0.00     0.022 A 
BRANCH  81  84
ATOM     84  S   UNL A   1      46.294  29.619  41.426  1.00  0.00     0.127 S 
ATOM     85  O   UNL A   1      47.680  29.660  40.966  1.00  0.00    -0.237 OA
ATOM     86  O   UNL A   1      45.472  30.755  41.006  1.00  0.00    -0.237 OA
ATOM     87  O   UNL A   1      46.094  29.217  42.812  1.00  0.00    -0.744 OA
ENDBRANCH  81  84
ENDBRANCH  53  77
BRANCH  65  88
ATOM     88  C   UNL A   1      50.285  25.036  33.969  1.00  0.00     0.023 A 
ATOM     89  C   UNL A   1      51.364  25.907  34.224  1.00  0.00     0.012 A 
ATOM     90  C   UNL A   1      50.494  23.644  34.018  1.00  0.00     0.148 A 
ATOM     91  C   UNL A   1      52.632  25.401  34.502  1.00  0.00     0.002 A 
ATOM     92  C   UNL A   1      51.752  23.146  34.339  1.00  0.00     0.091 A 
ATOM     93  F   UNL A   1      49.459  22.832  33.754  1.00  0.00    -0.205 F 
ATOM     94  C   UNL A   1      52.824  24.022  34.572  1.00  0.00     0.022 A 
BRANCH  92  95
ATOM     95  S   UNL A   1      52.062  21.388  34.543  1.00  0.00     0.127 S 
ATOM     96  O   UNL A   1      51.450  20.835  33.337  1.00  0.00    -0.237 OA
ATOM     97  O   UNL A   1      53.524  21.327  34.569  1.00  0.00    -0.237 OA
ATOM     98  O   UNL A   1      51.424  21.017  35.800  1.00  0.00    -0.744 OA
ENDBRANCH  92  95
ENDBRANCH  65  88
ENDBRANCH  39  40
ENDBRANCH  32  34
ENDBRANCH  31  32
ENDBRANCH  30  31
ENDBRANCH  29  30
ENDBRANCH  28  29
ENDBRANCH  27  28
ENDBRANCH   1  27
TORSDOF 25
ENDMDL
