MODEL 1
REMARK VINA RESULT:      -9.2      0.000      0.000
REMARK SMILES O=C(OCCOCCOCCOCCOC(=O)c1ccc(-c2c3nc(c(-c4cccc(S(=O)(=O)[O-])c4F)c4ccc([nH]4)c(-c4cccc(S(=O)(=O)[O-])c4F)c4nc(c(-c5cccc(S(=O)(=O)[O-])c5F)c5ccc2[nH]5)C=C4)C=C3)cc1)c1ccc(-c2ccc(=O)[nH]c2)cc1
REMARK SMILES IDX 10 1 9 2 8 3 7 4 6 5 5 6 4 7 3 8 2 9 1 10 81 11 82 12 93 13
REMARK SMILES IDX 83 14 92 15 84 16 85 17 86 18 91 19 87 20 90 21 88 22 89 24
REMARK SMILES IDX 11 25 12 26 13 27 14 28 15 29 16 30 17 31 18 32 19 33 80 34
REMARK SMILES IDX 20 35 79 36 21 37 22 38 23 39 73 40 24 41 78 42 72 43 74 44
REMARK SMILES IDX 25 45 77 46 71 47 70 48 26 50 58 51 38 52 57 53 39 54 42 55
REMARK SMILES IDX 56 56 75 57 40 58 41 59 55 61 76 62 43 63 27 64 28 65 36 66
REMARK SMILES IDX 29 67 31 68 37 69 30 70 32 71 33 72 34 73 35 74 59 75 60 76
REMARK SMILES IDX 68 77 61 78 63 79 69 80 62 81 64 82 65 83 66 84 67 85 44 86
REMARK SMILES IDX 45 87 53 88 46 89 48 90 54 91 47 92 49 93 50 94 51 95 52 96
REMARK H PARENT 90 23 74 49 42 60
REMARK Flexibility Score: inf
ROOT
ATOM      1  C   UNL A   1      38.448  21.866  25.772  1.00  0.00     0.188 C 
ENDROOT
BRANCH   1   2
ATOM      2  O   UNL A   1      37.452  21.015  25.218  1.00  0.00    -0.377 OA
BRANCH   2   3
ATOM      3  C   UNL A   1      36.220  21.636  24.853  1.00  0.00     0.188 C 
BRANCH   3   4
ATOM      4  C   UNL A   1      36.343  22.941  24.062  1.00  0.00     0.188 C 
BRANCH   4   5
ATOM      5  O   UNL A   1      35.748  24.034  24.762  1.00  0.00    -0.376 OA
BRANCH   5   6
ATOM      6  C   UNL A   1      34.531  24.575  24.255  1.00  0.00     0.202 C 
BRANCH   6   7
ATOM      7  C   UNL A   1      33.604  25.226  25.276  1.00  0.00     0.261 C 
BRANCH   7   8
ATOM      8  O   UNL A   1      32.198  24.963  25.103  1.00  0.00    -0.460 OA
BRANCH   8   9
ATOM      9  C   UNL A   1      31.276  25.698  25.769  1.00  0.00     0.338 C 
ATOM     10  O   UNL A   1      31.058  25.686  26.967  1.00  0.00    -0.246 OA
BRANCH   9  11
ATOM     11  C   UNL A   1      30.933  26.826  24.890  1.00  0.00     0.060 A 
ATOM     12  C   UNL A   1      31.371  28.120  25.164  1.00  0.00     0.016 A 
ATOM     13  C   UNL A   1      30.060  26.584  23.834  1.00  0.00     0.016 A 
ATOM     14  C   UNL A   1      30.820  29.195  24.483  1.00  0.00     0.009 A 
ATOM     15  C   UNL A   1      29.554  27.662  23.108  1.00  0.00     0.009 A 
ATOM     16  C   UNL A   1      29.893  28.980  23.459  1.00  0.00    -0.017 A 
BRANCH  16  17
ATOM     17  C   UNL A   1      29.222  30.133  22.829  1.00  0.00    -0.002 A 
ATOM     18  C   UNL A   1      28.344  31.026  23.573  1.00  0.00     0.016 A 
ATOM     19  C   UNL A   1      29.483  30.432  21.542  1.00  0.00     0.094 A 
ATOM     20  C   UNL A   1      27.819  32.123  23.011  1.00  0.00     0.072 A 
ATOM     21  N   UNL A   1      28.956  31.553  20.954  1.00  0.00    -0.328 N 
ATOM     22  C   UNL A   1      28.134  32.444  21.598  1.00  0.00     0.247 A 
ATOM     23  H   UNL A   1      29.179  31.730  20.011  1.00  0.00     0.169 HD
ATOM     24  O   UNL A   1      27.684  33.447  21.058  1.00  0.00    -0.270 OA
ENDBRANCH  16  17
ENDBRANCH   9  11
ENDBRANCH   8   9
ENDBRANCH   7   8
ENDBRANCH   6   7
ENDBRANCH   5   6
ENDBRANCH   4   5
ENDBRANCH   3   4
ENDBRANCH   2   3
ENDBRANCH   1   2
BRANCH   1  25
ATOM     25  C   UNL A   1      39.893  21.328  25.828  1.00  0.00     0.188 C 
BRANCH  25  26
ATOM     26  O   UNL A   1      40.197  20.624  27.023  1.00  0.00    -0.376 OA
BRANCH  26  27
ATOM     27  C   UNL A   1      40.783  19.337  26.881  1.00  0.00     0.202 C 
BRANCH  27  28
ATOM     28  C   UNL A   1      41.817  19.069  25.767  1.00  0.00     0.261 C 
BRANCH  28  29
ATOM     29  O   UNL A   1      43.194  19.291  26.094  1.00  0.00    -0.460 OA
BRANCH  29  30
ATOM     30  C   UNL A   1      43.996  19.892  25.188  1.00  0.00     0.338 C 
ATOM     31  O   UNL A   1      44.410  19.412  24.146  1.00  0.00    -0.246 OA
BRANCH  30  32
ATOM     32  C   UNL A   1      44.059  21.328  25.563  1.00  0.00     0.060 A 
ATOM     33  C   UNL A   1      43.700  22.287  24.604  1.00  0.00     0.016 A 
ATOM     34  C   UNL A   1      44.307  21.716  26.885  1.00  0.00     0.016 A 
ATOM     35  C   UNL A   1      43.563  23.631  24.972  1.00  0.00     0.010 A 
ATOM     36  C   UNL A   1      44.201  23.064  27.242  1.00  0.00     0.010 A 
ATOM     37  C   UNL A   1      43.834  24.028  26.288  1.00  0.00    -0.014 A 
BRANCH  37  38
ATOM     38  C   UNL A   1      43.939  25.467  26.638  1.00  0.00     0.031 A 
ATOM     39  C   UNL A   1      45.297  26.105  26.546  1.00  0.00     0.074 A 
ATOM     40  C   UNL A   1      42.889  26.173  27.099  1.00  0.00     0.049 A 
ATOM     41  N   UNL A   1      45.675  27.304  26.898  1.00  0.00    -0.248 NA
ATOM     42  C   UNL A   1      46.376  25.269  25.990  1.00  0.00     0.031 C 
ATOM     43  C   UNL A   1      41.523  25.671  27.241  1.00  0.00     0.029 A 
ATOM     44  N   UNL A   1      42.824  27.461  27.580  1.00  0.00    -0.354 N 
ATOM     45  C   UNL A   1      47.040  27.354  26.648  1.00  0.00     0.074 A 
ATOM     46  C   UNL A   1      47.423  26.073  26.097  1.00  0.00     0.031 C 
ATOM     47  C   UNL A   1      40.767  26.623  27.821  1.00  0.00     0.029 A 
ATOM     48  C   UNL A   1      41.601  27.786  28.121  1.00  0.00     0.049 A 
ATOM     49  H   UNL A   1      43.581  28.090  27.539  1.00  0.00     0.167 HD
ATOM     50  C   UNL A   1      47.901  28.372  26.860  1.00  0.00     0.034 A 
ATOM     51  C   UNL A   1      41.217  28.877  28.818  1.00  0.00     0.034 A 
ATOM     52  C   UNL A   1      47.526  29.648  27.399  1.00  0.00     0.049 A 
ATOM     53  C   UNL A   1      42.212  29.988  29.069  1.00  0.00     0.074 A 
ATOM     54  C   UNL A   1      48.316  30.769  27.573  1.00  0.00     0.029 A 
ATOM     55  N   UNL A   1      46.268  29.961  27.883  1.00  0.00    -0.354 N 
ATOM     56  N   UNL A   1      43.456  30.089  28.670  1.00  0.00    -0.248 NA
ATOM     57  C   UNL A   1      41.743  31.144  29.852  1.00  0.00     0.031 C 
ATOM     58  C   UNL A   1      47.545  31.750  28.202  1.00  0.00     0.029 A 
ATOM     59  C   UNL A   1      46.266  31.248  28.388  1.00  0.00     0.049 A 
ATOM     60  H   UNL A   1      45.489  29.358  27.870  1.00  0.00     0.167 HD
ATOM     61  C   UNL A   1      43.907  31.324  29.127  1.00  0.00     0.074 A 
ATOM     62  C   UNL A   1      42.794  31.950  29.809  1.00  0.00     0.031 C 
ATOM     63  C   UNL A   1      45.137  31.884  29.012  1.00  0.00     0.034 A 
BRANCH  50  64
ATOM     64  C   UNL A   1      49.345  28.156  26.510  1.00  0.00     0.023 A 
ATOM     65  C   UNL A   1      49.756  28.219  25.163  1.00  0.00     0.012 A 
ATOM     66  C   UNL A   1      50.304  27.975  27.525  1.00  0.00     0.148 A 
ATOM     67  C   UNL A   1      51.103  28.091  24.831  1.00  0.00     0.002 A 
ATOM     68  C   UNL A   1      51.647  27.891  27.189  1.00  0.00     0.091 A 
ATOM     69  F   UNL A   1      49.881  27.891  28.794  1.00  0.00    -0.205 F 
ATOM     70  C   UNL A   1      52.048  27.940  25.843  1.00  0.00     0.022 A 
BRANCH  68  71
ATOM     71  S   UNL A   1      52.949  27.772  28.420  1.00  0.00     0.127 S 
ATOM     72  O   UNL A   1      54.134  28.102  27.630  1.00  0.00    -0.237 OA
ATOM     73  O   UNL A   1      52.550  28.800  29.382  1.00  0.00    -0.237 OA
ATOM     74  O   UNL A   1      52.901  26.408  28.929  1.00  0.00    -0.744 OA
ENDBRANCH  68  71
ENDBRANCH  50  64
BRANCH  51  75
ATOM     75  C   UNL A   1      39.828  28.987  29.359  1.00  0.00     0.023 A 
ATOM     76  C   UNL A   1      39.532  28.471  30.636  1.00  0.00     0.012 A 
ATOM     77  C   UNL A   1      38.791  29.561  28.597  1.00  0.00     0.148 A 
ATOM     78  C   UNL A   1      38.224  28.487  31.126  1.00  0.00     0.002 A 
ATOM     79  C   UNL A   1      37.503  29.627  29.116  1.00  0.00     0.091 A 
ATOM     80  F   UNL A   1      39.081  30.021  27.372  1.00  0.00    -0.205 F 
ATOM     81  C   UNL A   1      37.212  29.072  30.371  1.00  0.00     0.022 A 
BRANCH  79  82
ATOM     82  S   UNL A   1      36.170  30.477  28.263  1.00  0.00     0.127 S 
ATOM     83  O   UNL A   1      35.116  30.472  29.273  1.00  0.00    -0.237 OA
ATOM     84  O   UNL A   1      36.768  31.788  28.001  1.00  0.00    -0.237 OA
ATOM     85  O   UNL A   1      35.911  29.690  27.066  1.00  0.00    -0.744 OA
ENDBRANCH  79  82
ENDBRANCH  51  75
BRANCH  63  86
ATOM     86  C   UNL A   1      45.356  33.252  29.604  1.00  0.00     0.023 A 
ATOM     87  C   UNL A   1      45.820  33.375  30.929  1.00  0.00     0.012 A 
ATOM     88  C   UNL A   1      45.207  34.410  28.814  1.00  0.00     0.148 A 
ATOM     89  C   UNL A   1      46.110  34.628  31.466  1.00  0.00     0.002 A 
ATOM     90  C   UNL A   1      45.546  35.651  29.338  1.00  0.00     0.091 A 
ATOM     91  F   UNL A   1      44.755  34.272  27.559  1.00  0.00    -0.205 F 
ATOM     92  C   UNL A   1      45.986  35.764  30.668  1.00  0.00     0.022 A 
BRANCH  90  93
ATOM     93  S   UNL A   1      45.515  37.157  28.358  1.00  0.00     0.127 S 
ATOM     94  O   UNL A   1      46.420  36.816  27.262  1.00  0.00    -0.237 OA
ATOM     95  O   UNL A   1      44.105  37.251  27.979  1.00  0.00    -0.237 OA
ATOM     96  O   UNL A   1      45.978  38.221  29.239  1.00  0.00    -0.744 OA
ENDBRANCH  90  93
ENDBRANCH  63  86
ENDBRANCH  37  38
ENDBRANCH  30  32
ENDBRANCH  29  30
ENDBRANCH  28  29
ENDBRANCH  27  28
ENDBRANCH  26  27
ENDBRANCH  25  26
ENDBRANCH   1  25
TORSDOF 24
ENDMDL
MODEL 2
REMARK VINA RESULT:      -9.0      3.577      8.890
REMARK SMILES O=C(OCCOCCOCCOCCOC(=O)c1ccc(-c2c3nc(c(-c4cccc(S(=O)(=O)[O-])c4F)c4ccc([nH]4)c(-c4cccc(S(=O)(=O)[O-])c4F)c4nc(c(-c5cccc(S(=O)(=O)[O-])c5F)c5ccc2[nH]5)C=C4)C=C3)cc1)c1ccc(-c2ccc(=O)[nH]c2)cc1
REMARK SMILES IDX 10 1 9 2 8 3 7 4 6 5 5 6 4 7 3 8 2 9 1 10 81 11 82 12 93 13
REMARK SMILES IDX 83 14 92 15 84 16 85 17 86 18 91 19 87 20 90 21 88 22 89 24
REMARK SMILES IDX 11 25 12 26 13 27 14 28 15 29 16 30 17 31 18 32 19 33 80 34
REMARK SMILES IDX 20 35 79 36 21 37 22 38 23 39 73 40 24 41 78 42 72 43 74 44
REMARK SMILES IDX 25 45 77 46 71 47 70 48 26 50 58 51 38 52 57 53 39 54 42 55
REMARK SMILES IDX 56 56 75 57 40 58 41 59 55 61 76 62 43 63 27 64 28 65 36 66
REMARK SMILES IDX 29 67 31 68 37 69 30 70 32 71 33 72 34 73 35 74 59 75 60 76
REMARK SMILES IDX 68 77 61 78 63 79 69 80 62 81 64 82 65 83 66 84 67 85 44 86
REMARK SMILES IDX 45 87 53 88 46 89 48 90 54 91 47 92 49 93 50 94 51 95 52 96
REMARK H PARENT 90 23 74 49 42 60
REMARK Flexibility Score: inf
ROOT
ATOM      1  C   UNL A   1      37.703  21.751  25.696  1.00  0.00     0.188 C 
ENDROOT
BRANCH   1   2
ATOM      2  O   UNL A   1      36.904  21.044  24.754  1.00  0.00    -0.377 OA
BRANCH   2   3
ATOM      3  C   UNL A   1      35.510  20.958  25.047  1.00  0.00     0.188 C 
BRANCH   3   4
ATOM      4  C   UNL A   1      35.042  21.732  26.281  1.00  0.00     0.188 C 
BRANCH   4   5
ATOM      5  O   UNL A   1      33.630  21.949  26.258  1.00  0.00    -0.376 OA
BRANCH   5   6
ATOM      6  C   UNL A   1      33.136  23.096  25.573  1.00  0.00     0.202 C 
BRANCH   6   7
ATOM      7  C   UNL A   1      31.640  23.113  25.276  1.00  0.00     0.261 C 
BRANCH   7   8
ATOM      8  O   UNL A   1      31.123  24.343  24.733  1.00  0.00    -0.460 OA
BRANCH   8   9
ATOM      9  C   UNL A   1      30.648  25.309  25.554  1.00  0.00     0.338 C 
ATOM     10  O   UNL A   1      30.803  25.385  26.761  1.00  0.00    -0.246 OA
BRANCH   9  11
ATOM     11  C   UNL A   1      30.340  26.465  24.700  1.00  0.00     0.060 A 
ATOM     12  C   UNL A   1      31.127  27.615  24.719  1.00  0.00     0.016 A 
ATOM     13  C   UNL A   1      29.168  26.424  23.949  1.00  0.00     0.016 A 
ATOM     14  C   UNL A   1      30.670  28.776  24.116  1.00  0.00     0.009 A 
ATOM     15  C   UNL A   1      28.741  27.576  23.291  1.00  0.00     0.009 A 
ATOM     16  C   UNL A   1      29.464  28.776  23.409  1.00  0.00    -0.017 A 
BRANCH  16  17
ATOM     17  C   UNL A   1      28.928  30.044  22.879  1.00  0.00    -0.002 A 
ATOM     18  C   UNL A   1      29.027  31.298  23.613  1.00  0.00     0.016 A 
ATOM     19  C   UNL A   1      28.398  30.076  21.641  1.00  0.00     0.094 A 
ATOM     20  C   UNL A   1      28.622  32.458  23.078  1.00  0.00     0.072 A 
ATOM     21  N   UNL A   1      27.983  31.256  21.079  1.00  0.00    -0.328 N 
ATOM     22  C   UNL A   1      28.059  32.474  21.706  1.00  0.00     0.247 A 
ATOM     23  H   UNL A   1      27.605  31.227  20.169  1.00  0.00     0.169 HD
ATOM     24  O   UNL A   1      27.694  33.519  21.181  1.00  0.00    -0.270 OA
ENDBRANCH  16  17
ENDBRANCH   9  11
ENDBRANCH   8   9
ENDBRANCH   7   8
ENDBRANCH   6   7
ENDBRANCH   5   6
ENDBRANCH   4   5
ENDBRANCH   3   4
ENDBRANCH   2   3
ENDBRANCH   1   2
BRANCH   1  25
ATOM     25  C   UNL A   1      39.187  21.345  25.816  1.00  0.00     0.188 C 
BRANCH  25  26
ATOM     26  O   UNL A   1      39.776  21.689  27.062  1.00  0.00    -0.376 OA
BRANCH  26  27
ATOM     27  C   UNL A   1      40.495  22.913  27.119  1.00  0.00     0.202 C 
BRANCH  27  28
ATOM     28  C   UNL A   1      41.833  22.998  27.884  1.00  0.00     0.261 C 
BRANCH  28  29
ATOM     29  O   UNL A   1      42.774  23.981  27.436  1.00  0.00    -0.460 OA
BRANCH  29  30
ATOM     30  C   UNL A   1      43.916  23.574  26.841  1.00  0.00     0.338 C 
ATOM     31  O   UNL A   1      44.099  22.522  26.252  1.00  0.00    -0.246 OA
BRANCH  30  32
ATOM     32  C   UNL A   1      44.820  24.752  26.807  1.00  0.00     0.060 A 
ATOM     33  C   UNL A   1      45.046  25.388  25.576  1.00  0.00     0.016 A 
ATOM     34  C   UNL A   1      45.304  25.322  27.990  1.00  0.00     0.016 A 
ATOM     35  C   UNL A   1      45.734  26.606  25.531  1.00  0.00     0.010 A 
ATOM     36  C   UNL A   1      46.019  26.523  27.939  1.00  0.00     0.010 A 
ATOM     37  C   UNL A   1      46.242  27.169  26.710  1.00  0.00    -0.014 A 
BRANCH  37  38
ATOM     38  C   UNL A   1      47.180  28.318  26.658  1.00  0.00     0.031 A 
ATOM     39  C   UNL A   1      46.584  29.698  26.669  1.00  0.00     0.074 A 
ATOM     40  C   UNL A   1      48.510  28.155  26.524  1.00  0.00     0.049 A 
ATOM     41  N   UNL A   1      47.171  30.855  26.522  1.00  0.00    -0.248 NA
ATOM     42  C   UNL A   1      45.126  29.780  26.864  1.00  0.00     0.031 C 
ATOM     43  C   UNL A   1      49.211  26.872  26.494  1.00  0.00     0.029 A 
ATOM     44  N   UNL A   1      49.506  29.086  26.339  1.00  0.00    -0.354 N 
ATOM     45  C   UNL A   1      46.153  31.798  26.562  1.00  0.00     0.074 A 
ATOM     46  C   UNL A   1      44.913  31.083  26.767  1.00  0.00     0.031 C 
ATOM     47  C   UNL A   1      50.516  27.095  26.250  1.00  0.00     0.029 A 
ATOM     48  C   UNL A   1      50.738  28.530  26.075  1.00  0.00     0.049 A 
ATOM     49  H   UNL A   1      49.353  30.057  26.392  1.00  0.00     0.167 HD
ATOM     50  C   UNL A   1      46.239  33.140  26.436  1.00  0.00     0.034 A 
ATOM     51  C   UNL A   1      51.894  29.111  25.690  1.00  0.00     0.034 A 
ATOM     52  C   UNL A   1      47.466  33.856  26.242  1.00  0.00     0.049 A 
ATOM     53  C   UNL A   1      51.952  30.614  25.526  1.00  0.00     0.074 A 
ATOM     54  C   UNL A   1      47.660  35.224  26.186  1.00  0.00     0.029 A 
ATOM     55  N   UNL A   1      48.701  33.265  26.035  1.00  0.00    -0.354 N 
ATOM     56  N   UNL A   1      51.016  31.506  25.739  1.00  0.00    -0.248 NA
ATOM     57  C   UNL A   1      53.233  31.191  25.085  1.00  0.00     0.031 C 
ATOM     58  C   UNL A   1      49.009  35.460  25.904  1.00  0.00     0.029 A 
ATOM     59  C   UNL A   1      49.657  34.239  25.818  1.00  0.00     0.049 A 
ATOM     60  H   UNL A   1      48.873  32.295  26.042  1.00  0.00     0.167 HD
ATOM     61  C   UNL A   1      51.601  32.744  25.486  1.00  0.00     0.074 A 
ATOM     62  C   UNL A   1      52.980  32.491  25.132  1.00  0.00     0.031 C 
ATOM     63  C   UNL A   1      51.042  33.979  25.524  1.00  0.00     0.034 A 
BRANCH  50  64
ATOM     64  C   UNL A   1      44.967  33.935  26.505  1.00  0.00     0.023 A 
ATOM     65  C   UNL A   1      44.276  34.255  25.319  1.00  0.00     0.012 A 
ATOM     66  C   UNL A   1      44.416  34.290  27.752  1.00  0.00     0.148 A 
ATOM     67  C   UNL A   1      43.059  34.930  25.374  1.00  0.00     0.002 A 
ATOM     68  C   UNL A   1      43.183  34.924  27.799  1.00  0.00     0.091 A 
ATOM     69  F   UNL A   1      45.110  33.998  28.861  1.00  0.00    -0.205 F 
ATOM     70  C   UNL A   1      42.507  35.252  26.612  1.00  0.00     0.022 A 
BRANCH  68  71
ATOM     71  S   UNL A   1      42.352  35.313  29.342  1.00  0.00     0.127 S 
ATOM     72  O   UNL A   1      42.338  34.010  30.006  1.00  0.00    -0.237 OA
ATOM     73  O   UNL A   1      43.262  36.292  29.938  1.00  0.00    -0.237 OA
ATOM     74  O   UNL A   1      41.044  35.838  28.976  1.00  0.00    -0.744 OA
ENDBRANCH  68  71
ENDBRANCH  50  64
BRANCH  51  75
ATOM     75  C   UNL A   1      53.106  28.285  25.406  1.00  0.00     0.023 A 
ATOM     76  C   UNL A   1      53.379  27.874  24.087  1.00  0.00     0.012 A 
ATOM     77  C   UNL A   1      53.965  27.869  26.443  1.00  0.00     0.148 A 
ATOM     78  C   UNL A   1      54.460  27.031  23.811  1.00  0.00     0.002 A 
ATOM     79  C   UNL A   1      55.072  27.079  26.153  1.00  0.00     0.091 A 
ATOM     80  F   UNL A   1      53.677  28.244  27.697  1.00  0.00    -0.205 F 
ATOM     81  C   UNL A   1      55.309  26.642  24.842  1.00  0.00     0.022 A 
BRANCH  79  82
ATOM     82  S   UNL A   1      56.288  26.640  27.400  1.00  0.00     0.127 S 
ATOM     83  O   UNL A   1      56.672  25.295  26.983  1.00  0.00    -0.237 OA
ATOM     84  O   UNL A   1      57.312  27.666  27.198  1.00  0.00    -0.237 OA
ATOM     85  O   UNL A   1      55.589  26.739  28.674  1.00  0.00    -0.744 OA
ENDBRANCH  79  82
ENDBRANCH  51  75
BRANCH  63  86
ATOM     86  C   UNL A   1      51.913  35.166  25.204  1.00  0.00     0.023 A 
ATOM     87  C   UNL A   1      52.175  35.500  23.861  1.00  0.00     0.012 A 
ATOM     88  C   UNL A   1      52.381  36.011  26.231  1.00  0.00     0.148 A 
ATOM     89  C   UNL A   1      52.908  36.643  23.545  1.00  0.00     0.002 A 
ATOM     90  C   UNL A   1      53.067  37.175  25.907  1.00  0.00     0.091 A 
ATOM     91  F   UNL A   1      52.130  35.669  27.503  1.00  0.00    -0.205 F 
ATOM     92  C   UNL A   1      53.341  37.487  24.565  1.00  0.00     0.022 A 
BRANCH  90  93
ATOM     93  S   UNL A   1      53.578  38.374  27.145  1.00  0.00     0.127 S 
ATOM     94  O   UNL A   1      54.675  39.056  26.463  1.00  0.00    -0.237 OA
ATOM     95  O   UNL A   1      52.368  39.179  27.314  1.00  0.00    -0.237 OA
ATOM     96  O   UNL A   1      53.961  37.601  28.320  1.00  0.00    -0.744 OA
ENDBRANCH  90  93
ENDBRANCH  63  86
ENDBRANCH  37  38
ENDBRANCH  30  32
ENDBRANCH  29  30
ENDBRANCH  28  29
ENDBRANCH  27  28
ENDBRANCH  26  27
ENDBRANCH  25  26
ENDBRANCH   1  25
TORSDOF 24
ENDMDL
MODEL 3
REMARK VINA RESULT:      -8.5      5.332     10.654
REMARK SMILES O=C(OCCOCCOCCOCCOC(=O)c1ccc(-c2c3nc(c(-c4cccc(S(=O)(=O)[O-])c4F)c4ccc([nH]4)c(-c4cccc(S(=O)(=O)[O-])c4F)c4nc(c(-c5cccc(S(=O)(=O)[O-])c5F)c5ccc2[nH]5)C=C4)C=C3)cc1)c1ccc(-c2ccc(=O)[nH]c2)cc1
REMARK SMILES IDX 10 1 9 2 8 3 7 4 6 5 5 6 4 7 3 8 2 9 1 10 81 11 82 12 93 13
REMARK SMILES IDX 83 14 92 15 84 16 85 17 86 18 91 19 87 20 90 21 88 22 89 24
REMARK SMILES IDX 11 25 12 26 13 27 14 28 15 29 16 30 17 31 18 32 19 33 80 34
REMARK SMILES IDX 20 35 79 36 21 37 22 38 23 39 73 40 24 41 78 42 72 43 74 44
REMARK SMILES IDX 25 45 77 46 71 47 70 48 26 50 58 51 38 52 57 53 39 54 42 55
REMARK SMILES IDX 56 56 75 57 40 58 41 59 55 61 76 62 43 63 27 64 28 65 36 66
REMARK SMILES IDX 29 67 31 68 37 69 30 70 32 71 33 72 34 73 35 74 59 75 60 76
REMARK SMILES IDX 68 77 61 78 63 79 69 80 62 81 64 82 65 83 66 84 67 85 44 86
REMARK SMILES IDX 45 87 53 88 46 89 48 90 54 91 47 92 49 93 50 94 51 95 52 96
REMARK H PARENT 90 23 74 49 42 60
REMARK Flexibility Score: inf
ROOT
ATOM      1  C   UNL A   1      35.125  33.611  31.902  1.00  0.00     0.188 C 
ENDROOT
BRANCH   1   2
ATOM      2  O   UNL A   1      36.068  34.265  31.062  1.00  0.00    -0.377 OA
BRANCH   2   3
ATOM      3  C   UNL A   1      36.294  33.672  29.783  1.00  0.00     0.188 C 
BRANCH   3   4
ATOM      4  C   UNL A   1      37.647  32.980  29.603  1.00  0.00     0.188 C 
BRANCH   4   5
ATOM      5  O   UNL A   1      37.700  31.743  30.314  1.00  0.00    -0.376 OA
BRANCH   5   6
ATOM      6  C   UNL A   1      36.654  30.799  30.104  1.00  0.00     0.202 C 
BRANCH   6   7
ATOM      7  C   UNL A   1      36.914  29.380  30.597  1.00  0.00     0.261 C 
BRANCH   7   8
ATOM      8  O   UNL A   1      37.825  28.597  29.802  1.00  0.00    -0.460 OA
BRANCH   8   9
ATOM      9  C   UNL A   1      37.987  28.862  28.484  1.00  0.00     0.338 C 
ATOM     10  O   UNL A   1      37.155  29.326  27.724  1.00  0.00    -0.246 OA
BRANCH   9  11
ATOM     11  C   UNL A   1      39.437  28.948  28.253  1.00  0.00     0.060 A 
ATOM     12  C   UNL A   1      40.268  29.673  29.106  1.00  0.00     0.016 A 
ATOM     13  C   UNL A   1      39.944  28.376  27.090  1.00  0.00     0.016 A 
ATOM     14  C   UNL A   1      41.569  29.959  28.724  1.00  0.00     0.009 A 
ATOM     15  C   UNL A   1      41.272  28.613  26.739  1.00  0.00     0.009 A 
ATOM     16  C   UNL A   1      42.082  29.447  27.529  1.00  0.00    -0.017 A 
BRANCH  16  17
ATOM     17  C   UNL A   1      43.423  29.861  27.074  1.00  0.00    -0.002 A 
ATOM     18  C   UNL A   1      43.883  31.240  27.160  1.00  0.00     0.016 A 
ATOM     19  C   UNL A   1      44.292  28.930  26.636  1.00  0.00     0.094 A 
ATOM     20  C   UNL A   1      45.137  31.582  26.833  1.00  0.00     0.072 A 
ATOM     21  N   UNL A   1      45.579  29.265  26.301  1.00  0.00    -0.328 N 
ATOM     22  C   UNL A   1      46.084  30.539  26.371  1.00  0.00     0.247 A 
ATOM     23  H   UNL A   1      46.178  28.547  25.989  1.00  0.00     0.169 HD
ATOM     24  O   UNL A   1      47.241  30.815  26.079  1.00  0.00    -0.270 OA
ENDBRANCH  16  17
ENDBRANCH   9  11
ENDBRANCH   8   9
ENDBRANCH   7   8
ENDBRANCH   6   7
ENDBRANCH   5   6
ENDBRANCH   4   5
ENDBRANCH   3   4
ENDBRANCH   2   3
ENDBRANCH   1   2
BRANCH   1  25
ATOM     25  C   UNL A   1      35.672  32.830  33.115  1.00  0.00     0.188 C 
BRANCH  25  26
ATOM     26  O   UNL A   1      36.275  33.653  34.102  1.00  0.00    -0.376 OA
BRANCH  26  27
ATOM     27  C   UNL A   1      37.220  33.037  34.966  1.00  0.00     0.202 C 
BRANCH  27  28
ATOM     28  C   UNL A   1      38.617  33.660  35.168  1.00  0.00     0.261 C 
BRANCH  28  29
ATOM     29  O   UNL A   1      39.689  33.112  34.392  1.00  0.00    -0.460 OA
BRANCH  29  30
ATOM     30  C   UNL A   1      39.862  33.531  33.120  1.00  0.00     0.338 C 
ATOM     31  O   UNL A   1      39.331  34.493  32.589  1.00  0.00    -0.246 OA
BRANCH  30  32
ATOM     32  C   UNL A   1      41.014  32.770  32.574  1.00  0.00     0.060 A 
ATOM     33  C   UNL A   1      41.277  32.849  31.197  1.00  0.00     0.016 A 
ATOM     34  C   UNL A   1      41.918  32.125  33.425  1.00  0.00     0.016 A 
ATOM     35  C   UNL A   1      42.457  32.305  30.676  1.00  0.00     0.010 A 
ATOM     36  C   UNL A   1      43.081  31.554  32.896  1.00  0.00     0.010 A 
ATOM     37  C   UNL A   1      43.354  31.636  31.520  1.00  0.00    -0.014 A 
BRANCH  37  38
ATOM     38  C   UNL A   1      44.475  30.842  30.957  1.00  0.00     0.031 A 
ATOM     39  C   UNL A   1      45.723  31.585  30.570  1.00  0.00     0.074 A 
ATOM     40  C   UNL A   1      44.372  29.521  30.719  1.00  0.00     0.049 A 
ATOM     41  N   UNL A   1      46.792  31.149  29.962  1.00  0.00    -0.248 NA
ATOM     42  C   UNL A   1      45.763  33.019  30.910  1.00  0.00     0.031 C 
ATOM     43  C   UNL A   1      43.215  28.686  31.041  1.00  0.00     0.029 A 
ATOM     44  N   UNL A   1      45.247  28.657  30.100  1.00  0.00    -0.354 N 
ATOM     45  C   UNL A   1      47.612  32.258  29.806  1.00  0.00     0.074 A 
ATOM     46  C   UNL A   1      46.929  33.385  30.400  1.00  0.00     0.031 C 
ATOM     47  C   UNL A   1      43.431  27.443  30.571  1.00  0.00     0.029 A 
ATOM     48  C   UNL A   1      44.723  27.401  29.887  1.00  0.00     0.049 A 
ATOM     49  H   UNL A   1      46.160  28.913  29.836  1.00  0.00     0.167 HD
ATOM     50  C   UNL A   1      48.826  32.336  29.217  1.00  0.00     0.034 A 
ATOM     51  C   UNL A   1      45.213  26.359  29.182  1.00  0.00     0.034 A 
ATOM     52  C   UNL A   1      49.513  31.220  28.634  1.00  0.00     0.049 A 
ATOM     53  C   UNL A   1      46.560  26.487  28.507  1.00  0.00     0.074 A 
ATOM     54  C   UNL A   1      50.783  31.188  28.088  1.00  0.00     0.029 A 
ATOM     55  N   UNL A   1      48.978  29.952  28.487  1.00  0.00    -0.354 N 
ATOM     56  N   UNL A   1      47.400  27.492  28.519  1.00  0.00    -0.248 NA
ATOM     57  C   UNL A   1      47.035  25.326  27.735  1.00  0.00     0.031 C 
ATOM     58  C   UNL A   1      51.001  29.907  27.572  1.00  0.00     0.029 A 
ATOM     59  C   UNL A   1      49.879  29.136  27.829  1.00  0.00     0.049 A 
ATOM     60  H   UNL A   1      48.088  29.673  28.804  1.00  0.00     0.167 HD
ATOM     61  C   UNL A   1      48.507  27.077  27.785  1.00  0.00     0.074 A 
ATOM     62  C   UNL A   1      48.246  25.717  27.365  1.00  0.00     0.031 C 
ATOM     63  C   UNL A   1      49.632  27.765  27.467  1.00  0.00     0.034 A 
BRANCH  50  64
ATOM     64  C   UNL A   1      49.500  33.677  29.171  1.00  0.00     0.023 A 
ATOM     65  C   UNL A   1      50.366  34.062  30.215  1.00  0.00     0.012 A 
ATOM     66  C   UNL A   1      49.338  34.516  28.053  1.00  0.00     0.148 A 
ATOM     67  C   UNL A   1      51.052  35.272  30.149  1.00  0.00     0.002 A 
ATOM     68  C   UNL A   1      50.057  35.700  27.976  1.00  0.00     0.091 A 
ATOM     69  F   UNL A   1      48.486  34.137  27.089  1.00  0.00    -0.205 F 
ATOM     70  C   UNL A   1      50.909  36.084  29.026  1.00  0.00     0.022 A 
BRANCH  68  71
ATOM     71  S   UNL A   1      50.002  36.777  26.541  1.00  0.00     0.127 S 
ATOM     72  O   UNL A   1      50.380  35.858  25.468  1.00  0.00    -0.237 OA
ATOM     73  O   UNL A   1      48.598  37.189  26.525  1.00  0.00    -0.237 OA
ATOM     74  O   UNL A   1      50.951  37.850  26.803  1.00  0.00    -0.744 OA
ENDBRANCH  68  71
ENDBRANCH  50  64
BRANCH  51  75
ATOM     75  C   UNL A   1      44.429  25.094  29.047  1.00  0.00     0.023 A 
ATOM     76  C   UNL A   1      44.503  24.115  30.057  1.00  0.00     0.012 A 
ATOM     77  C   UNL A   1      43.646  24.840  27.904  1.00  0.00     0.148 A 
ATOM     78  C   UNL A   1      43.846  22.890  29.913  1.00  0.00     0.002 A 
ATOM     79  C   UNL A   1      42.946  23.643  27.794  1.00  0.00     0.091 A 
ATOM     80  F   UNL A   1      43.608  25.768  26.938  1.00  0.00    -0.205 F 
ATOM     81  C   UNL A   1      43.062  22.658  28.787  1.00  0.00     0.022 A 
BRANCH  79  82
ATOM     82  S   UNL A   1      41.813  23.317  26.439  1.00  0.00     0.127 S 
ATOM     83  O   UNL A   1      42.730  23.149  25.316  1.00  0.00    -0.237 OA
ATOM     84  O   UNL A   1      41.154  22.089  26.886  1.00  0.00    -0.237 OA
ATOM     85  O   UNL A   1      40.936  24.478  26.380  1.00  0.00    -0.744 OA
ENDBRANCH  79  82
ENDBRANCH  51  75
BRANCH  63  86
ATOM     86  C   UNL A   1      50.689  27.067  26.651  1.00  0.00     0.023 A 
ATOM     87  C   UNL A   1      51.353  25.943  27.182  1.00  0.00     0.012 A 
ATOM     88  C   UNL A   1      50.943  27.456  25.320  1.00  0.00     0.148 A 
ATOM     89  C   UNL A   1      52.272  25.233  26.410  1.00  0.00     0.002 A 
ATOM     90  C   UNL A   1      51.822  26.713  24.541  1.00  0.00     0.091 A 
ATOM     91  F   UNL A   1      50.308  28.534  24.838  1.00  0.00    -0.205 F 
ATOM     92  C   UNL A   1      52.496  25.608  25.088  1.00  0.00     0.022 A 
BRANCH  90  93
ATOM     93  S   UNL A   1      52.100  27.059  22.799  1.00  0.00     0.127 S 
ATOM     94  O   UNL A   1      52.401  28.489  22.824  1.00  0.00    -0.237 OA
ATOM     95  O   UNL A   1      53.242  26.199  22.491  1.00  0.00    -0.237 OA
ATOM     96  O   UNL A   1      50.865  26.696  22.115  1.00  0.00    -0.744 OA
ENDBRANCH  90  93
ENDBRANCH  63  86
ENDBRANCH  37  38
ENDBRANCH  30  32
ENDBRANCH  29  30
ENDBRANCH  28  29
ENDBRANCH  27  28
ENDBRANCH  26  27
ENDBRANCH  25  26
ENDBRANCH   1  25
TORSDOF 24
ENDMDL
