MODEL 1
REMARK VINA RESULT:     -10.3      0.000      0.000
REMARK SMILES Cc1nn(-c2ccncn2)c(C)c1[C@@H](C)C(=O)OCCOCCOCCOCCOC(=O)c1ccc(-c2c3nc(c(-c4cccc(S(=O)(=O)[O-])c4F)c4ccc([nH]4)c(-c4cccc(S(=O)(=O)[O-])c4F)c4nc(c(-c5cccc(S(=O)(=O)[O-])c5F)c5ccc2[nH]5)C=C4)C=C3)cc1
REMARK SMILES IDX 25 1 24 2 23 3 22 4 21 5 20 6 19 7 18 8 16 9 17 10 14 11
REMARK SMILES IDX 15 12 13 13 1 14 2 15 3 16 4 17 11 18 12 19 5 20 6 21 10 22
REMARK SMILES IDX 7 23 9 24 8 25 26 26 27 27 28 28 29 29 30 30 31 31 32 32
REMARK SMILES IDX 33 33 34 34 95 35 35 36 94 37 36 38 37 39 38 40 88 41 39 42
REMARK SMILES IDX 93 43 87 44 89 45 40 46 92 47 86 48 85 49 41 51 73 52 53 53
REMARK SMILES IDX 72 54 54 55 57 56 71 57 90 58 55 59 56 60 70 62 91 63 58 64
REMARK SMILES IDX 42 65 43 66 51 67 44 68 46 69 52 70 45 71 47 72 48 73 49 74
REMARK SMILES IDX 50 75 74 76 75 77 83 78 76 79 78 80 84 81 77 82 79 83 80 84
REMARK SMILES IDX 81 85 82 86 59 87 60 88 68 89 61 90 63 91 69 92 62 93 64 94
REMARK SMILES IDX 65 95 66 96 67 97
REMARK H PARENT 89 50 57 61
REMARK Flexibility Score: inf
ROOT
ATOM      1  C   UNL A   1      34.191  31.366  27.622  1.00  0.00     0.188 C 
ENDROOT
BRANCH   1   2
ATOM      2  O   UNL A   1      33.707  30.304  26.810  1.00  0.00    -0.377 OA
BRANCH   2   3
ATOM      3  C   UNL A   1      32.321  30.043  26.939  1.00  0.00     0.188 C 
BRANCH   3   4
ATOM      4  C   UNL A   1      31.848  28.634  26.521  1.00  0.00     0.188 C 
BRANCH   4   5
ATOM      5  O   UNL A   1      31.948  28.182  25.175  1.00  0.00    -0.376 OA
BRANCH   5   6
ATOM      6  C   UNL A   1      30.791  27.707  24.507  1.00  0.00     0.202 C 
BRANCH   6   7
ATOM      7  C   UNL A   1      30.918  26.491  23.577  1.00  0.00     0.261 C 
BRANCH   7   8
ATOM      8  O   UNL A   1      32.207  25.846  23.560  1.00  0.00    -0.463 OA
BRANCH   8   9
ATOM      9  C   UNL A   1      32.283  24.591  24.059  1.00  0.00     0.313 C 
ATOM     10  O   UNL A   1      31.476  24.138  24.871  1.00  0.00    -0.252 OA
BRANCH   9  11
ATOM     11  C   UNL A   1      33.452  23.739  23.548  1.00  0.00     0.130 C 
ATOM     12  C   UNL A   1      33.296  23.576  22.040  1.00  0.00     0.025 C 
BRANCH  11  13
ATOM     13  C   UNL A   1      33.765  22.407  24.202  1.00  0.00     0.010 A 
ATOM     14  C   UNL A   1      35.438  23.185  26.088  1.00  0.00     0.069 C 
ATOM     15  C   UNL A   1      34.641  22.190  25.317  1.00  0.00     0.064 A 
ATOM     16  N   UNL A   1      34.625  20.923  25.735  1.00  0.00    -0.171 NA
ATOM     17  N   UNL A   1      33.843  20.266  24.850  1.00  0.00    -0.219 N 
ATOM     18  C   UNL A   1      33.261  21.139  23.932  1.00  0.00     0.047 A 
ATOM     19  C   UNL A   1      32.166  20.705  23.020  1.00  0.00     0.067 C 
BRANCH  17  20
ATOM     20  C   UNL A   1      33.656  18.852  24.926  1.00  0.00     0.156 A 
ATOM     21  C   UNL A   1      34.601  18.043  24.319  1.00  0.00     0.069 A 
ATOM     22  N   UNL A   1      32.533  18.367  25.504  1.00  0.00    -0.217 NA
ATOM     23  C   UNL A   1      34.298  16.706  24.252  1.00  0.00     0.117 A 
ATOM     24  C   UNL A   1      32.345  17.046  25.372  1.00  0.00     0.224 A 
ATOM     25  N   UNL A   1      33.162  16.190  24.741  1.00  0.00    -0.245 NA
ENDBRANCH  17  20
ENDBRANCH  11  13
ENDBRANCH   9  11
ENDBRANCH   8   9
ENDBRANCH   7   8
ENDBRANCH   6   7
ENDBRANCH   5   6
ENDBRANCH   4   5
ENDBRANCH   3   4
ENDBRANCH   2   3
ENDBRANCH   1   2
BRANCH   1  26
ATOM     26  C   UNL A   1      35.307  30.987  28.625  1.00  0.00     0.188 C 
BRANCH  26  27
ATOM     27  O   UNL A   1      35.115  31.468  29.953  1.00  0.00    -0.376 OA
BRANCH  27  28
ATOM     28  C   UNL A   1      34.868  32.839  30.234  1.00  0.00     0.202 C 
BRANCH  28  29
ATOM     29  C   UNL A   1      36.043  33.812  30.308  1.00  0.00     0.261 C 
BRANCH  29  30
ATOM     30  O   UNL A   1      37.196  33.274  30.914  1.00  0.00    -0.460 OA
BRANCH  30  31
ATOM     31  C   UNL A   1      38.116  32.780  30.066  1.00  0.00     0.338 C 
ATOM     32  O   UNL A   1      38.208  32.975  28.871  1.00  0.00    -0.246 OA
BRANCH  31  33
ATOM     33  C   UNL A   1      38.939  31.839  30.821  1.00  0.00     0.060 A 
ATOM     34  C   UNL A   1      40.313  32.057  30.774  1.00  0.00     0.016 A 
ATOM     35  C   UNL A   1      38.367  30.604  31.158  1.00  0.00     0.016 A 
ATOM     36  C   UNL A   1      41.121  30.951  30.784  1.00  0.00     0.010 A 
ATOM     37  C   UNL A   1      39.169  29.500  31.132  1.00  0.00     0.010 A 
ATOM     38  C   UNL A   1      40.516  29.690  30.848  1.00  0.00    -0.014 A 
BRANCH  38  39
ATOM     39  C   UNL A   1      41.357  28.531  30.713  1.00  0.00     0.031 A 
ATOM     40  C   UNL A   1      42.107  28.278  31.955  1.00  0.00     0.074 A 
ATOM     41  C   UNL A   1      41.349  27.771  29.603  1.00  0.00     0.049 A 
ATOM     42  N   UNL A   1      43.353  28.533  32.169  1.00  0.00    -0.248 NA
ATOM     43  C   UNL A   1      41.338  27.966  33.170  1.00  0.00     0.031 C 
ATOM     44  C   UNL A   1      40.414  27.821  28.476  1.00  0.00     0.029 A 
ATOM     45  N   UNL A   1      42.109  26.683  29.321  1.00  0.00    -0.354 N 
ATOM     46  C   UNL A   1      43.572  28.125  33.477  1.00  0.00     0.074 A 
ATOM     47  C   UNL A   1      42.281  28.067  34.105  1.00  0.00     0.031 C 
ATOM     48  C   UNL A   1      40.499  26.662  27.783  1.00  0.00     0.029 A 
ATOM     49  C   UNL A   1      41.573  25.858  28.339  1.00  0.00     0.049 A 
ATOM     50  H   UNL A   1      42.964  26.495  29.772  1.00  0.00     0.167 HD
ATOM     51  C   UNL A   1      44.747  27.535  33.822  1.00  0.00     0.034 A 
ATOM     52  C   UNL A   1      41.940  24.574  28.091  1.00  0.00     0.034 A 
ATOM     53  C   UNL A   1      45.753  27.757  32.813  1.00  0.00     0.049 A 
ATOM     54  C   UNL A   1      43.274  24.375  28.708  1.00  0.00     0.074 A 
ATOM     55  C   UNL A   1      46.342  28.870  32.249  1.00  0.00     0.029 A 
ATOM     56  N   UNL A   1      45.986  26.713  31.951  1.00  0.00    -0.354 N 
ATOM     57  N   UNL A   1      44.357  24.967  28.286  1.00  0.00    -0.248 NA
ATOM     58  C   UNL A   1      43.325  23.878  30.075  1.00  0.00     0.031 C 
ATOM     59  C   UNL A   1      46.526  28.535  30.875  1.00  0.00     0.029 A 
ATOM     60  C   UNL A   1      46.111  27.214  30.685  1.00  0.00     0.049 A 
ATOM     61  H   UNL A   1      46.051  25.763  32.202  1.00  0.00     0.167 HD
ATOM     62  C   UNL A   1      45.018  25.338  29.450  1.00  0.00     0.074 A 
ATOM     63  C   UNL A   1      44.401  24.541  30.509  1.00  0.00     0.031 C 
ATOM     64  C   UNL A   1      45.779  26.470  29.489  1.00  0.00     0.034 A 
BRANCH  51  65
ATOM     65  C   UNL A   1      44.871  26.411  34.825  1.00  0.00     0.023 A 
ATOM     66  C   UNL A   1      44.527  25.120  34.372  1.00  0.00     0.012 A 
ATOM     67  C   UNL A   1      45.029  26.580  36.222  1.00  0.00     0.148 A 
ATOM     68  C   UNL A   1      44.298  24.069  35.264  1.00  0.00     0.002 A 
ATOM     69  C   UNL A   1      44.885  25.512  37.097  1.00  0.00     0.091 A 
ATOM     70  F   UNL A   1      45.184  27.797  36.744  1.00  0.00    -0.205 F 
ATOM     71  C   UNL A   1      44.486  24.262  36.627  1.00  0.00     0.022 A 
BRANCH  69  72
ATOM     72  S   UNL A   1      45.162  25.695  38.865  1.00  0.00     0.127 S 
ATOM     73  O   UNL A   1      44.052  26.562  39.247  1.00  0.00    -0.237 OA
ATOM     74  O   UNL A   1      45.055  24.309  39.323  1.00  0.00    -0.237 OA
ATOM     75  O   UNL A   1      46.495  26.268  39.002  1.00  0.00    -0.744 OA
ENDBRANCH  69  72
ENDBRANCH  51  65
BRANCH  52  76
ATOM     76  C   UNL A   1      41.126  23.421  27.632  1.00  0.00     0.023 A 
ATOM     77  C   UNL A   1      39.811  23.642  27.172  1.00  0.00     0.012 A 
ATOM     78  C   UNL A   1      41.721  22.170  27.362  1.00  0.00     0.148 A 
ATOM     79  C   UNL A   1      39.127  22.666  26.436  1.00  0.00     0.002 A 
ATOM     80  C   UNL A   1      41.035  21.200  26.636  1.00  0.00     0.091 A 
ATOM     81  F   UNL A   1      42.991  21.964  27.733  1.00  0.00    -0.205 F 
ATOM     82  C   UNL A   1      39.742  21.449  26.160  1.00  0.00     0.022 A 
BRANCH  80  83
ATOM     83  S   UNL A   1      41.777  19.617  26.210  1.00  0.00     0.127 S 
ATOM     84  O   UNL A   1      40.632  18.880  25.676  1.00  0.00    -0.237 OA
ATOM     85  O   UNL A   1      42.772  20.009  25.214  1.00  0.00    -0.237 OA
ATOM     86  O   UNL A   1      42.308  19.078  27.455  1.00  0.00    -0.744 OA
ENDBRANCH  80  83
ENDBRANCH  52  76
BRANCH  64  87
ATOM     87  C   UNL A   1      46.129  27.130  28.179  1.00  0.00     0.023 A 
ATOM     88  C   UNL A   1      45.381  28.192  27.628  1.00  0.00     0.012 A 
ATOM     89  C   UNL A   1      47.349  26.776  27.580  1.00  0.00     0.148 A 
ATOM     90  C   UNL A   1      45.834  28.871  26.491  1.00  0.00     0.002 A 
ATOM     91  C   UNL A   1      47.821  27.485  26.485  1.00  0.00     0.091 A 
ATOM     92  F   UNL A   1      48.046  25.763  28.118  1.00  0.00    -0.205 F 
ATOM     93  C   UNL A   1      47.062  28.528  25.930  1.00  0.00     0.022 A 
BRANCH  91  94
ATOM     94  S   UNL A   1      49.452  27.172  25.807  1.00  0.00     0.127 S 
ATOM     95  O   UNL A   1      49.208  26.013  24.952  1.00  0.00    -0.237 OA
ATOM     96  O   UNL A   1      49.737  28.414  25.089  1.00  0.00    -0.237 OA
ATOM     97  O   UNL A   1      50.323  26.936  26.952  1.00  0.00    -0.744 OA
ENDBRANCH  91  94
ENDBRANCH  64  87
ENDBRANCH  38  39
ENDBRANCH  31  33
ENDBRANCH  30  31
ENDBRANCH  29  30
ENDBRANCH  28  29
ENDBRANCH  27  28
ENDBRANCH  26  27
ENDBRANCH   1  26
TORSDOF 25
ENDMDL
MODEL 2
REMARK VINA RESULT:      -9.8      3.272      8.466
REMARK SMILES Cc1nn(-c2ccncn2)c(C)c1[C@@H](C)C(=O)OCCOCCOCCOCCOC(=O)c1ccc(-c2c3nc(c(-c4cccc(S(=O)(=O)[O-])c4F)c4ccc([nH]4)c(-c4cccc(S(=O)(=O)[O-])c4F)c4nc(c(-c5cccc(S(=O)(=O)[O-])c5F)c5ccc2[nH]5)C=C4)C=C3)cc1
REMARK SMILES IDX 25 1 24 2 23 3 22 4 21 5 20 6 19 7 18 8 16 9 17 10 14 11
REMARK SMILES IDX 15 12 13 13 1 14 2 15 3 16 4 17 11 18 12 19 5 20 6 21 10 22
REMARK SMILES IDX 7 23 9 24 8 25 26 26 27 27 28 28 29 29 30 30 31 31 32 32
REMARK SMILES IDX 33 33 34 34 95 35 35 36 94 37 36 38 37 39 38 40 88 41 39 42
REMARK SMILES IDX 93 43 87 44 89 45 40 46 92 47 86 48 85 49 41 51 73 52 53 53
REMARK SMILES IDX 72 54 54 55 57 56 71 57 90 58 55 59 56 60 70 62 91 63 58 64
REMARK SMILES IDX 42 65 43 66 51 67 44 68 46 69 52 70 45 71 47 72 48 73 49 74
REMARK SMILES IDX 50 75 74 76 75 77 83 78 76 79 78 80 84 81 77 82 79 83 80 84
REMARK SMILES IDX 81 85 82 86 59 87 60 88 68 89 61 90 63 91 69 92 62 93 64 94
REMARK SMILES IDX 65 95 66 96 67 97
REMARK H PARENT 89 50 57 61
REMARK Flexibility Score: inf
ROOT
ATOM      1  C   UNL A   1      33.105  28.920  27.035  1.00  0.00     0.188 C 
ENDROOT
BRANCH   1   2
ATOM      2  O   UNL A   1      33.529  27.915  26.122  1.00  0.00    -0.377 OA
BRANCH   2   3
ATOM      3  C   UNL A   1      33.296  28.216  24.758  1.00  0.00     0.188 C 
BRANCH   3   4
ATOM      4  C   UNL A   1      32.878  27.034  23.857  1.00  0.00     0.188 C 
BRANCH   4   5
ATOM      5  O   UNL A   1      32.181  25.908  24.379  1.00  0.00    -0.376 OA
BRANCH   5   6
ATOM      6  C   UNL A   1      32.850  24.663  24.498  1.00  0.00     0.202 C 
BRANCH   6   7
ATOM      7  C   UNL A   1      33.291  24.190  25.892  1.00  0.00     0.261 C 
BRANCH   7   8
ATOM      8  O   UNL A   1      34.675  24.415  26.222  1.00  0.00    -0.463 OA
BRANCH   8   9
ATOM      9  C   UNL A   1      35.522  23.367  26.110  1.00  0.00     0.313 C 
ATOM     10  O   UNL A   1      35.277  22.250  26.566  1.00  0.00    -0.252 OA
BRANCH   9  11
ATOM     11  C   UNL A   1      36.834  23.646  25.365  1.00  0.00     0.130 C 
ATOM     12  C   UNL A   1      36.686  23.134  23.936  1.00  0.00     0.025 C 
BRANCH  11  13
ATOM     13  C   UNL A   1      38.155  23.199  25.961  1.00  0.00     0.010 A 
ATOM     14  C   UNL A   1      38.762  25.316  27.413  1.00  0.00     0.069 C 
ATOM     15  C   UNL A   1      38.984  23.953  26.858  1.00  0.00     0.064 A 
ATOM     16  N   UNL A   1      40.030  23.248  27.295  1.00  0.00    -0.171 NA
ATOM     17  N   UNL A   1      39.978  22.078  26.618  1.00  0.00    -0.219 N 
ATOM     18  C   UNL A   1      38.829  21.989  25.834  1.00  0.00     0.047 A 
ATOM     19  C   UNL A   1      38.411  20.709  25.196  1.00  0.00     0.067 C 
BRANCH  17  20
ATOM     20  C   UNL A   1      40.998  21.089  26.761  1.00  0.00     0.156 A 
ATOM     21  C   UNL A   1      42.076  21.143  25.897  1.00  0.00     0.069 A 
ATOM     22  N   UNL A   1      40.829  20.098  27.667  1.00  0.00    -0.217 NA
ATOM     23  C   UNL A   1      42.941  20.077  25.941  1.00  0.00     0.117 A 
ATOM     24  C   UNL A   1      41.736  19.112  27.613  1.00  0.00     0.224 A 
ATOM     25  N   UNL A   1      42.773  19.036  26.765  1.00  0.00    -0.245 NA
ENDBRANCH  17  20
ENDBRANCH  11  13
ENDBRANCH   9  11
ENDBRANCH   8   9
ENDBRANCH   7   8
ENDBRANCH   6   7
ENDBRANCH   5   6
ENDBRANCH   4   5
ENDBRANCH   3   4
ENDBRANCH   2   3
ENDBRANCH   1   2
BRANCH   1  26
ATOM     26  C   UNL A   1      33.536  30.365  26.687  1.00  0.00     0.188 C 
BRANCH  26  27
ATOM     27  O   UNL A   1      33.497  31.286  27.775  1.00  0.00    -0.376 OA
BRANCH  27  28
ATOM     28  C   UNL A   1      34.618  32.084  28.130  1.00  0.00     0.202 C 
BRANCH  28  29
ATOM     29  C   UNL A   1      35.698  31.498  29.036  1.00  0.00     0.261 C 
BRANCH  29  30
ATOM     30  O   UNL A   1      36.848  31.059  28.349  1.00  0.00    -0.460 OA
BRANCH  30  31
ATOM     31  C   UNL A   1      37.092  29.739  28.419  1.00  0.00     0.338 C 
ATOM     32  O   UNL A   1      36.463  28.837  27.904  1.00  0.00    -0.246 OA
BRANCH  31  33
ATOM     33  C   UNL A   1      38.202  29.552  29.350  1.00  0.00     0.060 A 
ATOM     34  C   UNL A   1      39.219  30.501  29.285  1.00  0.00     0.016 A 
ATOM     35  C   UNL A   1      38.375  28.275  29.903  1.00  0.00     0.016 A 
ATOM     36  C   UNL A   1      40.496  30.064  29.516  1.00  0.00     0.010 A 
ATOM     37  C   UNL A   1      39.651  27.831  30.097  1.00  0.00     0.010 A 
ATOM     38  C   UNL A   1      40.689  28.708  29.804  1.00  0.00    -0.014 A 
BRANCH  38  39
ATOM     39  C   UNL A   1      42.040  28.224  29.903  1.00  0.00     0.031 A 
ATOM     40  C   UNL A   1      42.359  27.324  28.782  1.00  0.00     0.074 A 
ATOM     41  C   UNL A   1      42.878  28.643  30.868  1.00  0.00     0.049 A 
ATOM     42  N   UNL A   1      42.431  26.037  28.822  1.00  0.00    -0.248 NA
ATOM     43  C   UNL A   1      42.327  27.884  27.421  1.00  0.00     0.031 C 
ATOM     44  C   UNL A   1      42.691  29.746  31.816  1.00  0.00     0.029 A 
ATOM     45  N   UNL A   1      44.153  28.249  31.107  1.00  0.00    -0.354 N 
ATOM     46  C   UNL A   1      42.748  25.665  27.524  1.00  0.00     0.074 A 
ATOM     47  C   UNL A   1      42.391  26.775  26.685  1.00  0.00     0.031 C 
ATOM     48  C   UNL A   1      43.893  30.091  32.331  1.00  0.00     0.029 A 
ATOM     49  C   UNL A   1      44.898  29.160  31.849  1.00  0.00     0.049 A 
ATOM     50  H   UNL A   1      44.519  27.394  30.784  1.00  0.00     0.167 HD
ATOM     51  C   UNL A   1      43.597  24.627  27.297  1.00  0.00     0.034 A 
ATOM     52  C   UNL A   1      46.251  29.178  31.959  1.00  0.00     0.034 A 
ATOM     53  C   UNL A   1      43.758  23.823  28.483  1.00  0.00     0.049 A 
ATOM     54  C   UNL A   1      46.740  27.838  31.553  1.00  0.00     0.074 A 
ATOM     55  C   UNL A   1      42.910  23.105  29.300  1.00  0.00     0.029 A 
ATOM     56  N   UNL A   1      44.908  24.034  29.205  1.00  0.00    -0.354 N 
ATOM     57  N   UNL A   1      46.510  26.751  32.236  1.00  0.00    -0.248 NA
ATOM     58  C   UNL A   1      47.092  27.636  30.156  1.00  0.00     0.031 C 
ATOM     59  C   UNL A   1      43.419  23.291  30.618  1.00  0.00     0.029 A 
ATOM     60  C   UNL A   1      44.590  24.049  30.535  1.00  0.00     0.049 A 
ATOM     61  H   UNL A   1      45.809  24.156  28.828  1.00  0.00     0.167 HD
ATOM     62  C   UNL A   1      46.216  25.798  31.271  1.00  0.00     0.074 A 
ATOM     63  C   UNL A   1      46.705  26.364  30.015  1.00  0.00     0.031 C 
ATOM     64  C   UNL A   1      45.334  24.789  31.532  1.00  0.00     0.034 A 
BRANCH  51  65
ATOM     65  C   UNL A   1      44.604  24.583  26.172  1.00  0.00     0.023 A 
ATOM     66  C   UNL A   1      44.774  23.341  25.524  1.00  0.00     0.012 A 
ATOM     67  C   UNL A   1      45.571  25.582  25.905  1.00  0.00     0.148 A 
ATOM     68  C   UNL A   1      45.874  23.089  24.701  1.00  0.00     0.002 A 
ATOM     69  C   UNL A   1      46.615  25.356  25.017  1.00  0.00     0.091 A 
ATOM     70  F   UNL A   1      45.582  26.719  26.602  1.00  0.00    -0.205 F 
ATOM     71  C   UNL A   1      46.791  24.100  24.440  1.00  0.00     0.022 A 
BRANCH  69  72
ATOM     72  S   UNL A   1      47.803  26.643  24.607  1.00  0.00     0.127 S 
ATOM     73  O   UNL A   1      47.003  27.519  23.757  1.00  0.00    -0.237 OA
ATOM     74  O   UNL A   1      48.120  27.182  25.930  1.00  0.00    -0.237 OA
ATOM     75  O   UNL A   1      48.916  25.965  23.956  1.00  0.00    -0.744 OA
ENDBRANCH  69  72
ENDBRANCH  51  65
BRANCH  52  76
ATOM     76  C   UNL A   1      47.181  30.327  32.095  1.00  0.00     0.023 A 
ATOM     77  C   UNL A   1      47.007  31.459  31.273  1.00  0.00     0.012 A 
ATOM     78  C   UNL A   1      48.037  30.443  33.212  1.00  0.00     0.148 A 
ATOM     79  C   UNL A   1      47.633  32.676  31.574  1.00  0.00     0.002 A 
ATOM     80  C   UNL A   1      48.663  31.652  33.503  1.00  0.00     0.091 A 
ATOM     81  F   UNL A   1      48.164  29.399  34.041  1.00  0.00    -0.205 F 
ATOM     82  C   UNL A   1      48.452  32.775  32.694  1.00  0.00     0.022 A 
BRANCH  80  83
ATOM     83  S   UNL A   1      49.707  31.867  34.952  1.00  0.00     0.127 S 
ATOM     84  O   UNL A   1      50.179  33.241  34.784  1.00  0.00    -0.237 OA
ATOM     85  O   UNL A   1      48.754  31.676  36.042  1.00  0.00    -0.237 OA
ATOM     86  O   UNL A   1      50.752  30.857  34.842  1.00  0.00    -0.744 OA
ENDBRANCH  80  83
ENDBRANCH  52  76
BRANCH  64  87
ATOM     87  C   UNL A   1      44.929  24.560  32.966  1.00  0.00     0.023 A 
ATOM     88  C   UNL A   1      45.614  23.677  33.828  1.00  0.00     0.012 A 
ATOM     89  C   UNL A   1      43.933  25.394  33.499  1.00  0.00     0.148 A 
ATOM     90  C   UNL A   1      45.295  23.617  35.189  1.00  0.00     0.002 A 
ATOM     91  C   UNL A   1      43.655  25.370  34.858  1.00  0.00     0.091 A 
ATOM     92  F   UNL A   1      43.293  26.227  32.664  1.00  0.00    -0.205 F 
ATOM     93  C   UNL A   1      44.327  24.475  35.707  1.00  0.00     0.022 A 
BRANCH  91  94
ATOM     94  S   UNL A   1      42.516  26.542  35.596  1.00  0.00     0.127 S 
ATOM     95  O   UNL A   1      42.564  26.167  37.007  1.00  0.00    -0.237 OA
ATOM     96  O   UNL A   1      43.141  27.828  35.282  1.00  0.00    -0.237 OA
ATOM     97  O   UNL A   1      41.236  26.328  34.933  1.00  0.00    -0.744 OA
ENDBRANCH  91  94
ENDBRANCH  64  87
ENDBRANCH  38  39
ENDBRANCH  31  33
ENDBRANCH  30  31
ENDBRANCH  29  30
ENDBRANCH  28  29
ENDBRANCH  27  28
ENDBRANCH  26  27
ENDBRANCH   1  26
TORSDOF 25
ENDMDL
MODEL 3
REMARK VINA RESULT:      -9.0      3.303      5.923
REMARK SMILES Cc1nn(-c2ccncn2)c(C)c1[C@@H](C)C(=O)OCCOCCOCCOCCOC(=O)c1ccc(-c2c3nc(c(-c4cccc(S(=O)(=O)[O-])c4F)c4ccc([nH]4)c(-c4cccc(S(=O)(=O)[O-])c4F)c4nc(c(-c5cccc(S(=O)(=O)[O-])c5F)c5ccc2[nH]5)C=C4)C=C3)cc1
REMARK SMILES IDX 25 1 24 2 23 3 22 4 21 5 20 6 19 7 18 8 16 9 17 10 14 11
REMARK SMILES IDX 15 12 13 13 1 14 2 15 3 16 4 17 11 18 12 19 5 20 6 21 10 22
REMARK SMILES IDX 7 23 9 24 8 25 26 26 27 27 28 28 29 29 30 30 31 31 32 32
REMARK SMILES IDX 33 33 34 34 95 35 35 36 94 37 36 38 37 39 38 40 88 41 39 42
REMARK SMILES IDX 93 43 87 44 89 45 40 46 92 47 86 48 85 49 41 51 73 52 53 53
REMARK SMILES IDX 72 54 54 55 57 56 71 57 90 58 55 59 56 60 70 62 91 63 58 64
REMARK SMILES IDX 42 65 43 66 51 67 44 68 46 69 52 70 45 71 47 72 48 73 49 74
REMARK SMILES IDX 50 75 74 76 75 77 83 78 76 79 78 80 84 81 77 82 79 83 80 84
REMARK SMILES IDX 81 85 82 86 59 87 60 88 68 89 61 90 63 91 69 92 62 93 64 94
REMARK SMILES IDX 65 95 66 96 67 97
REMARK H PARENT 89 50 57 61
REMARK Flexibility Score: inf
ROOT
ATOM      1  C   UNL A   1      39.849  27.545  27.600  1.00  0.00     0.188 C 
ENDROOT
BRANCH   1   2
ATOM      2  O   UNL A   1      40.272  26.222  27.295  1.00  0.00    -0.377 OA
BRANCH   2   3
ATOM      3  C   UNL A   1      39.448  25.199  27.826  1.00  0.00     0.188 C 
BRANCH   3   4
ATOM      4  C   UNL A   1      39.571  23.810  27.165  1.00  0.00     0.188 C 
BRANCH   4   5
ATOM      5  O   UNL A   1      38.473  23.203  26.492  1.00  0.00    -0.376 OA
BRANCH   5   6
ATOM      6  C   UNL A   1      37.436  24.017  25.969  1.00  0.00     0.202 C 
BRANCH   6   7
ATOM      7  C   UNL A   1      36.432  23.396  24.986  1.00  0.00     0.261 C 
BRANCH   7   8
ATOM      8  O   UNL A   1      35.611  22.336  25.511  1.00  0.00    -0.463 OA
BRANCH   8   9
ATOM      9  C   UNL A   1      34.503  22.688  26.202  1.00  0.00     0.313 C 
ATOM     10  O   UNL A   1      34.535  23.126  27.351  1.00  0.00    -0.252 OA
BRANCH   9  11
ATOM     11  C   UNL A   1      33.171  22.514  25.460  1.00  0.00     0.130 C 
ATOM     12  C   UNL A   1      33.466  21.919  24.087  1.00  0.00     0.025 C 
BRANCH  11  13
ATOM     13  C   UNL A   1      32.209  23.681  25.342  1.00  0.00     0.010 A 
ATOM     14  C   UNL A   1      30.209  22.799  26.819  1.00  0.00     0.069 C 
ATOM     15  C   UNL A   1      30.912  23.781  25.949  1.00  0.00     0.064 A 
ATOM     16  N   UNL A   1      30.351  24.976  25.752  1.00  0.00    -0.171 NA
ATOM     17  N   UNL A   1      31.198  25.635  24.930  1.00  0.00    -0.219 N 
ATOM     18  C   UNL A   1      32.361  24.903  24.696  1.00  0.00     0.047 A 
ATOM     19  C   UNL A   1      33.551  25.510  24.037  1.00  0.00     0.067 C 
BRANCH  17  20
ATOM     20  C   UNL A   1      30.886  26.934  24.424  1.00  0.00     0.156 A 
ATOM     21  C   UNL A   1      30.214  27.013  23.217  1.00  0.00     0.069 A 
ATOM     22  N   UNL A   1      31.330  28.023  25.093  1.00  0.00    -0.217 NA
ATOM     23  C   UNL A   1      30.093  28.268  22.674  1.00  0.00     0.117 A 
ATOM     24  C   UNL A   1      31.156  29.194  24.461  1.00  0.00     0.224 A 
ATOM     25  N   UNL A   1      30.584  29.367  23.260  1.00  0.00    -0.245 NA
ENDBRANCH  17  20
ENDBRANCH  11  13
ENDBRANCH   9  11
ENDBRANCH   8   9
ENDBRANCH   7   8
ENDBRANCH   6   7
ENDBRANCH   5   6
ENDBRANCH   4   5
ENDBRANCH   3   4
ENDBRANCH   2   3
ENDBRANCH   1   2
BRANCH   1  26
ATOM     26  C   UNL A   1      39.002  27.698  28.887  1.00  0.00     0.188 C 
BRANCH  26  27
ATOM     27  O   UNL A   1      38.555  29.024  29.163  1.00  0.00    -0.376 OA
BRANCH  27  28
ATOM     28  C   UNL A   1      37.264  29.482  28.783  1.00  0.00     0.202 C 
BRANCH  28  29
ATOM     29  C   UNL A   1      36.301  29.980  29.858  1.00  0.00     0.261 C 
BRANCH  29  30
ATOM     30  O   UNL A   1      36.502  29.396  31.125  1.00  0.00    -0.460 OA
BRANCH  30  31
ATOM     31  C   UNL A   1      37.018  30.212  32.060  1.00  0.00     0.338 C 
ATOM     32  O   UNL A   1      36.837  31.407  32.188  1.00  0.00    -0.246 OA
BRANCH  31  33
ATOM     33  C   UNL A   1      37.962  29.426  32.850  1.00  0.00     0.060 A 
ATOM     34  C   UNL A   1      38.851  30.151  33.638  1.00  0.00     0.016 A 
ATOM     35  C   UNL A   1      38.189  28.100  32.454  1.00  0.00     0.016 A 
ATOM     36  C   UNL A   1      40.112  29.638  33.790  1.00  0.00     0.010 A 
ATOM     37  C   UNL A   1      39.455  27.606  32.575  1.00  0.00     0.010 A 
ATOM     38  C   UNL A   1      40.414  28.428  33.155  1.00  0.00    -0.014 A 
BRANCH  38  39
ATOM     39  C   UNL A   1      41.776  27.966  33.196  1.00  0.00     0.031 A 
ATOM     40  C   UNL A   1      42.121  27.469  34.539  1.00  0.00     0.074 A 
ATOM     41  C   UNL A   1      42.553  27.937  32.099  1.00  0.00     0.049 A 
ATOM     42  N   UNL A   1      42.832  28.077  35.427  1.00  0.00    -0.248 NA
ATOM     43  C   UNL A   1      41.382  26.305  35.052  1.00  0.00     0.031 C 
ATOM     44  C   UNL A   1      42.157  28.145  30.702  1.00  0.00     0.029 A 
ATOM     45  N   UNL A   1      43.854  27.569  31.995  1.00  0.00    -0.354 N 
ATOM     46  C   UNL A   1      42.857  27.208  36.508  1.00  0.00     0.074 A 
ATOM     47  C   UNL A   1      41.748  26.311  36.333  1.00  0.00     0.031 C 
ATOM     48  C   UNL A   1      43.120  27.646  29.894  1.00  0.00     0.029 A 
ATOM     49  C   UNL A   1      44.239  27.207  30.709  1.00  0.00     0.049 A 
ATOM     50  H   UNL A   1      44.471  27.560  32.763  1.00  0.00     0.167 HD
ATOM     51  C   UNL A   1      43.984  27.079  37.257  1.00  0.00     0.034 A 
ATOM     52  C   UNL A   1      45.356  26.508  30.381  1.00  0.00     0.034 A 
ATOM     53  C   UNL A   1      44.894  28.171  37.014  1.00  0.00     0.049 A 
ATOM     54  C   UNL A   1      46.287  26.608  31.532  1.00  0.00     0.074 A 
ATOM     55  C   UNL A   1      44.828  29.544  37.136  1.00  0.00     0.029 A 
ATOM     56  N   UNL A   1      45.948  27.905  36.173  1.00  0.00    -0.354 N 
ATOM     57  N   UNL A   1      46.860  27.720  31.899  1.00  0.00    -0.248 NA
ATOM     58  C   UNL A   1      46.224  25.571  32.551  1.00  0.00     0.031 C 
ATOM     59  C   UNL A   1      45.569  30.050  36.028  1.00  0.00     0.029 A 
ATOM     60  C   UNL A   1      46.110  28.968  35.328  1.00  0.00     0.049 A 
ATOM     61  H   UNL A   1      46.493  27.085  36.177  1.00  0.00     0.167 HD
ATOM     62  C   UNL A   1      46.787  27.700  33.285  1.00  0.00     0.074 A 
ATOM     63  C   UNL A   1      46.498  26.309  33.631  1.00  0.00     0.031 C 
ATOM     64  C   UNL A   1      46.661  28.859  33.995  1.00  0.00     0.034 A 
BRANCH  51  65
ATOM     65  C   UNL A   1      44.458  25.779  37.862  1.00  0.00     0.023 A 
ATOM     66  C   UNL A   1      44.713  25.784  39.251  1.00  0.00     0.012 A 
ATOM     67  C   UNL A   1      44.927  24.661  37.129  1.00  0.00     0.148 A 
ATOM     68  C   UNL A   1      45.442  24.762  39.864  1.00  0.00     0.002 A 
ATOM     69  C   UNL A   1      45.575  23.607  37.759  1.00  0.00     0.091 A 
ATOM     70  F   UNL A   1      44.880  24.658  35.797  1.00  0.00    -0.205 F 
ATOM     71  C   UNL A   1      45.866  23.668  39.120  1.00  0.00     0.022 A 
BRANCH  69  72
ATOM     72  S   UNL A   1      46.103  22.146  36.852  1.00  0.00     0.127 S 
ATOM     73  O   UNL A   1      44.989  21.957  35.927  1.00  0.00    -0.237 OA
ATOM     74  O   UNL A   1      47.346  22.614  36.240  1.00  0.00    -0.237 OA
ATOM     75  O   UNL A   1      46.285  21.101  37.851  1.00  0.00    -0.744 OA
ENDBRANCH  69  72
ENDBRANCH  51  65
BRANCH  52  76
ATOM     76  C   UNL A   1      45.579  25.521  29.296  1.00  0.00     0.023 A 
ATOM     77  C   UNL A   1      45.053  24.219  29.426  1.00  0.00     0.012 A 
ATOM     78  C   UNL A   1      46.037  25.927  28.023  1.00  0.00     0.148 A 
ATOM     79  C   UNL A   1      44.951  23.365  28.320  1.00  0.00     0.002 A 
ATOM     80  C   UNL A   1      45.940  25.072  26.929  1.00  0.00     0.091 A 
ATOM     81  F   UNL A   1      46.479  27.181  27.865  1.00  0.00    -0.205 F 
ATOM     82  C   UNL A   1      45.385  23.795  27.070  1.00  0.00     0.022 A 
BRANCH  80  83
ATOM     83  S   UNL A   1      46.446  25.570  25.275  1.00  0.00     0.127 S 
ATOM     84  O   UNL A   1      47.882  25.785  25.450  1.00  0.00    -0.237 OA
ATOM     85  O   UNL A   1      46.095  24.393  24.486  1.00  0.00    -0.237 OA
ATOM     86  O   UNL A   1      45.691  26.780  24.976  1.00  0.00    -0.744 OA
ENDBRANCH  80  83
ENDBRANCH  52  76
BRANCH  64  87
ATOM     87  C   UNL A   1      46.908  30.159  33.271  1.00  0.00     0.023 A 
ATOM     88  C   UNL A   1      48.189  30.734  33.137  1.00  0.00     0.012 A 
ATOM     89  C   UNL A   1      45.833  30.720  32.562  1.00  0.00     0.148 A 
ATOM     90  C   UNL A   1      48.386  31.858  32.326  1.00  0.00     0.002 A 
ATOM     91  C   UNL A   1      46.042  31.801  31.719  1.00  0.00     0.091 A 
ATOM     92  F   UNL A   1      44.622  30.159  32.703  1.00  0.00    -0.205 F 
ATOM     93  C   UNL A   1      47.316  32.381  31.605  1.00  0.00     0.022 A 
BRANCH  91  94
ATOM     94  S   UNL A   1      44.730  32.429  30.669  1.00  0.00     0.127 S 
ATOM     95  O   UNL A   1      43.567  32.336  31.548  1.00  0.00    -0.237 OA
ATOM     96  O   UNL A   1      45.178  33.793  30.388  1.00  0.00    -0.237 OA
ATOM     97  O   UNL A   1      44.704  31.561  29.498  1.00  0.00    -0.744 OA
ENDBRANCH  91  94
ENDBRANCH  64  87
ENDBRANCH  38  39
ENDBRANCH  31  33
ENDBRANCH  30  31
ENDBRANCH  29  30
ENDBRANCH  28  29
ENDBRANCH  27  28
ENDBRANCH  26  27
ENDBRANCH   1  26
TORSDOF 25
ENDMDL
