MODEL 1
REMARK VINA RESULT:      -9.8      0.000      0.000
REMARK SMILES Cc1cnccc1N[C@@H]1C=C[C@@H](C(=O)OCCOCCOCCOCCOC(=O)c2ccc(-c3c4nc(c(-c5cccc(S(=O)(=O)[O-])c5F)c5ccc([nH]5)c(-c5cccc(S(=O)(=O)[O-])c5F)c5nc(c(-c6cccc(S(=O)(=O)[O-])c6F)c6ccc3[nH]6)C=C5)C=C4)cc2)C1
REMARK SMILES IDX 22 1 21 2 20 3 19 4 18 5 17 6 16 7 15 8 13 9 14 10 12 11
REMARK SMILES IDX 9 12 10 13 93 14 11 15 8 16 7 18 1 19 2 20 3 21 4 22 6 23
REMARK SMILES IDX 5 24 23 25 24 26 25 27 26 28 27 29 28 30 29 31 30 32 31 33
REMARK SMILES IDX 92 34 32 35 91 36 33 37 34 38 35 39 85 40 36 41 90 42 84 43
REMARK SMILES IDX 86 44 37 45 89 46 83 47 82 48 38 50 70 51 50 52 69 53 51 54
REMARK SMILES IDX 54 55 68 56 87 57 52 58 53 59 67 61 88 62 55 63 39 64 40 65
REMARK SMILES IDX 48 66 41 67 43 68 49 69 42 70 44 71 45 72 46 73 47 74 71 75
REMARK SMILES IDX 72 76 80 77 73 78 75 79 81 80 74 81 76 82 77 83 78 84 79 85
REMARK SMILES IDX 56 86 57 87 65 88 58 89 60 90 66 91 59 92 61 93 62 94 63 95
REMARK SMILES IDX 64 96
REMARK H PARENT 8 17 86 49 54 60
REMARK Flexibility Score: inf
ROOT
ATOM      1  C   UNL A   1      36.347  23.438  25.095  1.00  0.00     0.188 C 
ENDROOT
BRANCH   1   2
ATOM      2  O   UNL A   1      35.292  23.619  26.031  1.00  0.00    -0.377 OA
BRANCH   2   3
ATOM      3  C   UNL A   1      34.262  22.658  26.095  1.00  0.00     0.188 C 
BRANCH   3   4
ATOM      4  C   UNL A   1      33.244  22.846  27.227  1.00  0.00     0.188 C 
BRANCH   4   5
ATOM      5  O   UNL A   1      31.871  22.570  27.016  1.00  0.00    -0.376 OA
BRANCH   5   6
ATOM      6  C   UNL A   1      31.360  22.328  25.709  1.00  0.00     0.202 C 
BRANCH   6   7
ATOM      7  C   UNL A   1      30.951  23.450  24.738  1.00  0.00     0.261 C 
BRANCH   7   8
ATOM      8  O   UNL A   1      31.786  23.590  23.580  1.00  0.00    -0.463 OA
BRANCH   8   9
ATOM      9  C   UNL A   1      32.468  24.753  23.477  1.00  0.00     0.312 C 
ATOM     10  O   UNL A   1      33.667  24.823  23.212  1.00  0.00    -0.252 OA
BRANCH   9  11
ATOM     11  C   UNL A   1      31.567  25.985  23.464  1.00  0.00     0.124 C 
ATOM     12  C   UNL A   1      31.421  28.426  23.683  1.00  0.00     0.103 C 
ATOM     13  C   UNL A   1      31.613  28.021  22.267  1.00  0.00    -0.006 C 
ATOM     14  C   UNL A   1      31.719  27.141  24.467  1.00  0.00     0.048 C 
ATOM     15  C   UNL A   1      31.717  26.694  22.142  1.00  0.00    -0.014 C 
BRANCH  12  16
ATOM     16  N   UNL A   1      30.104  29.037  23.905  1.00  0.00    -0.379 N 
ATOM     17  H   UNL A   1      29.618  28.642  24.665  1.00  0.00     0.161 HD
BRANCH  16  18
ATOM     18  C   UNL A   1      29.401  30.047  23.274  1.00  0.00     0.040 A 
ATOM     19  C   UNL A   1      30.145  31.831  24.988  1.00  0.00     0.048 C 
ATOM     20  C   UNL A   1      29.336  31.348  23.817  1.00  0.00    -0.010 A 
ATOM     21  C   UNL A   1      28.528  32.307  23.184  1.00  0.00     0.116 A 
ATOM     22  N   UNL A   1      27.786  32.092  22.083  1.00  0.00    -0.264 NA
ATOM     23  C   UNL A   1      28.685  29.857  22.093  1.00  0.00     0.046 A 
ATOM     24  C   UNL A   1      27.894  30.865  21.554  1.00  0.00     0.113 A 
ENDBRANCH  16  18
ENDBRANCH  12  16
ENDBRANCH   9  11
ENDBRANCH   8   9
ENDBRANCH   7   8
ENDBRANCH   6   7
ENDBRANCH   5   6
ENDBRANCH   4   5
ENDBRANCH   3   4
ENDBRANCH   2   3
ENDBRANCH   1   2
BRANCH   1  25
ATOM     25  C   UNL A   1      36.589  22.053  24.455  1.00  0.00     0.188 C 
BRANCH  25  26
ATOM     26  O   UNL A   1      37.799  21.419  24.835  1.00  0.00    -0.376 OA
BRANCH  26  27
ATOM     27  C   UNL A   1      37.836  20.002  24.901  1.00  0.00     0.202 C 
BRANCH  27  28
ATOM     28  C   UNL A   1      39.094  19.330  25.478  1.00  0.00     0.261 C 
BRANCH  28  29
ATOM     29  O   UNL A   1      39.692  19.955  26.625  1.00  0.00    -0.460 OA
BRANCH  29  30
ATOM     30  C   UNL A   1      40.999  20.286  26.569  1.00  0.00     0.338 C 
ATOM     31  O   UNL A   1      41.902  19.623  26.084  1.00  0.00    -0.246 OA
BRANCH  30  32
ATOM     32  C   UNL A   1      41.129  21.692  27.007  1.00  0.00     0.060 A 
ATOM     33  C   UNL A   1      40.566  22.702  26.216  1.00  0.00     0.016 A 
ATOM     34  C   UNL A   1      41.796  22.013  28.191  1.00  0.00     0.016 A 
ATOM     35  C   UNL A   1      40.706  24.041  26.585  1.00  0.00     0.010 A 
ATOM     36  C   UNL A   1      41.954  23.355  28.549  1.00  0.00     0.010 A 
ATOM     37  C   UNL A   1      41.443  24.376  27.728  1.00  0.00    -0.014 A 
BRANCH  37  38
ATOM     38  C   UNL A   1      41.850  25.785  27.949  1.00  0.00     0.031 A 
ATOM     39  C   UNL A   1      43.226  26.208  27.512  1.00  0.00     0.074 A 
ATOM     40  C   UNL A   1      41.022  26.677  28.521  1.00  0.00     0.049 A 
ATOM     41  N   UNL A   1      43.818  27.367  27.635  1.00  0.00    -0.248 NA
ATOM     42  C   UNL A   1      44.046  25.181  26.846  1.00  0.00     0.031 C 
ATOM     43  C   UNL A   1      39.660  26.399  28.972  1.00  0.00     0.029 A 
ATOM     44  N   UNL A   1      41.221  27.998  28.841  1.00  0.00    -0.354 N 
ATOM     45  C   UNL A   1      45.089  27.202  27.097  1.00  0.00     0.074 A 
ATOM     46  C   UNL A   1      45.186  25.828  26.656  1.00  0.00     0.031 C 
ATOM     47  C   UNL A   1      39.155  27.509  29.541  1.00  0.00     0.029 A 
ATOM     48  C   UNL A   1      40.167  28.563  29.520  1.00  0.00     0.049 A 
ATOM     49  H   UNL A   1      42.040  28.491  28.608  1.00  0.00     0.167 HD
ATOM     50  C   UNL A   1      46.082  28.111  26.971  1.00  0.00     0.034 A 
ATOM     51  C   UNL A   1      40.048  29.783  30.085  1.00  0.00     0.034 A 
ATOM     52  C   UNL A   1      45.982  29.479  27.403  1.00  0.00     0.049 A 
ATOM     53  C   UNL A   1      41.186  30.766  29.971  1.00  0.00     0.074 A 
ATOM     54  C   UNL A   1      46.918  30.490  27.278  1.00  0.00     0.029 A 
ATOM     55  N   UNL A   1      44.892  30.022  28.064  1.00  0.00    -0.354 N 
ATOM     56  N   UNL A   1      42.339  30.630  29.362  1.00  0.00    -0.248 NA
ATOM     57  C   UNL A   1      40.992  32.083  30.597  1.00  0.00     0.031 C 
ATOM     58  C   UNL A   1      46.410  31.634  27.903  1.00  0.00     0.029 A 
ATOM     59  C   UNL A   1      45.140  31.349  28.373  1.00  0.00     0.049 A 
ATOM     60  H   UNL A   1      44.064  29.537  28.281  1.00  0.00     0.167 HD
ATOM     61  C   UNL A   1      42.990  31.853  29.498  1.00  0.00     0.074 A 
ATOM     62  C   UNL A   1      42.095  32.723  30.231  1.00  0.00     0.031 C 
ATOM     63  C   UNL A   1      44.223  32.220  29.064  1.00  0.00     0.034 A 
BRANCH  50  64
ATOM     64  C   UNL A   1      47.371  27.653  26.340  1.00  0.00     0.023 A 
ATOM     65  C   UNL A   1      48.394  27.103  27.142  1.00  0.00     0.012 A 
ATOM     66  C   UNL A   1      47.553  27.728  24.945  1.00  0.00     0.148 A 
ATOM     67  C   UNL A   1      49.590  26.674  26.569  1.00  0.00     0.002 A 
ATOM     68  C   UNL A   1      48.727  27.253  24.377  1.00  0.00     0.091 A 
ATOM     69  F   UNL A   1      46.579  28.275  24.203  1.00  0.00    -0.205 F 
ATOM     70  C   UNL A   1      49.753  26.738  25.187  1.00  0.00     0.022 A 
BRANCH  68  71
ATOM     71  S   UNL A   1      48.999  27.217  22.602  1.00  0.00     0.127 S 
ATOM     72  O   UNL A   1      48.287  28.419  22.171  1.00  0.00    -0.237 OA
ATOM     73  O   UNL A   1      50.457  27.307  22.514  1.00  0.00    -0.237 OA
ATOM     74  O   UNL A   1      48.437  25.959  22.134  1.00  0.00    -0.744 OA
ENDBRANCH  68  71
ENDBRANCH  50  64
BRANCH  51  75
ATOM     75  C   UNL A   1      38.794  30.153  30.802  1.00  0.00     0.023 A 
ATOM     76  C   UNL A   1      38.615  29.764  32.143  1.00  0.00     0.012 A 
ATOM     77  C   UNL A   1      37.781  30.891  30.160  1.00  0.00     0.148 A 
ATOM     78  C   UNL A   1      37.437  30.075  32.823  1.00  0.00     0.002 A 
ATOM     79  C   UNL A   1      36.635  31.248  30.861  1.00  0.00     0.091 A 
ATOM     80  F   UNL A   1      37.964  31.238  28.879  1.00  0.00    -0.205 F 
ATOM     81  C   UNL A   1      36.452  30.824  32.186  1.00  0.00     0.022 A 
BRANCH  79  82
ATOM     82  S   UNL A   1      35.370  32.316  30.164  1.00  0.00     0.127 S 
ATOM     83  O   UNL A   1      34.413  32.404  31.264  1.00  0.00    -0.237 OA
ATOM     84  O   UNL A   1      36.125  33.542  29.904  1.00  0.00    -0.237 OA
ATOM     85  O   UNL A   1      34.892  31.636  28.968  1.00  0.00    -0.744 OA
ENDBRANCH  79  82
ENDBRANCH  51  75
BRANCH  63  86
ATOM     86  C   UNL A   1      44.669  33.637  29.324  1.00  0.00     0.023 A 
ATOM     87  C   UNL A   1      45.239  33.984  30.565  1.00  0.00     0.012 A 
ATOM     88  C   UNL A   1      44.590  34.609  28.306  1.00  0.00     0.148 A 
ATOM     89  C   UNL A   1      45.689  35.284  30.800  1.00  0.00     0.002 A 
ATOM     90  C   UNL A   1      45.090  35.887  28.528  1.00  0.00     0.091 A 
ATOM     91  F   UNL A   1      44.032  34.265  27.136  1.00  0.00    -0.205 F 
ATOM     92  C   UNL A   1      45.626  36.230  29.779  1.00  0.00     0.022 A 
BRANCH  90  93
ATOM     93  S   UNL A   1      45.143  37.140  27.243  1.00  0.00     0.127 S 
ATOM     94  O   UNL A   1      43.727  37.277  26.903  1.00  0.00    -0.237 OA
ATOM     95  O   UNL A   1      45.711  38.287  27.953  1.00  0.00    -0.237 OA
ATOM     96  O   UNL A   1      45.988  36.601  26.186  1.00  0.00    -0.744 OA
ENDBRANCH  90  93
ENDBRANCH  63  86
ENDBRANCH  37  38
ENDBRANCH  30  32
ENDBRANCH  29  30
ENDBRANCH  28  29
ENDBRANCH  27  28
ENDBRANCH  26  27
ENDBRANCH  25  26
ENDBRANCH   1  25
TORSDOF 25
ENDMDL
MODEL 2
REMARK VINA RESULT:      -9.2      2.642      3.394
REMARK SMILES Cc1cnccc1N[C@@H]1C=C[C@@H](C(=O)OCCOCCOCCOCCOC(=O)c2ccc(-c3c4nc(c(-c5cccc(S(=O)(=O)[O-])c5F)c5ccc([nH]5)c(-c5cccc(S(=O)(=O)[O-])c5F)c5nc(c(-c6cccc(S(=O)(=O)[O-])c6F)c6ccc3[nH]6)C=C5)C=C4)cc2)C1
REMARK SMILES IDX 22 1 21 2 20 3 19 4 18 5 17 6 16 7 15 8 13 9 14 10 12 11
REMARK SMILES IDX 9 12 10 13 93 14 11 15 8 16 7 18 1 19 2 20 3 21 4 22 6 23
REMARK SMILES IDX 5 24 23 25 24 26 25 27 26 28 27 29 28 30 29 31 30 32 31 33
REMARK SMILES IDX 92 34 32 35 91 36 33 37 34 38 35 39 85 40 36 41 90 42 84 43
REMARK SMILES IDX 86 44 37 45 89 46 83 47 82 48 38 50 70 51 50 52 69 53 51 54
REMARK SMILES IDX 54 55 68 56 87 57 52 58 53 59 67 61 88 62 55 63 39 64 40 65
REMARK SMILES IDX 48 66 41 67 43 68 49 69 42 70 44 71 45 72 46 73 47 74 71 75
REMARK SMILES IDX 72 76 80 77 73 78 75 79 81 80 74 81 76 82 77 83 78 84 79 85
REMARK SMILES IDX 56 86 57 87 65 88 58 89 60 90 66 91 59 92 61 93 62 94 63 95
REMARK SMILES IDX 64 96
REMARK H PARENT 8 17 86 49 54 60
REMARK Flexibility Score: inf
ROOT
ATOM      1  C   UNL A   1      36.219  23.618  25.556  1.00  0.00     0.188 C 
ENDROOT
BRANCH   1   2
ATOM      2  O   UNL A   1      35.284  22.718  26.140  1.00  0.00    -0.377 OA
BRANCH   2   3
ATOM      3  C   UNL A   1      35.531  21.332  26.063  1.00  0.00     0.188 C 
BRANCH   3   4
ATOM      4  C   UNL A   1      34.919  20.612  24.854  1.00  0.00     0.188 C 
BRANCH   4   5
ATOM      5  O   UNL A   1      33.645  20.001  24.948  1.00  0.00    -0.376 OA
BRANCH   5   6
ATOM      6  C   UNL A   1      32.450  20.767  24.822  1.00  0.00     0.202 C 
BRANCH   6   7
ATOM      7  C   UNL A   1      31.939  21.726  25.911  1.00  0.00     0.261 C 
BRANCH   7   8
ATOM      8  O   UNL A   1      30.641  22.288  25.670  1.00  0.00    -0.463 OA
BRANCH   8   9
ATOM      9  C   UNL A   1      30.343  23.413  26.358  1.00  0.00     0.312 C 
ATOM     10  O   UNL A   1      29.869  23.417  27.493  1.00  0.00    -0.252 OA
BRANCH   9  11
ATOM     11  C   UNL A   1      30.885  24.682  25.706  1.00  0.00     0.124 C 
ATOM     12  C   UNL A   1      32.757  25.749  24.529  1.00  0.00     0.103 C 
ATOM     13  C   UNL A   1      31.785  25.160  23.574  1.00  0.00    -0.006 C 
ATOM     14  C   UNL A   1      32.338  25.155  25.881  1.00  0.00     0.048 C 
ATOM     15  C   UNL A   1      30.773  24.556  24.208  1.00  0.00    -0.014 C 
BRANCH  12  16
ATOM     16  N   UNL A   1      32.793  27.215  24.441  1.00  0.00    -0.379 N 
ATOM     17  H   UNL A   1      32.790  27.547  23.514  1.00  0.00     0.161 HD
BRANCH  16  18
ATOM     18  C   UNL A   1      32.830  28.227  25.382  1.00  0.00     0.040 A 
ATOM     19  C   UNL A   1      30.843  29.487  24.316  1.00  0.00     0.048 C 
ATOM     20  C   UNL A   1      31.979  29.349  25.290  1.00  0.00    -0.010 A 
ATOM     21  C   UNL A   1      32.128  30.391  26.220  1.00  0.00     0.116 A 
ATOM     22  N   UNL A   1      33.036  30.422  27.213  1.00  0.00    -0.264 NA
ATOM     23  C   UNL A   1      33.717  28.238  26.459  1.00  0.00     0.046 A 
ATOM     24  C   UNL A   1      33.805  29.329  27.314  1.00  0.00     0.113 A 
ENDBRANCH  16  18
ENDBRANCH  12  16
ENDBRANCH   9  11
ENDBRANCH   8   9
ENDBRANCH   7   8
ENDBRANCH   6   7
ENDBRANCH   5   6
ENDBRANCH   4   5
ENDBRANCH   3   4
ENDBRANCH   2   3
ENDBRANCH   1   2
BRANCH   1  25
ATOM     25  C   UNL A   1      37.628  23.125  25.160  1.00  0.00     0.188 C 
BRANCH  25  26
ATOM     26  O   UNL A   1      38.644  23.381  26.116  1.00  0.00    -0.376 OA
BRANCH  26  27
ATOM     27  C   UNL A   1      39.265  22.280  26.762  1.00  0.00     0.202 C 
BRANCH  27  28
ATOM     28  C   UNL A   1      39.600  21.034  25.925  1.00  0.00     0.261 C 
BRANCH  28  29
ATOM     29  O   UNL A   1      40.527  20.099  26.500  1.00  0.00    -0.460 OA
BRANCH  29  30
ATOM     30  C   UNL A   1      41.787  20.067  26.021  1.00  0.00     0.338 C 
ATOM     31  O   UNL A   1      42.288  19.191  25.334  1.00  0.00    -0.246 OA
BRANCH  30  32
ATOM     32  C   UNL A   1      42.408  21.382  26.292  1.00  0.00     0.060 A 
ATOM     33  C   UNL A   1      42.595  21.779  27.623  1.00  0.00     0.016 A 
ATOM     34  C   UNL A   1      42.805  22.215  25.244  1.00  0.00     0.016 A 
ATOM     35  C   UNL A   1      43.143  23.030  27.909  1.00  0.00     0.010 A 
ATOM     36  C   UNL A   1      43.334  23.476  25.532  1.00  0.00     0.010 A 
ATOM     37  C   UNL A   1      43.469  23.905  26.865  1.00  0.00    -0.014 A 
BRANCH  37  38
ATOM     38  C   UNL A   1      43.756  25.329  27.165  1.00  0.00     0.031 A 
ATOM     39  C   UNL A   1      45.175  25.813  27.040  1.00  0.00     0.074 A 
ATOM     40  C   UNL A   1      42.784  26.181  27.536  1.00  0.00     0.049 A 
ATOM     41  N   UNL A   1      45.675  26.996  27.285  1.00  0.00    -0.248 NA
ATOM     42  C   UNL A   1      46.165  24.826  26.576  1.00  0.00     0.031 C 
ATOM     43  C   UNL A   1      41.370  25.843  27.676  1.00  0.00     0.029 A 
ATOM     44  N   UNL A   1      42.851  27.508  27.886  1.00  0.00    -0.354 N 
ATOM     45  C   UNL A   1      47.039  26.888  27.042  1.00  0.00     0.074 A 
ATOM     46  C   UNL A   1      47.291  25.522  26.639  1.00  0.00     0.031 C 
ATOM     47  C   UNL A   1      40.705  26.927  28.115  1.00  0.00     0.029 A 
ATOM     48  C   UNL A   1      41.650  28.024  28.313  1.00  0.00     0.049 A 
ATOM     49  H   UNL A   1      43.679  28.037  27.837  1.00  0.00     0.167 HD
ATOM     50  C   UNL A   1      47.995  27.841  27.134  1.00  0.00     0.034 A 
ATOM     51  C   UNL A   1      41.357  29.234  28.832  1.00  0.00     0.034 A 
ATOM     52  C   UNL A   1      47.744  29.200  27.527  1.00  0.00     0.049 A 
ATOM     53  C   UNL A   1      42.448  30.267  28.967  1.00  0.00     0.074 A 
ATOM     54  C   UNL A   1      48.639  30.252  27.607  1.00  0.00     0.029 A 
ATOM     55  N   UNL A   1      46.512  29.693  27.928  1.00  0.00    -0.354 N 
ATOM     56  N   UNL A   1      43.712  30.184  28.628  1.00  0.00    -0.248 NA
ATOM     57  C   UNL A   1      42.064  31.571  29.529  1.00  0.00     0.031 C 
ATOM     58  C   UNL A   1      47.958  31.369  28.099  1.00  0.00     0.029 A 
ATOM     59  C   UNL A   1      46.628  31.027  28.279  1.00  0.00     0.049 A 
ATOM     60  H   UNL A   1      45.678  29.171  27.960  1.00  0.00     0.167 HD
ATOM     61  C   UNL A   1      44.264  31.433  28.899  1.00  0.00     0.074 A 
ATOM     62  C   UNL A   1      43.192  32.260  29.413  1.00  0.00     0.031 C 
ATOM     63  C   UNL A   1      45.545  31.854  28.746  1.00  0.00     0.034 A 
BRANCH  50  64
ATOM     64  C   UNL A   1      49.410  27.441  26.805  1.00  0.00     0.023 A 
ATOM     65  C   UNL A   1      49.783  27.205  25.465  1.00  0.00     0.012 A 
ATOM     66  C   UNL A   1      50.382  27.340  27.820  1.00  0.00     0.148 A 
ATOM     67  C   UNL A   1      51.090  26.836  25.147  1.00  0.00     0.002 A 
ATOM     68  C   UNL A   1      51.692  27.021  27.490  1.00  0.00     0.091 A 
ATOM     69  F   UNL A   1      50.002  27.546  29.089  1.00  0.00    -0.205 F 
ATOM     70  C   UNL A   1      52.046  26.755  26.157  1.00  0.00     0.022 A 
BRANCH  68  71
ATOM     71  S   UNL A   1      53.013  26.972  28.706  1.00  0.00     0.127 S 
ATOM     72  O   UNL A   1      53.156  28.387  29.043  1.00  0.00    -0.237 OA
ATOM     73  O   UNL A   1      52.424  26.149  29.763  1.00  0.00    -0.237 OA
ATOM     74  O   UNL A   1      54.157  26.373  28.034  1.00  0.00    -0.744 OA
ENDBRANCH  68  71
ENDBRANCH  50  64
BRANCH  51  75
ATOM     75  C   UNL A   1      39.961  29.547  29.253  1.00  0.00     0.023 A 
ATOM     76  C   UNL A   1      39.014  29.952  28.292  1.00  0.00     0.012 A 
ATOM     77  C   UNL A   1      39.567  29.441  30.601  1.00  0.00     0.148 A 
ATOM     78  C   UNL A   1      37.711  30.277  28.669  1.00  0.00     0.002 A 
ATOM     79  C   UNL A   1      38.252  29.710  30.962  1.00  0.00     0.091 A 
ATOM     80  F   UNL A   1      40.486  29.069  31.502  1.00  0.00    -0.205 F 
ATOM     81  C   UNL A   1      37.328  30.147  30.001  1.00  0.00     0.022 A 
BRANCH  79  82
ATOM     82  S   UNL A   1      37.636  29.450  32.629  1.00  0.00     0.127 S 
ATOM     83  O   UNL A   1      38.528  30.299  33.414  1.00  0.00    -0.237 OA
ATOM     84  O   UNL A   1      36.260  29.936  32.517  1.00  0.00    -0.237 OA
ATOM     85  O   UNL A   1      37.751  28.019  32.875  1.00  0.00    -0.744 OA
ENDBRANCH  79  82
ENDBRANCH  51  75
BRANCH  63  86
ATOM     86  C   UNL A   1      45.860  33.288  29.092  1.00  0.00     0.023 A 
ATOM     87  C   UNL A   1      46.296  33.625  30.389  1.00  0.00     0.012 A 
ATOM     88  C   UNL A   1      45.798  34.292  28.104  1.00  0.00     0.148 A 
ATOM     89  C   UNL A   1      46.626  34.943  30.707  1.00  0.00     0.002 A 
ATOM     90  C   UNL A   1      46.180  35.592  28.412  1.00  0.00     0.091 A 
ATOM     91  F   UNL A   1      45.369  33.956  26.878  1.00  0.00    -0.205 F 
ATOM     92  C   UNL A   1      46.581  35.922  29.716  1.00  0.00     0.022 A 
BRANCH  90  93
ATOM     93  S   UNL A   1      46.250  36.896  27.179  1.00  0.00     0.127 S 
ATOM     94  O   UNL A   1      44.833  37.200  26.987  1.00  0.00    -0.237 OA
ATOM     95  O   UNL A   1      47.007  37.938  27.874  1.00  0.00    -0.237 OA
ATOM     96  O   UNL A   1      46.926  36.324  26.023  1.00  0.00    -0.744 OA
ENDBRANCH  90  93
ENDBRANCH  63  86
ENDBRANCH  37  38
ENDBRANCH  30  32
ENDBRANCH  29  30
ENDBRANCH  28  29
ENDBRANCH  27  28
ENDBRANCH  26  27
ENDBRANCH  25  26
ENDBRANCH   1  25
TORSDOF 25
ENDMDL
MODEL 3
REMARK VINA RESULT:      -9.0      6.355     11.558
REMARK SMILES Cc1cnccc1N[C@@H]1C=C[C@@H](C(=O)OCCOCCOCCOCCOC(=O)c2ccc(-c3c4nc(c(-c5cccc(S(=O)(=O)[O-])c5F)c5ccc([nH]5)c(-c5cccc(S(=O)(=O)[O-])c5F)c5nc(c(-c6cccc(S(=O)(=O)[O-])c6F)c6ccc3[nH]6)C=C5)C=C4)cc2)C1
REMARK SMILES IDX 22 1 21 2 20 3 19 4 18 5 17 6 16 7 15 8 13 9 14 10 12 11
REMARK SMILES IDX 9 12 10 13 93 14 11 15 8 16 7 18 1 19 2 20 3 21 4 22 6 23
REMARK SMILES IDX 5 24 23 25 24 26 25 27 26 28 27 29 28 30 29 31 30 32 31 33
REMARK SMILES IDX 92 34 32 35 91 36 33 37 34 38 35 39 85 40 36 41 90 42 84 43
REMARK SMILES IDX 86 44 37 45 89 46 83 47 82 48 38 50 70 51 50 52 69 53 51 54
REMARK SMILES IDX 54 55 68 56 87 57 52 58 53 59 67 61 88 62 55 63 39 64 40 65
REMARK SMILES IDX 48 66 41 67 43 68 49 69 42 70 44 71 45 72 46 73 47 74 71 75
REMARK SMILES IDX 72 76 80 77 73 78 75 79 81 80 74 81 76 82 77 83 78 84 79 85
REMARK SMILES IDX 56 86 57 87 65 88 58 89 60 90 66 91 59 92 61 93 62 94 63 95
REMARK SMILES IDX 64 96
REMARK H PARENT 8 17 86 49 54 60
REMARK Flexibility Score: inf
ROOT
ATOM      1  C   UNL A   1      34.097  32.785  28.054  1.00  0.00     0.188 C 
ENDROOT
BRANCH   1   2
ATOM      2  O   UNL A   1      34.602  31.456  28.000  1.00  0.00    -0.377 OA
BRANCH   2   3
ATOM      3  C   UNL A   1      33.740  30.413  27.603  1.00  0.00     0.188 C 
BRANCH   3   4
ATOM      4  C   UNL A   1      34.341  29.382  26.639  1.00  0.00     0.188 C 
BRANCH   4   5
ATOM      5  O   UNL A   1      33.508  28.631  25.774  1.00  0.00    -0.376 OA
BRANCH   5   6
ATOM      6  C   UNL A   1      32.127  28.948  25.623  1.00  0.00     0.202 C 
BRANCH   6   7
ATOM      7  C   UNL A   1      31.401  28.948  24.266  1.00  0.00     0.261 C 
BRANCH   7   8
ATOM      8  O   UNL A   1      30.505  27.849  24.054  1.00  0.00    -0.463 OA
BRANCH   8   9
ATOM      9  C   UNL A   1      30.818  27.014  23.037  1.00  0.00     0.312 C 
ATOM     10  O   UNL A   1      30.771  27.332  21.851  1.00  0.00    -0.252 OA
BRANCH   9  11
ATOM     11  C   UNL A   1      31.484  25.720  23.500  1.00  0.00     0.124 C 
ATOM     12  C   UNL A   1      31.664  24.017  25.260  1.00  0.00     0.103 C 
ATOM     13  C   UNL A   1      30.651  23.638  24.243  1.00  0.00    -0.006 C 
ATOM     14  C   UNL A   1      31.950  25.493  24.948  1.00  0.00     0.048 C 
ATOM     15  C   UNL A   1      30.530  24.572  23.292  1.00  0.00    -0.014 C 
BRANCH  12  16
ATOM     16  N   UNL A   1      32.819  23.111  25.248  1.00  0.00    -0.379 N 
ATOM     17  H   UNL A   1      32.576  22.172  25.420  1.00  0.00     0.161 HD
BRANCH  16  18
ATOM     18  C   UNL A   1      34.175  23.294  25.049  1.00  0.00     0.040 A 
ATOM     19  C   UNL A   1      33.960  23.168  22.478  1.00  0.00     0.048 C 
ATOM     20  C   UNL A   1      34.744  23.236  23.758  1.00  0.00    -0.010 A 
ATOM     21  C   UNL A   1      36.138  23.333  23.627  1.00  0.00     0.116 A 
ATOM     22  N   UNL A   1      37.006  23.473  24.646  1.00  0.00    -0.264 NA
ATOM     23  C   UNL A   1      35.078  23.512  26.089  1.00  0.00     0.046 A 
ATOM     24  C   UNL A   1      36.447  23.572  25.860  1.00  0.00     0.113 A 
ENDBRANCH  16  18
ENDBRANCH  12  16
ENDBRANCH   9  11
ENDBRANCH   8   9
ENDBRANCH   7   8
ENDBRANCH   6   7
ENDBRANCH   5   6
ENDBRANCH   4   5
ENDBRANCH   3   4
ENDBRANCH   2   3
ENDBRANCH   1   2
BRANCH   1  25
ATOM     25  C   UNL A   1      35.061  33.987  27.946  1.00  0.00     0.188 C 
BRANCH  25  26
ATOM     26  O   UNL A   1      34.751  35.082  28.792  1.00  0.00    -0.376 OA
BRANCH  26  27
ATOM     27  C   UNL A   1      33.387  35.402  29.024  1.00  0.00     0.202 C 
BRANCH  27  28
ATOM     28  C   UNL A   1      33.060  36.580  29.958  1.00  0.00     0.261 C 
BRANCH  28  29
ATOM     29  O   UNL A   1      33.553  36.492  31.305  1.00  0.00    -0.460 OA
BRANCH  29  30
ATOM     30  C   UNL A   1      33.117  35.481  32.084  1.00  0.00     0.338 C 
ATOM     31  O   UNL A   1      31.969  35.075  32.183  1.00  0.00    -0.246 OA
BRANCH  30  32
ATOM     32  C   UNL A   1      34.302  34.800  32.647  1.00  0.00     0.060 A 
ATOM     33  C   UNL A   1      35.577  35.289  32.331  1.00  0.00     0.016 A 
ATOM     34  C   UNL A   1      34.160  33.691  33.483  1.00  0.00     0.016 A 
ATOM     35  C   UNL A   1      36.715  34.645  32.817  1.00  0.00     0.010 A 
ATOM     36  C   UNL A   1      35.301  33.033  33.952  1.00  0.00     0.010 A 
ATOM     37  C   UNL A   1      36.583  33.484  33.589  1.00  0.00    -0.014 A 
BRANCH  37  38
ATOM     38  C   UNL A   1      37.772  32.634  33.844  1.00  0.00     0.031 A 
ATOM     39  C   UNL A   1      38.629  32.945  35.040  1.00  0.00     0.074 A 
ATOM     40  C   UNL A   1      38.088  31.604  33.039  1.00  0.00     0.049 A 
ATOM     41  N   UNL A   1      39.733  32.373  35.443  1.00  0.00    -0.248 NA
ATOM     42  C   UNL A   1      38.180  34.056  35.897  1.00  0.00     0.031 C 
ATOM     43  C   UNL A   1      37.331  31.187  31.860  1.00  0.00     0.029 A 
ATOM     44  N   UNL A   1      39.151  30.735  33.083  1.00  0.00    -0.354 N 
ATOM     45  C   UNL A   1      40.130  33.073  36.577  1.00  0.00     0.074 A 
ATOM     46  C   UNL A   1      39.154  34.119  36.792  1.00  0.00     0.031 C 
ATOM     47  C   UNL A   1      37.971  30.161  31.273  1.00  0.00     0.029 A 
ATOM     48  C   UNL A   1      39.195  29.868  32.016  1.00  0.00     0.049 A 
ATOM     49  H   UNL A   1      39.816  30.733  33.808  1.00  0.00     0.167 HD
ATOM     50  C   UNL A   1      41.203  32.861  37.374  1.00  0.00     0.034 A 
ATOM     51  C   UNL A   1      40.134  28.963  31.667  1.00  0.00     0.034 A 
ATOM     52  C   UNL A   1      42.168  31.817  37.164  1.00  0.00     0.049 A 
ATOM     53  C   UNL A   1      41.344  28.774  32.547  1.00  0.00     0.074 A 
ATOM     54  C   UNL A   1      43.264  31.491  37.943  1.00  0.00     0.029 A 
ATOM     55  N   UNL A   1      42.168  30.943  36.088  1.00  0.00    -0.354 N 
ATOM     56  N   UNL A   1      41.648  29.369  33.675  1.00  0.00    -0.248 NA
ATOM     57  C   UNL A   1      42.326  27.766  32.119  1.00  0.00     0.031 C 
ATOM     58  C   UNL A   1      43.952  30.449  37.313  1.00  0.00     0.029 A 
ATOM     59  C   UNL A   1      43.257  30.093  36.170  1.00  0.00     0.049 A 
ATOM     60  H   UNL A   1      41.493  30.929  35.372  1.00  0.00     0.167 HD
ATOM     61  C   UNL A   1      42.832  28.781  34.111  1.00  0.00     0.074 A 
ATOM     62  C   UNL A   1      43.180  27.771  33.134  1.00  0.00     0.031 C 
ATOM     63  C   UNL A   1      43.571  29.060  35.215  1.00  0.00     0.034 A 
BRANCH  50  64
ATOM     64  C   UNL A   1      41.389  33.783  38.551  1.00  0.00     0.023 A 
ATOM     65  C   UNL A   1      40.795  33.473  39.792  1.00  0.00     0.012 A 
ATOM     66  C   UNL A   1      42.190  34.937  38.438  1.00  0.00     0.148 A 
ATOM     67  C   UNL A   1      40.961  34.317  40.889  1.00  0.00     0.002 A 
ATOM     68  C   UNL A   1      42.391  35.746  39.548  1.00  0.00     0.091 A 
ATOM     69  F   UNL A   1      42.727  35.226  37.244  1.00  0.00    -0.205 F 
ATOM     70  C   UNL A   1      41.768  35.446  40.770  1.00  0.00     0.022 A 
BRANCH  68  71
ATOM     71  S   UNL A   1      43.477  37.177  39.519  1.00  0.00     0.127 S 
ATOM     72  O   UNL A   1      44.781  36.552  39.302  1.00  0.00    -0.237 OA
ATOM     73  O   UNL A   1      42.962  37.928  38.373  1.00  0.00    -0.237 OA
ATOM     74  O   UNL A   1      43.309  37.836  40.806  1.00  0.00    -0.744 OA
ENDBRANCH  68  71
ENDBRANCH  50  64
BRANCH  51  75
ATOM     75  C   UNL A   1      39.962  28.152  30.428  1.00  0.00     0.023 A 
ATOM     76  C   UNL A   1      39.051  27.079  30.415  1.00  0.00     0.012 A 
ATOM     77  C   UNL A   1      40.697  28.442  29.262  1.00  0.00     0.148 A 
ATOM     78  C   UNL A   1      38.897  26.290  29.275  1.00  0.00     0.002 A 
ATOM     79  C   UNL A   1      40.497  27.688  28.112  1.00  0.00     0.091 A 
ATOM     80  F   UNL A   1      41.571  29.457  29.299  1.00  0.00    -0.205 F 
ATOM     81  C   UNL A   1      39.612  26.599  28.122  1.00  0.00     0.022 A 
BRANCH  79  82
ATOM     82  S   UNL A   1      41.279  28.090  26.545  1.00  0.00     0.127 S 
ATOM     83  O   UNL A   1      40.535  29.278  26.135  1.00  0.00    -0.237 OA
ATOM     84  O   UNL A   1      42.661  28.338  26.956  1.00  0.00    -0.237 OA
ATOM     85  O   UNL A   1      41.102  26.916  25.702  1.00  0.00    -0.744 OA
ENDBRANCH  79  82
ENDBRANCH  51  75
BRANCH  63  86
ATOM     86  C   UNL A   1      44.808  28.234  35.461  1.00  0.00     0.023 A 
ATOM     87  C   UNL A   1      46.061  28.677  34.992  1.00  0.00     0.012 A 
ATOM     88  C   UNL A   1      44.739  27.053  36.228  1.00  0.00     0.148 A 
ATOM     89  C   UNL A   1      47.217  27.938  35.248  1.00  0.00     0.002 A 
ATOM     90  C   UNL A   1      45.900  26.351  36.526  1.00  0.00     0.091 A 
ATOM     91  F   UNL A   1      43.536  26.639  36.656  1.00  0.00    -0.205 F 
ATOM     92  C   UNL A   1      47.138  26.784  36.025  1.00  0.00     0.022 A 
BRANCH  90  93
ATOM     93  S   UNL A   1      45.910  24.912  37.601  1.00  0.00     0.127 S 
ATOM     94  O   UNL A   1      47.333  24.575  37.632  1.00  0.00    -0.237 OA
ATOM     95  O   UNL A   1      45.386  25.457  38.853  1.00  0.00    -0.237 OA
ATOM     96  O   UNL A   1      45.051  23.924  36.962  1.00  0.00    -0.744 OA
ENDBRANCH  90  93
ENDBRANCH  63  86
ENDBRANCH  37  38
ENDBRANCH  30  32
ENDBRANCH  29  30
ENDBRANCH  28  29
ENDBRANCH  27  28
ENDBRANCH  26  27
ENDBRANCH  25  26
ENDBRANCH   1  25
TORSDOF 25
ENDMDL
