MODEL 1
REMARK VINA RESULT:      -6.7      0.000      0.000
REMARK SMILES O=C(/C=C/c1cc(C(=O)Nc2ccc(F)cc2Cl)cs1)OCCOCCOCCOCCOC(=O)c1ccc(-c2c3nc(c(-c4cccc(S(=O)(=O)[O-])c4F)c4ccc([nH]4)c(-c4cccc(S(=O)(=O)[O-])c4F)c4nc(c(-c5cccc(S(=O)(=O)[O-])c5F)c5ccc2[nH]5)C=C4)C=C3)cc1
REMARK SMILES IDX 27 1 26 2 25 3 24 4 23 5 22 6 21 7 2 8 1 9 3 10 4 11 5 12
REMARK SMILES IDX 6 13 20 14 7 15 19 16 8 17 9 18 10 19 11 21 12 22 17 23
REMARK SMILES IDX 13 24 16 25 18 26 14 27 15 28 28 29 29 30 30 31 31 32 32 33
REMARK SMILES IDX 33 34 34 35 35 36 36 37 37 38 98 39 38 40 97 41 39 42 40 43
REMARK SMILES IDX 41 44 91 45 42 46 96 47 90 48 92 49 43 50 95 51 89 52 88 53
REMARK SMILES IDX 44 55 76 56 56 57 75 58 57 59 60 60 74 61 93 62 58 63 59 64
REMARK SMILES IDX 73 66 94 67 61 68 45 69 46 70 54 71 47 72 49 73 55 74 48 75
REMARK SMILES IDX 50 76 51 77 52 78 53 79 77 80 78 81 86 82 79 83 81 84 87 85
REMARK SMILES IDX 80 86 82 87 83 88 84 89 85 90 62 91 63 92 71 93 64 94 66 95
REMARK SMILES IDX 72 96 65 97 67 98 68 99 69 100 70 101
REMARK H PARENT 10 20 92 54 60 65
REMARK Flexibility Score: inf
ROOT
ATOM      1  O   UNL A   1      36.766  33.889  32.660  1.00  0.00    -0.377 OA
ENDROOT
BRANCH   1   2
ATOM      2  C   UNL A   1      36.392  34.328  33.953  1.00  0.00     0.188 C 
BRANCH   2   3
ATOM      3  C   UNL A   1      37.085  33.603  35.098  1.00  0.00     0.188 C 
BRANCH   3   4
ATOM      4  O   UNL A   1      38.362  33.008  34.930  1.00  0.00    -0.376 OA
BRANCH   4   5
ATOM      5  C   UNL A   1      38.645  31.689  34.504  1.00  0.00     0.202 C 
BRANCH   5   6
ATOM      6  C   UNL A   1      38.508  30.467  35.406  1.00  0.00     0.261 C 
BRANCH   6   7
ATOM      7  O   UNL A   1      39.611  30.116  36.244  1.00  0.00    -0.460 OA
BRANCH   7   8
ATOM      8  C   UNL A   1      40.901  30.051  35.861  1.00  0.00     0.330 C 
ATOM      9  O   UNL A   1      41.577  31.067  35.741  1.00  0.00    -0.247 OA
BRANCH   8  10
ATOM     10  C   UNL A   1      41.397  28.805  35.260  1.00  0.00     0.095 C 
ATOM     11  C   UNL A   1      41.940  27.750  35.879  1.00  0.00     0.026 C 
BRANCH  11  12
ATOM     12  C   UNL A   1      42.304  26.583  35.154  1.00  0.00     0.028 A 
ATOM     13  C   UNL A   1      42.818  26.454  33.877  1.00  0.00     0.033 A 
ATOM     14  S   UNL A   1      42.158  25.010  35.837  1.00  0.00    -0.144 S 
ATOM     15  C   UNL A   1      43.762  25.379  33.880  1.00  0.00     0.051 A 
ATOM     16  C   UNL A   1      43.281  24.377  34.702  1.00  0.00     0.079 A 
BRANCH  15  17
ATOM     17  C   UNL A   1      44.994  25.288  33.104  1.00  0.00     0.256 C 
ATOM     18  O   UNL A   1      44.981  25.135  31.883  1.00  0.00    -0.269 OA
ATOM     19  N   UNL A   1      46.211  25.417  33.756  1.00  0.00    -0.321 N 
ATOM     20  H   UNL A   1      46.986  25.531  33.159  1.00  0.00     0.170 HD
BRANCH  19  21
ATOM     21  C   UNL A   1      46.523  25.413  35.136  1.00  0.00     0.060 A 
ATOM     22  C   UNL A   1      46.569  26.587  35.903  1.00  0.00     0.031 A 
ATOM     23  C   UNL A   1      46.850  24.189  35.751  1.00  0.00     0.067 A 
ATOM     24  C   UNL A   1      47.030  26.546  37.226  1.00  0.00     0.041 A 
ATOM     25  C   UNL A   1      47.345  24.157  37.054  1.00  0.00     0.062 A 
ATOM     26  Cl  UNL A   1      46.764  22.702  34.874  1.00  0.00    -0.082 Cl
ATOM     27  C   UNL A   1      47.440  25.337  37.775  1.00  0.00     0.124 A 
ATOM     28  F   UNL A   1      47.942  25.308  39.015  1.00  0.00    -0.207 F 
ENDBRANCH  19  21
ENDBRANCH  15  17
ENDBRANCH  11  12
ENDBRANCH   8  10
ENDBRANCH   7   8
ENDBRANCH   6   7
ENDBRANCH   5   6
ENDBRANCH   4   5
ENDBRANCH   3   4
ENDBRANCH   2   3
ENDBRANCH   1   2
BRANCH   1  29
ATOM     29  C   UNL A   1      36.035  34.514  31.624  1.00  0.00     0.188 C 
BRANCH  29  30
ATOM     30  C   UNL A   1      34.853  33.681  31.074  1.00  0.00     0.188 C 
BRANCH  30  31
ATOM     31  O   UNL A   1      34.457  33.767  29.715  1.00  0.00    -0.376 OA
BRANCH  31  32
ATOM     32  C   UNL A   1      34.491  32.621  28.885  1.00  0.00     0.202 C 
BRANCH  32  33
ATOM     33  C   UNL A   1      35.784  31.809  28.652  1.00  0.00     0.261 C 
BRANCH  33  34
ATOM     34  O   UNL A   1      35.858  30.494  29.219  1.00  0.00    -0.460 OA
BRANCH  34  35
ATOM     35  C   UNL A   1      36.360  30.394  30.475  1.00  0.00     0.338 C 
ATOM     36  O   UNL A   1      35.731  30.440  31.520  1.00  0.00    -0.246 OA
BRANCH  35  37
ATOM     37  C   UNL A   1      37.782  29.972  30.381  1.00  0.00     0.060 A 
ATOM     38  C   UNL A   1      38.186  28.825  31.083  1.00  0.00     0.016 A 
ATOM     39  C   UNL A   1      38.688  30.636  29.550  1.00  0.00     0.016 A 
ATOM     40  C   UNL A   1      39.489  28.340  30.959  1.00  0.00     0.010 A 
ATOM     41  C   UNL A   1      40.007  30.176  29.462  1.00  0.00     0.010 A 
ATOM     42  C   UNL A   1      40.419  29.040  30.184  1.00  0.00    -0.014 A 
BRANCH  42  43
ATOM     43  C   UNL A   1      41.862  28.716  30.305  1.00  0.00     0.031 A 
ATOM     44  C   UNL A   1      42.426  27.665  29.388  1.00  0.00     0.074 A 
ATOM     45  C   UNL A   1      42.658  29.328  31.202  1.00  0.00     0.049 A 
ATOM     46  N   UNL A   1      43.632  27.168  29.338  1.00  0.00    -0.248 NA
ATOM     47  C   UNL A   1      41.499  27.099  28.391  1.00  0.00     0.031 C 
ATOM     48  C   UNL A   1      42.240  30.375  32.133  1.00  0.00     0.029 A 
ATOM     49  N   UNL A   1      43.985  29.128  31.494  1.00  0.00    -0.354 N 
ATOM     50  C   UNL A   1      43.602  26.207  28.334  1.00  0.00     0.074 A 
ATOM     51  C   UNL A   1      42.260  26.192  27.797  1.00  0.00     0.031 C 
ATOM     52  C   UNL A   1      43.282  30.696  32.921  1.00  0.00     0.029 A 
ATOM     53  C   UNL A   1      44.429  29.858  32.571  1.00  0.00     0.049 A 
ATOM     54  H   UNL A   1      44.565  28.520  30.979  1.00  0.00     0.167 HD
ATOM     55  C   UNL A   1      44.604  25.412  27.893  1.00  0.00     0.034 A 
ATOM     56  C   UNL A   1      45.612  29.825  33.221  1.00  0.00     0.034 A 
ATOM     57  C   UNL A   1      45.942  25.434  28.416  1.00  0.00     0.049 A 
ATOM     58  C   UNL A   1      46.699  28.897  32.733  1.00  0.00     0.074 A 
ATOM     59  C   UNL A   1      47.037  24.701  27.998  1.00  0.00     0.029 A 
ATOM     60  N   UNL A   1      46.361  26.211  29.482  1.00  0.00    -0.354 N 
ATOM     61  N   UNL A   1      46.694  28.085  31.703  1.00  0.00    -0.248 NA
ATOM     62  C   UNL A   1      47.965  28.900  33.483  1.00  0.00     0.031 C 
ATOM     63  C   UNL A   1      48.112  25.005  28.838  1.00  0.00     0.029 A 
ATOM     64  C   UNL A   1      47.695  25.959  29.753  1.00  0.00     0.049 A 
ATOM     65  H   UNL A   1      45.795  26.847  29.976  1.00  0.00     0.167 HD
ATOM     66  C   UNL A   1      47.961  27.511  31.662  1.00  0.00     0.074 A 
ATOM     67  C   UNL A   1      48.716  28.088  32.753  1.00  0.00     0.031 C 
ATOM     68  C   UNL A   1      48.452  26.579  30.808  1.00  0.00     0.034 A 
BRANCH  55  69
ATOM     69  C   UNL A   1      44.297  24.448  26.780  1.00  0.00     0.023 A 
ATOM     70  C   UNL A   1      44.867  24.642  25.506  1.00  0.00     0.012 A 
ATOM     71  C   UNL A   1      43.509  23.306  27.022  1.00  0.00     0.148 A 
ATOM     72  C   UNL A   1      44.641  23.722  24.483  1.00  0.00     0.002 A 
ATOM     73  C   UNL A   1      43.326  22.372  26.011  1.00  0.00     0.091 A 
ATOM     74  F   UNL A   1      42.958  23.157  28.234  1.00  0.00    -0.205 F 
ATOM     75  C   UNL A   1      43.883  22.583  24.739  1.00  0.00     0.022 A 
BRANCH  73  76
ATOM     76  S   UNL A   1      42.436  20.833  26.264  1.00  0.00     0.127 S 
ATOM     77  O   UNL A   1      41.064  21.232  25.955  1.00  0.00    -0.237 OA
ATOM     78  O   UNL A   1      43.056  19.956  25.269  1.00  0.00    -0.237 OA
ATOM     79  O   UNL A   1      42.673  20.449  27.648  1.00  0.00    -0.744 OA
ENDBRANCH  73  76
ENDBRANCH  55  69
BRANCH  56  80
ATOM     80  C   UNL A   1      45.847  30.692  34.413  1.00  0.00     0.023 A 
ATOM     81  C   UNL A   1      46.490  31.937  34.259  1.00  0.00     0.012 A 
ATOM     82  C   UNL A   1      45.463  30.275  35.702  1.00  0.00     0.148 A 
ATOM     83  C   UNL A   1      46.784  32.729  35.370  1.00  0.00     0.002 A 
ATOM     84  C   UNL A   1      45.705  31.097  36.797  1.00  0.00     0.091 A 
ATOM     85  F   UNL A   1      44.872  29.079  35.834  1.00  0.00    -0.205 F 
ATOM     86  C   UNL A   1      46.385  32.314  36.637  1.00  0.00     0.022 A 
BRANCH  84  87
ATOM     87  S   UNL A   1      45.107  30.702  38.444  1.00  0.00     0.127 S 
ATOM     88  O   UNL A   1      45.626  31.821  39.227  1.00  0.00    -0.237 OA
ATOM     89  O   UNL A   1      43.657  30.706  38.246  1.00  0.00    -0.237 OA
ATOM     90  O   UNL A   1      45.664  29.394  38.759  1.00  0.00    -0.744 OA
ENDBRANCH  84  87
ENDBRANCH  56  80
BRANCH  68  91
ATOM     91  C   UNL A   1      49.887  26.149  30.981  1.00  0.00     0.023 A 
ATOM     92  C   UNL A   1      50.922  26.884  30.370  1.00  0.00     0.012 A 
ATOM     93  C   UNL A   1      50.213  25.059  31.813  1.00  0.00     0.148 A 
ATOM     94  C   UNL A   1      52.256  26.519  30.553  1.00  0.00     0.002 A 
ATOM     95  C   UNL A   1      51.546  24.734  32.034  1.00  0.00     0.091 A 
ATOM     96  F   UNL A   1      49.214  24.364  32.377  1.00  0.00    -0.205 F 
ATOM     97  C   UNL A   1      52.568  25.453  31.394  1.00  0.00     0.022 A 
BRANCH  95  98
ATOM     98  S   UNL A   1      52.048  23.440  33.176  1.00  0.00     0.127 S 
ATOM     99  O   UNL A   1      51.173  22.339  32.780  1.00  0.00    -0.237 OA
ATOM    100  O   UNL A   1      53.458  23.254  32.832  1.00  0.00    -0.237 OA
ATOM    101  O   UNL A   1      51.816  23.971  34.513  1.00  0.00    -0.744 OA
ENDBRANCH  95  98
ENDBRANCH  68  91
ENDBRANCH  42  43
ENDBRANCH  35  37
ENDBRANCH  34  35
ENDBRANCH  33  34
ENDBRANCH  32  33
ENDBRANCH  31  32
ENDBRANCH  30  31
ENDBRANCH  29  30
ENDBRANCH   1  29
TORSDOF 26
ENDMDL
MODEL 2
REMARK VINA RESULT:      -6.3      7.759     10.885
REMARK SMILES O=C(/C=C/c1cc(C(=O)Nc2ccc(F)cc2Cl)cs1)OCCOCCOCCOCCOC(=O)c1ccc(-c2c3nc(c(-c4cccc(S(=O)(=O)[O-])c4F)c4ccc([nH]4)c(-c4cccc(S(=O)(=O)[O-])c4F)c4nc(c(-c5cccc(S(=O)(=O)[O-])c5F)c5ccc2[nH]5)C=C4)C=C3)cc1
REMARK SMILES IDX 27 1 26 2 25 3 24 4 23 5 22 6 21 7 2 8 1 9 3 10 4 11 5 12
REMARK SMILES IDX 6 13 20 14 7 15 19 16 8 17 9 18 10 19 11 21 12 22 17 23
REMARK SMILES IDX 13 24 16 25 18 26 14 27 15 28 28 29 29 30 30 31 31 32 32 33
REMARK SMILES IDX 33 34 34 35 35 36 36 37 37 38 98 39 38 40 97 41 39 42 40 43
REMARK SMILES IDX 41 44 91 45 42 46 96 47 90 48 92 49 43 50 95 51 89 52 88 53
REMARK SMILES IDX 44 55 76 56 56 57 75 58 57 59 60 60 74 61 93 62 58 63 59 64
REMARK SMILES IDX 73 66 94 67 61 68 45 69 46 70 54 71 47 72 49 73 55 74 48 75
REMARK SMILES IDX 50 76 51 77 52 78 53 79 77 80 78 81 86 82 79 83 81 84 87 85
REMARK SMILES IDX 80 86 82 87 83 88 84 89 85 90 62 91 63 92 71 93 64 94 66 95
REMARK SMILES IDX 72 96 65 97 67 98 68 99 69 100 70 101
REMARK H PARENT 10 20 92 54 60 65
REMARK Flexibility Score: inf
ROOT
ATOM      1  O   UNL A   1      36.451  29.332  28.201  1.00  0.00    -0.377 OA
ENDROOT
BRANCH   1   2
ATOM      2  C   UNL A   1      35.888  30.469  27.575  1.00  0.00     0.188 C 
BRANCH   2   3
ATOM      3  C   UNL A   1      34.366  30.498  27.550  1.00  0.00     0.188 C 
BRANCH   3   4
ATOM      4  O   UNL A   1      33.613  29.353  27.181  1.00  0.00    -0.376 OA
BRANCH   4   5
ATOM      5  C   UNL A   1      33.149  29.012  25.888  1.00  0.00     0.202 C 
BRANCH   5   6
ATOM      6  C   UNL A   1      31.720  29.258  25.417  1.00  0.00     0.261 C 
BRANCH   6   7
ATOM      7  O   UNL A   1      31.459  29.256  24.013  1.00  0.00    -0.460 OA
BRANCH   7   8
ATOM      8  C   UNL A   1      30.758  28.319  23.344  1.00  0.00     0.330 C 
ATOM      9  O   UNL A   1      29.532  28.341  23.326  1.00  0.00    -0.247 OA
BRANCH   8  10
ATOM     10  C   UNL A   1      31.444  27.088  22.928  1.00  0.00     0.095 C 
ATOM     11  C   UNL A   1      31.909  26.100  23.702  1.00  0.00     0.026 C 
BRANCH  11  12
ATOM     12  C   UNL A   1      32.488  24.934  23.133  1.00  0.00     0.028 A 
ATOM     13  C   UNL A   1      33.741  24.742  22.584  1.00  0.00     0.033 A 
ATOM     14  S   UNL A   1      31.630  23.444  23.053  1.00  0.00    -0.144 S 
ATOM     15  C   UNL A   1      34.184  23.425  22.926  1.00  0.00     0.051 A 
ATOM     16  C   UNL A   1      33.098  22.571  22.872  1.00  0.00     0.079 A 
BRANCH  15  17
ATOM     17  C   UNL A   1      35.550  23.003  23.216  1.00  0.00     0.256 C 
ATOM     18  O   UNL A   1      36.412  22.955  22.339  1.00  0.00    -0.269 OA
ATOM     19  N   UNL A   1      35.895  22.687  24.521  1.00  0.00    -0.321 N 
ATOM     20  H   UNL A   1      36.862  22.592  24.678  1.00  0.00     0.170 HD
BRANCH  19  21
ATOM     21  C   UNL A   1      35.087  22.478  25.664  1.00  0.00     0.060 A 
ATOM     22  C   UNL A   1      34.783  21.197  26.149  1.00  0.00     0.031 A 
ATOM     23  C   UNL A   1      34.526  23.597  26.308  1.00  0.00     0.067 A 
ATOM     24  C   UNL A   1      33.859  21.040  27.190  1.00  0.00     0.041 A 
ATOM     25  C   UNL A   1      33.577  23.436  27.317  1.00  0.00     0.062 A 
ATOM     26  Cl  UNL A   1      34.901  25.203  25.790  1.00  0.00    -0.082 Cl
ATOM     27  C   UNL A   1      33.245  22.158  27.741  1.00  0.00     0.124 A 
ATOM     28  F   UNL A   1      32.314  22.004  28.690  1.00  0.00    -0.207 F 
ENDBRANCH  19  21
ENDBRANCH  15  17
ENDBRANCH  11  12
ENDBRANCH   8  10
ENDBRANCH   7   8
ENDBRANCH   6   7
ENDBRANCH   5   6
ENDBRANCH   4   5
ENDBRANCH   3   4
ENDBRANCH   2   3
ENDBRANCH   1   2
BRANCH   1  29
ATOM     29  C   UNL A   1      37.165  29.639  29.382  1.00  0.00     0.188 C 
BRANCH  29  30
ATOM     30  C   UNL A   1      36.278  29.950  30.610  1.00  0.00     0.188 C 
BRANCH  30  31
ATOM     31  O   UNL A   1      36.056  31.282  31.044  1.00  0.00    -0.376 OA
BRANCH  31  32
ATOM     32  C   UNL A   1      36.902  31.869  32.014  1.00  0.00     0.202 C 
BRANCH  32  33
ATOM     33  C   UNL A   1      37.041  31.298  33.443  1.00  0.00     0.261 C 
BRANCH  33  34
ATOM     34  O   UNL A   1      38.343  30.880  33.872  1.00  0.00    -0.460 OA
BRANCH  34  35
ATOM     35  C   UNL A   1      38.890  29.819  33.230  1.00  0.00     0.338 C 
ATOM     36  O   UNL A   1      38.434  28.690  33.163  1.00  0.00    -0.246 OA
BRANCH  35  37
ATOM     37  C   UNL A   1      40.028  30.304  32.405  1.00  0.00     0.060 A 
ATOM     38  C   UNL A   1      41.097  30.945  33.052  1.00  0.00     0.016 A 
ATOM     39  C   UNL A   1      40.091  30.058  31.031  1.00  0.00     0.016 A 
ATOM     40  C   UNL A   1      42.225  31.343  32.333  1.00  0.00     0.010 A 
ATOM     41  C   UNL A   1      41.203  30.498  30.303  1.00  0.00     0.010 A 
ATOM     42  C   UNL A   1      42.264  31.162  30.946  1.00  0.00    -0.014 A 
BRANCH  42  43
ATOM     43  C   UNL A   1      43.301  31.861  30.148  1.00  0.00     0.031 A 
ATOM     44  C   UNL A   1      44.588  31.129  29.874  1.00  0.00     0.074 A 
ATOM     45  C   UNL A   1      43.118  33.108  29.676  1.00  0.00     0.049 A 
ATOM     46  N   UNL A   1      45.660  31.542  29.255  1.00  0.00    -0.248 NA
ATOM     47  C   UNL A   1      44.672  29.743  30.367  1.00  0.00     0.031 C 
ATOM     48  C   UNL A   1      41.913  33.915  29.854  1.00  0.00     0.029 A 
ATOM     49  N   UNL A   1      43.970  33.925  28.974  1.00  0.00    -0.354 N 
ATOM     50  C   UNL A   1      46.560  30.485  29.315  1.00  0.00     0.074 A 
ATOM     51  C   UNL A   1      45.908  29.410  30.027  1.00  0.00     0.031 C 
ATOM     52  C   UNL A   1      42.119  35.129  29.311  1.00  0.00     0.029 A 
ATOM     53  C   UNL A   1      43.478  35.194  28.774  1.00  0.00     0.049 A 
ATOM     54  H   UNL A   1      44.850  33.631  28.643  1.00  0.00     0.167 HD
ATOM     55  C   UNL A   1      47.816  30.412  28.817  1.00  0.00     0.034 A 
ATOM     56  C   UNL A   1      44.071  36.289  28.253  1.00  0.00     0.034 A 
ATOM     57  C   UNL A   1      48.462  31.474  28.097  1.00  0.00     0.049 A 
ATOM     58  C   UNL A   1      45.489  36.191  27.743  1.00  0.00     0.074 A 
ATOM     59  C   UNL A   1      49.714  31.475  27.510  1.00  0.00     0.029 A 
ATOM     60  N   UNL A   1      47.919  32.730  27.886  1.00  0.00    -0.354 N 
ATOM     61  N   UNL A   1      46.281  35.146  27.695  1.00  0.00    -0.248 NA
ATOM     62  C   UNL A   1      46.085  37.417  27.189  1.00  0.00     0.031 C 
ATOM     63  C   UNL A   1      49.945  32.745  26.977  1.00  0.00     0.029 A 
ATOM     64  C   UNL A   1      48.820  33.523  27.196  1.00  0.00     0.049 A 
ATOM     65  H   UNL A   1      47.025  33.018  28.183  1.00  0.00     0.167 HD
ATOM     66  C   UNL A   1      47.450  35.581  27.077  1.00  0.00     0.074 A 
ATOM     67  C   UNL A   1      47.253  36.975  26.744  1.00  0.00     0.031 C 
ATOM     68  C   UNL A   1      48.591  34.894  26.821  1.00  0.00     0.034 A 
BRANCH  55  69
ATOM     69  C   UNL A   1      48.581  29.134  29.025  1.00  0.00     0.023 A 
ATOM     70  C   UNL A   1      49.334  28.951  30.202  1.00  0.00     0.012 A 
ATOM     71  C   UNL A   1      48.485  28.084  28.091  1.00  0.00     0.148 A 
ATOM     72  C   UNL A   1      49.998  27.747  30.436  1.00  0.00     0.002 A 
ATOM     73  C   UNL A   1      49.111  26.873  28.354  1.00  0.00     0.091 A 
ATOM     74  F   UNL A   1      47.783  28.292  26.968  1.00  0.00    -0.205 F 
ATOM     75  C   UNL A   1      49.875  26.706  29.520  1.00  0.00     0.022 A 
BRANCH  73  76
ATOM     76  S   UNL A   1      48.947  25.445  27.277  1.00  0.00     0.127 S 
ATOM     77  O   UNL A   1      47.508  25.191  27.342  1.00  0.00    -0.237 OA
ATOM     78  O   UNL A   1      49.417  25.974  25.997  1.00  0.00    -0.237 OA
ATOM     79  O   UNL A   1      49.787  24.404  27.853  1.00  0.00    -0.744 OA
ENDBRANCH  73  76
ENDBRANCH  55  69
BRANCH  56  80
ATOM     80  C   UNL A   1      43.338  37.587  28.184  1.00  0.00     0.023 A 
ATOM     81  C   UNL A   1      42.564  37.896  27.047  1.00  0.00     0.012 A 
ATOM     82  C   UNL A   1      43.430  38.530  29.226  1.00  0.00     0.148 A 
ATOM     83  C   UNL A   1      41.931  39.134  26.931  1.00  0.00     0.002 A 
ATOM     84  C   UNL A   1      42.747  39.737  29.130  1.00  0.00     0.091 A 
ATOM     85  F   UNL A   1      44.188  38.230  30.290  1.00  0.00    -0.205 F 
ATOM     86  C   UNL A   1      42.015  40.051  27.975  1.00  0.00     0.022 A 
BRANCH  84  87
ATOM     87  S   UNL A   1      42.692  40.918  30.481  1.00  0.00     0.127 S 
ATOM     88  O   UNL A   1      41.298  41.352  30.444  1.00  0.00    -0.237 OA
ATOM     89  O   UNL A   1      43.048  40.081  31.627  1.00  0.00    -0.237 OA
ATOM     90  O   UNL A   1      43.682  41.935  30.153  1.00  0.00    -0.744 OA
ENDBRANCH  84  87
ENDBRANCH  56  80
BRANCH  68  91
ATOM     91  C   UNL A   1      49.706  35.616  26.109  1.00  0.00     0.023 A 
ATOM     92  C   UNL A   1      49.770  35.598  24.701  1.00  0.00     0.012 A 
ATOM     93  C   UNL A   1      50.647  36.376  26.833  1.00  0.00     0.148 A 
ATOM     94  C   UNL A   1      50.776  36.294  24.028  1.00  0.00     0.002 A 
ATOM     95  C   UNL A   1      51.613  37.109  26.154  1.00  0.00     0.091 A 
ATOM     96  F   UNL A   1      50.577  36.370  28.173  1.00  0.00    -0.205 F 
ATOM     97  C   UNL A   1      51.687  37.058  24.753  1.00  0.00     0.022 A 
BRANCH  95  98
ATOM     98  S   UNL A   1      52.768  38.198  26.996  1.00  0.00     0.127 S 
ATOM     99  O   UNL A   1      53.763  37.249  27.491  1.00  0.00    -0.237 OA
ATOM    100  O   UNL A   1      53.232  39.059  25.907  1.00  0.00    -0.237 OA
ATOM    101  O   UNL A   1      51.996  38.885  28.024  1.00  0.00    -0.744 OA
ENDBRANCH  95  98
ENDBRANCH  68  91
ENDBRANCH  42  43
ENDBRANCH  35  37
ENDBRANCH  34  35
ENDBRANCH  33  34
ENDBRANCH  32  33
ENDBRANCH  31  32
ENDBRANCH  30  31
ENDBRANCH  29  30
ENDBRANCH   1  29
TORSDOF 26
ENDMDL
MODEL 3
REMARK VINA RESULT:      -6.1      7.142      9.954
REMARK SMILES O=C(/C=C/c1cc(C(=O)Nc2ccc(F)cc2Cl)cs1)OCCOCCOCCOCCOC(=O)c1ccc(-c2c3nc(c(-c4cccc(S(=O)(=O)[O-])c4F)c4ccc([nH]4)c(-c4cccc(S(=O)(=O)[O-])c4F)c4nc(c(-c5cccc(S(=O)(=O)[O-])c5F)c5ccc2[nH]5)C=C4)C=C3)cc1
REMARK SMILES IDX 27 1 26 2 25 3 24 4 23 5 22 6 21 7 2 8 1 9 3 10 4 11 5 12
REMARK SMILES IDX 6 13 20 14 7 15 19 16 8 17 9 18 10 19 11 21 12 22 17 23
REMARK SMILES IDX 13 24 16 25 18 26 14 27 15 28 28 29 29 30 30 31 31 32 32 33
REMARK SMILES IDX 33 34 34 35 35 36 36 37 37 38 98 39 38 40 97 41 39 42 40 43
REMARK SMILES IDX 41 44 91 45 42 46 96 47 90 48 92 49 43 50 95 51 89 52 88 53
REMARK SMILES IDX 44 55 76 56 56 57 75 58 57 59 60 60 74 61 93 62 58 63 59 64
REMARK SMILES IDX 73 66 94 67 61 68 45 69 46 70 54 71 47 72 49 73 55 74 48 75
REMARK SMILES IDX 50 76 51 77 52 78 53 79 77 80 78 81 86 82 79 83 81 84 87 85
REMARK SMILES IDX 80 86 82 87 83 88 84 89 85 90 62 91 63 92 71 93 64 94 66 95
REMARK SMILES IDX 72 96 65 97 67 98 68 99 69 100 70 101
REMARK H PARENT 10 20 92 54 60 65
REMARK Flexibility Score: inf
ROOT
ATOM      1  O   UNL A   1      37.173  29.488  28.569  1.00  0.00    -0.377 OA
ENDROOT
BRANCH   1   2
ATOM      2  C   UNL A   1      36.624  30.724  28.152  1.00  0.00     0.188 C 
BRANCH   2   3
ATOM      3  C   UNL A   1      35.178  30.654  27.682  1.00  0.00     0.188 C 
BRANCH   3   4
ATOM      4  O   UNL A   1      34.504  29.412  27.549  1.00  0.00    -0.376 OA
BRANCH   4   5
ATOM      5  C   UNL A   1      34.580  28.506  26.465  1.00  0.00     0.202 C 
BRANCH   5   6
ATOM      6  C   UNL A   1      33.575  28.483  25.318  1.00  0.00     0.261 C 
BRANCH   6   7
ATOM      7  O   UNL A   1      33.858  27.661  24.185  1.00  0.00    -0.460 OA
BRANCH   7   8
ATOM      8  C   UNL A   1      33.129  26.602  23.780  1.00  0.00     0.330 C 
ATOM      9  O   UNL A   1      31.989  26.746  23.352  1.00  0.00    -0.247 OA
BRANCH   8  10
ATOM     10  C   UNL A   1      33.567  25.254  24.168  1.00  0.00     0.095 C 
ATOM     11  C   UNL A   1      34.743  24.888  24.693  1.00  0.00     0.026 C 
BRANCH  11  12
ATOM     12  C   UNL A   1      34.983  23.542  25.082  1.00  0.00     0.028 A 
ATOM     13  C   UNL A   1      35.556  22.501  24.377  1.00  0.00     0.033 A 
ATOM     14  S   UNL A   1      34.568  22.966  26.650  1.00  0.00    -0.144 S 
ATOM     15  C   UNL A   1      36.333  21.717  25.286  1.00  0.00     0.051 A 
ATOM     16  C   UNL A   1      35.660  21.650  26.492  1.00  0.00     0.079 A 
BRANCH  15  17
ATOM     17  C   UNL A   1      37.588  21.028  25.004  1.00  0.00     0.256 C 
ATOM     18  O   UNL A   1      37.618  19.963  24.387  1.00  0.00    -0.269 OA
ATOM     19  N   UNL A   1      38.780  21.608  25.407  1.00  0.00    -0.321 N 
ATOM     20  H   UNL A   1      39.588  21.192  25.029  1.00  0.00     0.170 HD
BRANCH  19  21
ATOM     21  C   UNL A   1      39.028  22.699  26.274  1.00  0.00     0.060 A 
ATOM     22  C   UNL A   1      38.385  23.938  26.130  1.00  0.00     0.031 A 
ATOM     23  C   UNL A   1      39.994  22.552  27.287  1.00  0.00     0.067 A 
ATOM     24  C   UNL A   1      38.775  25.029  26.917  1.00  0.00     0.041 A 
ATOM     25  C   UNL A   1      40.408  23.649  28.042  1.00  0.00     0.062 A 
ATOM     26  Cl  UNL A   1      40.785  21.037  27.548  1.00  0.00    -0.082 Cl
ATOM     27  C   UNL A   1      39.802  24.880  27.842  1.00  0.00     0.124 A 
ATOM     28  F   UNL A   1      40.220  25.937  28.547  1.00  0.00    -0.207 F 
ENDBRANCH  19  21
ENDBRANCH  15  17
ENDBRANCH  11  12
ENDBRANCH   8  10
ENDBRANCH   7   8
ENDBRANCH   6   7
ENDBRANCH   5   6
ENDBRANCH   4   5
ENDBRANCH   3   4
ENDBRANCH   2   3
ENDBRANCH   1   2
BRANCH   1  29
ATOM     29  C   UNL A   1      37.562  29.478  29.928  1.00  0.00     0.188 C 
BRANCH  29  30
ATOM     30  C   UNL A   1      36.391  29.589  30.934  1.00  0.00     0.188 C 
BRANCH  30  31
ATOM     31  O   UNL A   1      36.173  30.771  31.686  1.00  0.00    -0.376 OA
BRANCH  31  32
ATOM     32  C   UNL A   1      37.166  31.249  32.573  1.00  0.00     0.202 C 
BRANCH  32  33
ATOM     33  C   UNL A   1      37.703  30.400  33.746  1.00  0.00     0.261 C 
BRANCH  33  34
ATOM     34  O   UNL A   1      39.124  30.270  33.881  1.00  0.00    -0.460 OA
BRANCH  34  35
ATOM     35  C   UNL A   1      39.714  29.251  33.209  1.00  0.00     0.338 C 
ATOM     36  O   UNL A   1      39.317  28.100  33.130  1.00  0.00    -0.246 OA
BRANCH  35  37
ATOM     37  C   UNL A   1      40.808  29.810  32.372  1.00  0.00     0.060 A 
ATOM     38  C   UNL A   1      41.902  30.410  33.017  1.00  0.00     0.016 A 
ATOM     39  C   UNL A   1      40.807  29.672  30.982  1.00  0.00     0.016 A 
ATOM     40  C   UNL A   1      42.992  30.874  32.279  1.00  0.00     0.010 A 
ATOM     41  C   UNL A   1      41.881  30.178  30.239  1.00  0.00     0.010 A 
ATOM     42  C   UNL A   1      42.967  30.802  30.882  1.00  0.00    -0.014 A 
BRANCH  42  43
ATOM     43  C   UNL A   1      43.960  31.571  30.093  1.00  0.00     0.031 A 
ATOM     44  C   UNL A   1      45.259  30.894  29.747  1.00  0.00     0.074 A 
ATOM     45  C   UNL A   1      43.728  32.835  29.691  1.00  0.00     0.049 A 
ATOM     46  N   UNL A   1      46.301  31.370  29.122  1.00  0.00    -0.248 NA
ATOM     47  C   UNL A   1      45.397  29.488  30.166  1.00  0.00     0.031 C 
ATOM     48  C   UNL A   1      42.506  33.595  29.943  1.00  0.00     0.029 A 
ATOM     49  N   UNL A   1      44.536  33.712  29.009  1.00  0.00    -0.354 N 
ATOM     50  C   UNL A   1      47.233  30.339  29.103  1.00  0.00     0.074 A 
ATOM     51  C   UNL A   1      46.632  29.210  29.777  1.00  0.00     0.031 C 
ATOM     52  C   UNL A   1      42.661  34.840  29.458  1.00  0.00     0.029 A 
ATOM     53  C   UNL A   1      44.001  34.973  28.888  1.00  0.00     0.049 A 
ATOM     54  H   UNL A   1      45.414  33.461  28.640  1.00  0.00     0.167 HD
ATOM     55  C   UNL A   1      48.475  30.329  28.569  1.00  0.00     0.034 A 
ATOM     56  C   UNL A   1      44.547  36.110  28.408  1.00  0.00     0.034 A 
ATOM     57  C   UNL A   1      49.070  31.446  27.887  1.00  0.00     0.049 A 
ATOM     58  C   UNL A   1      45.953  36.081  27.856  1.00  0.00     0.074 A 
ATOM     59  C   UNL A   1      50.304  31.514  27.268  1.00  0.00     0.029 A 
ATOM     60  N   UNL A   1      48.485  32.694  27.755  1.00  0.00    -0.354 N 
ATOM     61  N   UNL A   1      46.773  35.066  27.733  1.00  0.00    -0.248 NA
ATOM     62  C   UNL A   1      46.497  37.352  27.350  1.00  0.00     0.031 C 
ATOM     63  C   UNL A   1      50.483  32.816  26.794  1.00  0.00     0.029 A 
ATOM     64  C   UNL A   1      49.342  33.547  27.083  1.00  0.00     0.049 A 
ATOM     65  H   UNL A   1      47.592  32.938  28.091  1.00  0.00     0.167 HD
ATOM     66  C   UNL A   1      47.911  35.566  27.107  1.00  0.00     0.074 A 
ATOM     67  C   UNL A   1      47.664  36.969  26.851  1.00  0.00     0.031 C 
ATOM     68  C   UNL A   1      49.064  34.928  26.786  1.00  0.00     0.034 A 
BRANCH  55  69
ATOM     69  C   UNL A   1      49.283  29.066  28.691  1.00  0.00     0.023 A 
ATOM     70  C   UNL A   1      50.158  28.895  29.781  1.00  0.00     0.012 A 
ATOM     71  C   UNL A   1      49.110  28.017  27.768  1.00  0.00     0.148 A 
ATOM     72  C   UNL A   1      50.866  27.704  29.939  1.00  0.00     0.002 A 
ATOM     73  C   UNL A   1      49.784  26.818  27.958  1.00  0.00     0.091 A 
ATOM     74  F   UNL A   1      48.290  28.212  26.725  1.00  0.00    -0.205 F 
ATOM     75  C   UNL A   1      50.669  26.663  29.037  1.00  0.00     0.022 A 
BRANCH  73  76
ATOM     76  S   UNL A   1      49.535  25.388  26.899  1.00  0.00     0.127 S 
ATOM     77  O   UNL A   1      50.142  25.840  25.647  1.00  0.00    -0.237 OA
ATOM     78  O   UNL A   1      50.291  24.353  27.604  1.00  0.00    -0.237 OA
ATOM     79  O   UNL A   1      48.098  25.167  26.846  1.00  0.00    -0.744 OA
ENDBRANCH  73  76
ENDBRANCH  55  69
BRANCH  56  80
ATOM     80  C   UNL A   1      43.776  37.388  28.425  1.00  0.00     0.023 A 
ATOM     81  C   UNL A   1      42.961  37.730  27.327  1.00  0.00     0.012 A 
ATOM     82  C   UNL A   1      43.869  38.279  29.512  1.00  0.00     0.148 A 
ATOM     83  C   UNL A   1      42.290  38.953  27.292  1.00  0.00     0.002 A 
ATOM     84  C   UNL A   1      43.150  39.468  29.497  1.00  0.00     0.091 A 
ATOM     85  F   UNL A   1      44.666  37.949  30.538  1.00  0.00    -0.205 F 
ATOM     86  C   UNL A   1      42.377  39.818  28.379  1.00  0.00     0.022 A 
BRANCH  84  87
ATOM     87  S   UNL A   1      43.098  40.578  30.908  1.00  0.00     0.127 S 
ATOM     88  O   UNL A   1      43.011  39.640  32.024  1.00  0.00    -0.237 OA
ATOM     89  O   UNL A   1      44.378  41.276  30.787  1.00  0.00    -0.237 OA
ATOM     90  O   UNL A   1      41.933  41.425  30.697  1.00  0.00    -0.744 OA
ENDBRANCH  84  87
ENDBRANCH  56  80
BRANCH  68  91
ATOM     91  C   UNL A   1      50.137  35.719  26.082  1.00  0.00     0.023 A 
ATOM     92  C   UNL A   1      50.244  35.665  24.677  1.00  0.00     0.012 A 
ATOM     93  C   UNL A   1      50.990  36.574  26.807  1.00  0.00     0.148 A 
ATOM     94  C   UNL A   1      51.209  36.421  24.011  1.00  0.00     0.002 A 
ATOM     95  C   UNL A   1      51.913  37.365  26.132  1.00  0.00     0.091 A 
ATOM     96  F   UNL A   1      50.881  36.602  28.144  1.00  0.00    -0.205 F 
ATOM     97  C   UNL A   1      52.033  37.279  24.736  1.00  0.00     0.022 A 
BRANCH  95  98
ATOM     98  S   UNL A   1      52.949  38.569  26.971  1.00  0.00     0.127 S 
ATOM     99  O   UNL A   1      53.779  37.711  27.813  1.00  0.00    -0.237 OA
ATOM    100  O   UNL A   1      53.656  39.200  25.855  1.00  0.00    -0.237 OA
ATOM    101  O   UNL A   1      52.039  39.454  27.687  1.00  0.00    -0.744 OA
ENDBRANCH  95  98
ENDBRANCH  68  91
ENDBRANCH  42  43
ENDBRANCH  35  37
ENDBRANCH  34  35
ENDBRANCH  33  34
ENDBRANCH  32  33
ENDBRANCH  31  32
ENDBRANCH  30  31
ENDBRANCH  29  30
ENDBRANCH   1  29
TORSDOF 26
ENDMDL
