MODEL 1
REMARK VINA RESULT:      -9.1      0.000      0.000
REMARK SMILES CC1(C)CSC[C@H]([NH2+][C@H](C(=O)OCCOCCOCCOCCOC(=O)c2ccc(-c3c4nc(c(-c5cccc(S(=O)(=O)[O-])c5F)c5ccc([nH]5)c(-c5cccc(S(=O)(=O)[O-])c5F)c5nc(c(-c6cccc(S(=O)(=O)[O-])c6F)c6ccc3[nH]6)C=C5)C=C4)cc2)c2ccccc2)C1
REMARK SMILES IDX 19 1 18 2 17 3 16 4 15 5 14 6 13 7 12 8 10 9 11 10 9 11 8 12
REMARK SMILES IDX 7 15 1 16 2 17 3 18 4 19 96 20 5 21 6 22 90 23 91 24 95 25
REMARK SMILES IDX 92 26 94 27 93 28 20 29 21 30 22 31 23 32 24 33 25 34 26 35
REMARK SMILES IDX 27 36 28 37 89 38 29 39 88 40 30 41 31 42 32 43 82 44 33 45
REMARK SMILES IDX 87 46 81 47 83 48 34 49 86 50 80 51 79 52 35 54 67 55 47 56
REMARK SMILES IDX 66 57 48 58 51 59 65 60 84 61 49 62 50 63 64 65 85 66 52 67
REMARK SMILES IDX 36 68 37 69 45 70 38 71 40 72 46 73 39 74 41 75 42 76 43 77
REMARK SMILES IDX 44 78 68 79 69 80 77 81 70 82 72 83 78 84 71 85 73 86 74 87
REMARK SMILES IDX 75 88 76 89 53 90 54 91 62 92 55 93 57 94 63 95 56 96 58 97
REMARK SMILES IDX 59 98 60 99 61 100
REMARK H PARENT 8 13 8 14 83 53 51 64
REMARK Flexibility Score: inf
ROOT
ATOM      1  C   UNL A   1      34.200  35.337  28.524  1.00  0.00     0.188 C 
ENDROOT
BRANCH   1   2
ATOM      2  O   UNL A   1      33.518  34.193  28.051  1.00  0.00    -0.377 OA
BRANCH   2   3
ATOM      3  C   UNL A   1      33.967  32.930  28.509  1.00  0.00     0.188 C 
BRANCH   3   4
ATOM      4  C   UNL A   1      34.915  32.039  27.698  1.00  0.00     0.188 C 
BRANCH   4   5
ATOM      5  O   UNL A   1      35.158  30.766  28.277  1.00  0.00    -0.376 OA
BRANCH   5   6
ATOM      6  C   UNL A   1      35.363  29.629  27.450  1.00  0.00     0.202 C 
BRANCH   6   7
ATOM      7  C   UNL A   1      34.191  28.623  27.186  1.00  0.00     0.261 C 
BRANCH   7   8
ATOM      8  O   UNL A   1      32.791  29.045  27.179  1.00  0.00    -0.459 OA
BRANCH   8   9
ATOM      9  C   UNL A   1      31.891  28.044  27.302  1.00  0.00     0.369 C 
ATOM     10  O   UNL A   1      31.263  27.941  28.346  1.00  0.00    -0.245 OA
BRANCH   9  11
ATOM     11  C   UNL A   1      31.688  27.093  26.057  1.00  0.00     0.325 C 
BRANCH  11  12
ATOM     12  N   UNL A   1      31.166  25.718  26.465  1.00  0.00    -0.328 N 
ATOM     13  H   UNL A   1      31.109  25.692  27.483  1.00  0.00     0.347 HD
ATOM     14  H   UNL A   1      30.263  25.610  26.002  1.00  0.00     0.347 HD
BRANCH  12  15
ATOM     15  C   UNL A   1      31.990  24.573  26.025  1.00  0.00     0.193 C 
ATOM     16  C   UNL A   1      34.279  22.958  27.284  1.00  0.00     0.012 C 
ATOM     17  C   UNL A   1      34.320  23.565  25.854  1.00  0.00    -0.021 C 
ATOM     18  C   UNL A   1      35.787  23.924  25.565  1.00  0.00     0.012 C 
ATOM     19  C   UNL A   1      33.902  22.502  24.811  1.00  0.00     0.076 C 
ATOM     20  C   UNL A   1      33.466  24.877  25.755  1.00  0.00     0.073 C 
ATOM     21  S   UNL A   1      32.153  22.080  24.699  1.00  0.00    -0.155 SA
ATOM     22  C   UNL A   1      31.430  23.742  24.842  1.00  0.00     0.134 C 
ENDBRANCH  12  15
ENDBRANCH  11  12
BRANCH  11  23
ATOM     23  C   UNL A   1      30.869  27.706  24.893  1.00  0.00     0.021 A 
ATOM     24  C   UNL A   1      31.036  29.060  24.538  1.00  0.00     0.010 A 
ATOM     25  C   UNL A   1      29.928  26.978  24.138  1.00  0.00     0.010 A 
ATOM     26  C   UNL A   1      30.234  29.667  23.554  1.00  0.00     0.001 A 
ATOM     27  C   UNL A   1      29.132  27.577  23.152  1.00  0.00     0.001 A 
ATOM     28  C   UNL A   1      29.272  28.928  22.873  1.00  0.00     0.000 A 
ENDBRANCH  11  23
ENDBRANCH   9  11
ENDBRANCH   8   9
ENDBRANCH   7   8
ENDBRANCH   6   7
ENDBRANCH   5   6
ENDBRANCH   4   5
ENDBRANCH   3   4
ENDBRANCH   2   3
ENDBRANCH   1   2
BRANCH   1  29
ATOM     29  C   UNL A   1      33.251  36.500  28.835  1.00  0.00     0.188 C 
BRANCH  29  30
ATOM     30  O   UNL A   1      33.010  36.758  30.204  1.00  0.00    -0.376 OA
BRANCH  30  31
ATOM     31  C   UNL A   1      33.077  35.744  31.193  1.00  0.00     0.202 C 
BRANCH  31  32
ATOM     32  C   UNL A   1      34.289  35.363  32.076  1.00  0.00     0.261 C 
BRANCH  32  33
ATOM     33  O   UNL A   1      35.237  34.400  31.617  1.00  0.00    -0.460 OA
BRANCH  33  34
ATOM     34  C   UNL A   1      34.977  33.095  31.852  1.00  0.00     0.338 C 
ATOM     35  O   UNL A   1      33.891  32.583  31.995  1.00  0.00    -0.246 OA
BRANCH  34  36
ATOM     36  C   UNL A   1      36.260  32.366  31.672  1.00  0.00     0.060 A 
ATOM     37  C   UNL A   1      36.410  31.126  32.307  1.00  0.00     0.016 A 
ATOM     38  C   UNL A   1      37.269  32.858  30.838  1.00  0.00     0.016 A 
ATOM     39  C   UNL A   1      37.578  30.389  32.135  1.00  0.00     0.010 A 
ATOM     40  C   UNL A   1      38.462  32.138  30.702  1.00  0.00     0.010 A 
ATOM     41  C   UNL A   1      38.630  30.917  31.380  1.00  0.00    -0.014 A 
BRANCH  41  42
ATOM     42  C   UNL A   1      39.962  30.285  31.508  1.00  0.00     0.031 A 
ATOM     43  C   UNL A   1      40.808  30.656  32.694  1.00  0.00     0.074 A 
ATOM     44  C   UNL A   1      40.376  29.347  30.639  1.00  0.00     0.049 A 
ATOM     45  N   UNL A   1      41.969  30.184  33.065  1.00  0.00    -0.248 NA
ATOM     46  C   UNL A   1      40.266  31.693  33.590  1.00  0.00     0.031 C 
ATOM     47  C   UNL A   1      39.632  28.891  29.467  1.00  0.00     0.029 A 
ATOM     48  N   UNL A   1      41.534  28.611  30.613  1.00  0.00    -0.354 N 
ATOM     49  C   UNL A   1      42.305  30.880  34.221  1.00  0.00     0.074 A 
ATOM     50  C   UNL A   1      41.235  31.816  34.483  1.00  0.00     0.031 C 
ATOM     51  C   UNL A   1      40.362  27.966  28.821  1.00  0.00     0.029 A 
ATOM     52  C   UNL A   1      41.630  27.779  29.523  1.00  0.00     0.049 A 
ATOM     53  H   UNL A   1      42.229  28.673  31.307  1.00  0.00     0.167 HD
ATOM     54  C   UNL A   1      43.402  30.743  35.001  1.00  0.00     0.034 A 
ATOM     55  C   UNL A   1      42.639  26.974  29.133  1.00  0.00     0.034 A 
ATOM     56  C   UNL A   1      44.462  29.809  34.736  1.00  0.00     0.049 A 
ATOM     57  C   UNL A   1      43.867  26.867  29.999  1.00  0.00     0.074 A 
ATOM     58  C   UNL A   1      45.600  29.566  35.482  1.00  0.00     0.029 A 
ATOM     59  N   UNL A   1      44.525  28.979  33.627  1.00  0.00    -0.354 N 
ATOM     60  N   UNL A   1      44.124  27.448  31.148  1.00  0.00    -0.248 NA
ATOM     61  C   UNL A   1      44.932  25.965  29.534  1.00  0.00     0.031 C 
ATOM     62  C   UNL A   1      46.373  28.620  34.802  1.00  0.00     0.029 A 
ATOM     63  C   UNL A   1      45.694  28.238  33.656  1.00  0.00     0.049 A 
ATOM     64  H   UNL A   1      43.839  28.925  32.923  1.00  0.00     0.167 HD
ATOM     65  C   UNL A   1      45.361  26.961  31.556  1.00  0.00     0.074 A 
ATOM     66  C   UNL A   1      45.787  26.013  30.546  1.00  0.00     0.031 C 
ATOM     67  C   UNL A   1      46.087  27.275  32.659  1.00  0.00     0.034 A 
BRANCH  54  68
ATOM     68  C   UNL A   1      43.510  31.629  36.214  1.00  0.00     0.023 A 
ATOM     69  C   UNL A   1      43.014  31.186  37.457  1.00  0.00     0.012 A 
ATOM     70  C   UNL A   1      44.138  32.885  36.129  1.00  0.00     0.148 A 
ATOM     71  C   UNL A   1      43.114  31.994  38.591  1.00  0.00     0.002 A 
ATOM     72  C   UNL A   1      44.278  33.664  37.271  1.00  0.00     0.091 A 
ATOM     73  F   UNL A   1      44.579  33.299  34.933  1.00  0.00    -0.205 F 
ATOM     74  C   UNL A   1      43.755  33.226  38.499  1.00  0.00     0.022 A 
BRANCH  72  75
ATOM     75  S   UNL A   1      45.157  35.230  37.274  1.00  0.00     0.127 S 
ATOM     76  O   UNL A   1      44.283  36.060  36.447  1.00  0.00    -0.237 OA
ATOM     77  O   UNL A   1      45.158  35.576  38.697  1.00  0.00    -0.237 OA
ATOM     78  O   UNL A   1      46.472  34.957  36.713  1.00  0.00    -0.744 OA
ENDBRANCH  72  75
ENDBRANCH  54  68
BRANCH  55  79
ATOM     79  C   UNL A   1      42.524  26.191  27.869  1.00  0.00     0.023 A 
ATOM     80  C   UNL A   1      42.797  26.804  26.632  1.00  0.00     0.012 A 
ATOM     81  C   UNL A   1      42.144  24.834  27.893  1.00  0.00     0.148 A 
ATOM     82  C   UNL A   1      42.663  26.091  25.439  1.00  0.00     0.002 A 
ATOM     83  C   UNL A   1      42.070  24.114  26.708  1.00  0.00     0.091 A 
ATOM     84  F   UNL A   1      41.869  24.274  29.080  1.00  0.00    -0.205 F 
ATOM     85  C   UNL A   1      42.311  24.745  25.477  1.00  0.00     0.022 A 
BRANCH  83  86
ATOM     86  S   UNL A   1      41.751  22.347  26.673  1.00  0.00     0.127 S 
ATOM     87  O   UNL A   1      42.561  21.874  27.794  1.00  0.00    -0.237 OA
ATOM     88  O   UNL A   1      40.306  22.299  26.894  1.00  0.00    -0.237 OA
ATOM     89  O   UNL A   1      42.173  21.894  25.355  1.00  0.00    -0.744 OA
ENDBRANCH  83  86
ENDBRANCH  55  79
BRANCH  67  90
ATOM     90  C   UNL A   1      47.404  26.566  32.849  1.00  0.00     0.023 A 
ATOM     91  C   UNL A   1      47.471  25.396  33.633  1.00  0.00     0.012 A 
ATOM     92  C   UNL A   1      48.570  27.033  32.208  1.00  0.00     0.148 A 
ATOM     93  C   UNL A   1      48.683  24.733  33.815  1.00  0.00     0.002 A 
ATOM     94  C   UNL A   1      49.763  26.334  32.349  1.00  0.00     0.091 A 
ATOM     95  F   UNL A   1      48.493  28.154  31.476  1.00  0.00    -0.205 F 
ATOM     96  C   UNL A   1      49.825  25.194  33.167  1.00  0.00     0.022 A 
BRANCH  94  97
ATOM     97  S   UNL A   1      51.260  26.797  31.472  1.00  0.00     0.127 S 
ATOM     98  O   UNL A   1      50.826  26.720  30.079  1.00  0.00    -0.237 OA
ATOM     99  O   UNL A   1      51.499  28.154  31.963  1.00  0.00    -0.237 OA
ATOM    100  O   UNL A   1      52.272  25.826  31.865  1.00  0.00    -0.744 OA
ENDBRANCH  94  97
ENDBRANCH  67  90
ENDBRANCH  41  42
ENDBRANCH  34  36
ENDBRANCH  33  34
ENDBRANCH  32  33
ENDBRANCH  31  32
ENDBRANCH  30  31
ENDBRANCH  29  30
ENDBRANCH   1  29
TORSDOF 26
ENDMDL
MODEL 2
REMARK VINA RESULT:      -8.8      4.531      6.098
REMARK SMILES CC1(C)CSC[C@H]([NH2+][C@H](C(=O)OCCOCCOCCOCCOC(=O)c2ccc(-c3c4nc(c(-c5cccc(S(=O)(=O)[O-])c5F)c5ccc([nH]5)c(-c5cccc(S(=O)(=O)[O-])c5F)c5nc(c(-c6cccc(S(=O)(=O)[O-])c6F)c6ccc3[nH]6)C=C5)C=C4)cc2)c2ccccc2)C1
REMARK SMILES IDX 19 1 18 2 17 3 16 4 15 5 14 6 13 7 12 8 10 9 11 10 9 11 8 12
REMARK SMILES IDX 7 15 1 16 2 17 3 18 4 19 96 20 5 21 6 22 90 23 91 24 95 25
REMARK SMILES IDX 92 26 94 27 93 28 20 29 21 30 22 31 23 32 24 33 25 34 26 35
REMARK SMILES IDX 27 36 28 37 89 38 29 39 88 40 30 41 31 42 32 43 82 44 33 45
REMARK SMILES IDX 87 46 81 47 83 48 34 49 86 50 80 51 79 52 35 54 67 55 47 56
REMARK SMILES IDX 66 57 48 58 51 59 65 60 84 61 49 62 50 63 64 65 85 66 52 67
REMARK SMILES IDX 36 68 37 69 45 70 38 71 40 72 46 73 39 74 41 75 42 76 43 77
REMARK SMILES IDX 44 78 68 79 69 80 77 81 70 82 72 83 78 84 71 85 73 86 74 87
REMARK SMILES IDX 75 88 76 89 53 90 54 91 62 92 55 93 57 94 63 95 56 96 58 97
REMARK SMILES IDX 59 98 60 99 61 100
REMARK H PARENT 8 13 8 14 83 53 51 64
REMARK Flexibility Score: inf
ROOT
ATOM      1  C   UNL A   1      34.204  35.130  28.979  1.00  0.00     0.188 C 
ENDROOT
BRANCH   1   2
ATOM      2  O   UNL A   1      33.970  34.448  27.763  1.00  0.00    -0.377 OA
BRANCH   2   3
ATOM      3  C   UNL A   1      33.217  33.250  27.822  1.00  0.00     0.188 C 
BRANCH   3   4
ATOM      4  C   UNL A   1      33.865  31.860  27.842  1.00  0.00     0.188 C 
BRANCH   4   5
ATOM      5  O   UNL A   1      32.988  30.802  27.487  1.00  0.00    -0.376 OA
BRANCH   5   6
ATOM      6  C   UNL A   1      33.508  29.533  27.118  1.00  0.00     0.202 C 
BRANCH   6   7
ATOM      7  C   UNL A   1      33.896  29.241  25.628  1.00  0.00     0.261 C 
BRANCH   7   8
ATOM      8  O   UNL A   1      33.542  27.987  24.964  1.00  0.00    -0.459 OA
BRANCH   8   9
ATOM      9  C   UNL A   1      33.055  28.122  23.710  1.00  0.00     0.369 C 
ATOM     10  O   UNL A   1      33.670  28.815  22.911  1.00  0.00    -0.245 OA
BRANCH   9  11
ATOM     11  C   UNL A   1      31.734  27.333  23.354  1.00  0.00     0.325 C 
BRANCH  11  12
ATOM     12  N   UNL A   1      31.033  27.912  22.128  1.00  0.00    -0.328 N 
ATOM     13  H   UNL A   1      31.678  28.556  21.671  1.00  0.00     0.347 HD
ATOM     14  H   UNL A   1      30.773  27.114  21.548  1.00  0.00     0.347 HD
BRANCH  12  15
ATOM     15  C   UNL A   1      29.778  28.642  22.404  1.00  0.00     0.193 C 
ATOM     16  C   UNL A   1      28.320  30.995  21.073  1.00  0.00     0.012 C 
ATOM     17  C   UNL A   1      28.626  30.903  22.594  1.00  0.00    -0.021 C 
ATOM     18  C   UNL A   1      28.836  32.342  23.093  1.00  0.00     0.012 C 
ATOM     19  C   UNL A   1      27.402  30.337  23.351  1.00  0.00     0.076 C 
ATOM     20  C   UNL A   1      29.938  30.091  22.874  1.00  0.00     0.073 C 
ATOM     21  S   UNL A   1      27.066  28.572  23.201  1.00  0.00    -0.155 SA
ATOM     22  C   UNL A   1      28.761  27.928  23.330  1.00  0.00     0.134 C 
ENDBRANCH  12  15
ENDBRANCH  11  12
BRANCH  11  23
ATOM     23  C   UNL A   1      31.896  25.794  23.260  1.00  0.00     0.021 A 
ATOM     24  C   UNL A   1      33.094  25.232  22.775  1.00  0.00     0.010 A 
ATOM     25  C   UNL A   1      30.889  24.882  23.635  1.00  0.00     0.010 A 
ATOM     26  C   UNL A   1      33.231  23.844  22.585  1.00  0.00     0.001 A 
ATOM     27  C   UNL A   1      31.024  23.500  23.454  1.00  0.00     0.001 A 
ATOM     28  C   UNL A   1      32.189  22.981  22.910  1.00  0.00     0.000 A 
ENDBRANCH  11  23
ENDBRANCH   9  11
ENDBRANCH   8   9
ENDBRANCH   7   8
ENDBRANCH   6   7
ENDBRANCH   5   6
ENDBRANCH   4   5
ENDBRANCH   3   4
ENDBRANCH   2   3
ENDBRANCH   1   2
BRANCH   1  29
ATOM     29  C   UNL A   1      33.259  36.321  29.176  1.00  0.00     0.188 C 
BRANCH  29  30
ATOM     30  O   UNL A   1      32.639  36.419  30.444  1.00  0.00    -0.376 OA
BRANCH  30  31
ATOM     31  C   UNL A   1      32.759  35.408  31.430  1.00  0.00     0.202 C 
BRANCH  31  32
ATOM     32  C   UNL A   1      33.788  35.329  32.582  1.00  0.00     0.261 C 
BRANCH  32  33
ATOM     33  O   UNL A   1      35.019  34.631  32.398  1.00  0.00    -0.460 OA
BRANCH  33  34
ATOM     34  C   UNL A   1      34.961  33.321  32.073  1.00  0.00     0.338 C 
ATOM     35  O   UNL A   1      33.968  32.638  31.978  1.00  0.00    -0.246 OA
BRANCH  34  36
ATOM     36  C   UNL A   1      36.324  32.931  31.627  1.00  0.00     0.060 A 
ATOM     37  C   UNL A   1      37.359  32.949  32.570  1.00  0.00     0.016 A 
ATOM     38  C   UNL A   1      36.567  32.488  30.322  1.00  0.00     0.016 A 
ATOM     39  C   UNL A   1      38.643  32.553  32.209  1.00  0.00     0.010 A 
ATOM     40  C   UNL A   1      37.868  32.134  29.947  1.00  0.00     0.010 A 
ATOM     41  C   UNL A   1      38.914  32.199  30.883  1.00  0.00    -0.014 A 
BRANCH  41  42
ATOM     42  C   UNL A   1      40.331  32.131  30.459  1.00  0.00     0.031 A 
ATOM     43  C   UNL A   1      40.979  33.390  29.955  1.00  0.00     0.074 A 
ATOM     44  C   UNL A   1      41.047  31.001  30.595  1.00  0.00     0.049 A 
ATOM     45  N   UNL A   1      42.219  33.600  29.601  1.00  0.00    -0.248 NA
ATOM     46  C   UNL A   1      40.112  34.576  29.844  1.00  0.00     0.031 C 
ATOM     47  C   UNL A   1      40.531  29.727  31.094  1.00  0.00     0.029 A 
ATOM     48  N   UNL A   1      42.366  30.747  30.319  1.00  0.00    -0.354 N 
ATOM     49  C   UNL A   1      42.277  34.932  29.206  1.00  0.00     0.074 A 
ATOM     50  C   UNL A   1      40.946  35.478  29.349  1.00  0.00     0.031 C 
ATOM     51  C   UNL A   1      41.520  28.818  31.068  1.00  0.00     0.029 A 
ATOM     52  C   UNL A   1      42.731  29.440  30.535  1.00  0.00     0.049 A 
ATOM     53  H   UNL A   1      42.992  31.435  29.997  1.00  0.00     0.167 HD
ATOM     54  C   UNL A   1      43.345  35.641  28.774  1.00  0.00     0.034 A 
ATOM     55  C   UNL A   1      43.905  28.817  30.308  1.00  0.00     0.034 A 
ATOM     56  C   UNL A   1      44.667  35.093  28.637  1.00  0.00     0.049 A 
ATOM     57  C   UNL A   1      45.071  29.620  29.791  1.00  0.00     0.074 A 
ATOM     58  C   UNL A   1      45.826  35.734  28.241  1.00  0.00     0.029 A 
ATOM     59  N   UNL A   1      45.001  33.767  28.869  1.00  0.00    -0.354 N 
ATOM     60  N   UNL A   1      45.140  30.904  29.527  1.00  0.00    -0.248 NA
ATOM     61  C   UNL A   1      46.332  28.896  29.574  1.00  0.00     0.031 C 
ATOM     62  C   UNL A   1      46.853  34.786  28.192  1.00  0.00     0.029 A 
ATOM     63  C   UNL A   1      46.345  33.564  28.603  1.00  0.00     0.049 A 
ATOM     64  H   UNL A   1      44.375  33.073  29.177  1.00  0.00     0.167 HD
ATOM     65  C   UNL A   1      46.455  31.146  29.143  1.00  0.00     0.074 A 
ATOM     66  C   UNL A   1      47.155  29.880  29.239  1.00  0.00     0.031 C 
ATOM     67  C   UNL A   1      47.032  32.305  28.735  1.00  0.00     0.034 A 
BRANCH  54  68
ATOM     68  C   UNL A   1      43.125  37.087  28.418  1.00  0.00     0.023 A 
ATOM     69  C   UNL A   1      42.747  37.441  27.106  1.00  0.00     0.012 A 
ATOM     70  C   UNL A   1      43.256  38.092  29.394  1.00  0.00     0.148 A 
ATOM     71  C   UNL A   1      42.534  38.777  26.765  1.00  0.00     0.002 A 
ATOM     72  C   UNL A   1      42.994  39.416  29.060  1.00  0.00     0.091 A 
ATOM     73  F   UNL A   1      43.642  37.738  30.628  1.00  0.00    -0.205 F 
ATOM     74  C   UNL A   1      42.647  39.761  27.744  1.00  0.00     0.022 A 
BRANCH  72  75
ATOM     75  S   UNL A   1      43.035  40.746  30.265  1.00  0.00     0.127 S 
ATOM     76  O   UNL A   1      44.205  41.505  29.827  1.00  0.00    -0.237 OA
ATOM     77  O   UNL A   1      41.753  41.410  30.030  1.00  0.00    -0.237 OA
ATOM     78  O   UNL A   1      43.160  40.107  31.568  1.00  0.00    -0.744 OA
ENDBRANCH  72  75
ENDBRANCH  54  68
BRANCH  55  79
ATOM     79  C   UNL A   1      44.044  27.359  30.586  1.00  0.00     0.023 A 
ATOM     80  C   UNL A   1      44.509  26.922  31.841  1.00  0.00     0.012 A 
ATOM     81  C   UNL A   1      43.714  26.403  29.605  1.00  0.00     0.148 A 
ATOM     82  C   UNL A   1      44.674  25.560  32.104  1.00  0.00     0.002 A 
ATOM     83  C   UNL A   1      43.823  25.048  29.893  1.00  0.00     0.091 A 
ATOM     84  F   UNL A   1      43.291  26.840  28.411  1.00  0.00    -0.205 F 
ATOM     85  C   UNL A   1      44.321  24.624  31.136  1.00  0.00     0.022 A 
BRANCH  83  86
ATOM     86  S   UNL A   1      43.269  23.774  28.756  1.00  0.00     0.127 S 
ATOM     87  O   UNL A   1      44.042  24.087  27.557  1.00  0.00    -0.237 OA
ATOM     88  O   UNL A   1      43.678  22.553  29.452  1.00  0.00    -0.237 OA
ATOM     89  O   UNL A   1      41.828  23.946  28.640  1.00  0.00    -0.744 OA
ENDBRANCH  83  86
ENDBRANCH  55  79
BRANCH  67  90
ATOM     90  C   UNL A   1      48.500  32.267  28.391  1.00  0.00     0.023 A 
ATOM     91  C   UNL A   1      48.909  31.985  27.072  1.00  0.00     0.012 A 
ATOM     92  C   UNL A   1      49.474  32.559  29.367  1.00  0.00     0.148 A 
ATOM     93  C   UNL A   1      50.263  31.947  26.742  1.00  0.00     0.002 A 
ATOM     94  C   UNL A   1      50.819  32.575  29.017  1.00  0.00     0.091 A 
ATOM     95  F   UNL A   1      49.069  32.813  30.620  1.00  0.00    -0.205 F 
ATOM     96  C   UNL A   1      51.216  32.251  27.709  1.00  0.00     0.022 A 
BRANCH  94  97
ATOM     97  S   UNL A   1      52.109  33.052  30.171  1.00  0.00     0.127 S 
ATOM     98  O   UNL A   1      51.703  34.409  30.528  1.00  0.00    -0.237 OA
ATOM     99  O   UNL A   1      51.948  32.066  31.240  1.00  0.00    -0.237 OA
ATOM    100  O   UNL A   1      53.363  32.949  29.437  1.00  0.00    -0.744 OA
ENDBRANCH  94  97
ENDBRANCH  67  90
ENDBRANCH  41  42
ENDBRANCH  34  36
ENDBRANCH  33  34
ENDBRANCH  32  33
ENDBRANCH  31  32
ENDBRANCH  30  31
ENDBRANCH  29  30
ENDBRANCH   1  29
TORSDOF 26
ENDMDL
MODEL 3
REMARK VINA RESULT:      -8.4      3.964     10.297
REMARK SMILES CC1(C)CSC[C@H]([NH2+][C@H](C(=O)OCCOCCOCCOCCOC(=O)c2ccc(-c3c4nc(c(-c5cccc(S(=O)(=O)[O-])c5F)c5ccc([nH]5)c(-c5cccc(S(=O)(=O)[O-])c5F)c5nc(c(-c6cccc(S(=O)(=O)[O-])c6F)c6ccc3[nH]6)C=C5)C=C4)cc2)c2ccccc2)C1
REMARK SMILES IDX 19 1 18 2 17 3 16 4 15 5 14 6 13 7 12 8 10 9 11 10 9 11 8 12
REMARK SMILES IDX 7 15 1 16 2 17 3 18 4 19 96 20 5 21 6 22 90 23 91 24 95 25
REMARK SMILES IDX 92 26 94 27 93 28 20 29 21 30 22 31 23 32 24 33 25 34 26 35
REMARK SMILES IDX 27 36 28 37 89 38 29 39 88 40 30 41 31 42 32 43 82 44 33 45
REMARK SMILES IDX 87 46 81 47 83 48 34 49 86 50 80 51 79 52 35 54 67 55 47 56
REMARK SMILES IDX 66 57 48 58 51 59 65 60 84 61 49 62 50 63 64 65 85 66 52 67
REMARK SMILES IDX 36 68 37 69 45 70 38 71 40 72 46 73 39 74 41 75 42 76 43 77
REMARK SMILES IDX 44 78 68 79 69 80 77 81 70 82 72 83 78 84 71 85 73 86 74 87
REMARK SMILES IDX 75 88 76 89 53 90 54 91 62 92 55 93 57 94 63 95 56 96 58 97
REMARK SMILES IDX 59 98 60 99 61 100
REMARK H PARENT 8 13 8 14 83 53 51 64
REMARK Flexibility Score: inf
ROOT
ATOM      1  C   UNL A   1      44.120  19.222  25.203  1.00  0.00     0.188 C 
ENDROOT
BRANCH   1   2
ATOM      2  O   UNL A   1      42.799  19.719  25.128  1.00  0.00    -0.377 OA
BRANCH   2   3
ATOM      3  C   UNL A   1      42.176  20.102  26.342  1.00  0.00     0.188 C 
BRANCH   3   4
ATOM      4  C   UNL A   1      40.674  20.391  26.451  1.00  0.00     0.188 C 
BRANCH   4   5
ATOM      5  O   UNL A   1      40.280  21.641  25.907  1.00  0.00    -0.376 OA
BRANCH   5   6
ATOM      6  C   UNL A   1      38.998  22.179  26.200  1.00  0.00     0.202 C 
BRANCH   6   7
ATOM      7  C   UNL A   1      37.728  21.646  25.453  1.00  0.00     0.261 C 
BRANCH   7   8
ATOM      8  O   UNL A   1      36.375  22.046  25.837  1.00  0.00    -0.459 OA
BRANCH   8   9
ATOM      9  C   UNL A   1      35.395  21.606  25.016  1.00  0.00     0.369 C 
ATOM     10  O   UNL A   1      35.421  21.934  23.838  1.00  0.00    -0.245 OA
BRANCH   9  11
ATOM     11  C   UNL A   1      34.297  20.657  25.640  1.00  0.00     0.325 C 
BRANCH  11  12
ATOM     12  N   UNL A   1      33.136  21.442  26.242  1.00  0.00    -0.328 N 
ATOM     13  H   UNL A   1      32.314  20.837  26.246  1.00  0.00     0.347 HD
ATOM     14  H   UNL A   1      33.439  21.725  27.173  1.00  0.00     0.347 HD
BRANCH  12  15
ATOM     15  C   UNL A   1      32.779  22.688  25.531  1.00  0.00     0.193 C 
ATOM     16  C   UNL A   1      34.371  25.084  24.457  1.00  0.00     0.012 C 
ATOM     17  C   UNL A   1      33.104  25.205  25.348  1.00  0.00    -0.021 C 
ATOM     18  C   UNL A   1      33.275  26.478  26.193  1.00  0.00     0.012 C 
ATOM     19  C   UNL A   1      31.849  25.412  24.468  1.00  0.00     0.076 C 
ATOM     20  C   UNL A   1      32.963  23.985  26.324  1.00  0.00     0.073 C 
ATOM     21  S   UNL A   1      31.213  23.986  23.567  1.00  0.00    -0.155 SA
ATOM     22  C   UNL A   1      31.386  22.713  24.852  1.00  0.00     0.134 C 
ENDBRANCH  12  15
ENDBRANCH  11  12
BRANCH  11  23
ATOM     23  C   UNL A   1      33.810  19.519  24.706  1.00  0.00     0.021 A 
ATOM     24  C   UNL A   1      34.554  18.327  24.587  1.00  0.00     0.010 A 
ATOM     25  C   UNL A   1      32.634  19.596  23.935  1.00  0.00     0.010 A 
ATOM     26  C   UNL A   1      34.189  17.322  23.673  1.00  0.00     0.001 A 
ATOM     27  C   UNL A   1      32.263  18.595  23.029  1.00  0.00     0.001 A 
ATOM     28  C   UNL A   1      33.053  17.463  22.883  1.00  0.00     0.000 A 
ENDBRANCH  11  23
ENDBRANCH   9  11
ENDBRANCH   8   9
ENDBRANCH   7   8
ENDBRANCH   6   7
ENDBRANCH   5   6
ENDBRANCH   4   5
ENDBRANCH   3   4
ENDBRANCH   2   3
ENDBRANCH   1   2
BRANCH   1  29
ATOM     29  C   UNL A   1      45.141  20.167  24.561  1.00  0.00     0.188 C 
BRANCH  29  30
ATOM     30  O   UNL A   1      45.738  21.116  25.422  1.00  0.00    -0.376 OA
BRANCH  30  31
ATOM     31  C   UNL A   1      45.334  22.475  25.455  1.00  0.00     0.202 C 
BRANCH  31  32
ATOM     32  C   UNL A   1      44.055  23.095  24.845  1.00  0.00     0.261 C 
BRANCH  32  33
ATOM     33  O   UNL A   1      43.069  23.684  25.692  1.00  0.00    -0.460 OA
BRANCH  33  34
ATOM     34  C   UNL A   1      42.863  25.015  25.592  1.00  0.00     0.338 C 
ATOM     35  O   UNL A   1      42.516  25.627  24.607  1.00  0.00    -0.246 OA
BRANCH  34  36
ATOM     36  C   UNL A   1      42.915  25.561  26.973  1.00  0.00     0.060 A 
ATOM     37  C   UNL A   1      43.433  26.850  27.156  1.00  0.00     0.016 A 
ATOM     38  C   UNL A   1      42.401  24.847  28.060  1.00  0.00     0.016 A 
ATOM     39  C   UNL A   1      43.464  27.417  28.426  1.00  0.00     0.010 A 
ATOM     40  C   UNL A   1      42.475  25.400  29.344  1.00  0.00     0.010 A 
ATOM     41  C   UNL A   1      43.040  26.673  29.532  1.00  0.00    -0.014 A 
BRANCH  41  42
ATOM     42  C   UNL A   1      43.411  27.159  30.880  1.00  0.00     0.031 A 
ATOM     43  C   UNL A   1      44.732  26.721  31.448  1.00  0.00     0.074 A 
ATOM     44  C   UNL A   1      42.635  28.031  31.546  1.00  0.00     0.049 A 
ATOM     45  N   UNL A   1      45.311  27.071  32.567  1.00  0.00    -0.248 NA
ATOM     46  C   UNL A   1      45.511  25.766  30.641  1.00  0.00     0.031 C 
ATOM     47  C   UNL A   1      41.347  28.543  31.084  1.00  0.00     0.029 A 
ATOM     48  N   UNL A   1      42.823  28.636  32.763  1.00  0.00    -0.354 N 
ATOM     49  C   UNL A   1      46.507  26.364  32.608  1.00  0.00     0.074 A 
ATOM     50  C   UNL A   1      46.567  25.555  31.411  1.00  0.00     0.031 C 
ATOM     51  C   UNL A   1      40.848  29.372  32.017  1.00  0.00     0.029 A 
ATOM     52  C   UNL A   1      41.772  29.433  33.149  1.00  0.00     0.049 A 
ATOM     53  H   UNL A   1      43.634  28.512  33.308  1.00  0.00     0.167 HD
ATOM     54  C   UNL A   1      47.476  26.395  33.551  1.00  0.00     0.034 A 
ATOM     55  C   UNL A   1      41.574  30.116  34.294  1.00  0.00     0.034 A 
ATOM     56  C   UNL A   1      47.412  27.204  34.738  1.00  0.00     0.049 A 
ATOM     57  C   UNL A   1      42.652  30.105  35.347  1.00  0.00     0.074 A 
ATOM     58  C   UNL A   1      48.355  27.336  35.741  1.00  0.00     0.029 A 
ATOM     59  N   UNL A   1      46.335  28.002  35.094  1.00  0.00    -0.354 N 
ATOM     60  N   UNL A   1      43.827  29.521  35.324  1.00  0.00    -0.248 NA
ATOM     61  C   UNL A   1      42.392  30.877  36.571  1.00  0.00     0.031 C 
ATOM     62  C   UNL A   1      47.830  28.180  36.725  1.00  0.00     0.029 A 
ATOM     63  C   UNL A   1      46.580  28.612  36.313  1.00  0.00     0.049 A 
ATOM     64  H   UNL A   1      45.517  28.117  34.559  1.00  0.00     0.167 HD
ATOM     65  C   UNL A   1      44.457  29.878  36.512  1.00  0.00     0.074 A 
ATOM     66  C   UNL A   1      43.544  30.756  37.217  1.00  0.00     0.031 C 
ATOM     67  C   UNL A   1      45.674  29.508  36.985  1.00  0.00     0.034 A 
BRANCH  54  68
ATOM     68  C   UNL A   1      48.687  25.526  33.338  1.00  0.00     0.023 A 
ATOM     69  C   UNL A   1      49.792  26.021  32.615  1.00  0.00     0.012 A 
ATOM     70  C   UNL A   1      48.744  24.232  33.887  1.00  0.00     0.148 A 
ATOM     71  C   UNL A   1      50.923  25.227  32.415  1.00  0.00     0.002 A 
ATOM     72  C   UNL A   1      49.893  23.465  33.727  1.00  0.00     0.091 A 
ATOM     73  F   UNL A   1      47.673  23.770  34.548  1.00  0.00    -0.205 F 
ATOM     74  C   UNL A   1      50.976  23.956  32.980  1.00  0.00     0.022 A 
BRANCH  72  75
ATOM     75  S   UNL A   1      50.091  21.848  34.481  1.00  0.00     0.127 S 
ATOM     76  O   UNL A   1      48.847  21.186  34.093  1.00  0.00    -0.237 OA
ATOM     77  O   UNL A   1      51.287  21.342  33.806  1.00  0.00    -0.237 OA
ATOM     78  O   UNL A   1      50.252  22.085  35.909  1.00  0.00    -0.744 OA
ENDBRANCH  72  75
ENDBRANCH  54  68
BRANCH  55  79
ATOM     79  C   UNL A   1      40.313  30.884  34.499  1.00  0.00     0.023 A 
ATOM     80  C   UNL A   1      39.279  30.344  35.288  1.00  0.00     0.012 A 
ATOM     81  C   UNL A   1      40.136  32.152  33.911  1.00  0.00     0.148 A 
ATOM     82  C   UNL A   1      38.080  31.038  35.462  1.00  0.00     0.002 A 
ATOM     83  C   UNL A   1      38.965  32.864  34.138  1.00  0.00     0.091 A 
ATOM     84  F   UNL A   1      41.124  32.640  33.148  1.00  0.00    -0.205 F 
ATOM     85  C   UNL A   1      37.928  32.301  34.897  1.00  0.00     0.022 A 
BRANCH  83  86
ATOM     86  S   UNL A   1      38.735  34.548  33.559  1.00  0.00     0.127 S 
ATOM     87  O   UNL A   1      39.815  34.680  32.583  1.00  0.00    -0.237 OA
ATOM     88  O   UNL A   1      37.390  34.486  32.985  1.00  0.00    -0.237 OA
ATOM     89  O   UNL A   1      38.846  35.392  34.740  1.00  0.00    -0.744 OA
ENDBRANCH  83  86
ENDBRANCH  55  79
BRANCH  67  90
ATOM     90  C   UNL A   1      46.103  30.073  38.315  1.00  0.00     0.023 A 
ATOM     91  C   UNL A   1      46.785  31.305  38.372  1.00  0.00     0.012 A 
ATOM     92  C   UNL A   1      45.787  29.404  39.515  1.00  0.00     0.148 A 
ATOM     93  C   UNL A   1      47.188  31.837  39.597  1.00  0.00     0.002 A 
ATOM     94  C   UNL A   1      46.141  29.969  40.735  1.00  0.00     0.091 A 
ATOM     95  F   UNL A   1      45.149  28.227  39.443  1.00  0.00    -0.205 F 
ATOM     96  C   UNL A   1      46.858  31.176  40.776  1.00  0.00     0.022 A 
BRANCH  94  97
ATOM     97  S   UNL A   1      45.672  29.240  42.307  1.00  0.00     0.127 S 
ATOM     98  O   UNL A   1      46.280  30.167  43.259  1.00  0.00    -0.237 OA
ATOM     99  O   UNL A   1      44.211  29.295  42.250  1.00  0.00    -0.237 OA
ATOM    100  O   UNL A   1      46.226  27.893  42.307  1.00  0.00    -0.744 OA
ENDBRANCH  94  97
ENDBRANCH  67  90
ENDBRANCH  41  42
ENDBRANCH  34  36
ENDBRANCH  33  34
ENDBRANCH  32  33
ENDBRANCH  31  32
ENDBRANCH  30  31
ENDBRANCH  29  30
ENDBRANCH   1  29
TORSDOF 26
ENDMDL
