MODEL 1
REMARK VINA RESULT:      -8.2      0.000      0.000
REMARK SMILES C[C@@H]1C[C@@H]1C(=O)NCCC(=O)N[C@@](C)(C(=O)OCCOCCOCCOCCOC(=O)c1ccc(-c2c3nc(c(-c4cccc(S(=O)(=O)[O-])c4F)c4ccc([nH]4)c(-c4cccc(S(=O)(=O)[O-])c4F)c4nc(c(-c5cccc(S(=O)(=O)[O-])c5F)c5ccc2[nH]5)C=C4)C=C3)cc1)C(F)(F)F
REMARK SMILES IDX 22 1 21 2 20 3 19 4 18 5 17 6 15 7 16 8 13 9 14 10 12 11
REMARK SMILES IDX 10 12 11 13 9 15 8 16 7 17 5 18 6 19 4 21 1 22 2 23 3 24
REMARK SMILES IDX 95 25 96 26 97 27 98 28 23 29 24 30 25 31 26 32 27 33 28 34
REMARK SMILES IDX 29 35 30 36 31 37 32 38 33 39 94 40 34 41 93 42 35 43 36 44
REMARK SMILES IDX 37 45 87 46 38 47 92 48 86 49 88 50 39 51 91 52 85 53 84 54
REMARK SMILES IDX 40 56 72 57 52 58 71 59 53 60 56 61 70 62 89 63 54 64 55 65
REMARK SMILES IDX 69 67 90 68 57 69 41 70 42 71 50 72 43 73 45 74 51 75 44 76
REMARK SMILES IDX 46 77 47 78 48 79 49 80 73 81 74 82 82 83 75 84 77 85 83 86
REMARK SMILES IDX 76 87 78 88 79 89 80 90 81 91 58 92 59 93 67 94 60 95 62 96
REMARK SMILES IDX 68 97 61 98 63 99 64 100 65 101 66 102
REMARK H PARENT 12 14 7 20 88 55 56 66
REMARK Flexibility Score: inf
ROOT
ATOM      1  C   UNL A   1      40.199  24.514  26.546  1.00  0.00     0.188 C 
ENDROOT
BRANCH   1   2
ATOM      2  C   UNL A   1      39.595  23.114  26.765  1.00  0.00     0.188 C 
BRANCH   2   3
ATOM      3  O   UNL A   1      38.456  22.869  25.955  1.00  0.00    -0.376 OA
BRANCH   3   4
ATOM      4  C   UNL A   1      38.229  21.527  25.553  1.00  0.00     0.202 C 
BRANCH   4   5
ATOM      5  C   UNL A   1      36.936  21.139  24.801  1.00  0.00     0.261 C 
BRANCH   5   6
ATOM      6  O   UNL A   1      35.705  21.250  25.546  1.00  0.00    -0.461 OA
BRANCH   6   7
ATOM      7  C   UNL A   1      34.583  20.826  24.938  1.00  0.00     0.341 C 
ATOM      8  O   UNL A   1      34.351  19.639  24.724  1.00  0.00    -0.249 OA
BRANCH   7   9
ATOM      9  C   UNL A   1      33.574  21.956  24.613  1.00  0.00     0.231 C 
ATOM     10  C   UNL A   1      32.637  21.256  23.623  1.00  0.00     0.058 C 
BRANCH   9  11
ATOM     11  N   UNL A   1      34.060  23.198  23.897  1.00  0.00    -0.333 N 
ATOM     12  C   UNL A   1      33.392  24.217  23.269  1.00  0.00     0.222 C 
ATOM     13  O   UNL A   1      34.033  24.911  22.474  1.00  0.00    -0.275 OA
ATOM     14  H   UNL A   1      35.040  23.291  23.878  1.00  0.00     0.164 HD
BRANCH  12  15
ATOM     15  C   UNL A   1      31.949  24.609  23.584  1.00  0.00     0.121 C 
BRANCH  15  16
ATOM     16  C   UNL A   1      31.673  25.737  24.590  1.00  0.00     0.125 C 
BRANCH  16  17
ATOM     17  N   UNL A   1      32.198  27.059  24.281  1.00  0.00    -0.355 N 
ATOM     18  C   UNL A   1      31.840  28.018  23.357  1.00  0.00     0.223 C 
ATOM     19  O   UNL A   1      32.584  28.982  23.196  1.00  0.00    -0.275 OA
ATOM     20  H   UNL A   1      32.962  27.321  24.843  1.00  0.00     0.163 HD
BRANCH  18  21
ATOM     21  C   UNL A   1      30.563  27.897  22.589  1.00  0.00     0.081 C 
ATOM     22  C   UNL A   1      29.229  30.195  23.214  1.00  0.00     0.008 C 
ATOM     23  C   UNL A   1      29.384  28.874  22.539  1.00  0.00    -0.001 C 
ATOM     24  C   UNL A   1      29.293  27.647  23.389  1.00  0.00     0.018 C 
ENDBRANCH  18  21
ENDBRANCH  16  17
ENDBRANCH  15  16
ENDBRANCH  12  15
ENDBRANCH   9  11
BRANCH   9  25
ATOM     25  C   UNL A   1      33.040  22.233  26.031  1.00  0.00     0.422 C 
ATOM     26  F   UNL A   1      31.684  22.188  26.081  1.00  0.00    -0.168 F 
ATOM     27  F   UNL A   1      33.410  21.300  26.911  1.00  0.00    -0.168 F 
ATOM     28  F   UNL A   1      33.397  23.415  26.564  1.00  0.00    -0.168 F 
ENDBRANCH   9  25
ENDBRANCH   7   9
ENDBRANCH   6   7
ENDBRANCH   5   6
ENDBRANCH   4   5
ENDBRANCH   3   4
ENDBRANCH   2   3
ENDBRANCH   1   2
BRANCH   1  29
ATOM     29  O   UNL A   1      40.308  25.314  27.705  1.00  0.00    -0.377 OA
BRANCH  29  30
ATOM     30  C   UNL A   1      39.963  26.689  27.600  1.00  0.00     0.188 C 
BRANCH  30  31
ATOM     31  C   UNL A   1      39.344  27.457  28.795  1.00  0.00     0.188 C 
BRANCH  31  32
ATOM     32  O   UNL A   1      38.197  28.240  28.498  1.00  0.00    -0.376 OA
BRANCH  32  33
ATOM     33  C   UNL A   1      38.370  29.606  28.154  1.00  0.00     0.202 C 
BRANCH  33  34
ATOM     34  C   UNL A   1      37.422  30.642  28.776  1.00  0.00     0.261 C 
BRANCH  34  35
ATOM     35  O   UNL A   1      37.678  31.019  30.136  1.00  0.00    -0.460 OA
BRANCH  35  36
ATOM     36  C   UNL A   1      37.362  30.145  31.115  1.00  0.00     0.338 C 
ATOM     37  O   UNL A   1      36.260  29.678  31.356  1.00  0.00    -0.246 OA
BRANCH  36  38
ATOM     38  C   UNL A   1      38.632  29.661  31.700  1.00  0.00     0.060 A 
ATOM     39  C   UNL A   1      39.709  30.553  31.811  1.00  0.00     0.016 A 
ATOM     40  C   UNL A   1      38.736  28.359  32.195  1.00  0.00     0.016 A 
ATOM     41  C   UNL A   1      40.907  30.133  32.386  1.00  0.00     0.010 A 
ATOM     42  C   UNL A   1      39.949  27.928  32.738  1.00  0.00     0.010 A 
ATOM     43  C   UNL A   1      41.048  28.803  32.795  1.00  0.00    -0.014 A 
BRANCH  43  44
ATOM     44  C   UNL A   1      42.410  28.272  33.027  1.00  0.00     0.031 A 
ATOM     45  C   UNL A   1      43.206  27.842  31.827  1.00  0.00     0.074 A 
ATOM     46  C   UNL A   1      42.936  28.189  34.260  1.00  0.00     0.049 A 
ATOM     47  N   UNL A   1      44.414  27.351  31.764  1.00  0.00    -0.248 NA
ATOM     48  C   UNL A   1      42.543  27.985  30.519  1.00  0.00     0.031 C 
ATOM     49  C   UNL A   1      42.265  28.579  35.496  1.00  0.00     0.029 A 
ATOM     50  N   UNL A   1      44.160  27.720  34.668  1.00  0.00    -0.354 N 
ATOM     51  C   UNL A   1      44.645  27.095  30.418  1.00  0.00     0.074 A 
ATOM     52  C   UNL A   1      43.447  27.470  29.701  1.00  0.00     0.031 C 
ATOM     53  C   UNL A   1      43.074  28.302  36.534  1.00  0.00     0.029 A 
ATOM     54  C   UNL A   1      44.308  27.696  36.034  1.00  0.00     0.049 A 
ATOM     55  H   UNL A   1      44.863  27.431  34.044  1.00  0.00     0.167 HD
ATOM     56  C   UNL A   1      45.758  26.603  29.826  1.00  0.00     0.034 A 
ATOM     57  C   UNL A   1      45.314  27.214  36.790  1.00  0.00     0.034 A 
ATOM     58  C   UNL A   1      46.947  26.233  30.544  1.00  0.00     0.049 A 
ATOM     59  C   UNL A   1      46.536  26.644  36.118  1.00  0.00     0.074 A 
ATOM     60  C   UNL A   1      48.148  25.775  30.036  1.00  0.00     0.029 A 
ATOM     61  N   UNL A   1      47.074  26.251  31.924  1.00  0.00    -0.354 N 
ATOM     62  N   UNL A   1      46.793  26.524  34.837  1.00  0.00    -0.248 NA
ATOM     63  C   UNL A   1      47.621  26.177  36.992  1.00  0.00     0.031 C 
ATOM     64  C   UNL A   1      48.988  25.475  31.114  1.00  0.00     0.029 A 
ATOM     65  C   UNL A   1      48.326  25.792  32.291  1.00  0.00     0.049 A 
ATOM     66  H   UNL A   1      46.375  26.549  32.552  1.00  0.00     0.167 HD
ATOM     67  C   UNL A   1      48.079  25.999  34.751  1.00  0.00     0.074 A 
ATOM     68  C   UNL A   1      48.553  25.840  36.111  1.00  0.00     0.031 C 
ATOM     69  C   UNL A   1      48.798  25.671  33.648  1.00  0.00     0.034 A 
BRANCH  56  70
ATOM     70  C   UNL A   1      45.724  26.432  28.331  1.00  0.00     0.023 A 
ATOM     71  C   UNL A   1      46.027  27.521  27.488  1.00  0.00     0.012 A 
ATOM     72  C   UNL A   1      45.396  25.188  27.760  1.00  0.00     0.148 A 
ATOM     73  C   UNL A   1      45.953  27.389  26.102  1.00  0.00     0.002 A 
ATOM     74  C   UNL A   1      45.376  25.049  26.378  1.00  0.00     0.091 A 
ATOM     75  F   UNL A   1      45.083  24.171  28.576  1.00  0.00    -0.205 F 
ATOM     76  C   UNL A   1      45.638  26.151  25.547  1.00  0.00     0.022 A 
BRANCH  74  77
ATOM     77  S   UNL A   1      45.061  23.476  25.573  1.00  0.00     0.127 S 
ATOM     78  O   UNL A   1      45.035  23.865  24.164  1.00  0.00    -0.237 OA
ATOM     79  O   UNL A   1      46.230  22.689  25.967  1.00  0.00    -0.237 OA
ATOM     80  O   UNL A   1      43.797  22.994  26.115  1.00  0.00    -0.744 OA
ENDBRANCH  74  77
ENDBRANCH  56  70
BRANCH  57  81
ATOM     81  C   UNL A   1      45.208  27.275  38.275  1.00  0.00     0.023 A 
ATOM     82  C   UNL A   1      44.689  26.177  38.987  1.00  0.00     0.012 A 
ATOM     83  C   UNL A   1      45.665  28.403  38.985  1.00  0.00     0.148 A 
ATOM     84  C   UNL A   1      44.611  26.208  40.380  1.00  0.00     0.002 A 
ATOM     85  C   UNL A   1      45.638  28.404  40.374  1.00  0.00     0.091 A 
ATOM     86  F   UNL A   1      46.143  29.441  38.285  1.00  0.00    -0.205 F 
ATOM     87  C   UNL A   1      45.096  27.315  41.073  1.00  0.00     0.022 A 
BRANCH  85  88
ATOM     88  S   UNL A   1      46.361  29.724  41.353  1.00  0.00     0.127 S 
ATOM     89  O   UNL A   1      45.490  30.851  41.028  1.00  0.00    -0.237 OA
ATOM     90  O   UNL A   1      46.210  29.199  42.711  1.00  0.00    -0.237 OA
ATOM     91  O   UNL A   1      47.739  29.846  40.902  1.00  0.00    -0.744 OA
ENDBRANCH  85  88
ENDBRANCH  57  81
BRANCH  69  92
ATOM     92  C   UNL A   1      50.195  25.140  33.850  1.00  0.00     0.023 A 
ATOM     93  C   UNL A   1      51.266  26.030  34.069  1.00  0.00     0.012 A 
ATOM     94  C   UNL A   1      50.431  23.751  33.907  1.00  0.00     0.148 A 
ATOM     95  C   UNL A   1      52.553  25.547  34.306  1.00  0.00     0.002 A 
ATOM     96  C   UNL A   1      51.704  23.278  34.196  1.00  0.00     0.091 A 
ATOM     97  F   UNL A   1      49.404  22.919  33.682  1.00  0.00    -0.205 F 
ATOM     98  C   UNL A   1      52.770  24.173  34.382  1.00  0.00     0.022 A 
BRANCH  96  99
ATOM     99  S   UNL A   1      52.057  21.530  34.414  1.00  0.00     0.127 S 
ATOM    100  O   UNL A   1      52.023  21.045  33.035  1.00  0.00    -0.237 OA
ATOM    101  O   UNL A   1      53.390  21.556  35.018  1.00  0.00    -0.237 OA
ATOM    102  O   UNL A   1      51.010  21.012  35.283  1.00  0.00    -0.744 OA
ENDBRANCH  96  99
ENDBRANCH  69  92
ENDBRANCH  43  44
ENDBRANCH  36  38
ENDBRANCH  35  36
ENDBRANCH  34  35
ENDBRANCH  33  34
ENDBRANCH  32  33
ENDBRANCH  31  32
ENDBRANCH  30  31
ENDBRANCH  29  30
ENDBRANCH   1  29
TORSDOF 29
ENDMDL
MODEL 2
REMARK VINA RESULT:      -7.8      3.588      9.283
REMARK SMILES C[C@@H]1C[C@@H]1C(=O)NCCC(=O)N[C@@](C)(C(=O)OCCOCCOCCOCCOC(=O)c1ccc(-c2c3nc(c(-c4cccc(S(=O)(=O)[O-])c4F)c4ccc([nH]4)c(-c4cccc(S(=O)(=O)[O-])c4F)c4nc(c(-c5cccc(S(=O)(=O)[O-])c5F)c5ccc2[nH]5)C=C4)C=C3)cc1)C(F)(F)F
REMARK SMILES IDX 22 1 21 2 20 3 19 4 18 5 17 6 15 7 16 8 13 9 14 10 12 11
REMARK SMILES IDX 10 12 11 13 9 15 8 16 7 17 5 18 6 19 4 21 1 22 2 23 3 24
REMARK SMILES IDX 95 25 96 26 97 27 98 28 23 29 24 30 25 31 26 32 27 33 28 34
REMARK SMILES IDX 29 35 30 36 31 37 32 38 33 39 94 40 34 41 93 42 35 43 36 44
REMARK SMILES IDX 37 45 87 46 38 47 92 48 86 49 88 50 39 51 91 52 85 53 84 54
REMARK SMILES IDX 40 56 72 57 52 58 71 59 53 60 56 61 70 62 89 63 54 64 55 65
REMARK SMILES IDX 69 67 90 68 57 69 41 70 42 71 50 72 43 73 45 74 51 75 44 76
REMARK SMILES IDX 46 77 47 78 48 79 49 80 73 81 74 82 82 83 75 84 77 85 83 86
REMARK SMILES IDX 76 87 78 88 79 89 80 90 81 91 58 92 59 93 67 94 60 95 62 96
REMARK SMILES IDX 68 97 61 98 63 99 64 100 65 101 66 102
REMARK H PARENT 12 14 7 20 88 55 56 66
REMARK Flexibility Score: inf
ROOT
ATOM      1  C   UNL A   1      40.729  20.025  26.297  1.00  0.00     0.188 C 
ENDROOT
BRANCH   1   2
ATOM      2  C   UNL A   1      39.761  21.198  26.545  1.00  0.00     0.188 C 
BRANCH   2   3
ATOM      3  O   UNL A   1      39.070  21.604  25.374  1.00  0.00    -0.376 OA
BRANCH   3   4
ATOM      4  C   UNL A   1      37.988  22.507  25.546  1.00  0.00     0.202 C 
BRANCH   4   5
ATOM      5  C   UNL A   1      36.566  21.982  25.845  1.00  0.00     0.261 C 
BRANCH   5   6
ATOM      6  O   UNL A   1      35.485  22.917  25.648  1.00  0.00    -0.461 OA
BRANCH   6   7
ATOM      7  C   UNL A   1      34.314  22.632  26.245  1.00  0.00     0.341 C 
ATOM      8  O   UNL A   1      34.145  22.736  27.458  1.00  0.00    -0.249 OA
BRANCH   7   9
ATOM      9  C   UNL A   1      33.179  22.248  25.263  1.00  0.00     0.231 C 
ATOM     10  C   UNL A   1      33.078  20.735  25.488  1.00  0.00     0.058 C 
BRANCH   9  11
ATOM     11  N   UNL A   1      33.399  22.419  23.776  1.00  0.00    -0.333 N 
ATOM     12  C   UNL A   1      33.558  23.533  22.993  1.00  0.00     0.222 C 
ATOM     13  O   UNL A   1      33.372  23.405  21.779  1.00  0.00    -0.275 OA
ATOM     14  H   UNL A   1      33.436  21.571  23.277  1.00  0.00     0.164 HD
BRANCH  12  15
ATOM     15  C   UNL A   1      34.061  24.877  23.519  1.00  0.00     0.121 C 
BRANCH  15  16
ATOM     16  C   UNL A   1      33.128  26.097  23.496  1.00  0.00     0.125 C 
BRANCH  16  17
ATOM     17  N   UNL A   1      31.710  25.857  23.274  1.00  0.00    -0.355 N 
ATOM     18  C   UNL A   1      30.571  26.515  23.689  1.00  0.00     0.223 C 
ATOM     19  O   UNL A   1      29.483  25.978  23.498  1.00  0.00    -0.275 OA
ATOM     20  H   UNL A   1      31.526  25.067  22.716  1.00  0.00     0.163 HD
BRANCH  18  21
ATOM     21  C   UNL A   1      30.661  27.859  24.336  1.00  0.00     0.081 C 
ATOM     22  C   UNL A   1      29.808  29.560  22.378  1.00  0.00     0.008 C 
ATOM     23  C   UNL A   1      30.329  29.230  23.736  1.00  0.00    -0.001 C 
ATOM     24  C   UNL A   1      31.756  28.795  23.844  1.00  0.00     0.018 C 
ENDBRANCH  18  21
ENDBRANCH  16  17
ENDBRANCH  15  16
ENDBRANCH  12  15
ENDBRANCH   9  11
BRANCH   9  25
ATOM     25  C   UNL A   1      32.050  23.132  25.825  1.00  0.00     0.422 C 
ATOM     26  F   UNL A   1      31.449  22.565  26.902  1.00  0.00    -0.168 F 
ATOM     27  F   UNL A   1      32.496  24.297  26.299  1.00  0.00    -0.168 F 
ATOM     28  F   UNL A   1      31.064  23.432  24.959  1.00  0.00    -0.168 F 
ENDBRANCH   9  25
ENDBRANCH   7   9
ENDBRANCH   6   7
ENDBRANCH   5   6
ENDBRANCH   4   5
ENDBRANCH   3   4
ENDBRANCH   2   3
ENDBRANCH   1   2
BRANCH   1  29
ATOM     29  O   UNL A   1      41.832  19.954  27.175  1.00  0.00    -0.377 OA
BRANCH  29  30
ATOM     30  C   UNL A   1      42.437  18.686  27.384  1.00  0.00     0.188 C 
BRANCH  30  31
ATOM     31  C   UNL A   1      43.154  17.935  26.232  1.00  0.00     0.188 C 
BRANCH  31  32
ATOM     32  O   UNL A   1      44.385  18.499  25.801  1.00  0.00    -0.376 OA
BRANCH  32  33
ATOM     33  C   UNL A   1      44.401  19.288  24.622  1.00  0.00     0.202 C 
BRANCH  33  34
ATOM     34  C   UNL A   1      44.882  20.743  24.724  1.00  0.00     0.261 C 
BRANCH  34  35
ATOM     35  O   UNL A   1      44.366  21.521  25.812  1.00  0.00    -0.460 OA
BRANCH  35  36
ATOM     36  C   UNL A   1      43.516  22.532  25.533  1.00  0.00     0.338 C 
ATOM     37  O   UNL A   1      42.701  22.578  24.626  1.00  0.00    -0.246 OA
BRANCH  36  38
ATOM     38  C   UNL A   1      43.576  23.482  26.666  1.00  0.00     0.060 A 
ATOM     39  C   UNL A   1      42.995  23.115  27.889  1.00  0.00     0.016 A 
ATOM     40  C   UNL A   1      44.258  24.695  26.541  1.00  0.00     0.016 A 
ATOM     41  C   UNL A   1      43.064  23.977  28.981  1.00  0.00     0.010 A 
ATOM     42  C   UNL A   1      44.295  25.574  27.625  1.00  0.00     0.010 A 
ATOM     43  C   UNL A   1      43.661  25.234  28.833  1.00  0.00    -0.014 A 
BRANCH  43  44
ATOM     44  C   UNL A   1      43.385  26.275  29.848  1.00  0.00     0.031 A 
ATOM     45  C   UNL A   1      44.367  26.429  30.974  1.00  0.00     0.074 A 
ATOM     46  C   UNL A   1      42.308  27.075  29.767  1.00  0.00     0.049 A 
ATOM     47  N   UNL A   1      44.355  27.264  31.978  1.00  0.00    -0.248 NA
ATOM     48  C   UNL A   1      45.520  25.513  30.965  1.00  0.00     0.031 C 
ATOM     49  C   UNL A   1      41.292  27.023  28.721  1.00  0.00     0.029 A 
ATOM     50  N   UNL A   1      41.886  28.075  30.606  1.00  0.00    -0.354 N 
ATOM     51  C   UNL A   1      45.476  26.952  32.738  1.00  0.00     0.074 A 
ATOM     52  C   UNL A   1      46.137  25.843  32.088  1.00  0.00     0.031 C 
ATOM     53  C   UNL A   1      40.340  27.931  28.998  1.00  0.00     0.029 A 
ATOM     54  C   UNL A   1      40.671  28.610  30.252  1.00  0.00     0.049 A 
ATOM     55  H   UNL A   1      42.403  28.379  31.386  1.00  0.00     0.167 HD
ATOM     56  C   UNL A   1      45.925  27.542  33.870  1.00  0.00     0.034 A 
ATOM     57  C   UNL A   1      39.906  29.522  30.883  1.00  0.00     0.034 A 
ATOM     58  C   UNL A   1      45.265  28.646  34.511  1.00  0.00     0.049 A 
ATOM     59  C   UNL A   1      40.407  30.152  32.157  1.00  0.00     0.074 A 
ATOM     60  C   UNL A   1      45.664  29.352  35.631  1.00  0.00     0.029 A 
ATOM     61  N   UNL A   1      44.053  29.184  34.107  1.00  0.00    -0.354 N 
ATOM     62  N   UNL A   1      41.531  29.937  32.798  1.00  0.00    -0.248 NA
ATOM     63  C   UNL A   1      39.552  31.174  32.776  1.00  0.00     0.031 C 
ATOM     64  C   UNL A   1      44.669  30.290  35.929  1.00  0.00     0.029 A 
ATOM     65  C   UNL A   1      43.675  30.200  34.966  1.00  0.00     0.049 A 
ATOM     66  H   UNL A   1      43.537  28.888  33.322  1.00  0.00     0.167 HD
ATOM     67  C   UNL A   1      41.535  30.818  33.875  1.00  0.00     0.074 A 
ATOM     68  C   UNL A   1      40.305  31.580  33.789  1.00  0.00     0.031 C 
ATOM     69  C   UNL A   1      42.465  30.975  34.850  1.00  0.00     0.034 A 
BRANCH  56  70
ATOM     70  C   UNL A   1      47.185  26.990  34.481  1.00  0.00     0.023 A 
ATOM     71  C   UNL A   1      48.439  27.525  34.121  1.00  0.00     0.012 A 
ATOM     72  C   UNL A   1      47.125  25.941  35.418  1.00  0.00     0.148 A 
ATOM     73  C   UNL A   1      49.616  26.991  34.644  1.00  0.00     0.002 A 
ATOM     74  C   UNL A   1      48.299  25.449  35.976  1.00  0.00     0.091 A 
ATOM     75  F   UNL A   1      45.928  25.425  35.728  1.00  0.00    -0.205 F 
ATOM     76  C   UNL A   1      49.546  25.960  35.578  1.00  0.00     0.022 A 
BRANCH  74  77
ATOM     77  S   UNL A   1      48.305  24.180  37.245  1.00  0.00     0.127 S 
ATOM     78  O   UNL A   1      47.409  24.758  38.245  1.00  0.00    -0.237 OA
ATOM     79  O   UNL A   1      47.758  23.027  36.529  1.00  0.00    -0.237 OA
ATOM     80  O   UNL A   1      49.695  24.031  37.657  1.00  0.00    -0.744 OA
ENDBRANCH  74  77
ENDBRANCH  56  70
BRANCH  57  81
ATOM     81  C   UNL A   1      38.592  29.907  30.297  1.00  0.00     0.023 A 
ATOM     82  C   UNL A   1      37.526  28.988  30.302  1.00  0.00     0.012 A 
ATOM     83  C   UNL A   1      38.385  31.200  29.776  1.00  0.00     0.148 A 
ATOM     84  C   UNL A   1      36.280  29.344  29.784  1.00  0.00     0.002 A 
ATOM     85  C   UNL A   1      37.127  31.567  29.315  1.00  0.00     0.091 A 
ATOM     86  F   UNL A   1      39.419  32.053  29.770  1.00  0.00    -0.205 F 
ATOM     87  C   UNL A   1      36.077  30.636  29.302  1.00  0.00     0.022 A 
BRANCH  85  88
ATOM     88  S   UNL A   1      36.738  33.242  28.800  1.00  0.00     0.127 S 
ATOM     89  O   UNL A   1      35.899  33.008  27.627  1.00  0.00    -0.237 OA
ATOM     90  O   UNL A   1      36.029  33.754  29.974  1.00  0.00    -0.237 OA
ATOM     91  O   UNL A   1      38.017  33.886  28.538  1.00  0.00    -0.744 OA
ENDBRANCH  85  88
ENDBRANCH  57  81
BRANCH  69  92
ATOM     92  C   UNL A   1      42.220  32.038  35.891  1.00  0.00     0.023 A 
ATOM     93  C   UNL A   1      41.674  31.690  37.143  1.00  0.00     0.012 A 
ATOM     94  C   UNL A   1      42.611  33.372  35.657  1.00  0.00     0.148 A 
ATOM     95  C   UNL A   1      41.489  32.658  38.130  1.00  0.00     0.002 A 
ATOM     96  C   UNL A   1      42.474  34.320  36.664  1.00  0.00     0.091 A 
ATOM     97  F   UNL A   1      43.117  33.689  34.455  1.00  0.00    -0.205 F 
ATOM     98  C   UNL A   1      41.900  33.969  37.896  1.00  0.00     0.022 A 
BRANCH  96  99
ATOM     99  S   UNL A   1      43.068  36.006  36.488  1.00  0.00     0.127 S 
ATOM    100  O   UNL A   1      44.483  35.795  36.190  1.00  0.00    -0.237 OA
ATOM    101  O   UNL A   1      42.274  36.498  35.361  1.00  0.00    -0.237 OA
ATOM    102  O   UNL A   1      42.789  36.666  37.756  1.00  0.00    -0.744 OA
ENDBRANCH  96  99
ENDBRANCH  69  92
ENDBRANCH  43  44
ENDBRANCH  36  38
ENDBRANCH  35  36
ENDBRANCH  34  35
ENDBRANCH  33  34
ENDBRANCH  32  33
ENDBRANCH  31  32
ENDBRANCH  30  31
ENDBRANCH  29  30
ENDBRANCH   1  29
TORSDOF 29
ENDMDL
MODEL 3
REMARK VINA RESULT:      -7.6      2.318      2.826
REMARK SMILES C[C@@H]1C[C@@H]1C(=O)NCCC(=O)N[C@@](C)(C(=O)OCCOCCOCCOCCOC(=O)c1ccc(-c2c3nc(c(-c4cccc(S(=O)(=O)[O-])c4F)c4ccc([nH]4)c(-c4cccc(S(=O)(=O)[O-])c4F)c4nc(c(-c5cccc(S(=O)(=O)[O-])c5F)c5ccc2[nH]5)C=C4)C=C3)cc1)C(F)(F)F
REMARK SMILES IDX 22 1 21 2 20 3 19 4 18 5 17 6 15 7 16 8 13 9 14 10 12 11
REMARK SMILES IDX 10 12 11 13 9 15 8 16 7 17 5 18 6 19 4 21 1 22 2 23 3 24
REMARK SMILES IDX 95 25 96 26 97 27 98 28 23 29 24 30 25 31 26 32 27 33 28 34
REMARK SMILES IDX 29 35 30 36 31 37 32 38 33 39 94 40 34 41 93 42 35 43 36 44
REMARK SMILES IDX 37 45 87 46 38 47 92 48 86 49 88 50 39 51 91 52 85 53 84 54
REMARK SMILES IDX 40 56 72 57 52 58 71 59 53 60 56 61 70 62 89 63 54 64 55 65
REMARK SMILES IDX 69 67 90 68 57 69 41 70 42 71 50 72 43 73 45 74 51 75 44 76
REMARK SMILES IDX 46 77 47 78 48 79 49 80 73 81 74 82 82 83 75 84 77 85 83 86
REMARK SMILES IDX 76 87 78 88 79 89 80 90 81 91 58 92 59 93 67 94 60 95 62 96
REMARK SMILES IDX 68 97 61 98 63 99 64 100 65 101 66 102
REMARK H PARENT 12 14 7 20 88 55 56 66
REMARK Flexibility Score: inf
ROOT
ATOM      1  C   UNL A   1      40.032  25.407  26.861  1.00  0.00     0.188 C 
ENDROOT
BRANCH   1   2
ATOM      2  C   UNL A   1      39.037  24.266  27.148  1.00  0.00     0.188 C 
BRANCH   2   3
ATOM      3  O   UNL A   1      38.329  23.846  25.992  1.00  0.00    -0.376 OA
BRANCH   3   4
ATOM      4  C   UNL A   1      37.115  23.140  26.203  1.00  0.00     0.202 C 
BRANCH   4   5
ATOM      5  C   UNL A   1      36.390  22.452  25.024  1.00  0.00     0.261 C 
BRANCH   5   6
ATOM      6  O   UNL A   1      34.958  22.621  24.968  1.00  0.00    -0.461 OA
BRANCH   6   7
ATOM      7  C   UNL A   1      34.212  21.748  25.670  1.00  0.00     0.341 C 
ATOM      8  O   UNL A   1      34.420  21.501  26.855  1.00  0.00    -0.249 OA
BRANCH   7   9
ATOM      9  C   UNL A   1      33.022  21.153  24.877  1.00  0.00     0.231 C 
ATOM     10  C   UNL A   1      33.065  21.983  23.590  1.00  0.00     0.058 C 
BRANCH   9  11
ATOM     11  N   UNL A   1      31.618  21.321  25.416  1.00  0.00    -0.333 N 
ATOM     12  C   UNL A   1      30.900  22.430  25.782  1.00  0.00     0.222 C 
ATOM     13  O   UNL A   1      29.918  22.257  26.509  1.00  0.00    -0.275 OA
ATOM     14  H   UNL A   1      31.127  20.474  25.524  1.00  0.00     0.164 HD
BRANCH  12  15
ATOM     15  C   UNL A   1      31.178  23.836  25.250  1.00  0.00     0.121 C 
BRANCH  15  16
ATOM     16  C   UNL A   1      32.107  24.774  26.035  1.00  0.00     0.125 C 
BRANCH  16  17
ATOM     17  N   UNL A   1      31.488  25.803  26.858  1.00  0.00    -0.355 N 
ATOM     18  C   UNL A   1      31.598  27.177  26.881  1.00  0.00     0.223 C 
ATOM     19  O   UNL A   1      31.087  27.789  27.816  1.00  0.00    -0.275 OA
ATOM     20  H   UNL A   1      30.866  25.447  27.532  1.00  0.00     0.163 HD
BRANCH  18  21
ATOM     21  C   UNL A   1      32.303  27.904  25.781  1.00  0.00     0.081 C 
ATOM     22  C   UNL A   1      34.164  29.401  27.104  1.00  0.00     0.008 C 
ATOM     23  C   UNL A   1      33.449  28.916  25.888  1.00  0.00    -0.001 C 
ATOM     24  C   UNL A   1      32.052  29.401  25.666  1.00  0.00     0.018 C 
ENDBRANCH  18  21
ENDBRANCH  16  17
ENDBRANCH  15  16
ENDBRANCH  12  15
ENDBRANCH   9  11
BRANCH   9  25
ATOM     25  C   UNL A   1      33.481  19.685  24.799  1.00  0.00     0.422 C 
ATOM     26  F   UNL A   1      33.044  18.958  25.859  1.00  0.00    -0.168 F 
ATOM     27  F   UNL A   1      32.964  19.040  23.751  1.00  0.00    -0.168 F 
ATOM     28  F   UNL A   1      34.812  19.497  24.736  1.00  0.00    -0.168 F 
ENDBRANCH   9  25
ENDBRANCH   7   9
ENDBRANCH   6   7
ENDBRANCH   5   6
ENDBRANCH   4   5
ENDBRANCH   3   4
ENDBRANCH   2   3
ENDBRANCH   1   2
BRANCH   1  29
ATOM     29  O   UNL A   1      40.223  26.324  27.918  1.00  0.00    -0.377 OA
BRANCH  29  30
ATOM     30  C   UNL A   1      39.322  27.419  28.021  1.00  0.00     0.188 C 
BRANCH  30  31
ATOM     31  C   UNL A   1      39.835  28.878  28.114  1.00  0.00     0.188 C 
BRANCH  31  32
ATOM     32  O   UNL A   1      38.870  29.849  28.493  1.00  0.00    -0.376 OA
BRANCH  32  33
ATOM     33  C   UNL A   1      37.498  29.487  28.490  1.00  0.00     0.202 C 
BRANCH  33  34
ATOM     34  C   UNL A   1      36.665  29.770  29.750  1.00  0.00     0.261 C 
BRANCH  34  35
ATOM     35  O   UNL A   1      37.265  30.607  30.748  1.00  0.00    -0.460 OA
BRANCH  35  36
ATOM     36  C   UNL A   1      37.532  30.073  31.958  1.00  0.00     0.338 C 
ATOM     37  O   UNL A   1      36.740  29.872  32.865  1.00  0.00    -0.246 OA
BRANCH  36  38
ATOM     38  C   UNL A   1      38.915  29.547  31.911  1.00  0.00     0.060 A 
ATOM     39  C   UNL A   1      39.116  28.162  31.998  1.00  0.00     0.016 A 
ATOM     40  C   UNL A   1      39.996  30.410  31.715  1.00  0.00     0.016 A 
ATOM     41  C   UNL A   1      40.405  27.637  31.926  1.00  0.00     0.010 A 
ATOM     42  C   UNL A   1      41.291  29.887  31.679  1.00  0.00     0.010 A 
ATOM     43  C   UNL A   1      41.499  28.504  31.827  1.00  0.00    -0.014 A 
BRANCH  43  44
ATOM     44  C   UNL A   1      42.847  27.985  32.145  1.00  0.00     0.031 A 
ATOM     45  C   UNL A   1      43.712  27.538  31.000  1.00  0.00     0.074 A 
ATOM     46  C   UNL A   1      43.304  27.928  33.408  1.00  0.00     0.049 A 
ATOM     47  N   UNL A   1      44.924  27.053  31.015  1.00  0.00    -0.248 NA
ATOM     48  C   UNL A   1      43.123  27.653  29.655  1.00  0.00     0.031 C 
ATOM     49  C   UNL A   1      42.562  28.336  34.596  1.00  0.00     0.029 A 
ATOM     50  N   UNL A   1      44.505  27.474  33.893  1.00  0.00    -0.354 N 
ATOM     51  C   UNL A   1      45.231  26.774  29.689  1.00  0.00     0.074 A 
ATOM     52  C   UNL A   1      44.074  27.129  28.899  1.00  0.00     0.031 C 
ATOM     53  C   UNL A   1      43.312  28.083  35.683  1.00  0.00     0.029 A 
ATOM     54  C   UNL A   1      44.576  27.474  35.265  1.00  0.00     0.049 A 
ATOM     55  H   UNL A   1      45.243  27.177  33.314  1.00  0.00     0.167 HD
ATOM     56  C   UNL A   1      46.378  26.277  29.170  1.00  0.00     0.034 A 
ATOM     57  C   UNL A   1      45.540  27.013  36.086  1.00  0.00     0.034 A 
ATOM     58  C   UNL A   1      47.527  25.928  29.960  1.00  0.00     0.049 A 
ATOM     59  C   UNL A   1      46.800  26.438  35.494  1.00  0.00     0.074 A 
ATOM     60  C   UNL A   1      48.757  25.468  29.530  1.00  0.00     0.029 A 
ATOM     61  N   UNL A   1      47.576  25.972  31.345  1.00  0.00    -0.354 N 
ATOM     62  N   UNL A   1      47.130  26.296  34.232  1.00  0.00    -0.248 NA
ATOM     63  C   UNL A   1      47.836  25.992  36.436  1.00  0.00     0.031 C 
ATOM     64  C   UNL A   1      49.536  25.192  30.659  1.00  0.00     0.029 A 
ATOM     65  C   UNL A   1      48.807  25.526  31.790  1.00  0.00     0.049 A 
ATOM     66  H   UNL A   1      46.841  26.277  31.927  1.00  0.00     0.167 HD
ATOM     67  C   UNL A   1      48.421  25.776  34.228  1.00  0.00     0.074 A 
ATOM     68  C   UNL A   1      48.818  25.645  35.615  1.00  0.00     0.031 C 
ATOM     69  C   UNL A   1      49.203  25.433  33.173  1.00  0.00     0.034 A 
BRANCH  56  70
ATOM     70  C   UNL A   1      46.430  26.079  27.679  1.00  0.00     0.023 A 
ATOM     71  C   UNL A   1      45.982  24.869  27.110  1.00  0.00     0.012 A 
ATOM     72  C   UNL A   1      46.920  27.097  26.838  1.00  0.00     0.148 A 
ATOM     73  C   UNL A   1      46.069  24.654  25.736  1.00  0.00     0.002 A 
ATOM     74  C   UNL A   1      46.954  26.897  25.463  1.00  0.00     0.091 A 
ATOM     75  F   UNL A   1      47.367  28.230  27.397  1.00  0.00    -0.205 F 
ATOM     76  C   UNL A   1      46.545  25.671  24.912  1.00  0.00     0.022 A 
BRANCH  74  77
ATOM     77  S   UNL A   1      47.473  28.176  24.317  1.00  0.00     0.127 S 
ATOM     78  O   UNL A   1      46.727  29.334  24.807  1.00  0.00    -0.237 OA
ATOM     79  O   UNL A   1      48.916  28.235  24.554  1.00  0.00    -0.237 OA
ATOM     80  O   UNL A   1      47.097  27.702  22.991  1.00  0.00    -0.744 OA
ENDBRANCH  74  77
ENDBRANCH  56  70
BRANCH  57  81
ATOM     81  C   UNL A   1      45.349  27.100  37.560  1.00  0.00     0.023 A 
ATOM     82  C   UNL A   1      44.811  26.006  38.264  1.00  0.00     0.012 A 
ATOM     83  C   UNL A   1      45.746  28.250  38.272  1.00  0.00     0.148 A 
ATOM     84  C   UNL A   1      44.655  26.062  39.650  1.00  0.00     0.002 A 
ATOM     85  C   UNL A   1      45.641  28.277  39.657  1.00  0.00     0.091 A 
ATOM     86  F   UNL A   1      46.243  29.283  37.578  1.00  0.00    -0.205 F 
ATOM     87  C   UNL A   1      45.081  27.191  40.347  1.00  0.00     0.022 A 
BRANCH  85  88
ATOM     88  S   UNL A   1      46.283  29.629  40.648  1.00  0.00     0.127 S 
ATOM     89  O   UNL A   1      47.650  29.747  40.146  1.00  0.00    -0.237 OA
ATOM     90  O   UNL A   1      45.389  30.724  40.268  1.00  0.00    -0.237 OA
ATOM     91  O   UNL A   1      46.159  29.200  42.034  1.00  0.00    -0.744 OA
ENDBRANCH  85  88
ENDBRANCH  57  81
BRANCH  69  92
ATOM     92  C   UNL A   1      50.588  24.914  33.464  1.00  0.00     0.023 A 
ATOM     93  C   UNL A   1      50.812  23.528  33.595  1.00  0.00     0.012 A 
ATOM     94  C   UNL A   1      51.685  25.797  33.525  1.00  0.00     0.148 A 
ATOM     95  C   UNL A   1      52.098  23.035  33.815  1.00  0.00     0.002 A 
ATOM     96  C   UNL A   1      52.970  25.295  33.691  1.00  0.00     0.091 A 
ATOM     97  F   UNL A   1      51.452  27.114  33.413  1.00  0.00    -0.205 F 
ATOM     98  C   UNL A   1      53.177  23.915  33.850  1.00  0.00     0.022 A 
BRANCH  96  99
ATOM     99  S   UNL A   1      54.428  26.343  33.648  1.00  0.00     0.127 S 
ATOM    100  O   UNL A   1      54.091  27.364  34.638  1.00  0.00    -0.237 OA
ATOM    101  O   UNL A   1      55.485  25.418  34.061  1.00  0.00    -0.237 OA
ATOM    102  O   UNL A   1      54.543  26.818  32.276  1.00  0.00    -0.744 OA
ENDBRANCH  96  99
ENDBRANCH  69  92
ENDBRANCH  43  44
ENDBRANCH  36  38
ENDBRANCH  35  36
ENDBRANCH  34  35
ENDBRANCH  33  34
ENDBRANCH  32  33
ENDBRANCH  31  32
ENDBRANCH  30  31
ENDBRANCH  29  30
ENDBRANCH   1  29
TORSDOF 29
ENDMDL
