MODEL 1
REMARK VINA RESULT:      -8.2      0.000      0.000
REMARK SMILES CC[NH2+][C@]1(C(=O)OCCOCCOCCOCCOC(=O)c2ccc(-c3c4nc(c(-c5cccc(S(=O)(=O)[O-])c5F)c5ccc([nH]5)c(-c5cccc(S(=O)(=O)[O-])c5F)c5nc(c(-c6cccc(S(=O)(=O)[O-])c6F)c6ccc3[nH]6)C=C5)C=C4)cc2)CCC[C@H]1CC[N@H+]1CCC[C@@H](CC)C1
REMARK SMILES IDX 12 1 11 2 10 3 9 4 8 5 7 6 5 7 6 8 4 9 85 10 88 11 86 12
REMARK SMILES IDX 87 13 3 14 2 17 1 18 89 19 90 20 91 21 92 22 98 23 93 25
REMARK SMILES IDX 95 26 94 27 96 28 97 29 13 30 14 31 15 32 16 33 17 34 18 35
REMARK SMILES IDX 19 36 20 37 21 38 22 39 23 40 84 41 24 42 83 43 25 44 26 45
REMARK SMILES IDX 27 46 77 47 28 48 82 49 76 50 78 51 29 52 81 53 75 54 74 55
REMARK SMILES IDX 30 57 62 58 42 59 61 60 43 61 46 62 60 63 79 64 44 65 45 66
REMARK SMILES IDX 59 68 80 69 47 70 31 71 32 72 40 73 33 74 35 75 41 76 34 77
REMARK SMILES IDX 36 78 37 79 38 80 39 81 63 82 64 83 72 84 65 85 67 86 73 87
REMARK SMILES IDX 66 88 68 89 69 90 70 91 71 92 48 93 49 94 57 95 50 96 52 97
REMARK SMILES IDX 58 98 51 99 53 100 54 101 55 102 56 103
REMARK H PARENT 3 15 3 16 91 24 78 56 46 67
REMARK Flexibility Score: inf
ROOT
ATOM      1  C   UNL A   1      36.878  31.691  30.804  1.00  0.00     0.188 C 
ENDROOT
BRANCH   1   2
ATOM      2  C   UNL A   1      37.137  30.653  29.693  1.00  0.00     0.188 C 
BRANCH   2   3
ATOM      3  O   UNL A   1      35.971  29.965  29.245  1.00  0.00    -0.376 OA
BRANCH   3   4
ATOM      4  C   UNL A   1      35.857  29.735  27.845  1.00  0.00     0.202 C 
BRANCH   4   5
ATOM      5  C   UNL A   1      34.430  29.597  27.279  1.00  0.00     0.261 C 
BRANCH   5   6
ATOM      6  O   UNL A   1      34.290  28.598  26.243  1.00  0.00    -0.459 OA
BRANCH   6   7
ATOM      7  C   UNL A   1      33.015  28.249  25.929  1.00  0.00     0.368 C 
ATOM      8  O   UNL A   1      32.245  27.877  26.798  1.00  0.00    -0.245 OA
BRANCH   7   9
ATOM      9  C   UNL A   1      32.724  28.289  24.401  1.00  0.00     0.197 C 
ATOM     10  C   UNL A   1      34.101  28.695  23.813  1.00  0.00     0.081 C 
ATOM     11  C   UNL A   1      32.452  26.914  23.713  1.00  0.00     0.068 C 
ATOM     12  C   UNL A   1      34.073  28.254  22.369  1.00  0.00     0.008 C 
ATOM     13  C   UNL A   1      33.189  27.014  22.349  1.00  0.00     0.011 C 
BRANCH   9  14
ATOM     14  N   UNL A   1      31.747  29.367  23.980  1.00  0.00    -0.332 N 
ATOM     15  H   UNL A   1      31.680  30.034  24.750  1.00  0.00     0.347 HD
ATOM     16  H   UNL A   1      32.132  29.735  23.109  1.00  0.00     0.347 HD
BRANCH  14  17
ATOM     17  C   UNL A   1      30.379  28.960  23.635  1.00  0.00     0.257 C 
ATOM     18  C   UNL A   1      30.032  29.267  22.176  1.00  0.00     0.071 C 
ENDBRANCH  14  17
ENDBRANCH   9  14
BRANCH  11  19
ATOM     19  C   UNL A   1      32.811  25.599  24.447  1.00  0.00     0.072 C 
BRANCH  19  20
ATOM     20  C   UNL A   1      34.243  25.009  24.258  1.00  0.00     0.262 C 
BRANCH  20  21
ATOM     21  N   UNL A   1      34.538  23.775  25.022  1.00  0.00    -0.335 N 
ATOM     22  C   UNL A   1      33.997  23.914  26.381  1.00  0.00     0.262 C 
ATOM     23  C   UNL A   1      33.978  22.568  24.354  1.00  0.00     0.265 C 
ATOM     24  H   UNL A   1      35.550  23.649  25.064  1.00  0.00     0.348 HD
ATOM     25  C   UNL A   1      34.284  22.686  27.234  1.00  0.00     0.062 C 
ATOM     26  C   UNL A   1      34.225  21.267  25.165  1.00  0.00     0.044 C 
ATOM     27  C   UNL A   1      33.697  21.439  26.594  1.00  0.00     0.015 C 
BRANCH  26  28
ATOM     28  C   UNL A   1      33.561  20.016  24.541  1.00  0.00     0.006 C 
ATOM     29  C   UNL A   1      32.400  20.343  23.617  1.00  0.00     0.004 C 
ENDBRANCH  26  28
ENDBRANCH  20  21
ENDBRANCH  19  20
ENDBRANCH  11  19
ENDBRANCH   7   9
ENDBRANCH   6   7
ENDBRANCH   5   6
ENDBRANCH   4   5
ENDBRANCH   3   4
ENDBRANCH   2   3
ENDBRANCH   1   2
BRANCH   1  30
ATOM     30  O   UNL A   1      35.802  32.607  30.646  1.00  0.00    -0.377 OA
BRANCH  30  31
ATOM     31  C   UNL A   1      34.795  32.549  31.639  1.00  0.00     0.188 C 
BRANCH  31  32
ATOM     32  C   UNL A   1      34.999  33.624  32.722  1.00  0.00     0.188 C 
BRANCH  32  33
ATOM     33  O   UNL A   1      35.086  33.113  34.040  1.00  0.00    -0.376 OA
BRANCH  33  34
ATOM     34  C   UNL A   1      35.831  33.770  35.052  1.00  0.00     0.202 C 
BRANCH  34  35
ATOM     35  C   UNL A   1      37.350  33.641  35.297  1.00  0.00     0.261 C 
BRANCH  35  36
ATOM     36  O   UNL A   1      37.804  33.109  36.536  1.00  0.00    -0.460 OA
BRANCH  36  37
ATOM     37  C   UNL A   1      38.156  31.804  36.573  1.00  0.00     0.338 C 
ATOM     38  O   UNL A   1      37.623  30.923  37.193  1.00  0.00    -0.246 OA
BRANCH  37  39
ATOM     39  C   UNL A   1      39.162  31.625  35.494  1.00  0.00     0.060 A 
ATOM     40  C   UNL A   1      38.733  30.999  34.315  1.00  0.00     0.016 A 
ATOM     41  C   UNL A   1      40.453  32.159  35.587  1.00  0.00     0.016 A 
ATOM     42  C   UNL A   1      39.599  30.892  33.233  1.00  0.00     0.010 A 
ATOM     43  C   UNL A   1      41.341  32.006  34.518  1.00  0.00     0.010 A 
ATOM     44  C   UNL A   1      40.922  31.340  33.356  1.00  0.00    -0.014 A 
BRANCH  44  45
ATOM     45  C   UNL A   1      41.905  30.807  32.389  1.00  0.00     0.031 A 
ATOM     46  C   UNL A   1      42.324  31.729  31.279  1.00  0.00     0.074 A 
ATOM     47  C   UNL A   1      42.465  29.595  32.535  1.00  0.00     0.049 A 
ATOM     48  N   UNL A   1      43.266  31.580  30.388  1.00  0.00    -0.248 NA
ATOM     49  C   UNL A   1      41.591  33.005  31.174  1.00  0.00     0.031 C 
ATOM     50  C   UNL A   1      42.138  28.624  33.576  1.00  0.00     0.029 A 
ATOM     51  N   UNL A   1      43.438  28.978  31.789  1.00  0.00    -0.354 N 
ATOM     52  C   UNL A   1      43.238  32.738  29.620  1.00  0.00     0.074 A 
ATOM     53  C   UNL A   1      42.176  33.572  30.133  1.00  0.00     0.031 C 
ATOM     54  C   UNL A   1      42.886  27.522  33.392  1.00  0.00     0.029 A 
ATOM     55  C   UNL A   1      43.740  27.709  32.219  1.00  0.00     0.049 A 
ATOM     56  H   UNL A   1      43.878  29.406  31.019  1.00  0.00     0.167 HD
ATOM     57  C   UNL A   1      44.038  33.085  28.588  1.00  0.00     0.034 A 
ATOM     58  C   UNL A   1      44.608  26.810  31.715  1.00  0.00     0.034 A 
ATOM     59  C   UNL A   1      45.080  32.245  28.073  1.00  0.00     0.049 A 
ATOM     60  C   UNL A   1      45.466  27.209  30.539  1.00  0.00     0.074 A 
ATOM     61  C   UNL A   1      45.961  32.502  27.039  1.00  0.00     0.029 A 
ATOM     62  N   UNL A   1      45.368  30.973  28.542  1.00  0.00    -0.354 N 
ATOM     63  N   UNL A   1      45.520  28.355  29.902  1.00  0.00    -0.248 NA
ATOM     64  C   UNL A   1      46.416  26.203  30.039  1.00  0.00     0.031 C 
ATOM     65  C   UNL A   1      46.764  31.370  26.864  1.00  0.00     0.029 A 
ATOM     66  C   UNL A   1      46.405  30.423  27.812  1.00  0.00     0.049 A 
ATOM     67  H   UNL A   1      44.901  30.526  29.286  1.00  0.00     0.167 HD
ATOM     68  C   UNL A   1      46.531  28.223  28.956  1.00  0.00     0.074 A 
ATOM     69  C   UNL A   1      47.077  26.890  29.118  1.00  0.00     0.031 C 
ATOM     70  C   UNL A   1      46.963  29.113  28.028  1.00  0.00     0.034 A 
BRANCH  57  71
ATOM     71  C   UNL A   1      43.810  34.433  27.964  1.00  0.00     0.023 A 
ATOM     72  C   UNL A   1      43.000  34.543  26.814  1.00  0.00     0.012 A 
ATOM     73  C   UNL A   1      44.380  35.591  28.524  1.00  0.00     0.148 A 
ATOM     74  C   UNL A   1      42.785  35.783  26.215  1.00  0.00     0.002 A 
ATOM     75  C   UNL A   1      44.124  36.830  27.947  1.00  0.00     0.091 A 
ATOM     76  F   UNL A   1      45.175  35.459  29.594  1.00  0.00    -0.205 F 
ATOM     77  C   UNL A   1      43.337  36.926  26.787  1.00  0.00     0.022 A 
BRANCH  75  78
ATOM     78  S   UNL A   1      44.731  38.366  28.651  1.00  0.00     0.127 S 
ATOM     79  O   UNL A   1      46.052  38.472  28.032  1.00  0.00    -0.237 OA
ATOM     80  O   UNL A   1      43.749  39.334  28.162  1.00  0.00    -0.237 OA
ATOM     81  O   UNL A   1      44.731  38.174  30.094  1.00  0.00    -0.744 OA
ENDBRANCH  75  78
ENDBRANCH  57  71
BRANCH  58  82
ATOM     82  C   UNL A   1      44.744  25.464  32.341  1.00  0.00     0.023 A 
ATOM     83  C   UNL A   1      44.058  24.362  31.794  1.00  0.00     0.012 A 
ATOM     84  C   UNL A   1      45.553  25.272  33.479  1.00  0.00     0.148 A 
ATOM     85  C   UNL A   1      44.149  23.101  32.388  1.00  0.00     0.002 A 
ATOM     86  C   UNL A   1      45.682  24.003  34.033  1.00  0.00     0.091 A 
ATOM     87  F   UNL A   1      46.182  26.336  33.998  1.00  0.00    -0.205 F 
ATOM     88  C   UNL A   1      44.968  22.920  33.499  1.00  0.00     0.022 A 
BRANCH  86  89
ATOM     89  S   UNL A   1      46.810  23.654  35.386  1.00  0.00     0.127 S 
ATOM     90  O   UNL A   1      46.236  24.451  36.467  1.00  0.00    -0.237 OA
ATOM     91  O   UNL A   1      46.657  22.207  35.540  1.00  0.00    -0.237 OA
ATOM     92  O   UNL A   1      48.125  24.072  34.922  1.00  0.00    -0.744 OA
ENDBRANCH  86  89
ENDBRANCH  58  82
BRANCH  70  93
ATOM     93  C   UNL A   1      48.106  28.695  27.138  1.00  0.00     0.023 A 
ATOM     94  C   UNL A   1      49.428  28.751  27.618  1.00  0.00     0.012 A 
ATOM     95  C   UNL A   1      47.858  28.176  25.851  1.00  0.00     0.148 A 
ATOM     96  C   UNL A   1      50.491  28.339  26.816  1.00  0.00     0.002 A 
ATOM     97  C   UNL A   1      48.917  27.718  25.077  1.00  0.00     0.091 A 
ATOM     98  F   UNL A   1      46.594  28.144  25.405  1.00  0.00    -0.205 F 
ATOM     99  C   UNL A   1      50.235  27.812  25.552  1.00  0.00     0.022 A 
BRANCH  97 100
ATOM    100  S   UNL A   1      48.666  26.931  23.482  1.00  0.00     0.127 S 
ATOM    101  O   UNL A   1      48.007  25.684  23.866  1.00  0.00    -0.237 OA
ATOM    102  O   UNL A   1      47.802  27.890  22.792  1.00  0.00    -0.237 OA
ATOM    103  O   UNL A   1      49.992  26.788  22.897  1.00  0.00    -0.744 OA
ENDBRANCH  97 100
ENDBRANCH  70  93
ENDBRANCH  44  45
ENDBRANCH  37  39
ENDBRANCH  36  37
ENDBRANCH  35  36
ENDBRANCH  34  35
ENDBRANCH  33  34
ENDBRANCH  32  33
ENDBRANCH  31  32
ENDBRANCH  30  31
ENDBRANCH   1  30
TORSDOF 29
ENDMDL
MODEL 2
REMARK VINA RESULT:      -8.0      2.719      4.305
REMARK SMILES CC[NH2+][C@]1(C(=O)OCCOCCOCCOCCOC(=O)c2ccc(-c3c4nc(c(-c5cccc(S(=O)(=O)[O-])c5F)c5ccc([nH]5)c(-c5cccc(S(=O)(=O)[O-])c5F)c5nc(c(-c6cccc(S(=O)(=O)[O-])c6F)c6ccc3[nH]6)C=C5)C=C4)cc2)CCC[C@H]1CC[N@H+]1CCC[C@@H](CC)C1
REMARK SMILES IDX 12 1 11 2 10 3 9 4 8 5 7 6 5 7 6 8 4 9 85 10 88 11 86 12
REMARK SMILES IDX 87 13 3 14 2 17 1 18 89 19 90 20 91 21 92 22 98 23 93 25
REMARK SMILES IDX 95 26 94 27 96 28 97 29 13 30 14 31 15 32 16 33 17 34 18 35
REMARK SMILES IDX 19 36 20 37 21 38 22 39 23 40 84 41 24 42 83 43 25 44 26 45
REMARK SMILES IDX 27 46 77 47 28 48 82 49 76 50 78 51 29 52 81 53 75 54 74 55
REMARK SMILES IDX 30 57 62 58 42 59 61 60 43 61 46 62 60 63 79 64 44 65 45 66
REMARK SMILES IDX 59 68 80 69 47 70 31 71 32 72 40 73 33 74 35 75 41 76 34 77
REMARK SMILES IDX 36 78 37 79 38 80 39 81 63 82 64 83 72 84 65 85 67 86 73 87
REMARK SMILES IDX 66 88 68 89 69 90 70 91 71 92 48 93 49 94 57 95 50 96 52 97
REMARK SMILES IDX 58 98 51 99 53 100 54 101 55 102 56 103
REMARK H PARENT 3 15 3 16 91 24 78 56 46 67
REMARK Flexibility Score: inf
ROOT
ATOM      1  C   UNL A   1      36.881  31.275  30.856  1.00  0.00     0.188 C 
ENDROOT
BRANCH   1   2
ATOM      2  C   UNL A   1      36.981  29.791  30.449  1.00  0.00     0.188 C 
BRANCH   2   3
ATOM      3  O   UNL A   1      38.018  29.506  29.512  1.00  0.00    -0.376 OA
BRANCH   3   4
ATOM      4  C   UNL A   1      38.537  28.180  29.511  1.00  0.00     0.202 C 
BRANCH   4   5
ATOM      5  C   UNL A   1      40.033  28.022  29.172  1.00  0.00     0.261 C 
BRANCH   5   6
ATOM      6  O   UNL A   1      40.425  26.680  28.803  1.00  0.00    -0.459 OA
BRANCH   6   7
ATOM      7  C   UNL A   1      40.936  26.539  27.552  1.00  0.00     0.368 C 
ATOM      8  O   UNL A   1      40.663  27.344  26.679  1.00  0.00    -0.245 OA
BRANCH   7   9
ATOM      9  C   UNL A   1      41.778  25.242  27.375  1.00  0.00     0.197 C 
ATOM     10  C   UNL A   1      41.967  24.767  28.839  1.00  0.00     0.081 C 
ATOM     11  C   UNL A   1      41.048  24.029  26.715  1.00  0.00     0.068 C 
ATOM     12  C   UNL A   1      42.291  23.294  28.752  1.00  0.00     0.008 C 
ATOM     13  C   UNL A   1      41.546  22.797  27.520  1.00  0.00     0.011 C 
BRANCH   9  14
ATOM     14  N   UNL A   1      43.168  25.471  26.818  1.00  0.00    -0.332 N 
ATOM     15  H   UNL A   1      43.471  26.395  27.127  1.00  0.00     0.347 HD
ATOM     16  H   UNL A   1      43.717  24.686  27.170  1.00  0.00     0.347 HD
BRANCH  14  17
ATOM     17  C   UNL A   1      43.343  25.420  25.361  1.00  0.00     0.257 C 
ATOM     18  C   UNL A   1      43.811  24.044  24.880  1.00  0.00     0.071 C 
ENDBRANCH  14  17
ENDBRANCH   9  14
BRANCH  11  19
ATOM     19  C   UNL A   1      39.504  24.030  26.595  1.00  0.00     0.072 C 
BRANCH  19  20
ATOM     20  C   UNL A   1      38.786  22.699  26.212  1.00  0.00     0.262 C 
BRANCH  20  21
ATOM     21  N   UNL A   1      37.306  22.730  26.250  1.00  0.00    -0.335 N 
ATOM     22  C   UNL A   1      36.834  23.897  25.492  1.00  0.00     0.262 C 
ATOM     23  C   UNL A   1      36.715  21.476  25.706  1.00  0.00     0.265 C 
ATOM     24  H   UNL A   1      37.004  22.805  27.221  1.00  0.00     0.348 HD
ATOM     25  C   UNL A   1      35.316  24.007  25.505  1.00  0.00     0.062 C 
ATOM     26  C   UNL A   1      35.163  21.508  25.682  1.00  0.00     0.044 C 
ATOM     27  C   UNL A   1      34.682  22.753  24.927  1.00  0.00     0.015 C 
BRANCH  26  28
ATOM     28  C   UNL A   1      34.531  20.258  25.025  1.00  0.00     0.006 C 
ATOM     29  C   UNL A   1      33.264  20.559  24.242  1.00  0.00     0.004 C 
ENDBRANCH  26  28
ENDBRANCH  20  21
ENDBRANCH  19  20
ENDBRANCH  11  19
ENDBRANCH   7   9
ENDBRANCH   6   7
ENDBRANCH   5   6
ENDBRANCH   4   5
ENDBRANCH   3   4
ENDBRANCH   2   3
ENDBRANCH   1   2
BRANCH   1  30
ATOM     30  O   UNL A   1      35.903  32.092  30.227  1.00  0.00    -0.377 OA
BRANCH  30  31
ATOM     31  C   UNL A   1      34.733  32.342  30.984  1.00  0.00     0.188 C 
BRANCH  31  32
ATOM     32  C   UNL A   1      34.969  33.418  32.060  1.00  0.00     0.188 C 
BRANCH  32  33
ATOM     33  O   UNL A   1      35.038  32.913  33.382  1.00  0.00    -0.376 OA
BRANCH  33  34
ATOM     34  C   UNL A   1      35.901  33.474  34.356  1.00  0.00     0.202 C 
BRANCH  34  35
ATOM     35  C   UNL A   1      37.426  33.249  34.463  1.00  0.00     0.261 C 
BRANCH  35  36
ATOM     36  O   UNL A   1      37.984  32.915  35.729  1.00  0.00    -0.460 OA
BRANCH  36  37
ATOM     37  C   UNL A   1      38.317  31.625  35.952  1.00  0.00     0.338 C 
ATOM     38  O   UNL A   1      37.751  30.840  36.666  1.00  0.00    -0.246 OA
BRANCH  37  39
ATOM     39  C   UNL A   1      39.356  31.292  34.943  1.00  0.00     0.060 A 
ATOM     40  C   UNL A   1      38.959  30.513  33.847  1.00  0.00     0.016 A 
ATOM     41  C   UNL A   1      40.649  31.827  35.006  1.00  0.00     0.016 A 
ATOM     42  C   UNL A   1      39.859  30.254  32.820  1.00  0.00     0.010 A 
ATOM     43  C   UNL A   1      41.570  31.523  33.999  1.00  0.00     0.010 A 
ATOM     44  C   UNL A   1      41.182  30.706  32.925  1.00  0.00    -0.014 A 
BRANCH  44  45
ATOM     45  C   UNL A   1      42.191  30.040  32.075  1.00  0.00     0.031 A 
ATOM     46  C   UNL A   1      42.658  30.799  30.865  1.00  0.00     0.074 A 
ATOM     47  C   UNL A   1      42.731  28.854  32.403  1.00  0.00     0.049 A 
ATOM     48  N   UNL A   1      43.627  30.523  30.036  1.00  0.00    -0.248 NA
ATOM     49  C   UNL A   1      41.943  32.054  30.562  1.00  0.00     0.031 C 
ATOM     50  C   UNL A   1      42.358  28.037  33.555  1.00  0.00     0.029 A 
ATOM     51  N   UNL A   1      43.721  28.136  31.782  1.00  0.00    -0.354 N 
ATOM     52  C   UNL A   1      43.638  31.566  29.117  1.00  0.00     0.074 A 
ATOM     53  C   UNL A   1      42.570  32.470  29.475  1.00  0.00     0.031 C 
ATOM     54  C   UNL A   1      43.098  26.914  33.548  1.00  0.00     0.029 A 
ATOM     55  C   UNL A   1      43.994  26.934  32.391  1.00  0.00     0.049 A 
ATOM     56  H   UNL A   1      44.192  28.451  30.977  1.00  0.00     0.167 HD
ATOM     57  C   UNL A   1      44.477  31.764  28.076  1.00  0.00     0.034 A 
ATOM     58  C   UNL A   1      44.868  25.968  32.044  1.00  0.00     0.034 A 
ATOM     59  C   UNL A   1      45.526  30.854  27.716  1.00  0.00     0.049 A 
ATOM     60  C   UNL A   1      45.769  26.198  30.855  1.00  0.00     0.074 A 
ATOM     61  C   UNL A   1      46.443  30.962  26.689  1.00  0.00     0.029 A 
ATOM     62  N   UNL A   1      45.782  29.656  28.364  1.00  0.00    -0.354 N 
ATOM     63  N   UNL A   1      45.858  27.246  30.071  1.00  0.00    -0.248 NA
ATOM     64  C   UNL A   1      46.723  25.127  30.530  1.00  0.00     0.031 C 
ATOM     65  C   UNL A   1      47.238  29.811  26.697  1.00  0.00     0.029 A 
ATOM     66  C   UNL A   1      46.837  29.004  27.752  1.00  0.00     0.049 A 
ATOM     67  H   UNL A   1      45.285  29.317  29.144  1.00  0.00     0.167 HD
ATOM     68  C   UNL A   1      46.898  26.979  29.187  1.00  0.00     0.074 A 
ATOM     69  C   UNL A   1      47.423  25.677  29.548  1.00  0.00     0.031 C 
ATOM     70  C   UNL A   1      47.372  27.732  28.162  1.00  0.00     0.034 A 
BRANCH  57  71
ATOM     71  C   UNL A   1      44.286  33.016  27.267  1.00  0.00     0.023 A 
ATOM     72  C   UNL A   1      43.712  32.937  25.981  1.00  0.00     0.012 A 
ATOM     73  C   UNL A   1      44.655  34.271  27.785  1.00  0.00     0.148 A 
ATOM     74  C   UNL A   1      43.537  34.085  25.212  1.00  0.00     0.002 A 
ATOM     75  C   UNL A   1      44.435  35.417  27.030  1.00  0.00     0.091 A 
ATOM     76  F   UNL A   1      45.231  34.319  28.994  1.00  0.00    -0.205 F 
ATOM     77  C   UNL A   1      43.886  35.325  25.740  1.00  0.00     0.022 A 
BRANCH  75  78
ATOM     78  S   UNL A   1      44.787  37.064  27.651  1.00  0.00     0.127 S 
ATOM     79  O   UNL A   1      44.270  36.981  29.017  1.00  0.00    -0.237 OA
ATOM     80  O   UNL A   1      46.245  37.123  27.554  1.00  0.00    -0.237 OA
ATOM     81  O   UNL A   1      44.080  37.984  26.772  1.00  0.00    -0.744 OA
ENDBRANCH  75  78
ENDBRANCH  57  71
BRANCH  58  82
ATOM     82  C   UNL A   1      44.966  24.719  32.852  1.00  0.00     0.023 A 
ATOM     83  C   UNL A   1      44.081  23.652  32.606  1.00  0.00     0.012 A 
ATOM     84  C   UNL A   1      45.937  24.586  33.864  1.00  0.00     0.148 A 
ATOM     85  C   UNL A   1      44.139  22.488  33.375  1.00  0.00     0.002 A 
ATOM     86  C   UNL A   1      46.025  23.403  34.589  1.00  0.00     0.091 A 
ATOM     87  F   UNL A   1      46.758  25.620  34.098  1.00  0.00    -0.205 F 
ATOM     88  C   UNL A   1      45.116  22.360  34.358  1.00  0.00     0.022 A 
BRANCH  86  89
ATOM     89  S   UNL A   1      47.329  23.103  35.787  1.00  0.00     0.127 S 
ATOM     90  O   UNL A   1      48.527  23.404  35.008  1.00  0.00    -0.237 OA
ATOM     91  O   UNL A   1      47.010  24.079  36.830  1.00  0.00    -0.237 OA
ATOM     92  O   UNL A   1      47.175  21.714  36.199  1.00  0.00    -0.744 OA
ENDBRANCH  86  89
ENDBRANCH  58  82
BRANCH  70  93
ATOM     93  C   UNL A   1      48.539  27.188  27.378  1.00  0.00     0.023 A 
ATOM     94  C   UNL A   1      48.312  26.430  26.214  1.00  0.00     0.012 A 
ATOM     95  C   UNL A   1      49.861  27.492  27.760  1.00  0.00     0.148 A 
ATOM     96  C   UNL A   1      49.382  25.946  25.464  1.00  0.00     0.002 A 
ATOM     97  C   UNL A   1      50.922  27.051  26.978  1.00  0.00     0.091 A 
ATOM     98  F   UNL A   1      50.058  28.202  28.880  1.00  0.00    -0.205 F 
ATOM     99  C   UNL A   1      50.685  26.266  25.838  1.00  0.00     0.022 A 
BRANCH  97 100
ATOM    100  S   UNL A   1      52.623  27.505  27.332  1.00  0.00     0.127 S 
ATOM    101  O   UNL A   1      52.763  27.077  28.722  1.00  0.00    -0.237 OA
ATOM    102  O   UNL A   1      53.371  26.697  26.367  1.00  0.00    -0.237 OA
ATOM    103  O   UNL A   1      52.707  28.942  27.104  1.00  0.00    -0.744 OA
ENDBRANCH  97 100
ENDBRANCH  70  93
ENDBRANCH  44  45
ENDBRANCH  37  39
ENDBRANCH  36  37
ENDBRANCH  35  36
ENDBRANCH  34  35
ENDBRANCH  33  34
ENDBRANCH  32  33
ENDBRANCH  31  32
ENDBRANCH  30  31
ENDBRANCH   1  30
TORSDOF 29
ENDMDL
MODEL 3
REMARK VINA RESULT:      -7.3      2.003      3.936
REMARK SMILES CC[NH2+][C@]1(C(=O)OCCOCCOCCOCCOC(=O)c2ccc(-c3c4nc(c(-c5cccc(S(=O)(=O)[O-])c5F)c5ccc([nH]5)c(-c5cccc(S(=O)(=O)[O-])c5F)c5nc(c(-c6cccc(S(=O)(=O)[O-])c6F)c6ccc3[nH]6)C=C5)C=C4)cc2)CCC[C@H]1CC[N@H+]1CCC[C@@H](CC)C1
REMARK SMILES IDX 12 1 11 2 10 3 9 4 8 5 7 6 5 7 6 8 4 9 85 10 88 11 86 12
REMARK SMILES IDX 87 13 3 14 2 17 1 18 89 19 90 20 91 21 92 22 98 23 93 25
REMARK SMILES IDX 95 26 94 27 96 28 97 29 13 30 14 31 15 32 16 33 17 34 18 35
REMARK SMILES IDX 19 36 20 37 21 38 22 39 23 40 84 41 24 42 83 43 25 44 26 45
REMARK SMILES IDX 27 46 77 47 28 48 82 49 76 50 78 51 29 52 81 53 75 54 74 55
REMARK SMILES IDX 30 57 62 58 42 59 61 60 43 61 46 62 60 63 79 64 44 65 45 66
REMARK SMILES IDX 59 68 80 69 47 70 31 71 32 72 40 73 33 74 35 75 41 76 34 77
REMARK SMILES IDX 36 78 37 79 38 80 39 81 63 82 64 83 72 84 65 85 67 86 73 87
REMARK SMILES IDX 66 88 68 89 69 90 70 91 71 92 48 93 49 94 57 95 50 96 52 97
REMARK SMILES IDX 58 98 51 99 53 100 54 101 55 102 56 103
REMARK H PARENT 3 15 3 16 91 24 78 56 46 67
REMARK Flexibility Score: inf
ROOT
ATOM      1  C   UNL A   1      37.204  31.944  31.260  1.00  0.00     0.188 C 
ENDROOT
BRANCH   1   2
ATOM      2  C   UNL A   1      37.556  30.512  30.807  1.00  0.00     0.188 C 
BRANCH   2   3
ATOM      3  O   UNL A   1      38.368  30.447  29.637  1.00  0.00    -0.376 OA
BRANCH   3   4
ATOM      4  C   UNL A   1      38.925  29.178  29.310  1.00  0.00     0.202 C 
BRANCH   4   5
ATOM      5  C   UNL A   1      40.440  29.007  29.542  1.00  0.00     0.261 C 
BRANCH   5   6
ATOM      6  O   UNL A   1      40.952  27.695  29.212  1.00  0.00    -0.459 OA
BRANCH   6   7
ATOM      7  C   UNL A   1      40.791  27.308  27.920  1.00  0.00     0.368 C 
ATOM      8  O   UNL A   1      40.030  27.912  27.184  1.00  0.00    -0.245 OA
BRANCH   7   9
ATOM      9  C   UNL A   1      41.581  26.015  27.563  1.00  0.00     0.197 C 
ATOM     10  C   UNL A   1      41.969  25.467  28.961  1.00  0.00     0.081 C 
ATOM     11  C   UNL A   1      40.748  24.841  26.956  1.00  0.00     0.068 C 
ATOM     12  C   UNL A   1      42.256  23.998  28.758  1.00  0.00     0.008 C 
ATOM     13  C   UNL A   1      41.337  23.568  27.622  1.00  0.00     0.011 C 
BRANCH   9  14
ATOM     14  N   UNL A   1      42.882  26.262  26.826  1.00  0.00    -0.332 N 
ATOM     15  H   UNL A   1      43.224  27.179  27.112  1.00  0.00     0.347 HD
ATOM     16  H   UNL A   1      43.473  25.470  27.080  1.00  0.00     0.347 HD
BRANCH  14  17
ATOM     17  C   UNL A   1      42.855  26.245  25.358  1.00  0.00     0.257 C 
ATOM     18  C   UNL A   1      43.499  27.494  24.751  1.00  0.00     0.071 C 
ENDBRANCH  14  17
ENDBRANCH   9  14
BRANCH  11  19
ATOM     19  C   UNL A   1      39.202  24.860  27.056  1.00  0.00     0.072 C 
BRANCH  19  20
ATOM     20  C   UNL A   1      38.420  23.553  26.723  1.00  0.00     0.262 C 
BRANCH  20  21
ATOM     21  N   UNL A   1      37.596  23.589  25.492  1.00  0.00    -0.335 N 
ATOM     22  C   UNL A   1      37.577  22.248  24.892  1.00  0.00     0.262 C 
ATOM     23  C   UNL A   1      36.211  24.060  25.771  1.00  0.00     0.265 C 
ATOM     24  H   UNL A   1      38.011  24.254  24.839  1.00  0.00     0.348 HD
ATOM     25  C   UNL A   1      36.764  22.214  23.605  1.00  0.00     0.062 C 
ATOM     26  C   UNL A   1      35.312  24.052  24.505  1.00  0.00     0.044 C 
ATOM     27  C   UNL A   1      35.334  22.661  23.862  1.00  0.00     0.015 C 
BRANCH  26  28
ATOM     28  C   UNL A   1      33.841  24.439  24.793  1.00  0.00     0.006 C 
ATOM     29  C   UNL A   1      33.577  25.932  24.702  1.00  0.00     0.004 C 
ENDBRANCH  26  28
ENDBRANCH  20  21
ENDBRANCH  19  20
ENDBRANCH  11  19
ENDBRANCH   7   9
ENDBRANCH   6   7
ENDBRANCH   5   6
ENDBRANCH   4   5
ENDBRANCH   3   4
ENDBRANCH   2   3
ENDBRANCH   1   2
BRANCH   1  30
ATOM     30  O   UNL A   1      36.036  32.559  30.732  1.00  0.00    -0.377 OA
BRANCH  30  31
ATOM     31  C   UNL A   1      34.877  32.467  31.540  1.00  0.00     0.188 C 
BRANCH  31  32
ATOM     32  C   UNL A   1      34.843  33.568  32.616  1.00  0.00     0.188 C 
BRANCH  32  33
ATOM     33  O   UNL A   1      34.956  33.087  33.944  1.00  0.00    -0.376 OA
BRANCH  33  34
ATOM     34  C   UNL A   1      35.758  33.740  34.914  1.00  0.00     0.202 C 
BRANCH  34  35
ATOM     35  C   UNL A   1      37.191  33.343  35.330  1.00  0.00     0.261 C 
BRANCH  35  36
ATOM     36  O   UNL A   1      37.419  32.887  36.658  1.00  0.00    -0.460 OA
BRANCH  36  37
ATOM     37  C   UNL A   1      37.991  31.673  36.820  1.00  0.00     0.338 C 
ATOM     38  O   UNL A   1      37.633  30.791  37.554  1.00  0.00    -0.246 OA
BRANCH  37  39
ATOM     39  C   UNL A   1      38.985  31.543  35.723  1.00  0.00     0.060 A 
ATOM     40  C   UNL A   1      38.604  30.802  34.596  1.00  0.00     0.016 A 
ATOM     41  C   UNL A   1      40.208  32.225  35.745  1.00  0.00     0.016 A 
ATOM     42  C   UNL A   1      39.451  30.728  33.496  1.00  0.00     0.010 A 
ATOM     43  C   UNL A   1      41.082  32.109  34.661  1.00  0.00     0.010 A 
ATOM     44  C   UNL A   1      40.715  31.329  33.553  1.00  0.00    -0.014 A 
BRANCH  44  45
ATOM     45  C   UNL A   1      41.730  30.853  32.589  1.00  0.00     0.031 A 
ATOM     46  C   UNL A   1      42.127  31.812  31.502  1.00  0.00     0.074 A 
ATOM     47  C   UNL A   1      42.336  29.661  32.719  1.00  0.00     0.049 A 
ATOM     48  N   UNL A   1      43.085  31.716  30.621  1.00  0.00    -0.248 NA
ATOM     49  C   UNL A   1      41.346  33.060  31.411  1.00  0.00     0.031 C 
ATOM     50  C   UNL A   1      42.034  28.659  33.739  1.00  0.00     0.029 A 
ATOM     51  N   UNL A   1      43.341  29.097  31.975  1.00  0.00    -0.354 N 
ATOM     52  C   UNL A   1      43.021  32.887  29.874  1.00  0.00     0.074 A 
ATOM     53  C   UNL A   1      41.922  33.669  30.389  1.00  0.00     0.031 C 
ATOM     54  C   UNL A   1      42.826  27.590  33.543  1.00  0.00     0.029 A 
ATOM     55  C   UNL A   1      43.687  27.832  32.386  1.00  0.00     0.049 A 
ATOM     56  H   UNL A   1      43.773  29.556  31.219  1.00  0.00     0.167 HD
ATOM     57  C   UNL A   1      43.820  33.285  28.859  1.00  0.00     0.034 A 
ATOM     58  C   UNL A   1      44.595  26.977  31.876  1.00  0.00     0.034 A 
ATOM     59  C   UNL A   1      44.900  32.495  28.342  1.00  0.00     0.049 A 
ATOM     60  C   UNL A   1      45.452  27.431  30.719  1.00  0.00     0.074 A 
ATOM     61  C   UNL A   1      45.782  32.805  27.325  1.00  0.00     0.029 A 
ATOM     62  N   UNL A   1      45.231  31.227  28.791  1.00  0.00    -0.354 N 
ATOM     63  N   UNL A   1      45.468  28.591  30.104  1.00  0.00    -0.248 NA
ATOM     64  C   UNL A   1      46.446  26.473  30.213  1.00  0.00     0.031 C 
ATOM     65  C   UNL A   1      46.631  31.709  27.139  1.00  0.00     0.029 A 
ATOM     66  C   UNL A   1      46.298  30.731  28.065  1.00  0.00     0.049 A 
ATOM     67  H   UNL A   1      44.773  30.747  29.520  1.00  0.00     0.167 HD
ATOM     68  C   UNL A   1      46.495  28.516  29.169  1.00  0.00     0.074 A 
ATOM     69  C   UNL A   1      47.091  27.203  29.314  1.00  0.00     0.031 C 
ATOM     70  C   UNL A   1      46.904  29.440  28.263  1.00  0.00     0.034 A 
BRANCH  57  71
ATOM     71  C   UNL A   1      43.547  34.634  28.257  1.00  0.00     0.023 A 
ATOM     72  C   UNL A   1      42.655  34.748  27.170  1.00  0.00     0.012 A 
ATOM     73  C   UNL A   1      44.157  35.790  28.777  1.00  0.00     0.148 A 
ATOM     74  C   UNL A   1      42.397  35.989  26.592  1.00  0.00     0.002 A 
ATOM     75  C   UNL A   1      43.860  37.031  28.224  1.00  0.00     0.091 A 
ATOM     76  F   UNL A   1      45.028  35.655  29.786  1.00  0.00    -0.205 F 
ATOM     77  C   UNL A   1      42.990  37.131  27.125  1.00  0.00     0.022 A 
BRANCH  75  78
ATOM     78  S   UNL A   1      44.517  38.565  28.886  1.00  0.00     0.127 S 
ATOM     79  O   UNL A   1      43.863  39.557  28.034  1.00  0.00    -0.237 OA
ATOM     80  O   UNL A   1      44.034  38.534  30.266  1.00  0.00    -0.237 OA
ATOM     81  O   UNL A   1      45.963  38.476  28.744  1.00  0.00    -0.744 OA
ENDBRANCH  75  78
ENDBRANCH  57  71
BRANCH  58  82
ATOM     82  C   UNL A   1      44.776  25.626  32.479  1.00  0.00     0.023 A 
ATOM     83  C   UNL A   1      44.027  24.535  31.995  1.00  0.00     0.012 A 
ATOM     84  C   UNL A   1      45.689  25.418  33.532  1.00  0.00     0.148 A 
ATOM     85  C   UNL A   1      44.161  23.270  32.570  1.00  0.00     0.002 A 
ATOM     86  C   UNL A   1      45.856  24.144  34.064  1.00  0.00     0.091 A 
ATOM     87  F   UNL A   1      46.377  26.472  33.993  1.00  0.00    -0.205 F 
ATOM     88  C   UNL A   1      45.082  23.073  33.596  1.00  0.00     0.022 A 
BRANCH  86  89
ATOM     89  S   UNL A   1      47.106  23.774  35.300  1.00  0.00     0.127 S 
ATOM     90  O   UNL A   1      46.961  22.328  35.448  1.00  0.00    -0.237 OA
ATOM     91  O   UNL A   1      48.332  24.205  34.627  1.00  0.00    -0.237 OA
ATOM     92  O   UNL A   1      46.752  24.568  36.468  1.00  0.00    -0.744 OA
ENDBRANCH  86  89
ENDBRANCH  58  82
BRANCH  70  93
ATOM     93  C   UNL A   1      48.073  29.083  27.381  1.00  0.00     0.023 A 
ATOM     94  C   UNL A   1      49.387  29.341  27.815  1.00  0.00     0.012 A 
ATOM     95  C   UNL A   1      47.867  28.424  26.152  1.00  0.00     0.148 A 
ATOM     96  C   UNL A   1      50.477  28.989  27.022  1.00  0.00     0.002 A 
ATOM     97  C   UNL A   1      48.959  28.028  25.391  1.00  0.00     0.091 A 
ATOM     98  F   UNL A   1      46.608  28.200  25.747  1.00  0.00    -0.205 F 
ATOM     99  C   UNL A   1      50.265  28.323  25.817  1.00  0.00     0.022 A 
BRANCH  97 100
ATOM    100  S   UNL A   1      48.777  27.076  23.879  1.00  0.00     0.127 S 
ATOM    101  O   UNL A   1      49.710  27.758  22.983  1.00  0.00    -0.237 OA
ATOM    102  O   UNL A   1      49.201  25.739  24.298  1.00  0.00    -0.237 OA
ATOM    103  O   UNL A   1      47.370  27.173  23.515  1.00  0.00    -0.744 OA
ENDBRANCH  97 100
ENDBRANCH  70  93
ENDBRANCH  44  45
ENDBRANCH  37  39
ENDBRANCH  36  37
ENDBRANCH  35  36
ENDBRANCH  34  35
ENDBRANCH  33  34
ENDBRANCH  32  33
ENDBRANCH  31  32
ENDBRANCH  30  31
ENDBRANCH   1  30
TORSDOF 29
ENDMDL
