MODEL 1
REMARK VINA RESULT:     -11.5      0.000      0.000
REMARK SMILES Cc1cc2c(=O)c3ccccc3oc2c(C(=O)OCCOCCOCCOCCOC(=O)c2ccc(-c3c4nc(c(-c5cccc(S(=O)(=O)[O-])c5F)c5ccc([nH]5)c(-c5cccc(S(=O)(=O)[O-])c5F)c5nc(c(-c6cccc(S(=O)(=O)[O-])c6F)c6ccc3[nH]6)C=C5)C=C4)cc2)c1C
REMARK SMILES IDX 25 1 24 2 23 3 22 4 21 5 20 6 19 7 18 8 16 9 17 10 15 11
REMARK SMILES IDX 1 12 2 13 3 14 96 15 4 16 97 17 5 18 14 19 6 20 7 21 13 22
REMARK SMILES IDX 8 23 12 24 9 25 11 26 10 27 26 28 27 29 28 30 29 31 30 32
REMARK SMILES IDX 31 33 32 34 33 35 34 36 95 37 35 38 94 39 36 40 37 41 38 42
REMARK SMILES IDX 88 43 39 44 93 45 87 46 89 47 40 48 92 49 86 50 85 51 41 53
REMARK SMILES IDX 73 54 53 55 72 56 54 57 57 58 71 59 90 60 55 61 56 62 70 64
REMARK SMILES IDX 91 65 58 66 42 67 43 68 51 69 44 70 46 71 52 72 45 73 47 74
REMARK SMILES IDX 48 75 49 76 50 77 74 78 75 79 83 80 76 81 78 82 84 83 77 84
REMARK SMILES IDX 79 85 80 86 81 87 82 88 59 89 60 90 68 91 61 92 63 93 69 94
REMARK SMILES IDX 62 95 64 96 65 97 66 98 67 99
REMARK H PARENT 89 52 57 63
REMARK Flexibility Score: inf
ROOT
ATOM      1  C   UNL A   1      32.485  20.940  25.496  1.00  0.00     0.188 C 
ENDROOT
BRANCH   1   2
ATOM      2  O   UNL A   1      31.169  21.456  25.371  1.00  0.00    -0.377 OA
BRANCH   2   3
ATOM      3  C   UNL A   1      30.752  22.534  26.196  1.00  0.00     0.188 C 
BRANCH   3   4
ATOM      4  C   UNL A   1      31.224  23.989  25.967  1.00  0.00     0.188 C 
BRANCH   4   5
ATOM      5  O   UNL A   1      30.432  25.002  26.571  1.00  0.00    -0.376 OA
BRANCH   5   6
ATOM      6  C   UNL A   1      30.235  26.187  25.813  1.00  0.00     0.202 C 
BRANCH   6   7
ATOM      7  C   UNL A   1      30.002  25.926  24.327  1.00  0.00     0.261 C 
BRANCH   7   8
ATOM      8  O   UNL A   1      29.442  27.060  23.650  1.00  0.00    -0.460 OA
BRANCH   8   9
ATOM      9  C   UNL A   1      30.294  27.877  22.998  1.00  0.00     0.342 C 
ATOM     10  O   UNL A   1      31.033  27.564  22.081  1.00  0.00    -0.246 OA
BRANCH   9  11
ATOM     11  C   UNL A   1      30.110  29.269  23.501  1.00  0.00     0.106 A 
ATOM     12  C   UNL A   1      28.030  32.460  22.948  1.00  0.00     0.044 C 
ATOM     13  C   UNL A   1      28.991  31.444  23.508  1.00  0.00    -0.046 A 
ATOM     14  C   UNL A   1      29.761  31.808  24.622  1.00  0.00     0.019 A 
ATOM     15  C   UNL A   1      29.158  30.163  22.930  1.00  0.00    -0.030 A 
ATOM     16  C   UNL A   1      30.731  30.943  25.129  1.00  0.00     0.067 A 
ATOM     17  C   UNL A   1      28.412  29.796  21.667  1.00  0.00     0.046 C 
ATOM     18  C   UNL A   1      31.581  31.373  26.252  1.00  0.00     0.200 A 
ATOM     19  C   UNL A   1      30.937  29.688  24.563  1.00  0.00     0.153 A 
ATOM     20  O   UNL A   1      31.360  32.406  26.869  1.00  0.00    -0.288 OA
ATOM     21  C   UNL A   1      32.732  30.522  26.569  1.00  0.00     0.065 A 
ATOM     22  O   UNL A   1      31.977  28.868  24.946  1.00  0.00    -0.455 OA
ATOM     23  C   UNL A   1      33.669  30.913  27.530  1.00  0.00     0.016 A 
ATOM     24  C   UNL A   1      32.891  29.338  25.857  1.00  0.00     0.138 A 
ATOM     25  C   UNL A   1      34.794  30.122  27.757  1.00  0.00     0.001 A 
ATOM     26  C   UNL A   1      34.027  28.556  26.075  1.00  0.00     0.048 A 
ATOM     27  C   UNL A   1      34.980  28.952  27.018  1.00  0.00     0.004 A 
ENDBRANCH   9  11
ENDBRANCH   8   9
ENDBRANCH   7   8
ENDBRANCH   6   7
ENDBRANCH   5   6
ENDBRANCH   4   5
ENDBRANCH   3   4
ENDBRANCH   2   3
ENDBRANCH   1   2
BRANCH   1  28
ATOM     28  C   UNL A   1      33.293  20.684  24.209  1.00  0.00     0.188 C 
BRANCH  28  29
ATOM     29  O   UNL A   1      34.450  19.876  24.404  1.00  0.00    -0.376 OA
BRANCH  29  30
ATOM     30  C   UNL A   1      35.360  20.326  25.398  1.00  0.00     0.202 C 
BRANCH  30  31
ATOM     31  C   UNL A   1      36.796  20.569  24.917  1.00  0.00     0.261 C 
BRANCH  31  32
ATOM     32  O   UNL A   1      37.549  21.540  25.659  1.00  0.00    -0.460 OA
BRANCH  32  33
ATOM     33  C   UNL A   1      38.835  21.254  25.966  1.00  0.00     0.338 C 
ATOM     34  O   UNL A   1      39.428  20.213  25.752  1.00  0.00    -0.246 OA
BRANCH  33  35
ATOM     35  C   UNL A   1      39.446  22.515  26.438  1.00  0.00     0.060 A 
ATOM     36  C   UNL A   1      40.507  22.476  27.347  1.00  0.00     0.016 A 
ATOM     37  C   UNL A   1      38.915  23.740  26.018  1.00  0.00     0.016 A 
ATOM     38  C   UNL A   1      41.052  23.669  27.821  1.00  0.00     0.010 A 
ATOM     39  C   UNL A   1      39.454  24.935  26.507  1.00  0.00     0.010 A 
ATOM     40  C   UNL A   1      40.538  24.906  27.395  1.00  0.00    -0.014 A 
BRANCH  40  41
ATOM     41  C   UNL A   1      41.275  26.150  27.719  1.00  0.00     0.031 A 
ATOM     42  C   UNL A   1      42.689  26.388  27.283  1.00  0.00     0.074 A 
ATOM     43  C   UNL A   1      40.626  27.079  28.446  1.00  0.00     0.049 A 
ATOM     44  N   UNL A   1      43.414  27.466  27.434  1.00  0.00    -0.248 NA
ATOM     45  C   UNL A   1      43.380  25.286  26.599  1.00  0.00     0.031 C 
ATOM     46  C   UNL A   1      39.265  26.931  28.968  1.00  0.00     0.029 A 
ATOM     47  N   UNL A   1      41.018  28.319  28.880  1.00  0.00    -0.354 N 
ATOM     48  C   UNL A   1      44.649  27.180  26.868  1.00  0.00     0.074 A 
ATOM     49  C   UNL A   1      44.580  25.816  26.383  1.00  0.00     0.031 C 
ATOM     50  C   UNL A   1      38.932  28.038  29.647  1.00  0.00     0.029 A 
ATOM     51  C   UNL A   1      40.057  28.968  29.617  1.00  0.00     0.049 A 
ATOM     52  H   UNL A   1      41.901  28.705  28.682  1.00  0.00     0.167 HD
ATOM     53  C   UNL A   1      45.728  27.991  26.750  1.00  0.00     0.034 A 
ATOM     54  C   UNL A   1      40.071  30.182  30.198  1.00  0.00     0.034 A 
ATOM     55  C   UNL A   1      45.784  29.350  27.225  1.00  0.00     0.049 A 
ATOM     56  C   UNL A   1      41.275  31.061  30.039  1.00  0.00     0.074 A 
ATOM     57  C   UNL A   1      46.816  30.265  27.086  1.00  0.00     0.029 A 
ATOM     58  N   UNL A   1      44.783  29.987  27.940  1.00  0.00    -0.354 N 
ATOM     59  N   UNL A   1      42.379  30.825  29.375  1.00  0.00    -0.248 NA
ATOM     60  C   UNL A   1      41.225  32.382  30.681  1.00  0.00     0.031 C 
ATOM     61  C   UNL A   1      46.443  31.449  27.728  1.00  0.00     0.029 A 
ATOM     62  C   UNL A   1      45.175  31.277  28.257  1.00  0.00     0.049 A 
ATOM     63  H   UNL A   1      43.920  29.582  28.186  1.00  0.00     0.167 HD
ATOM     64  C   UNL A   1      43.150  31.973  29.501  1.00  0.00     0.074 A 
ATOM     65  C   UNL A   1      42.379  32.912  30.292  1.00  0.00     0.031 C 
ATOM     66  C   UNL A   1      44.389  32.218  29.013  1.00  0.00     0.034 A 
BRANCH  53  67
ATOM     67  C   UNL A   1      46.934  27.471  26.016  1.00  0.00     0.023 A 
ATOM     68  C   UNL A   1      47.758  26.521  26.650  1.00  0.00     0.012 A 
ATOM     69  C   UNL A   1      47.171  27.806  24.668  1.00  0.00     0.148 A 
ATOM     70  C   UNL A   1      48.804  25.913  25.957  1.00  0.00     0.002 A 
ATOM     71  C   UNL A   1      48.201  27.177  23.975  1.00  0.00     0.091 A 
ATOM     72  F   UNL A   1      46.376  28.715  24.088  1.00  0.00    -0.205 F 
ATOM     73  C   UNL A   1      49.018  26.233  24.619  1.00  0.00     0.022 A 
BRANCH  71  74
ATOM     74  S   UNL A   1      48.532  27.475  22.235  1.00  0.00     0.127 S 
ATOM     75  O   UNL A   1      48.652  26.111  21.722  1.00  0.00    -0.237 OA
ATOM     76  O   UNL A   1      47.325  28.183  21.810  1.00  0.00    -0.237 OA
ATOM     77  O   UNL A   1      49.755  28.264  22.186  1.00  0.00    -0.744 OA
ENDBRANCH  71  74
ENDBRANCH  53  67
BRANCH  54  78
ATOM     78  C   UNL A   1      38.855  30.650  30.911  1.00  0.00     0.023 A 
ATOM     79  C   UNL A   1      38.700  30.342  32.275  1.00  0.00     0.012 A 
ATOM     80  C   UNL A   1      37.909  31.475  30.271  1.00  0.00     0.148 A 
ATOM     81  C   UNL A   1      37.614  30.842  32.992  1.00  0.00     0.002 A 
ATOM     82  C   UNL A   1      36.851  32.001  31.002  1.00  0.00     0.091 A 
ATOM     83  F   UNL A   1      38.088  31.753  28.973  1.00  0.00    -0.205 F 
ATOM     84  C   UNL A   1      36.697  31.679  32.360  1.00  0.00     0.022 A 
BRANCH  82  85
ATOM     85  S   UNL A   1      35.679  33.170  30.305  1.00  0.00     0.127 S 
ATOM     86  O   UNL A   1      34.403  32.533  30.618  1.00  0.00    -0.237 OA
ATOM     87  O   UNL A   1      35.971  34.379  31.077  1.00  0.00    -0.237 OA
ATOM     88  O   UNL A   1      36.003  33.261  28.889  1.00  0.00    -0.744 OA
ENDBRANCH  82  85
ENDBRANCH  54  78
BRANCH  66  89
ATOM     89  C   UNL A   1      45.011  33.554  29.311  1.00  0.00     0.023 A 
ATOM     90  C   UNL A   1      45.768  33.715  30.488  1.00  0.00     0.012 A 
ATOM     91  C   UNL A   1      44.939  34.609  28.381  1.00  0.00     0.148 A 
ATOM     92  C   UNL A   1      46.437  34.911  30.740  1.00  0.00     0.002 A 
ATOM     93  C   UNL A   1      45.636  35.787  28.622  1.00  0.00     0.091 A 
ATOM     94  F   UNL A   1      44.202  34.434  27.275  1.00  0.00    -0.205 F 
ATOM     95  C   UNL A   1      46.382  35.941  29.803  1.00  0.00     0.022 A 
BRANCH  93  96
ATOM     96  S   UNL A   1      45.686  37.144  27.446  1.00  0.00     0.127 S 
ATOM     97  O   UNL A   1      46.270  36.497  26.271  1.00  0.00    -0.237 OA
ATOM     98  O   UNL A   1      44.272  37.490  27.313  1.00  0.00    -0.237 OA
ATOM     99  O   UNL A   1      46.511  38.177  28.057  1.00  0.00    -0.744 OA
ENDBRANCH  93  96
ENDBRANCH  66  89
ENDBRANCH  40  41
ENDBRANCH  33  35
ENDBRANCH  32  33
ENDBRANCH  31  32
ENDBRANCH  30  31
ENDBRANCH  29  30
ENDBRANCH  28  29
ENDBRANCH   1  28
TORSDOF 23
ENDMDL
MODEL 2
REMARK VINA RESULT:     -11.0      1.027      7.299
REMARK SMILES Cc1cc2c(=O)c3ccccc3oc2c(C(=O)OCCOCCOCCOCCOC(=O)c2ccc(-c3c4nc(c(-c5cccc(S(=O)(=O)[O-])c5F)c5ccc([nH]5)c(-c5cccc(S(=O)(=O)[O-])c5F)c5nc(c(-c6cccc(S(=O)(=O)[O-])c6F)c6ccc3[nH]6)C=C5)C=C4)cc2)c1C
REMARK SMILES IDX 25 1 24 2 23 3 22 4 21 5 20 6 19 7 18 8 16 9 17 10 15 11
REMARK SMILES IDX 1 12 2 13 3 14 96 15 4 16 97 17 5 18 14 19 6 20 7 21 13 22
REMARK SMILES IDX 8 23 12 24 9 25 11 26 10 27 26 28 27 29 28 30 29 31 30 32
REMARK SMILES IDX 31 33 32 34 33 35 34 36 95 37 35 38 94 39 36 40 37 41 38 42
REMARK SMILES IDX 88 43 39 44 93 45 87 46 89 47 40 48 92 49 86 50 85 51 41 53
REMARK SMILES IDX 73 54 53 55 72 56 54 57 57 58 71 59 90 60 55 61 56 62 70 64
REMARK SMILES IDX 91 65 58 66 42 67 43 68 51 69 44 70 46 71 52 72 45 73 47 74
REMARK SMILES IDX 48 75 49 76 50 77 74 78 75 79 83 80 76 81 78 82 84 83 77 84
REMARK SMILES IDX 79 85 80 86 81 87 82 88 59 89 60 90 68 91 61 92 63 93 69 94
REMARK SMILES IDX 62 95 64 96 65 97 66 98 67 99
REMARK H PARENT 89 52 57 63
REMARK Flexibility Score: inf
ROOT
ATOM      1  C   UNL A   1      34.720  22.301  23.881  1.00  0.00     0.188 C 
ENDROOT
BRANCH   1   2
ATOM      2  O   UNL A   1      35.205  23.505  23.305  1.00  0.00    -0.377 OA
BRANCH   2   3
ATOM      3  C   UNL A   1      34.560  24.736  23.596  1.00  0.00     0.188 C 
BRANCH   3   4
ATOM      4  C   UNL A   1      33.046  24.958  23.371  1.00  0.00     0.188 C 
BRANCH   4   5
ATOM      5  O   UNL A   1      32.559  24.653  22.071  1.00  0.00    -0.376 OA
BRANCH   5   6
ATOM      6  C   UNL A   1      32.078  25.748  21.304  1.00  0.00     0.202 C 
BRANCH   6   7
ATOM      7  C   UNL A   1      32.003  27.055  22.089  1.00  0.00     0.261 C 
BRANCH   7   8
ATOM      8  O   UNL A   1      30.712  27.675  22.004  1.00  0.00    -0.460 OA
BRANCH   8   9
ATOM      9  C   UNL A   1      29.971  27.723  23.130  1.00  0.00     0.342 C 
ATOM     10  O   UNL A   1      29.525  26.768  23.740  1.00  0.00    -0.246 OA
BRANCH   9  11
ATOM     11  C   UNL A   1      29.875  29.140  23.585  1.00  0.00     0.106 A 
ATOM     12  C   UNL A   1      27.919  32.403  22.999  1.00  0.00     0.044 C 
ATOM     13  C   UNL A   1      28.858  31.365  23.555  1.00  0.00    -0.046 A 
ATOM     14  C   UNL A   1      29.696  31.734  24.617  1.00  0.00     0.019 A 
ATOM     15  C   UNL A   1      28.939  30.056  23.023  1.00  0.00    -0.030 A 
ATOM     16  C   UNL A   1      30.648  30.843  25.114  1.00  0.00     0.067 A 
ATOM     17  C   UNL A   1      28.118  29.678  21.810  1.00  0.00     0.046 C 
ATOM     18  C   UNL A   1      31.569  31.275  26.179  1.00  0.00     0.200 A 
ATOM     19  C   UNL A   1      30.769  29.560  24.590  1.00  0.00     0.153 A 
ATOM     20  O   UNL A   1      31.425  32.341  26.764  1.00  0.00    -0.288 OA
ATOM     21  C   UNL A   1      32.694  30.384  26.478  1.00  0.00     0.065 A 
ATOM     22  O   UNL A   1      31.787  28.707  24.958  1.00  0.00    -0.455 OA
ATOM     23  C   UNL A   1      33.692  30.766  27.379  1.00  0.00     0.016 A 
ATOM     24  C   UNL A   1      32.764  29.167  25.807  1.00  0.00     0.138 A 
ATOM     25  C   UNL A   1      34.789  29.931  27.585  1.00  0.00     0.001 A 
ATOM     26  C   UNL A   1      33.873  28.341  26.004  1.00  0.00     0.048 A 
ATOM     27  C   UNL A   1      34.886  28.726  26.887  1.00  0.00     0.004 A 
ENDBRANCH   9  11
ENDBRANCH   8   9
ENDBRANCH   7   8
ENDBRANCH   6   7
ENDBRANCH   5   6
ENDBRANCH   4   5
ENDBRANCH   3   4
ENDBRANCH   2   3
ENDBRANCH   1   2
BRANCH   1  28
ATOM     28  C   UNL A   1      34.834  22.127  25.408  1.00  0.00     0.188 C 
BRANCH  28  29
ATOM     29  O   UNL A   1      35.295  20.840  25.810  1.00  0.00    -0.376 OA
BRANCH  29  30
ATOM     30  C   UNL A   1      35.966  20.083  24.812  1.00  0.00     0.202 C 
BRANCH  30  31
ATOM     31  C   UNL A   1      37.497  20.169  24.836  1.00  0.00     0.261 C 
BRANCH  31  32
ATOM     32  O   UNL A   1      38.056  21.126  25.749  1.00  0.00    -0.460 OA
BRANCH  32  33
ATOM     33  C   UNL A   1      39.322  20.933  26.183  1.00  0.00     0.338 C 
ATOM     34  O   UNL A   1      39.979  19.911  26.103  1.00  0.00    -0.246 OA
BRANCH  33  35
ATOM     35  C   UNL A   1      39.832  22.256  26.602  1.00  0.00     0.060 A 
ATOM     36  C   UNL A   1      40.901  22.338  27.498  1.00  0.00     0.016 A 
ATOM     37  C   UNL A   1      39.198  23.417  26.143  1.00  0.00     0.016 A 
ATOM     38  C   UNL A   1      41.350  23.589  27.922  1.00  0.00     0.010 A 
ATOM     39  C   UNL A   1      39.640  24.669  26.581  1.00  0.00     0.010 A 
ATOM     40  C   UNL A   1      40.732  24.763  27.457  1.00  0.00    -0.014 A 
BRANCH  40  41
ATOM     41  C   UNL A   1      41.367  26.075  27.726  1.00  0.00     0.031 A 
ATOM     42  C   UNL A   1      40.666  27.174  28.464  1.00  0.00     0.074 A 
ATOM     43  C   UNL A   1      42.618  26.260  27.263  1.00  0.00     0.049 A 
ATOM     44  N   UNL A   1      41.141  28.336  28.832  1.00  0.00    -0.248 NA
ATOM     45  C   UNL A   1      39.261  26.953  28.835  1.00  0.00     0.031 C 
ATOM     46  C   UNL A   1      43.375  25.276  26.486  1.00  0.00     0.029 A 
ATOM     47  N   UNL A   1      43.466  27.331  27.367  1.00  0.00    -0.354 N 
ATOM     48  C   UNL A   1      40.101  28.991  29.475  1.00  0.00     0.074 A 
ATOM     49  C   UNL A   1      38.958  28.100  29.435  1.00  0.00     0.031 C 
ATOM     50  C   UNL A   1      44.579  25.786  26.187  1.00  0.00     0.029 A 
ATOM     51  C   UNL A   1      44.674  27.133  26.742  1.00  0.00     0.049 A 
ATOM     52  H   UNL A   1      43.233  28.161  27.842  1.00  0.00     0.167 HD
ATOM     53  C   UNL A   1      40.109  30.213  30.061  1.00  0.00     0.034 A 
ATOM     54  C   UNL A   1      45.746  27.940  26.633  1.00  0.00     0.034 A 
ATOM     55  C   UNL A   1      41.253  31.087  30.107  1.00  0.00     0.049 A 
ATOM     56  C   UNL A   1      45.730  29.281  27.301  1.00  0.00     0.074 A 
ATOM     57  C   UNL A   1      41.368  32.315  30.740  1.00  0.00     0.029 A 
ATOM     58  N   UNL A   1      42.469  30.843  29.491  1.00  0.00    -0.354 N 
ATOM     59  N   UNL A   1      44.784  29.822  28.029  1.00  0.00    -0.248 NA
ATOM     60  C   UNL A   1      46.936  30.109  27.162  1.00  0.00     0.031 C 
ATOM     61  C   UNL A   1      42.649  32.818  30.494  1.00  0.00     0.029 A 
ATOM     62  C   UNL A   1      43.336  31.900  29.719  1.00  0.00     0.049 A 
ATOM     63  H   UNL A   1      42.685  30.038  28.968  1.00  0.00     0.167 HD
ATOM     64  C   UNL A   1      45.285  31.046  28.452  1.00  0.00     0.074 A 
ATOM     65  C   UNL A   1      46.625  31.161  27.912  1.00  0.00     0.031 C 
ATOM     66  C   UNL A   1      44.680  31.991  29.210  1.00  0.00     0.034 A 
BRANCH  53  67
ATOM     67  C   UNL A   1      38.865  30.671  30.773  1.00  0.00     0.023 A 
ATOM     68  C   UNL A   1      38.715  30.369  32.140  1.00  0.00     0.012 A 
ATOM     69  C   UNL A   1      37.927  31.510  30.139  1.00  0.00     0.148 A 
ATOM     70  C   UNL A   1      37.647  30.890  32.869  1.00  0.00     0.002 A 
ATOM     71  C   UNL A   1      36.878  32.048  30.879  1.00  0.00     0.091 A 
ATOM     72  F   UNL A   1      38.089  31.780  28.837  1.00  0.00    -0.205 F 
ATOM     73  C   UNL A   1      36.736  31.737  32.242  1.00  0.00     0.022 A 
BRANCH  71  74
ATOM     74  S   UNL A   1      35.678  33.190  30.184  1.00  0.00     0.127 S 
ATOM     75  O   UNL A   1      36.277  33.489  28.884  1.00  0.00    -0.237 OA
ATOM     76  O   UNL A   1      34.470  32.367  30.126  1.00  0.00    -0.237 OA
ATOM     77  O   UNL A   1      35.610  34.314  31.106  1.00  0.00    -0.744 OA
ENDBRANCH  71  74
ENDBRANCH  53  67
BRANCH  54  78
ATOM     78  C   UNL A   1      46.950  27.440  25.920  1.00  0.00     0.023 A 
ATOM     79  C   UNL A   1      47.796  26.521  26.567  1.00  0.00     0.012 A 
ATOM     80  C   UNL A   1      47.201  27.795  24.581  1.00  0.00     0.148 A 
ATOM     81  C   UNL A   1      48.884  25.967  25.893  1.00  0.00     0.002 A 
ATOM     82  C   UNL A   1      48.263  27.209  23.903  1.00  0.00     0.091 A 
ATOM     83  F   UNL A   1      46.374  28.668  23.992  1.00  0.00    -0.205 F 
ATOM     84  C   UNL A   1      49.110  26.302  24.559  1.00  0.00     0.022 A 
BRANCH  82  85
ATOM     85  S   UNL A   1      48.574  27.495  22.158  1.00  0.00     0.127 S 
ATOM     86  O   UNL A   1      49.847  28.210  22.196  1.00  0.00    -0.237 OA
ATOM     87  O   UNL A   1      48.650  26.128  21.641  1.00  0.00    -0.237 OA
ATOM     88  O   UNL A   1      47.438  28.265  21.672  1.00  0.00    -0.744 OA
ENDBRANCH  82  85
ENDBRANCH  54  78
BRANCH  66  89
ATOM     89  C   UNL A   1      45.449  33.248  29.513  1.00  0.00     0.023 A 
ATOM     90  C   UNL A   1      46.206  33.324  30.698  1.00  0.00     0.012 A 
ATOM     91  C   UNL A   1      45.509  34.301  28.580  1.00  0.00     0.148 A 
ATOM     92  C   UNL A   1      47.006  34.436  30.955  1.00  0.00     0.002 A 
ATOM     93  C   UNL A   1      46.335  35.391  28.827  1.00  0.00     0.091 A 
ATOM     94  F   UNL A   1      44.770  34.209  27.465  1.00  0.00    -0.205 F 
ATOM     95  C   UNL A   1      47.081  35.462  30.016  1.00  0.00     0.022 A 
BRANCH  93  96
ATOM     96  S   UNL A   1      46.555  36.729  27.649  1.00  0.00     0.127 S 
ATOM     97  O   UNL A   1      47.559  37.554  28.320  1.00  0.00    -0.237 OA
ATOM     98  O   UNL A   1      47.039  36.021  26.464  1.00  0.00    -0.237 OA
ATOM     99  O   UNL A   1      45.247  37.350  27.494  1.00  0.00    -0.744 OA
ENDBRANCH  93  96
ENDBRANCH  66  89
ENDBRANCH  40  41
ENDBRANCH  33  35
ENDBRANCH  32  33
ENDBRANCH  31  32
ENDBRANCH  30  31
ENDBRANCH  29  30
ENDBRANCH  28  29
ENDBRANCH   1  28
TORSDOF 23
ENDMDL
MODEL 3
REMARK VINA RESULT:     -10.9      3.163      7.684
REMARK SMILES Cc1cc2c(=O)c3ccccc3oc2c(C(=O)OCCOCCOCCOCCOC(=O)c2ccc(-c3c4nc(c(-c5cccc(S(=O)(=O)[O-])c5F)c5ccc([nH]5)c(-c5cccc(S(=O)(=O)[O-])c5F)c5nc(c(-c6cccc(S(=O)(=O)[O-])c6F)c6ccc3[nH]6)C=C5)C=C4)cc2)c1C
REMARK SMILES IDX 25 1 24 2 23 3 22 4 21 5 20 6 19 7 18 8 16 9 17 10 15 11
REMARK SMILES IDX 1 12 2 13 3 14 96 15 4 16 97 17 5 18 14 19 6 20 7 21 13 22
REMARK SMILES IDX 8 23 12 24 9 25 11 26 10 27 26 28 27 29 28 30 29 31 30 32
REMARK SMILES IDX 31 33 32 34 33 35 34 36 95 37 35 38 94 39 36 40 37 41 38 42
REMARK SMILES IDX 88 43 39 44 93 45 87 46 89 47 40 48 92 49 86 50 85 51 41 53
REMARK SMILES IDX 73 54 53 55 72 56 54 57 57 58 71 59 90 60 55 61 56 62 70 64
REMARK SMILES IDX 91 65 58 66 42 67 43 68 51 69 44 70 46 71 52 72 45 73 47 74
REMARK SMILES IDX 48 75 49 76 50 77 74 78 75 79 83 80 76 81 78 82 84 83 77 84
REMARK SMILES IDX 79 85 80 86 81 87 82 88 59 89 60 90 68 91 61 92 63 93 69 94
REMARK SMILES IDX 62 95 64 96 65 97 66 98 67 99
REMARK H PARENT 89 52 57 63
REMARK Flexibility Score: inf
ROOT
ATOM      1  C   UNL A   1      33.733  21.484  24.377  1.00  0.00     0.188 C 
ENDROOT
BRANCH   1   2
ATOM      2  O   UNL A   1      33.825  22.446  23.337  1.00  0.00    -0.377 OA
BRANCH   2   3
ATOM      3  C   UNL A   1      33.427  23.787  23.579  1.00  0.00     0.188 C 
BRANCH   3   4
ATOM      4  C   UNL A   1      32.306  24.482  22.771  1.00  0.00     0.188 C 
BRANCH   4   5
ATOM      5  O   UNL A   1      32.617  24.800  21.421  1.00  0.00    -0.376 OA
BRANCH   5   6
ATOM      6  C   UNL A   1      32.555  26.174  21.065  1.00  0.00     0.202 C 
BRANCH   6   7
ATOM      7  C   UNL A   1      32.130  27.082  22.216  1.00  0.00     0.261 C 
BRANCH   7   8
ATOM      8  O   UNL A   1      30.837  27.667  22.008  1.00  0.00    -0.460 OA
BRANCH   8   9
ATOM      9  C   UNL A   1      30.014  27.748  23.073  1.00  0.00     0.342 C 
ATOM     10  O   UNL A   1      29.502  26.812  23.661  1.00  0.00    -0.246 OA
BRANCH   9  11
ATOM     11  C   UNL A   1      29.913  29.174  23.499  1.00  0.00     0.106 A 
ATOM     12  C   UNL A   1      28.029  32.449  22.762  1.00  0.00     0.044 C 
ATOM     13  C   UNL A   1      28.927  31.410  23.381  1.00  0.00    -0.046 A 
ATOM     14  C   UNL A   1      29.716  31.787  24.477  1.00  0.00     0.019 A 
ATOM     15  C   UNL A   1      29.018  30.090  22.876  1.00  0.00    -0.030 A 
ATOM     16  C   UNL A   1      30.631  30.894  25.036  1.00  0.00     0.067 A 
ATOM     17  C   UNL A   1      28.253  29.701  21.630  1.00  0.00     0.046 C 
ATOM     18  C   UNL A   1      31.503  31.334  26.137  1.00  0.00     0.200 A 
ATOM     19  C   UNL A   1      30.762  29.600  24.540  1.00  0.00     0.153 A 
ATOM     20  O   UNL A   1      31.345  32.411  26.696  1.00  0.00    -0.288 OA
ATOM     21  C   UNL A   1      32.601  30.434  26.506  1.00  0.00     0.065 A 
ATOM     22  O   UNL A   1      31.750  28.742  24.972  1.00  0.00    -0.455 OA
ATOM     23  C   UNL A   1      33.559  30.820  27.449  1.00  0.00     0.016 A 
ATOM     24  C   UNL A   1      32.690  29.205  25.861  1.00  0.00     0.138 A 
ATOM     25  C   UNL A   1      34.633  29.976  27.724  1.00  0.00     0.001 A 
ATOM     26  C   UNL A   1      33.776  28.370  26.126  1.00  0.00     0.048 A 
ATOM     27  C   UNL A   1      34.750  28.758  27.051  1.00  0.00     0.004 A 
ENDBRANCH   9  11
ENDBRANCH   8   9
ENDBRANCH   7   8
ENDBRANCH   6   7
ENDBRANCH   5   6
ENDBRANCH   4   5
ENDBRANCH   3   4
ENDBRANCH   2   3
ENDBRANCH   1   2
BRANCH   1  28
ATOM     28  C   UNL A   1      34.310  21.849  25.760  1.00  0.00     0.188 C 
BRANCH  28  29
ATOM     29  O   UNL A   1      35.471  21.103  26.116  1.00  0.00    -0.376 OA
BRANCH  29  30
ATOM     30  C   UNL A   1      36.507  21.069  25.145  1.00  0.00     0.202 C 
BRANCH  30  31
ATOM     31  C   UNL A   1      37.153  22.421  24.820  1.00  0.00     0.261 C 
BRANCH  31  32
ATOM     32  O   UNL A   1      37.672  23.153  25.940  1.00  0.00    -0.460 OA
BRANCH  32  33
ATOM     33  C   UNL A   1      38.946  22.916  26.325  1.00  0.00     0.338 C 
ATOM     34  O   UNL A   1      39.590  21.898  26.152  1.00  0.00    -0.246 OA
BRANCH  33  35
ATOM     35  C   UNL A   1      39.480  24.200  26.828  1.00  0.00     0.060 A 
ATOM     36  C   UNL A   1      40.066  25.106  25.939  1.00  0.00     0.016 A 
ATOM     37  C   UNL A   1      39.451  24.471  28.202  1.00  0.00     0.016 A 
ATOM     38  C   UNL A   1      40.606  26.296  26.425  1.00  0.00     0.010 A 
ATOM     39  C   UNL A   1      40.006  25.658  28.688  1.00  0.00     0.010 A 
ATOM     40  C   UNL A   1      40.569  26.587  27.800  1.00  0.00    -0.014 A 
BRANCH  40  41
ATOM     41  C   UNL A   1      40.928  27.947  28.267  1.00  0.00     0.031 A 
ATOM     42  C   UNL A   1      39.900  28.953  28.688  1.00  0.00     0.074 A 
ATOM     43  C   UNL A   1      42.236  28.266  28.288  1.00  0.00     0.049 A 
ATOM     44  N   UNL A   1      40.090  30.146  29.191  1.00  0.00    -0.248 NA
ATOM     45  C   UNL A   1      38.487  28.585  28.525  1.00  0.00     0.031 C 
ATOM     46  C   UNL A   1      43.319  27.382  27.850  1.00  0.00     0.029 A 
ATOM     47  N   UNL A   1      42.876  29.412  28.681  1.00  0.00    -0.354 N 
ATOM     48  C   UNL A   1      38.827  30.678  29.405  1.00  0.00     0.074 A 
ATOM     49  C   UNL A   1      37.873  29.681  28.961  1.00  0.00     0.031 C 
ATOM     50  C   UNL A   1      44.490  28.015  28.003  1.00  0.00     0.029 A 
ATOM     51  C   UNL A   1      44.242  29.350  28.539  1.00  0.00     0.049 A 
ATOM     52  H   UNL A   1      42.404  30.202  29.030  1.00  0.00     0.167 HD
ATOM     53  C   UNL A   1      38.499  31.878  29.940  1.00  0.00     0.034 A 
ATOM     54  C   UNL A   1      45.193  30.260  28.818  1.00  0.00     0.034 A 
ATOM     55  C   UNL A   1      39.454  32.860  30.389  1.00  0.00     0.049 A 
ATOM     56  C   UNL A   1      44.801  31.575  29.421  1.00  0.00     0.074 A 
ATOM     57  C   UNL A   1      39.207  34.076  31.007  1.00  0.00     0.029 A 
ATOM     58  N   UNL A   1      40.829  32.752  30.259  1.00  0.00    -0.354 N 
ATOM     59  N   UNL A   1      43.607  32.002  29.750  1.00  0.00    -0.248 NA
ATOM     60  C   UNL A   1      45.885  32.521  29.720  1.00  0.00     0.031 C 
ATOM     61  C   UNL A   1      40.433  34.707  31.237  1.00  0.00     0.029 A 
ATOM     62  C   UNL A   1      41.443  33.882  30.775  1.00  0.00     0.049 A 
ATOM     63  H   UNL A   1      41.300  31.985  29.859  1.00  0.00     0.167 HD
ATOM     64  C   UNL A   1      43.794  33.257  30.312  1.00  0.00     0.074 A 
ATOM     65  C   UNL A   1      45.220  33.517  30.295  1.00  0.00     0.031 C 
ATOM     66  C   UNL A   1      42.864  34.118  30.788  1.00  0.00     0.034 A 
BRANCH  53  67
ATOM     67  C   UNL A   1      37.042  32.194  30.146  1.00  0.00     0.023 A 
ATOM     68  C   UNL A   1      36.410  31.746  31.322  1.00  0.00     0.012 A 
ATOM     69  C   UNL A   1      36.345  33.042  29.263  1.00  0.00     0.148 A 
ATOM     70  C   UNL A   1      35.103  32.132  31.617  1.00  0.00     0.002 A 
ATOM     71  C   UNL A   1      35.050  33.443  29.576  1.00  0.00     0.091 A 
ATOM     72  F   UNL A   1      36.966  33.451  28.148  1.00  0.00    -0.205 F 
ATOM     73  C   UNL A   1      34.428  32.988  30.750  1.00  0.00     0.022 A 
BRANCH  71  74
ATOM     74  S   UNL A   1      34.108  34.584  28.557  1.00  0.00     0.127 S 
ATOM     75  O   UNL A   1      34.154  33.920  27.254  1.00  0.00    -0.237 OA
ATOM     76  O   UNL A   1      32.797  34.564  29.206  1.00  0.00    -0.237 OA
ATOM     77  O   UNL A   1      34.808  35.859  28.625  1.00  0.00    -0.744 OA
ENDBRANCH  71  74
ENDBRANCH  53  67
BRANCH  54  78
ATOM     78  C   UNL A   1      46.617  29.899  28.597  1.00  0.00     0.023 A 
ATOM     79  C   UNL A   1      47.252  30.310  27.410  1.00  0.00     0.012 A 
ATOM     80  C   UNL A   1      47.364  29.242  29.594  1.00  0.00     0.148 A 
ATOM     81  C   UNL A   1      48.610  30.064  27.214  1.00  0.00     0.002 A 
ATOM     82  C   UNL A   1      48.725  29.035  29.408  1.00  0.00     0.091 A 
ATOM     83  F   UNL A   1      46.732  28.868  30.714  1.00  0.00    -0.205 F 
ATOM     84  C   UNL A   1      49.348  29.437  28.216  1.00  0.00     0.022 A 
BRANCH  82  85
ATOM     85  S   UNL A   1      49.780  28.332  30.680  1.00  0.00     0.127 S 
ATOM     86  O   UNL A   1      49.020  27.151  31.079  1.00  0.00    -0.237 OA
ATOM     87  O   UNL A   1      51.005  28.053  29.929  1.00  0.00    -0.237 OA
ATOM     88  O   UNL A   1      49.916  29.363  31.699  1.00  0.00    -0.744 OA
ENDBRANCH  82  85
ENDBRANCH  54  78
BRANCH  66  89
ATOM     89  C   UNL A   1      43.339  35.435  31.336  1.00  0.00     0.023 A 
ATOM     90  C   UNL A   1      43.629  36.488  30.445  1.00  0.00     0.012 A 
ATOM     91  C   UNL A   1      43.394  35.663  32.724  1.00  0.00     0.148 A 
ATOM     92  C   UNL A   1      43.975  37.748  30.930  1.00  0.00     0.002 A 
ATOM     93  C   UNL A   1      43.706  36.931  33.201  1.00  0.00     0.091 A 
ATOM     94  F   UNL A   1      43.124  34.642  33.549  1.00  0.00    -0.205 F 
ATOM     95  C   UNL A   1      44.002  37.973  32.305  1.00  0.00     0.022 A 
BRANCH  93  96
ATOM     96  S   UNL A   1      43.698  37.341  34.950  1.00  0.00     0.127 S 
ATOM     97  O   UNL A   1      44.155  38.729  34.932  1.00  0.00    -0.237 OA
ATOM     98  O   UNL A   1      42.289  37.166  35.301  1.00  0.00    -0.237 OA
ATOM     99  O   UNL A   1      44.606  36.398  35.589  1.00  0.00    -0.744 OA
ENDBRANCH  93  96
ENDBRANCH  66  89
ENDBRANCH  40  41
ENDBRANCH  33  35
ENDBRANCH  32  33
ENDBRANCH  31  32
ENDBRANCH  30  31
ENDBRANCH  29  30
ENDBRANCH  28  29
ENDBRANCH   1  28
TORSDOF 23
ENDMDL
