MODEL 1
REMARK VINA RESULT:      -7.4      0.000      0.000
REMARK SMILES COc1cccc([C@@H]2CC(c3cccc(C)c3)=NN2C(=O)CCC(=O)OCCOCCOCCOCCOC(=O)c2ccc(-c3c4nc(c(-c5cccc(S(=O)(=O)[O-])c5F)c5ccc([nH]5)c(-c5cccc(S(=O)(=O)[O-])c5F)c5nc(c(-c6cccc(S(=O)(=O)[O-])c6F)c6ccc3[nH]6)C=C5)C=C4)cc2)c1
REMARK SMILES IDX 31 1 30 2 29 3 28 4 27 5 26 6 24 7 25 8 23 9 22 10 20 11
REMARK SMILES IDX 21 12 19 13 8 14 9 15 10 16 18 17 7 18 3 19 4 20 104 21 5 22
REMARK SMILES IDX 6 23 2 24 1 25 11 26 12 27 17 28 13 29 15 30 14 31 16 32
REMARK SMILES IDX 32 33 33 34 34 35 35 36 36 37 37 38 38 39 39 40 40 41 41 42
REMARK SMILES IDX 42 43 103 44 43 45 102 46 44 47 45 48 46 49 96 50 47 51
REMARK SMILES IDX 101 52 95 53 97 54 48 55 100 56 94 57 93 58 49 60 81 61
REMARK SMILES IDX 61 62 80 63 62 64 65 65 79 66 98 67 63 68 64 69 78 71 99 72
REMARK SMILES IDX 66 73 50 74 51 75 59 76 52 77 54 78 60 79 53 80 55 81 56 82
REMARK SMILES IDX 57 83 58 84 82 85 83 86 91 87 84 88 86 89 92 90 85 91 87 92
REMARK SMILES IDX 88 93 89 94 90 95 67 96 68 97 76 98 69 99 71 100 77 101
REMARK SMILES IDX 70 102 72 103 73 104 74 105 75 106
REMARK H PARENT 97 59 65 70
REMARK Flexibility Score: inf
ROOT
ATOM      1  C   UNL A   1      50.592  30.790  27.684  1.00  0.00     0.188 C 
ENDROOT
BRANCH   1   2
ATOM      2  C   UNL A   1      49.056  31.847  27.394  1.00  0.00     0.188 C 
BRANCH   2   3
ATOM      3  O   UNL A   1      47.940  32.109  26.430  1.00  0.00    -0.376 OA
BRANCH   3   4
ATOM      4  C   UNL A   1      46.475  32.309  26.475  1.00  0.00     0.202 C 
BRANCH   4   5
ATOM      5  C   UNL A   1      45.459  31.230  26.931  1.00  0.00     0.261 C 
BRANCH   5   6
ATOM      6  O   UNL A   1      44.280  31.819  27.432  1.00  0.00    -0.463 OA
BRANCH   6   7
ATOM      7  C   UNL A   1      43.834  31.231  28.549  1.00  0.00     0.306 C 
ATOM      8  O   UNL A   1      43.162  31.788  29.410  1.00  0.00    -0.252 OA
BRANCH   7   9
ATOM      9  C   UNL A   1      44.229  29.794  28.637  1.00  0.00     0.132 C 
BRANCH   9  10
ATOM     10  C   UNL A   1      43.199  28.676  28.719  1.00  0.00     0.114 C 
BRANCH  10  11
ATOM     11  C   UNL A   1      41.680  28.877  28.787  1.00  0.00     0.243 C 
ATOM     12  O   UNL A   1      41.214  29.186  27.666  1.00  0.00    -0.273 OA
BRANCH  11  13
ATOM     13  N   UNL A   1      40.804  28.756  29.877  1.00  0.00    -0.225 N 
ATOM     14  C   UNL A   1      39.172  28.769  30.493  1.00  0.00     0.147 C 
ATOM     15  C   UNL A   1      39.483  28.315  31.987  1.00  0.00     0.091 C 
ATOM     16  C   UNL A   1      40.967  28.572  32.046  1.00  0.00     0.071 C 
ATOM     17  N   UNL A   1      41.607  28.704  30.950  1.00  0.00    -0.174 NA
BRANCH  14  18
ATOM     18  C   UNL A   1      37.699  29.829  29.940  1.00  0.00    -0.019 A 
ATOM     19  C   UNL A   1      36.928  32.702  29.248  1.00  0.00     0.119 A 
ATOM     20  C   UNL A   1      35.827  32.248  27.960  1.00  0.00     0.046 A 
ATOM     21  C   UNL A   1      37.886  31.564  30.139  1.00  0.00     0.052 A 
ATOM     22  C   UNL A   1      35.523  30.540  27.623  1.00  0.00     0.004 A 
ATOM     23  C   UNL A   1      36.334  29.290  28.735  1.00  0.00     0.006 A 
BRANCH  19  24
ATOM     24  O   UNL A   1      36.748  33.984  29.766  1.00  0.00    -0.497 OA
ATOM     25  C   UNL A   1      36.003  34.025  30.993  1.00  0.00     0.278 C 
ENDBRANCH  19  24
ENDBRANCH  14  18
BRANCH  16  26
ATOM     26  C   UNL A   1      41.792  28.759  33.231  1.00  0.00    -0.002 A 
ATOM     27  C   UNL A   1      41.488  27.900  34.305  1.00  0.00     0.010 A 
ATOM     28  C   UNL A   1      42.594  29.874  33.383  1.00  0.00     0.013 A 
ATOM     29  C   UNL A   1      41.883  28.242  35.576  1.00  0.00     0.001 A 
ATOM     30  C   UNL A   1      43.090  30.152  34.654  1.00  0.00    -0.050 A 
ATOM     31  C   UNL A   1      42.682  29.372  35.744  1.00  0.00     0.003 A 
ATOM     32  C   UNL A   1      44.084  31.246  34.862  1.00  0.00     0.044 C 
ENDBRANCH  16  26
ENDBRANCH  11  13
ENDBRANCH  10  11
ENDBRANCH   9  10
ENDBRANCH   7   9
ENDBRANCH   6   7
ENDBRANCH   5   6
ENDBRANCH   4   5
ENDBRANCH   3   4
ENDBRANCH   2   3
ENDBRANCH   1   2
BRANCH   1  33
ATOM     33  O   UNL A   1      52.260  31.112  27.888  1.00  0.00    -0.377 OA
BRANCH  33  34
ATOM     34  C   UNL A   1      53.545  31.694  26.861  1.00  0.00     0.188 C 
BRANCH  34  35
ATOM     35  C   UNL A   1      55.414  31.450  27.194  1.00  0.00     0.188 C 
BRANCH  35  36
ATOM     36  O   UNL A   1      56.046  29.744  27.107  1.00  0.00    -0.376 OA
BRANCH  36  37
ATOM     37  C   UNL A   1      57.840  29.103  27.788  1.00  0.00     0.202 C 
BRANCH  37  38
ATOM     38  C   UNL A   1      58.599  29.750  29.437  1.00  0.00     0.261 C 
BRANCH  38  39
ATOM     39  O   UNL A   1      57.904  30.834  30.456  1.00  0.00    -0.460 OA
BRANCH  39  40
ATOM     40  C   UNL A   1      57.151  30.645  31.624  1.00  0.00     0.338 C 
ATOM     41  O   UNL A   1      57.411  31.182  32.695  1.00  0.00    -0.246 OA
BRANCH  40  42
ATOM     42  C   UNL A   1      55.797  29.873  31.495  1.00  0.00     0.060 A 
ATOM     43  C   UNL A   1      55.753  28.452  31.385  1.00  0.00     0.016 A 
ATOM     44  C   UNL A   1      54.565  30.514  31.355  1.00  0.00     0.016 A 
ATOM     45  C   UNL A   1      54.534  27.711  31.193  1.00  0.00     0.010 A 
ATOM     46  C   UNL A   1      53.359  29.781  31.106  1.00  0.00     0.010 A 
ATOM     47  C   UNL A   1      53.314  28.373  31.005  1.00  0.00    -0.014 A 
BRANCH  47  48
ATOM     48  C   UNL A   1      52.054  27.699  30.480  1.00  0.00     0.031 A 
ATOM     49  C   UNL A   1      51.908  27.471  29.002  1.00  0.00     0.074 A 
ATOM     50  C   UNL A   1      50.982  27.331  31.217  1.00  0.00     0.049 A 
ATOM     51  N   UNL A   1      50.875  27.026  28.334  1.00  0.00    -0.248 NA
ATOM     52  C   UNL A   1      53.088  27.761  28.183  1.00  0.00     0.031 C 
ATOM     53  C   UNL A   1      50.974  27.278  32.661  1.00  0.00     0.029 A 
ATOM     54  N   UNL A   1      49.693  26.935  30.863  1.00  0.00    -0.354 N 
ATOM     55  C   UNL A   1      51.264  27.003  27.007  1.00  0.00     0.074 A 
ATOM     56  C   UNL A   1      52.629  27.496  26.970  1.00  0.00     0.031 C 
ATOM     57  C   UNL A   1      49.741  26.927  33.054  1.00  0.00     0.029 A 
ATOM     58  C   UNL A   1      48.840  26.806  31.939  1.00  0.00     0.049 A 
ATOM     59  H   UNL A   1      49.418  26.764  29.933  1.00  0.00     0.167 HD
ATOM     60  C   UNL A   1      50.558  26.611  25.919  1.00  0.00     0.034 A 
ATOM     61  C   UNL A   1      47.510  26.612  32.103  1.00  0.00     0.034 A 
ATOM     62  C   UNL A   1      49.182  26.181  25.929  1.00  0.00     0.049 A 
ATOM     63  C   UNL A   1      46.694  26.315  30.891  1.00  0.00     0.074 A 
ATOM     64  C   UNL A   1      48.399  25.794  24.853  1.00  0.00     0.029 A 
ATOM     65  N   UNL A   1      48.361  26.124  27.048  1.00  0.00    -0.354 N 
ATOM     66  N   UNL A   1      47.108  26.248  29.654  1.00  0.00    -0.248 NA
ATOM     67  C   UNL A   1      45.276  25.974  31.083  1.00  0.00     0.031 C 
ATOM     68  C   UNL A   1      47.093  25.570  25.310  1.00  0.00     0.029 A 
ATOM     69  C   UNL A   1      47.074  25.753  26.682  1.00  0.00     0.049 A 
ATOM     70  H   UNL A   1      48.651  26.319  27.969  1.00  0.00     0.167 HD
ATOM     71  C   UNL A   1      46.024  25.812  28.920  1.00  0.00     0.074 A 
ATOM     72  C   UNL A   1      44.930  25.615  29.853  1.00  0.00     0.031 C 
ATOM     73  C   UNL A   1      45.964  25.585  27.588  1.00  0.00     0.034 A 
BRANCH  60  74
ATOM     74  C   UNL A   1      51.282  26.715  24.606  1.00  0.00     0.023 A 
ATOM     75  C   UNL A   1      52.454  25.962  24.377  1.00  0.00     0.012 A 
ATOM     76  C   UNL A   1      50.835  27.619  23.627  1.00  0.00     0.148 A 
ATOM     77  C   UNL A   1      53.208  26.166  23.223  1.00  0.00     0.002 A 
ATOM     78  C   UNL A   1      51.559  27.772  22.455  1.00  0.00     0.091 A 
ATOM     79  F   UNL A   1      49.735  28.342  23.880  1.00  0.00    -0.205 F 
ATOM     80  C   UNL A   1      52.759  27.066  22.261  1.00  0.00     0.022 A 
BRANCH  78  81
ATOM     81  S   UNL A   1      51.021  28.849  21.126  1.00  0.00     0.127 S 
ATOM     82  O   UNL A   1      49.666  28.358  20.878  1.00  0.00    -0.237 OA
ATOM     83  O   UNL A   1      51.088  30.166  21.759  1.00  0.00    -0.237 OA
ATOM     84  O   UNL A   1      51.964  28.649  20.035  1.00  0.00    -0.744 OA
ENDBRANCH  78  81
ENDBRANCH  60  74
BRANCH  61  85
ATOM     85  C   UNL A   1      46.882  26.571  33.471  1.00  0.00     0.023 A 
ATOM     86  C   UNL A   1      46.330  27.753  34.009  1.00  0.00     0.012 A 
ATOM     87  C   UNL A   1      46.771  25.376  34.218  1.00  0.00     0.148 A 
ATOM     88  C   UNL A   1      45.685  27.751  35.251  1.00  0.00     0.002 A 
ATOM     89  C   UNL A   1      46.094  25.374  35.440  1.00  0.00     0.091 A 
ATOM     90  F   UNL A   1      47.302  24.258  33.706  1.00  0.00    -0.205 F 
ATOM     91  C   UNL A   1      45.555  26.562  35.959  1.00  0.00     0.022 A 
BRANCH  89  92
ATOM     92  S   UNL A   1      45.744  23.873  36.371  1.00  0.00     0.127 S 
ATOM     93  O   UNL A   1      44.887  24.378  37.442  1.00  0.00    -0.237 OA
ATOM     94  O   UNL A   1      45.055  23.057  35.370  1.00  0.00    -0.237 OA
ATOM     95  O   UNL A   1      47.042  23.362  36.786  1.00  0.00    -0.744 OA
ENDBRANCH  89  92
ENDBRANCH  61  85
BRANCH  73  96
ATOM     96  C   UNL A   1      44.653  25.093  27.053  1.00  0.00     0.023 A 
ATOM     97  C   UNL A   1      43.678  26.010  26.606  1.00  0.00     0.012 A 
ATOM     98  C   UNL A   1      44.387  23.714  26.995  1.00  0.00     0.148 A 
ATOM     99  C   UNL A   1      42.442  25.559  26.151  1.00  0.00     0.002 A 
ATOM    100  C   UNL A   1      43.178  23.270  26.483  1.00  0.00     0.091 A 
ATOM    101  F   UNL A   1      45.316  22.866  27.460  1.00  0.00    -0.205 F 
ATOM    102  C   UNL A   1      42.196  24.189  26.078  1.00  0.00     0.022 A 
BRANCH 100 103
ATOM    103  S   UNL A   1      42.812  21.528  26.264  1.00  0.00     0.127 S 
ATOM    104  O   UNL A   1      41.646  21.576  25.383  1.00  0.00    -0.237 OA
ATOM    105  O   UNL A   1      44.037  21.037  25.633  1.00  0.00    -0.237 OA
ATOM    106  O   UNL A   1      42.557  20.994  27.596  1.00  0.00    -0.744 OA
ENDBRANCH 100 103
ENDBRANCH  73  96
ENDBRANCH  47  48
ENDBRANCH  40  42
ENDBRANCH  39  40
ENDBRANCH  38  39
ENDBRANCH  37  38
ENDBRANCH  36  37
ENDBRANCH  35  36
ENDBRANCH  34  35
ENDBRANCH  33  34
ENDBRANCH   1  33
TORSDOF 29
ENDMDL
MODEL 2
REMARK VINA RESULT:      -7.2      6.085     11.301
REMARK SMILES COc1cccc([C@@H]2CC(c3cccc(C)c3)=NN2C(=O)CCC(=O)OCCOCCOCCOCCOC(=O)c2ccc(-c3c4nc(c(-c5cccc(S(=O)(=O)[O-])c5F)c5ccc([nH]5)c(-c5cccc(S(=O)(=O)[O-])c5F)c5nc(c(-c6cccc(S(=O)(=O)[O-])c6F)c6ccc3[nH]6)C=C5)C=C4)cc2)c1
REMARK SMILES IDX 31 1 30 2 29 3 28 4 27 5 26 6 24 7 25 8 23 9 22 10 20 11
REMARK SMILES IDX 21 12 19 13 8 14 9 15 10 16 18 17 7 18 3 19 4 20 104 21 5 22
REMARK SMILES IDX 6 23 2 24 1 25 11 26 12 27 17 28 13 29 15 30 14 31 16 32
REMARK SMILES IDX 32 33 33 34 34 35 35 36 36 37 37 38 38 39 39 40 40 41 41 42
REMARK SMILES IDX 42 43 103 44 43 45 102 46 44 47 45 48 46 49 96 50 47 51
REMARK SMILES IDX 101 52 95 53 97 54 48 55 100 56 94 57 93 58 49 60 81 61
REMARK SMILES IDX 61 62 80 63 62 64 65 65 79 66 98 67 63 68 64 69 78 71 99 72
REMARK SMILES IDX 66 73 50 74 51 75 59 76 52 77 54 78 60 79 53 80 55 81 56 82
REMARK SMILES IDX 57 83 58 84 82 85 83 86 91 87 84 88 86 89 92 90 85 91 87 92
REMARK SMILES IDX 88 93 89 94 90 95 67 96 68 97 76 98 69 99 71 100 77 101
REMARK SMILES IDX 70 102 72 103 73 104 74 105 75 106
REMARK H PARENT 97 59 65 70
REMARK Flexibility Score: inf
ROOT
ATOM      1  C   UNL A   1      42.787  26.708  34.305  1.00  0.00     0.188 C 
ENDROOT
BRANCH   1   2
ATOM      2  C   UNL A   1      41.552  27.952  33.607  1.00  0.00     0.188 C 
BRANCH   2   3
ATOM      3  O   UNL A   1      40.092  28.218  33.411  1.00  0.00    -0.376 OA
BRANCH   3   4
ATOM      4  C   UNL A   1      38.920  27.530  32.826  1.00  0.00     0.202 C 
BRANCH   4   5
ATOM      5  C   UNL A   1      37.860  28.219  31.927  1.00  0.00     0.261 C 
BRANCH   5   6
ATOM      6  O   UNL A   1      38.389  29.365  31.301  1.00  0.00    -0.463 OA
BRANCH   6   7
ATOM      7  C   UNL A   1      38.085  29.440  30.000  1.00  0.00     0.306 C 
ATOM      8  O   UNL A   1      37.022  29.075  29.510  1.00  0.00    -0.252 OA
BRANCH   7   9
ATOM      9  C   UNL A   1      39.184  30.042  29.189  1.00  0.00     0.132 C 
BRANCH   9  10
ATOM     10  C   UNL A   1      40.240  30.949  29.806  1.00  0.00     0.114 C 
BRANCH  10  11
ATOM     11  C   UNL A   1      41.494  30.468  30.548  1.00  0.00     0.243 C 
ATOM     12  O   UNL A   1      41.483  30.842  31.744  1.00  0.00    -0.273 OA
BRANCH  11  13
ATOM     13  N   UNL A   1      42.577  29.705  30.086  1.00  0.00    -0.225 N 
ATOM     14  C   UNL A   1      43.217  28.558  28.938  1.00  0.00     0.147 C 
ATOM     15  C   UNL A   1      44.742  28.597  29.395  1.00  0.00     0.091 C 
ATOM     16  C   UNL A   1      44.603  29.238  30.752  1.00  0.00     0.071 C 
ATOM     17  N   UNL A   1      43.522  29.860  31.025  1.00  0.00    -0.174 NA
BRANCH  14  18
ATOM     18  C   UNL A   1      42.346  27.093  28.107  1.00  0.00    -0.019 A 
ATOM     19  C   UNL A   1      42.012  24.063  28.308  1.00  0.00     0.119 A 
ATOM     20  C   UNL A   1      40.325  24.074  27.829  1.00  0.00     0.046 A 
ATOM     21  C   UNL A   1      42.959  25.500  28.523  1.00  0.00     0.052 A 
ATOM     22  C   UNL A   1      39.547  25.595  27.378  1.00  0.00     0.004 A 
ATOM     23  C   UNL A   1      40.608  27.122  27.344  1.00  0.00     0.006 A 
BRANCH  19  24
ATOM     24  O   UNL A   1      42.666  22.839  28.173  1.00  0.00    -0.497 OA
ATOM     25  C   UNL A   1      43.240  22.617  26.875  1.00  0.00     0.278 C 
ENDBRANCH  19  24
ENDBRANCH  14  18
BRANCH  16  26
ATOM     26  C   UNL A   1      45.545  29.190  31.860  1.00  0.00    -0.002 A 
ATOM     27  C   UNL A   1      44.960  29.269  33.139  1.00  0.00     0.010 A 
ATOM     28  C   UNL A   1      46.904  29.353  31.661  1.00  0.00     0.013 A 
ATOM     29  C   UNL A   1      45.729  29.651  34.212  1.00  0.00     0.001 A 
ATOM     30  C   UNL A   1      47.699  29.625  32.771  1.00  0.00    -0.050 A 
ATOM     31  C   UNL A   1      47.098  29.830  34.020  1.00  0.00     0.003 A 
ATOM     32  C   UNL A   1      49.186  29.658  32.654  1.00  0.00     0.044 C 
ENDBRANCH  16  26
ENDBRANCH  11  13
ENDBRANCH  10  11
ENDBRANCH   9  10
ENDBRANCH   7   9
ENDBRANCH   6   7
ENDBRANCH   5   6
ENDBRANCH   4   5
ENDBRANCH   3   4
ENDBRANCH   2   3
ENDBRANCH   1   2
BRANCH   1  33
ATOM     33  O   UNL A   1      43.978  26.745  35.533  1.00  0.00    -0.377 OA
BRANCH  33  34
ATOM     34  C   UNL A   1      45.474  25.900  35.835  1.00  0.00     0.188 C 
BRANCH  34  35
ATOM     35  C   UNL A   1      47.093  26.142  34.843  1.00  0.00     0.188 C 
BRANCH  35  36
ATOM     36  O   UNL A   1      47.241  25.219  33.281  1.00  0.00    -0.376 OA
BRANCH  36  37
ATOM     37  C   UNL A   1      46.382  25.717  31.518  1.00  0.00     0.202 C 
BRANCH  37  38
ATOM     38  C   UNL A   1      47.422  26.016  29.922  1.00  0.00     0.261 C 
BRANCH  38  39
ATOM     39  O   UNL A   1      46.871  25.903  28.379  1.00  0.00    -0.460 OA
BRANCH  39  40
ATOM     40  C   UNL A   1      47.327  26.500  27.195  1.00  0.00     0.338 C 
ATOM     41  O   UNL A   1      47.576  25.874  26.171  1.00  0.00    -0.246 OA
BRANCH  40  42
ATOM     42  C   UNL A   1      47.321  28.062  27.123  1.00  0.00     0.060 A 
ATOM     43  C   UNL A   1      47.923  28.862  28.139  1.00  0.00     0.016 A 
ATOM     44  C   UNL A   1      46.629  28.776  26.143  1.00  0.00     0.016 A 
ATOM     45  C   UNL A   1      47.876  30.300  28.144  1.00  0.00     0.010 A 
ATOM     46  C   UNL A   1      46.533  30.205  26.180  1.00  0.00     0.010 A 
ATOM     47  C   UNL A   1      47.136  30.998  27.182  1.00  0.00    -0.014 A 
BRANCH  47  48
ATOM     48  C   UNL A   1      46.766  32.470  27.296  1.00  0.00     0.031 A 
ATOM     49  C   UNL A   1      47.787  33.511  26.935  1.00  0.00     0.074 A 
ATOM     50  C   UNL A   1      45.600  32.963  27.769  1.00  0.00     0.049 A 
ATOM     51  N   UNL A   1      47.725  34.811  27.070  1.00  0.00    -0.248 NA
ATOM     52  C   UNL A   1      49.025  33.018  26.322  1.00  0.00     0.031 C 
ATOM     53  C   UNL A   1      44.416  32.166  27.992  1.00  0.00     0.029 A 
ATOM     54  N   UNL A   1      45.212  34.247  28.150  1.00  0.00    -0.354 N 
ATOM     55  C   UNL A   1      48.923  35.300  26.584  1.00  0.00     0.074 A 
ATOM     56  C   UNL A   1      49.699  34.146  26.163  1.00  0.00     0.031 C 
ATOM     57  C   UNL A   1      43.472  32.964  28.512  1.00  0.00     0.029 A 
ATOM     58  C   UNL A   1      43.968  34.294  28.744  1.00  0.00     0.049 A 
ATOM     59  H   UNL A   1      45.772  35.044  28.009  1.00  0.00     0.167 HD
ATOM     60  C   UNL A   1      49.345  36.584  26.493  1.00  0.00     0.034 A 
ATOM     61  C   UNL A   1      43.244  35.230  29.402  1.00  0.00     0.034 A 
ATOM     62  C   UNL A   1      48.617  37.736  26.964  1.00  0.00     0.049 A 
ATOM     63  C   UNL A   1      43.767  36.626  29.428  1.00  0.00     0.074 A 
ATOM     64  C   UNL A   1      49.002  39.067  26.925  1.00  0.00     0.029 A 
ATOM     65  N   UNL A   1      47.385  37.706  27.603  1.00  0.00    -0.354 N 
ATOM     66  N   UNL A   1      44.883  37.063  28.909  1.00  0.00    -0.248 NA
ATOM     67  C   UNL A   1      42.919  37.668  30.027  1.00  0.00     0.031 C 
ATOM     68  C   UNL A   1      48.039  39.829  27.598  1.00  0.00     0.029 A 
ATOM     69  C   UNL A   1      47.019  38.986  28.002  1.00  0.00     0.049 A 
ATOM     70  H   UNL A   1      46.848  36.894  27.754  1.00  0.00     0.167 HD
ATOM     71  C   UNL A   1      44.858  38.434  29.069  1.00  0.00     0.074 A 
ATOM     72  C   UNL A   1      43.605  38.762  29.725  1.00  0.00     0.031 C 
ATOM     73  C   UNL A   1      45.795  39.329  28.684  1.00  0.00     0.034 A 
BRANCH  60  74
ATOM     74  C   UNL A   1      50.718  36.775  25.912  1.00  0.00     0.023 A 
ATOM     75  C   UNL A   1      50.908  36.770  24.513  1.00  0.00     0.012 A 
ATOM     76  C   UNL A   1      51.832  36.885  26.763  1.00  0.00     0.148 A 
ATOM     77  C   UNL A   1      52.193  36.797  23.976  1.00  0.00     0.002 A 
ATOM     78  C   UNL A   1      53.104  36.973  26.219  1.00  0.00     0.091 A 
ATOM     79  F   UNL A   1      51.628  36.860  28.088  1.00  0.00    -0.205 F 
ATOM     80  C   UNL A   1      53.289  36.903  24.827  1.00  0.00     0.022 A 
BRANCH  78  81
ATOM     81  S   UNL A   1      54.569  37.188  27.229  1.00  0.00     0.127 S 
ATOM     82  O   UNL A   1      55.536  37.677  26.247  1.00  0.00    -0.237 OA
ATOM     83  O   UNL A   1      54.123  38.188  28.198  1.00  0.00    -0.237 OA
ATOM     84  O   UNL A   1      54.866  35.880  27.796  1.00  0.00    -0.744 OA
ENDBRANCH  78  81
ENDBRANCH  60  74
BRANCH  61  85
ATOM     85  C   UNL A   1      41.892  34.914  29.986  1.00  0.00     0.023 A 
ATOM     86  C   UNL A   1      40.767  34.878  29.136  1.00  0.00     0.012 A 
ATOM     87  C   UNL A   1      41.713  34.592  31.351  1.00  0.00     0.148 A 
ATOM     88  C   UNL A   1      39.502  34.534  29.622  1.00  0.00     0.002 A 
ATOM     89  C   UNL A   1      40.454  34.213  31.823  1.00  0.00     0.091 A 
ATOM     90  F   UNL A   1      42.783  34.633  32.157  1.00  0.00    -0.205 F 
ATOM     91  C   UNL A   1      39.348  34.188  30.960  1.00  0.00     0.022 A 
BRANCH  89  92
ATOM     92  S   UNL A   1      40.168  33.611  33.496  1.00  0.00     0.127 S 
ATOM     93  O   UNL A   1      39.170  32.567  33.271  1.00  0.00    -0.237 OA
ATOM     94  O   UNL A   1      41.495  33.120  33.866  1.00  0.00    -0.237 OA
ATOM     95  O   UNL A   1      39.713  34.769  34.252  1.00  0.00    -0.744 OA
ENDBRANCH  89  92
ENDBRANCH  61  85
BRANCH  73  96
ATOM     96  C   UNL A   1      45.499  40.771  28.971  1.00  0.00     0.023 A 
ATOM     97  C   UNL A   1      45.105  41.637  27.930  1.00  0.00     0.012 A 
ATOM     98  C   UNL A   1      45.614  41.267  30.282  1.00  0.00     0.148 A 
ATOM     99  C   UNL A   1      44.874  42.987  28.185  1.00  0.00     0.002 A 
ATOM    100  C   UNL A   1      45.321  42.597  30.539  1.00  0.00     0.091 A 
ATOM    101  F   UNL A   1      46.024  40.430  31.246  1.00  0.00    -0.205 F 
ATOM    102  C   UNL A   1      44.970  43.464  29.491  1.00  0.00     0.022 A 
BRANCH 100 103
ATOM    103  S   UNL A   1      45.326  43.276  32.199  1.00  0.00     0.127 S 
ATOM    104  O   UNL A   1      46.753  43.261  32.523  1.00  0.00    -0.237 OA
ATOM    105  O   UNL A   1      44.761  44.608  31.984  1.00  0.00    -0.237 OA
ATOM    106  O   UNL A   1      44.501  42.386  33.006  1.00  0.00    -0.744 OA
ENDBRANCH 100 103
ENDBRANCH  73  96
ENDBRANCH  47  48
ENDBRANCH  40  42
ENDBRANCH  39  40
ENDBRANCH  38  39
ENDBRANCH  37  38
ENDBRANCH  36  37
ENDBRANCH  35  36
ENDBRANCH  34  35
ENDBRANCH  33  34
ENDBRANCH   1  33
TORSDOF 29
ENDMDL
MODEL 3
REMARK VINA RESULT:      -6.9      4.788     10.173
REMARK SMILES COc1cccc([C@@H]2CC(c3cccc(C)c3)=NN2C(=O)CCC(=O)OCCOCCOCCOCCOC(=O)c2ccc(-c3c4nc(c(-c5cccc(S(=O)(=O)[O-])c5F)c5ccc([nH]5)c(-c5cccc(S(=O)(=O)[O-])c5F)c5nc(c(-c6cccc(S(=O)(=O)[O-])c6F)c6ccc3[nH]6)C=C5)C=C4)cc2)c1
REMARK SMILES IDX 31 1 30 2 29 3 28 4 27 5 26 6 24 7 25 8 23 9 22 10 20 11
REMARK SMILES IDX 21 12 19 13 8 14 9 15 10 16 18 17 7 18 3 19 4 20 104 21 5 22
REMARK SMILES IDX 6 23 2 24 1 25 11 26 12 27 17 28 13 29 15 30 14 31 16 32
REMARK SMILES IDX 32 33 33 34 34 35 35 36 36 37 37 38 38 39 39 40 40 41 41 42
REMARK SMILES IDX 42 43 103 44 43 45 102 46 44 47 45 48 46 49 96 50 47 51
REMARK SMILES IDX 101 52 95 53 97 54 48 55 100 56 94 57 93 58 49 60 81 61
REMARK SMILES IDX 61 62 80 63 62 64 65 65 79 66 98 67 63 68 64 69 78 71 99 72
REMARK SMILES IDX 66 73 50 74 51 75 59 76 52 77 54 78 60 79 53 80 55 81 56 82
REMARK SMILES IDX 57 83 58 84 82 85 83 86 91 87 84 88 86 89 92 90 85 91 87 92
REMARK SMILES IDX 88 93 89 94 90 95 67 96 68 97 76 98 69 99 71 100 77 101
REMARK SMILES IDX 70 102 72 103 73 104 74 105 75 106
REMARK H PARENT 97 59 65 70
REMARK Flexibility Score: inf
ROOT
ATOM      1  C   UNL A   1      54.762  25.675  31.427  1.00  0.00     0.188 C 
ENDROOT
BRANCH   1   2
ATOM      2  C   UNL A   1      53.959  27.337  31.037  1.00  0.00     0.188 C 
BRANCH   2   3
ATOM      3  O   UNL A   1      54.226  28.701  30.480  1.00  0.00    -0.376 OA
BRANCH   3   4
ATOM      4  C   UNL A   1      53.492  29.742  29.727  1.00  0.00     0.202 C 
BRANCH   4   5
ATOM      5  C   UNL A   1      52.742  29.491  28.393  1.00  0.00     0.261 C 
BRANCH   5   6
ATOM      6  O   UNL A   1      51.604  28.682  28.592  1.00  0.00    -0.463 OA
BRANCH   6   7
ATOM      7  C   UNL A   1      51.705  27.483  28.007  1.00  0.00     0.306 C 
ATOM      8  O   UNL A   1      52.680  27.096  27.371  1.00  0.00    -0.252 OA
BRANCH   7   9
ATOM      9  C   UNL A   1      50.495  26.636  28.226  1.00  0.00     0.132 C 
BRANCH   9  10
ATOM     10  C   UNL A   1      49.701  26.048  27.068  1.00  0.00     0.114 C 
BRANCH  10  11
ATOM     11  C   UNL A   1      48.389  25.264  27.203  1.00  0.00     0.243 C 
ATOM     12  O   UNL A   1      48.478  24.383  28.090  1.00  0.00    -0.273 OA
BRANCH  11  13
ATOM     13  N   UNL A   1      47.178  25.408  26.509  1.00  0.00    -0.225 N 
ATOM     14  C   UNL A   1      45.820  26.406  26.060  1.00  0.00     0.147 C 
ATOM     15  C   UNL A   1      45.132  25.412  25.025  1.00  0.00     0.091 C 
ATOM     16  C   UNL A   1      45.812  24.120  25.394  1.00  0.00     0.071 C 
ATOM     17  N   UNL A   1      46.891  24.171  26.075  1.00  0.00    -0.174 NA
BRANCH  14  18
ATOM     18  C   UNL A   1      44.930  27.735  27.081  1.00  0.00    -0.019 A 
ATOM     19  C   UNL A   1      44.177  30.694  27.043  1.00  0.00     0.119 A 
ATOM     20  C   UNL A   1      42.619  30.454  27.812  1.00  0.00     0.046 A 
ATOM     21  C   UNL A   1      45.247  29.398  26.615  1.00  0.00     0.052 A 
ATOM     22  C   UNL A   1      42.139  28.839  28.344  1.00  0.00     0.004 A 
ATOM     23  C   UNL A   1      43.376  27.467  28.139  1.00  0.00     0.006 A 
BRANCH  19  24
ATOM     24  O   UNL A   1      44.680  31.994  27.099  1.00  0.00    -0.497 OA
ATOM     25  C   UNL A   1      44.446  32.768  25.912  1.00  0.00     0.278 C 
ENDBRANCH  19  24
ENDBRANCH  14  18
BRANCH  16  26
ATOM     26  C   UNL A   1      45.357  22.764  25.124  1.00  0.00    -0.002 A 
ATOM     27  C   UNL A   1      43.989  22.539  25.372  1.00  0.00     0.010 A 
ATOM     28  C   UNL A   1      46.250  21.727  24.928  1.00  0.00     0.013 A 
ATOM     29  C   UNL A   1      43.539  21.254  25.561  1.00  0.00     0.001 A 
ATOM     30  C   UNL A   1      45.766  20.424  25.004  1.00  0.00    -0.050 A 
ATOM     31  C   UNL A   1      44.434  20.201  25.378  1.00  0.00     0.003 A 
ATOM     32  C   UNL A   1      46.637  19.265  24.651  1.00  0.00     0.044 C 
ENDBRANCH  16  26
ENDBRANCH  11  13
ENDBRANCH  10  11
ENDBRANCH   9  10
ENDBRANCH   7   9
ENDBRANCH   6   7
ENDBRANCH   5   6
ENDBRANCH   4   5
ENDBRANCH   3   4
ENDBRANCH   2   3
ENDBRANCH   1   2
BRANCH   1  33
ATOM     33  O   UNL A   1      54.323  24.310  32.361  1.00  0.00    -0.377 OA
BRANCH  33  34
ATOM     34  C   UNL A   1      54.983  23.499  33.758  1.00  0.00     0.188 C 
BRANCH  34  35
ATOM     35  C   UNL A   1      54.218  23.534  35.513  1.00  0.00     0.188 C 
BRANCH  35  36
ATOM     36  O   UNL A   1      52.787  24.633  35.761  1.00  0.00    -0.376 OA
BRANCH  36  37
ATOM     37  C   UNL A   1      50.991  24.094  36.520  1.00  0.00     0.202 C 
BRANCH  37  38
ATOM     38  C   UNL A   1      49.549  23.480  35.398  1.00  0.00     0.261 C 
BRANCH  38  39
ATOM     39  O   UNL A   1      49.354  23.827  33.805  1.00  0.00    -0.460 OA
BRANCH  39  40
ATOM     40  C   UNL A   1      49.844  24.887  33.029  1.00  0.00     0.338 C 
ATOM     41  O   UNL A   1      50.992  24.941  32.601  1.00  0.00    -0.246 OA
BRANCH  40  42
ATOM     42  C   UNL A   1      48.814  25.947  32.518  1.00  0.00     0.060 A 
ATOM     43  C   UNL A   1      48.311  25.920  31.184  1.00  0.00     0.016 A 
ATOM     44  C   UNL A   1      48.416  27.049  33.276  1.00  0.00     0.016 A 
ATOM     45  C   UNL A   1      47.419  26.918  30.655  1.00  0.00     0.010 A 
ATOM     46  C   UNL A   1      47.574  28.073  32.731  1.00  0.00     0.010 A 
ATOM     47  C   UNL A   1      47.069  28.043  31.412  1.00  0.00    -0.014 A 
BRANCH  47  48
ATOM     48  C   UNL A   1      46.410  29.286  30.833  1.00  0.00     0.031 A 
ATOM     49  C   UNL A   1      47.243  30.257  30.045  1.00  0.00     0.074 A 
ATOM     50  C   UNL A   1      45.124  29.662  31.013  1.00  0.00     0.049 A 
ATOM     51  N   UNL A   1      46.915  31.429  29.567  1.00  0.00    -0.248 NA
ATOM     52  C   UNL A   1      48.614  29.835  29.741  1.00  0.00     0.031 C 
ATOM     53  C   UNL A   1      44.101  28.805  31.565  1.00  0.00     0.029 A 
ATOM     54  N   UNL A   1      44.453  30.857  30.757  1.00  0.00    -0.354 N 
ATOM     55  C   UNL A   1      48.042  31.905  28.923  1.00  0.00     0.074 A 
ATOM     56  C   UNL A   1      49.069  30.893  29.089  1.00  0.00     0.031 C 
ATOM     57  C   UNL A   1      42.967  29.515  31.649  1.00  0.00     0.029 A 
ATOM     58  C   UNL A   1      43.165  30.883  31.249  1.00  0.00     0.049 A 
ATOM     59  H   UNL A   1      44.860  31.611  30.272  1.00  0.00     0.167 HD
ATOM     60  C   UNL A   1      48.213  33.072  28.257  1.00  0.00     0.034 A 
ATOM     61  C   UNL A   1      42.203  31.825  31.396  1.00  0.00     0.034 A 
ATOM     62  C   UNL A   1      47.226  34.117  28.138  1.00  0.00     0.049 A 
ATOM     63  C   UNL A   1      42.439  33.164  30.783  1.00  0.00     0.074 A 
ATOM     64  C   UNL A   1      47.347  35.339  27.496  1.00  0.00     0.029 A 
ATOM     65  N   UNL A   1      45.959  34.099  28.706  1.00  0.00    -0.354 N 
ATOM     66  N   UNL A   1      43.499  33.562  30.133  1.00  0.00    -0.248 NA
ATOM     67  C   UNL A   1      41.342  34.143  30.827  1.00  0.00     0.031 C 
ATOM     68  C   UNL A   1      46.184  36.083  27.732  1.00  0.00     0.029 A 
ATOM     69  C   UNL A   1      45.309  35.303  28.468  1.00  0.00     0.049 A 
ATOM     70  H   UNL A   1      45.577  33.342  29.207  1.00  0.00     0.167 HD
ATOM     71  C   UNL A   1      43.190  34.815  29.645  1.00  0.00     0.074 A 
ATOM     72  C   UNL A   1      41.832  35.111  30.063  1.00  0.00     0.031 C 
ATOM     73  C   UNL A   1      43.973  35.630  28.903  1.00  0.00     0.034 A 
BRANCH  60  74
ATOM     74  C   UNL A   1      49.580  33.287  27.669  1.00  0.00     0.023 A 
ATOM     75  C   UNL A   1      49.872  32.839  26.363  1.00  0.00     0.012 A 
ATOM     76  C   UNL A   1      50.595  33.871  28.447  1.00  0.00     0.148 A 
ATOM     77  C   UNL A   1      51.174  32.902  25.871  1.00  0.00     0.002 A 
ATOM     78  C   UNL A   1      51.875  33.985  27.927  1.00  0.00     0.091 A 
ATOM     79  F   UNL A   1      50.299  34.264  29.693  1.00  0.00    -0.205 F 
ATOM     80  C   UNL A   1      52.173  33.479  26.649  1.00  0.00     0.022 A 
BRANCH  78  81
ATOM     81  S   UNL A   1      53.209  34.781  28.823  1.00  0.00     0.127 S 
ATOM     82  O   UNL A   1      52.499  35.855  29.516  1.00  0.00    -0.237 OA
ATOM     83  O   UNL A   1      53.679  33.699  29.687  1.00  0.00    -0.237 OA
ATOM     84  O   UNL A   1      54.168  35.218  27.817  1.00  0.00    -0.744 OA
ENDBRANCH  78  81
ENDBRANCH  60  74
BRANCH  61  85
ATOM     85  C   UNL A   1      40.882  31.508  32.045  1.00  0.00     0.023 A 
ATOM     86  C   UNL A   1      40.721  31.743  33.427  1.00  0.00     0.012 A 
ATOM     87  C   UNL A   1      39.770  31.036  31.310  1.00  0.00     0.148 A 
ATOM     88  C   UNL A   1      39.495  31.517  34.062  1.00  0.00     0.002 A 
ATOM     89  C   UNL A   1      38.540  30.848  31.943  1.00  0.00     0.091 A 
ATOM     90  F   UNL A   1      39.929  30.808  29.999  1.00  0.00    -0.205 F 
ATOM     91  C   UNL A   1      38.403  31.084  33.319  1.00  0.00     0.022 A 
BRANCH  89  92
ATOM     92  S   UNL A   1      37.029  30.428  31.057  1.00  0.00     0.127 S 
ATOM     93  O   UNL A   1      36.150  30.010  32.147  1.00  0.00    -0.237 OA
ATOM     94  O   UNL A   1      36.678  31.710  30.445  1.00  0.00    -0.237 OA
ATOM     95  O   UNL A   1      37.408  29.386  30.115  1.00  0.00    -0.744 OA
ENDBRANCH  89  92
ENDBRANCH  61  85
BRANCH  73  96
ATOM     96  C   UNL A   1      43.371  36.941  28.491  1.00  0.00     0.023 A 
ATOM     97  C   UNL A   1      42.633  37.040  27.293  1.00  0.00     0.012 A 
ATOM     98  C   UNL A   1      43.542  38.079  29.299  1.00  0.00     0.148 A 
ATOM     99  C   UNL A   1      42.113  38.266  26.886  1.00  0.00     0.002 A 
ATOM    100  C   UNL A   1      42.967  39.282  28.919  1.00  0.00     0.091 A 
ATOM    101  F   UNL A   1      44.277  37.965  30.414  1.00  0.00    -0.205 F 
ATOM    102  C   UNL A   1      42.269  39.384  27.704  1.00  0.00     0.022 A 
BRANCH 100 103
ATOM    103  S   UNL A   1      43.036  40.746  29.952  1.00  0.00     0.127 S 
ATOM    104  O   UNL A   1      44.122  40.411  30.872  1.00  0.00    -0.237 OA
ATOM    105  O   UNL A   1      43.358  41.789  28.978  1.00  0.00    -0.237 OA
ATOM    106  O   UNL A   1      41.722  40.872  30.568  1.00  0.00    -0.744 OA
ENDBRANCH 100 103
ENDBRANCH  73  96
ENDBRANCH  47  48
ENDBRANCH  40  42
ENDBRANCH  39  40
ENDBRANCH  38  39
ENDBRANCH  37  38
ENDBRANCH  36  37
ENDBRANCH  35  36
ENDBRANCH  34  35
ENDBRANCH  33  34
ENDBRANCH   1  33
TORSDOF 29
ENDMDL
