MODEL 1
REMARK VINA RESULT:      -9.2      0.000      0.000
REMARK SMILES C#CCNC(=O)[C@H](C)S(=O)(=O)c1ccc(C(=O)OCCOCCOCCOCCOC(=O)c2ccc(-c3c4nc(c(-c5cccc(S(=O)(=O)[O-])c5F)c5ccc([nH]5)c(-c5cccc(S(=O)(=O)[O-])c5F)c5nc(c(-c6cccc(S(=O)(=O)[O-])c6F)c6ccc3[nH]6)C=C5)C=C4)cc2)cc1F
REMARK SMILES IDX 23 1 22 2 21 3 20 4 19 5 18 6 16 7 17 8 15 9 12 10 13 11
REMARK SMILES IDX 97 12 14 13 96 14 98 15 9 16 10 17 11 18 7 19 8 20 5 21 4 22
REMARK SMILES IDX 6 24 3 25 2 26 1 27 24 28 25 29 26 30 27 31 28 32 29 33
REMARK SMILES IDX 30 34 31 35 32 36 33 37 34 38 95 39 35 40 94 41 36 42 37 43
REMARK SMILES IDX 38 44 88 45 39 46 93 47 87 48 89 49 40 50 92 51 86 52 85 53
REMARK SMILES IDX 41 55 73 56 53 57 72 58 54 59 57 60 71 61 90 62 55 63 56 64
REMARK SMILES IDX 70 66 91 67 58 68 42 69 43 70 51 71 44 72 46 73 52 74 45 75
REMARK SMILES IDX 47 76 48 77 49 78 50 79 74 80 75 81 83 82 76 83 78 84 84 85
REMARK SMILES IDX 77 86 79 87 80 88 81 89 82 90 59 91 60 92 68 93 61 94 63 95
REMARK SMILES IDX 69 96 62 97 64 98 65 99 66 100 67 101
REMARK H PARENT 4 23 89 54 57 65
REMARK Flexibility Score: inf
ROOT
ATOM      1  C   UNL A   1      30.842  26.222  26.143  1.00  0.00     0.188 C 
ENDROOT
BRANCH   1   2
ATOM      2  C   UNL A   1      30.766  27.209  24.961  1.00  0.00     0.188 C 
BRANCH   2   3
ATOM      3  O   UNL A   1      29.691  26.960  24.076  1.00  0.00    -0.376 OA
BRANCH   3   4
ATOM      4  C   UNL A   1      29.637  27.593  22.810  1.00  0.00     0.202 C 
BRANCH   4   5
ATOM      5  C   UNL A   1      30.904  27.937  22.008  1.00  0.00     0.261 C 
BRANCH   5   6
ATOM      6  O   UNL A   1      31.832  26.878  21.782  1.00  0.00    -0.460 OA
BRANCH   6   7
ATOM      7  C   UNL A   1      33.092  27.068  22.216  1.00  0.00     0.338 C 
ATOM      8  O   UNL A   1      33.738  28.100  22.193  1.00  0.00    -0.246 OA
BRANCH   7   9
ATOM      9  C   UNL A   1      33.479  25.860  22.973  1.00  0.00     0.063 A 
ATOM     10  C   UNL A   1      34.232  23.663  24.484  1.00  0.00     0.103 A 
ATOM     11  C   UNL A   1      34.363  24.946  25.020  1.00  0.00     0.024 A 
ATOM     12  C   UNL A   1      33.624  23.474  23.248  1.00  0.00     0.142 A 
ATOM     13  C   UNL A   1      34.033  26.049  24.245  1.00  0.00     0.017 A 
ATOM     14  C   UNL A   1      33.224  24.572  22.494  1.00  0.00     0.056 A 
ATOM     15  F   UNL A   1      33.416  22.253  22.745  1.00  0.00    -0.206 F 
BRANCH  10  16
ATOM     16  S   UNL A   1      34.929  22.313  25.374  1.00  0.00     0.192 S 
ATOM     17  O   UNL A   1      36.012  22.788  26.215  1.00  0.00    -0.223 OA
ATOM     18  O   UNL A   1      35.207  21.287  24.384  1.00  0.00    -0.223 OA
BRANCH  16  19
ATOM     19  C   UNL A   1      33.650  21.750  26.493  1.00  0.00     0.199 C 
ATOM     20  C   UNL A   1      33.480  22.700  27.679  1.00  0.00     0.036 C 
BRANCH  19  21
ATOM     21  C   UNL A   1      32.331  21.561  25.775  1.00  0.00     0.239 C 
ATOM     22  N   UNL A   1      31.996  20.363  25.228  1.00  0.00    -0.344 N 
ATOM     23  H   UNL A   1      31.078  20.293  24.881  1.00  0.00     0.164 HD
ATOM     24  O   UNL A   1      31.496  22.465  25.692  1.00  0.00    -0.274 OA
BRANCH  22  25
ATOM     25  C   UNL A   1      32.809  19.184  25.087  1.00  0.00     0.206 C 
BRANCH  25  26
ATOM     26  C   UNL A   1      32.571  18.563  23.720  1.00  0.00    -0.085 C 
ATOM     27  C   UNL A   1      32.367  18.031  22.548  1.00  0.00     0.006 C 
ENDBRANCH  25  26
ENDBRANCH  22  25
ENDBRANCH  19  21
ENDBRANCH  16  19
ENDBRANCH  10  16
ENDBRANCH   7   9
ENDBRANCH   6   7
ENDBRANCH   5   6
ENDBRANCH   4   5
ENDBRANCH   3   4
ENDBRANCH   2   3
ENDBRANCH   1   2
BRANCH   1  28
ATOM     28  O   UNL A   1      31.542  26.657  27.292  1.00  0.00    -0.377 OA
BRANCH  28  29
ATOM     29  C   UNL A   1      32.389  27.803  27.221  1.00  0.00     0.188 C 
BRANCH  29  30
ATOM     30  C   UNL A   1      31.855  29.255  27.337  1.00  0.00     0.188 C 
BRANCH  30  31
ATOM     31  O   UNL A   1      31.976  30.039  26.161  1.00  0.00    -0.376 OA
BRANCH  31  32
ATOM     32  C   UNL A   1      31.234  31.241  26.084  1.00  0.00     0.202 C 
BRANCH  32  33
ATOM     33  C   UNL A   1      31.654  32.372  27.032  1.00  0.00     0.261 C 
BRANCH  33  34
ATOM     34  O   UNL A   1      33.062  32.496  27.275  1.00  0.00    -0.460 OA
BRANCH  34  35
ATOM     35  C   UNL A   1      33.471  33.552  28.009  1.00  0.00     0.338 C 
ATOM     36  O   UNL A   1      32.909  34.632  28.120  1.00  0.00    -0.246 OA
BRANCH  35  37
ATOM     37  C   UNL A   1      34.626  33.116  28.816  1.00  0.00     0.060 A 
ATOM     38  C   UNL A   1      35.900  33.617  28.514  1.00  0.00     0.016 A 
ATOM     39  C   UNL A   1      34.446  32.221  29.873  1.00  0.00     0.016 A 
ATOM     40  C   UNL A   1      37.007  33.186  29.245  1.00  0.00     0.010 A 
ATOM     41  C   UNL A   1      35.557  31.777  30.590  1.00  0.00     0.010 A 
ATOM     42  C   UNL A   1      36.847  32.224  30.251  1.00  0.00    -0.014 A 
BRANCH  42  43
ATOM     43  C   UNL A   1      38.033  31.528  30.801  1.00  0.00     0.031 A 
ATOM     44  C   UNL A   1      38.428  31.818  32.223  1.00  0.00     0.074 A 
ATOM     45  C   UNL A   1      38.747  30.661  30.061  1.00  0.00     0.049 A 
ATOM     46  N   UNL A   1      39.451  31.377  32.904  1.00  0.00    -0.248 NA
ATOM     47  C   UNL A   1      37.551  32.731  32.977  1.00  0.00     0.031 C 
ATOM     48  C   UNL A   1      38.452  30.285  28.681  1.00  0.00     0.029 A 
ATOM     49  N   UNL A   1      39.884  29.956  30.370  1.00  0.00    -0.354 N 
ATOM     50  C   UNL A   1      39.362  31.983  34.152  1.00  0.00     0.074 A 
ATOM     51  C   UNL A   1      38.191  32.830  34.132  1.00  0.00     0.031 C 
ATOM     52  C   UNL A   1      39.401  29.436  28.251  1.00  0.00     0.029 A 
ATOM     53  C   UNL A   1      40.386  29.234  29.313  1.00  0.00     0.049 A 
ATOM     54  H   UNL A   1      40.300  29.968  31.262  1.00  0.00     0.167 HD
ATOM     55  C   UNL A   1      40.173  31.833  35.224  1.00  0.00     0.034 A 
ATOM     56  C   UNL A   1      41.523  28.515  29.209  1.00  0.00     0.034 A 
ATOM     57  C   UNL A   1      41.323  30.973  35.246  1.00  0.00     0.049 A 
ATOM     58  C   UNL A   1      42.433  28.392  30.406  1.00  0.00     0.074 A 
ATOM     59  C   UNL A   1      42.180  30.718  36.301  1.00  0.00     0.029 A 
ATOM     60  N   UNL A   1      41.786  30.240  34.165  1.00  0.00    -0.354 N 
ATOM     61  N   UNL A   1      42.282  28.888  31.610  1.00  0.00    -0.248 NA
ATOM     62  C   UNL A   1      43.655  27.590  30.240  1.00  0.00     0.031 C 
ATOM     63  C   UNL A   1      43.187  29.864  35.847  1.00  0.00     0.029 A 
ATOM     64  C   UNL A   1      42.930  29.548  34.522  1.00  0.00     0.049 A 
ATOM     65  H   UNL A   1      41.364  30.216  33.276  1.00  0.00     0.167 HD
ATOM     66  C   UNL A   1      43.369  28.434  32.352  1.00  0.00     0.074 A 
ATOM     67  C   UNL A   1      44.161  27.609  31.466  1.00  0.00     0.031 C 
ATOM     68  C   UNL A   1      43.685  28.689  33.647  1.00  0.00     0.034 A 
BRANCH  55  69
ATOM     69  C   UNL A   1      39.839  32.600  36.476  1.00  0.00     0.023 A 
ATOM     70  C   UNL A   1      40.501  33.813  36.751  1.00  0.00     0.012 A 
ATOM     71  C   UNL A   1      38.810  32.162  37.332  1.00  0.00     0.148 A 
ATOM     72  C   UNL A   1      40.158  34.569  37.871  1.00  0.00     0.002 A 
ATOM     73  C   UNL A   1      38.438  32.946  38.416  1.00  0.00     0.091 A 
ATOM     74  F   UNL A   1      38.210  30.993  37.065  1.00  0.00    -0.205 F 
ATOM     75  C   UNL A   1      39.118  34.143  38.694  1.00  0.00     0.022 A 
BRANCH  73  76
ATOM     76  S   UNL A   1      37.054  32.533  39.484  1.00  0.00     0.127 S 
ATOM     77  O   UNL A   1      37.315  31.124  39.773  1.00  0.00    -0.237 OA
ATOM     78  O   UNL A   1      37.262  33.437  40.615  1.00  0.00    -0.237 OA
ATOM     79  O   UNL A   1      35.851  32.794  38.706  1.00  0.00    -0.744 OA
ENDBRANCH  73  76
ENDBRANCH  55  69
BRANCH  56  80
ATOM     80  C   UNL A   1      41.844  27.825  27.927  1.00  0.00     0.023 A 
ATOM     81  C   UNL A   1      42.367  28.567  26.850  1.00  0.00     0.012 A 
ATOM     82  C   UNL A   1      41.679  26.433  27.786  1.00  0.00     0.148 A 
ATOM     83  C   UNL A   1      42.704  27.936  25.651  1.00  0.00     0.002 A 
ATOM     84  C   UNL A   1      42.072  25.804  26.612  1.00  0.00     0.091 A 
ATOM     85  F   UNL A   1      41.164  25.749  28.818  1.00  0.00    -0.205 F 
ATOM     86  C   UNL A   1      42.569  26.555  25.536  1.00  0.00     0.022 A 
BRANCH  84  87
ATOM     87  S   UNL A   1      42.065  24.018  26.420  1.00  0.00     0.127 S 
ATOM     88  O   UNL A   1      42.849  23.588  27.576  1.00  0.00    -0.237 OA
ATOM     89  O   UNL A   1      40.635  23.717  26.498  1.00  0.00    -0.237 OA
ATOM     90  O   UNL A   1      42.668  23.756  25.121  1.00  0.00    -0.744 OA
ENDBRANCH  84  87
ENDBRANCH  56  80
BRANCH  68  91
ATOM     91  C   UNL A   1      44.927  28.052  34.219  1.00  0.00     0.023 A 
ATOM     92  C   UNL A   1      44.847  26.785  34.830  1.00  0.00     0.012 A 
ATOM     93  C   UNL A   1      46.190  28.650  34.028  1.00  0.00     0.148 A 
ATOM     94  C   UNL A   1      46.003  26.132  35.259  1.00  0.00     0.002 A 
ATOM     95  C   UNL A   1      47.340  27.970  34.409  1.00  0.00     0.091 A 
ATOM     96  F   UNL A   1      46.242  29.861  33.455  1.00  0.00    -0.205 F 
ATOM     97  C   UNL A   1      47.249  26.717  35.035  1.00  0.00     0.022 A 
BRANCH  95  98
ATOM     98  S   UNL A   1      48.992  28.590  34.063  1.00  0.00     0.127 S 
ATOM     99  O   UNL A   1      49.812  27.756  34.941  1.00  0.00    -0.237 OA
ATOM    100  O   UNL A   1      49.137  28.302  32.636  1.00  0.00    -0.237 OA
ATOM    101  O   UNL A   1      48.969  30.007  34.398  1.00  0.00    -0.744 OA
ENDBRANCH  95  98
ENDBRANCH  68  91
ENDBRANCH  42  43
ENDBRANCH  35  37
ENDBRANCH  34  35
ENDBRANCH  33  34
ENDBRANCH  32  33
ENDBRANCH  31  32
ENDBRANCH  30  31
ENDBRANCH  29  30
ENDBRANCH  28  29
ENDBRANCH   1  28
TORSDOF 28
ENDMDL
MODEL 2
REMARK VINA RESULT:      -8.5      1.949      2.475
REMARK SMILES C#CCNC(=O)[C@H](C)S(=O)(=O)c1ccc(C(=O)OCCOCCOCCOCCOC(=O)c2ccc(-c3c4nc(c(-c5cccc(S(=O)(=O)[O-])c5F)c5ccc([nH]5)c(-c5cccc(S(=O)(=O)[O-])c5F)c5nc(c(-c6cccc(S(=O)(=O)[O-])c6F)c6ccc3[nH]6)C=C5)C=C4)cc2)cc1F
REMARK SMILES IDX 23 1 22 2 21 3 20 4 19 5 18 6 16 7 17 8 15 9 12 10 13 11
REMARK SMILES IDX 97 12 14 13 96 14 98 15 9 16 10 17 11 18 7 19 8 20 5 21 4 22
REMARK SMILES IDX 6 24 3 25 2 26 1 27 24 28 25 29 26 30 27 31 28 32 29 33
REMARK SMILES IDX 30 34 31 35 32 36 33 37 34 38 95 39 35 40 94 41 36 42 37 43
REMARK SMILES IDX 38 44 88 45 39 46 93 47 87 48 89 49 40 50 92 51 86 52 85 53
REMARK SMILES IDX 41 55 73 56 53 57 72 58 54 59 57 60 71 61 90 62 55 63 56 64
REMARK SMILES IDX 70 66 91 67 58 68 42 69 43 70 51 71 44 72 46 73 52 74 45 75
REMARK SMILES IDX 47 76 48 77 49 78 50 79 74 80 75 81 83 82 76 83 78 84 84 85
REMARK SMILES IDX 77 86 79 87 80 88 81 89 82 90 59 91 60 92 68 93 61 94 63 95
REMARK SMILES IDX 69 96 62 97 64 98 65 99 66 100 67 101
REMARK H PARENT 4 23 89 54 57 65
REMARK Flexibility Score: inf
ROOT
ATOM      1  C   UNL A   1      30.385  26.002  26.165  1.00  0.00     0.188 C 
ENDROOT
BRANCH   1   2
ATOM      2  C   UNL A   1      29.937  27.191  25.292  1.00  0.00     0.188 C 
BRANCH   2   3
ATOM      3  O   UNL A   1      29.123  26.821  24.196  1.00  0.00    -0.376 OA
BRANCH   3   4
ATOM      4  C   UNL A   1      28.903  27.722  23.125  1.00  0.00     0.202 C 
BRANCH   4   5
ATOM      5  C   UNL A   1      30.054  28.460  22.421  1.00  0.00     0.261 C 
BRANCH   5   6
ATOM      6  O   UNL A   1      31.099  27.656  21.877  1.00  0.00    -0.460 OA
BRANCH   6   7
ATOM      7  C   UNL A   1      32.333  27.834  22.385  1.00  0.00     0.338 C 
ATOM      8  O   UNL A   1      32.988  28.860  22.403  1.00  0.00    -0.246 OA
BRANCH   7   9
ATOM      9  C   UNL A   1      32.663  26.621  23.160  1.00  0.00     0.063 A 
ATOM     10  C   UNL A   1      33.204  24.287  24.553  1.00  0.00     0.103 A 
ATOM     11  C   UNL A   1      32.211  24.289  23.569  1.00  0.00     0.024 A 
ATOM     12  C   UNL A   1      33.995  25.411  24.758  1.00  0.00     0.142 A 
ATOM     13  C   UNL A   1      31.907  25.471  22.907  1.00  0.00     0.017 A 
ATOM     14  C   UNL A   1      33.743  26.580  24.047  1.00  0.00     0.056 A 
ATOM     15  F   UNL A   1      35.001  25.412  25.639  1.00  0.00    -0.206 F 
BRANCH  10  16
ATOM     16  S   UNL A   1      33.364  22.859  25.570  1.00  0.00     0.192 S 
ATOM     17  O   UNL A   1      32.060  22.255  25.775  1.00  0.00    -0.223 OA
ATOM     18  O   UNL A   1      34.131  23.283  26.729  1.00  0.00    -0.223 OA
BRANCH  16  19
ATOM     19  C   UNL A   1      34.308  21.677  24.614  1.00  0.00     0.199 C 
ATOM     20  C   UNL A   1      33.409  20.856  23.687  1.00  0.00     0.036 C 
BRANCH  19  21
ATOM     21  C   UNL A   1      35.403  22.356  23.820  1.00  0.00     0.239 C 
ATOM     22  N   UNL A   1      36.689  22.359  24.261  1.00  0.00    -0.344 N 
ATOM     23  H   UNL A   1      37.354  22.720  23.634  1.00  0.00     0.164 HD
ATOM     24  O   UNL A   1      35.185  22.894  22.732  1.00  0.00    -0.274 OA
BRANCH  22  25
ATOM     25  C   UNL A   1      37.203  21.904  25.526  1.00  0.00     0.206 C 
BRANCH  25  26
ATOM     26  C   UNL A   1      37.983  20.615  25.324  1.00  0.00    -0.085 C 
ATOM     27  C   UNL A   1      38.653  19.510  25.151  1.00  0.00     0.006 C 
ENDBRANCH  25  26
ENDBRANCH  22  25
ENDBRANCH  19  21
ENDBRANCH  16  19
ENDBRANCH  10  16
ENDBRANCH   7   9
ENDBRANCH   6   7
ENDBRANCH   5   6
ENDBRANCH   4   5
ENDBRANCH   3   4
ENDBRANCH   2   3
ENDBRANCH   1   2
BRANCH   1  28
ATOM     28  O   UNL A   1      31.398  26.257  27.119  1.00  0.00    -0.377 OA
BRANCH  28  29
ATOM     29  C   UNL A   1      32.225  27.413  26.989  1.00  0.00     0.188 C 
BRANCH  29  30
ATOM     30  C   UNL A   1      31.684  28.858  27.144  1.00  0.00     0.188 C 
BRANCH  30  31
ATOM     31  O   UNL A   1      31.807  29.677  25.992  1.00  0.00    -0.376 OA
BRANCH  31  32
ATOM     32  C   UNL A   1      31.237  30.971  26.032  1.00  0.00     0.202 C 
BRANCH  32  33
ATOM     33  C   UNL A   1      31.847  31.962  27.031  1.00  0.00     0.261 C 
BRANCH  33  34
ATOM     34  O   UNL A   1      33.271  31.900  27.186  1.00  0.00    -0.460 OA
BRANCH  34  35
ATOM     35  C   UNL A   1      33.884  32.985  27.704  1.00  0.00     0.338 C 
ATOM     36  O   UNL A   1      33.494  34.142  27.655  1.00  0.00    -0.246 OA
BRANCH  35  37
ATOM     37  C   UNL A   1      35.023  32.513  28.513  1.00  0.00     0.060 A 
ATOM     38  C   UNL A   1      36.313  32.970  28.210  1.00  0.00     0.016 A 
ATOM     39  C   UNL A   1      34.812  31.628  29.573  1.00  0.00     0.016 A 
ATOM     40  C   UNL A   1      37.405  32.503  28.943  1.00  0.00     0.010 A 
ATOM     41  C   UNL A   1      35.907  31.148  30.291  1.00  0.00     0.010 A 
ATOM     42  C   UNL A   1      37.212  31.550  29.952  1.00  0.00    -0.014 A 
BRANCH  42  43
ATOM     43  C   UNL A   1      38.373  30.816  30.504  1.00  0.00     0.031 A 
ATOM     44  C   UNL A   1      38.815  31.141  31.905  1.00  0.00     0.074 A 
ATOM     45  C   UNL A   1      39.025  29.885  29.786  1.00  0.00     0.049 A 
ATOM     46  N   UNL A   1      39.830  30.676  32.582  1.00  0.00    -0.248 NA
ATOM     47  C   UNL A   1      38.002  32.127  32.640  1.00  0.00     0.031 C 
ATOM     48  C   UNL A   1      38.680  29.471  28.429  1.00  0.00     0.029 A 
ATOM     49  N   UNL A   1      40.132  29.136  30.099  1.00  0.00    -0.354 N 
ATOM     50  C   UNL A   1      39.800  31.333  33.806  1.00  0.00     0.074 A 
ATOM     51  C   UNL A   1      38.673  32.238  33.777  1.00  0.00     0.031 C 
ATOM     52  C   UNL A   1      39.575  28.558  28.013  1.00  0.00     0.029 A 
ATOM     53  C   UNL A   1      40.573  28.347  29.062  1.00  0.00     0.049 A 
ATOM     54  H   UNL A   1      40.569  29.161  30.981  1.00  0.00     0.167 HD
ATOM     55  C   UNL A   1      40.626  31.184  34.866  1.00  0.00     0.034 A 
ATOM     56  C   UNL A   1      41.669  27.567  28.964  1.00  0.00     0.034 A 
ATOM     57  C   UNL A   1      41.731  30.267  34.899  1.00  0.00     0.049 A 
ATOM     58  C   UNL A   1      42.599  27.445  30.145  1.00  0.00     0.074 A 
ATOM     59  C   UNL A   1      42.598  30.011  35.946  1.00  0.00     0.029 A 
ATOM     60  N   UNL A   1      42.132  29.470  33.839  1.00  0.00    -0.354 N 
ATOM     61  N   UNL A   1      42.501  27.995  31.331  1.00  0.00    -0.248 NA
ATOM     62  C   UNL A   1      43.774  26.575  29.986  1.00  0.00     0.031 C 
ATOM     63  C   UNL A   1      43.550  29.088  35.505  1.00  0.00     0.029 A 
ATOM     64  C   UNL A   1      43.247  28.734  34.200  1.00  0.00     0.049 A 
ATOM     65  H   UNL A   1      41.690  29.433  32.961  1.00  0.00     0.167 HD
ATOM     66  C   UNL A   1      43.580  27.515  32.068  1.00  0.00     0.074 A 
ATOM     67  C   UNL A   1      44.309  26.615  31.200  1.00  0.00     0.031 C 
ATOM     68  C   UNL A   1      43.938  27.803  33.345  1.00  0.00     0.034 A 
BRANCH  55  69
ATOM     69  C   UNL A   1      40.361  32.016  36.093  1.00  0.00     0.023 A 
ATOM     70  C   UNL A   1      41.185  33.122  36.381  1.00  0.00     0.012 A 
ATOM     71  C   UNL A   1      39.243  31.753  36.909  1.00  0.00     0.148 A 
ATOM     72  C   UNL A   1      40.914  33.942  37.475  1.00  0.00     0.002 A 
ATOM     73  C   UNL A   1      38.949  32.604  37.966  1.00  0.00     0.091 A 
ATOM     74  F   UNL A   1      38.487  30.681  36.631  1.00  0.00    -0.205 F 
ATOM     75  C   UNL A   1      39.789  33.691  38.258  1.00  0.00     0.022 A 
BRANCH  73  76
ATOM     76  S   UNL A   1      37.477  32.422  38.979  1.00  0.00     0.127 S 
ATOM     77  O   UNL A   1      37.854  33.162  40.183  1.00  0.00    -0.237 OA
ATOM     78  O   UNL A   1      36.459  33.075  38.155  1.00  0.00    -0.237 OA
ATOM     79  O   UNL A   1      37.288  30.990  39.164  1.00  0.00    -0.744 OA
ENDBRANCH  73  76
ENDBRANCH  55  69
BRANCH  56  80
ATOM     80  C   UNL A   1      41.925  26.812  27.704  1.00  0.00     0.023 A 
ATOM     81  C   UNL A   1      42.427  27.490  26.576  1.00  0.00     0.012 A 
ATOM     82  C   UNL A   1      41.719  25.420  27.633  1.00  0.00     0.148 A 
ATOM     83  C   UNL A   1      42.704  26.797  25.397  1.00  0.00     0.002 A 
ATOM     84  C   UNL A   1      42.054  24.728  26.476  1.00  0.00     0.091 A 
ATOM     85  F   UNL A   1      41.225  24.797  28.713  1.00  0.00    -0.205 F 
ATOM     86  C   UNL A   1      42.530  25.417  25.350  1.00  0.00     0.022 A 
BRANCH  84  87
ATOM     87  S   UNL A   1      41.994  22.936  26.366  1.00  0.00     0.127 S 
ATOM     88  O   UNL A   1      40.560  22.676  26.468  1.00  0.00    -0.237 OA
ATOM     89  O   UNL A   1      42.570  22.701  25.043  1.00  0.00    -0.237 OA
ATOM     90  O   UNL A   1      42.800  22.443  27.474  1.00  0.00    -0.744 OA
ENDBRANCH  84  87
ENDBRANCH  56  80
BRANCH  68  91
ATOM     91  C   UNL A   1      45.159  27.127  33.917  1.00  0.00     0.023 A 
ATOM     92  C   UNL A   1      46.404  27.783  33.885  1.00  0.00     0.012 A 
ATOM     93  C   UNL A   1      45.039  25.902  34.605  1.00  0.00     0.148 A 
ATOM     94  C   UNL A   1      47.517  27.222  34.513  1.00  0.00     0.002 A 
ATOM     95  C   UNL A   1      46.138  25.376  35.274  1.00  0.00     0.091 A 
ATOM     96  F   UNL A   1      43.847  25.288  34.614  1.00  0.00    -0.205 F 
ATOM     97  C   UNL A   1      47.380  26.028  35.219  1.00  0.00     0.022 A 
BRANCH  95  98
ATOM     98  S   UNL A   1      46.035  23.904  36.301  1.00  0.00     0.127 S 
ATOM     99  O   UNL A   1      47.385  23.357  36.172  1.00  0.00    -0.237 OA
ATOM    100  O   UNL A   1      45.726  24.466  37.616  1.00  0.00    -0.237 OA
ATOM    101  O   UNL A   1      44.977  23.084  35.727  1.00  0.00    -0.744 OA
ENDBRANCH  95  98
ENDBRANCH  68  91
ENDBRANCH  42  43
ENDBRANCH  35  37
ENDBRANCH  34  35
ENDBRANCH  33  34
ENDBRANCH  32  33
ENDBRANCH  31  32
ENDBRANCH  30  31
ENDBRANCH  29  30
ENDBRANCH  28  29
ENDBRANCH   1  28
TORSDOF 28
ENDMDL
MODEL 3
REMARK VINA RESULT:      -8.3      3.021      3.787
REMARK SMILES C#CCNC(=O)[C@H](C)S(=O)(=O)c1ccc(C(=O)OCCOCCOCCOCCOC(=O)c2ccc(-c3c4nc(c(-c5cccc(S(=O)(=O)[O-])c5F)c5ccc([nH]5)c(-c5cccc(S(=O)(=O)[O-])c5F)c5nc(c(-c6cccc(S(=O)(=O)[O-])c6F)c6ccc3[nH]6)C=C5)C=C4)cc2)cc1F
REMARK SMILES IDX 23 1 22 2 21 3 20 4 19 5 18 6 16 7 17 8 15 9 12 10 13 11
REMARK SMILES IDX 97 12 14 13 96 14 98 15 9 16 10 17 11 18 7 19 8 20 5 21 4 22
REMARK SMILES IDX 6 24 3 25 2 26 1 27 24 28 25 29 26 30 27 31 28 32 29 33
REMARK SMILES IDX 30 34 31 35 32 36 33 37 34 38 95 39 35 40 94 41 36 42 37 43
REMARK SMILES IDX 38 44 88 45 39 46 93 47 87 48 89 49 40 50 92 51 86 52 85 53
REMARK SMILES IDX 41 55 73 56 53 57 72 58 54 59 57 60 71 61 90 62 55 63 56 64
REMARK SMILES IDX 70 66 91 67 58 68 42 69 43 70 51 71 44 72 46 73 52 74 45 75
REMARK SMILES IDX 47 76 48 77 49 78 50 79 74 80 75 81 83 82 76 83 78 84 84 85
REMARK SMILES IDX 77 86 79 87 80 88 81 89 82 90 59 91 60 92 68 93 61 94 63 95
REMARK SMILES IDX 69 96 62 97 64 98 65 99 66 100 67 101
REMARK H PARENT 4 23 89 54 57 65
REMARK Flexibility Score: inf
ROOT
ATOM      1  C   UNL A   1      29.722  25.700  25.564  1.00  0.00     0.188 C 
ENDROOT
BRANCH   1   2
ATOM      2  C   UNL A   1      29.529  27.006  24.768  1.00  0.00     0.188 C 
BRANCH   2   3
ATOM      3  O   UNL A   1      28.346  27.035  23.994  1.00  0.00    -0.376 OA
BRANCH   3   4
ATOM      4  C   UNL A   1      28.203  27.955  22.928  1.00  0.00     0.202 C 
BRANCH   4   5
ATOM      5  C   UNL A   1      29.388  28.770  22.381  1.00  0.00     0.261 C 
BRANCH   5   6
ATOM      6  O   UNL A   1      30.479  28.034  21.833  1.00  0.00    -0.460 OA
BRANCH   6   7
ATOM      7  C   UNL A   1      31.705  28.309  22.316  1.00  0.00     0.338 C 
ATOM      8  O   UNL A   1      32.148  29.395  22.643  1.00  0.00    -0.246 OA
BRANCH   7   9
ATOM      9  C   UNL A   1      32.348  27.018  22.631  1.00  0.00     0.063 A 
ATOM     10  C   UNL A   1      33.647  24.653  23.265  1.00  0.00     0.103 A 
ATOM     11  C   UNL A   1      34.273  25.875  23.525  1.00  0.00     0.024 A 
ATOM     12  C   UNL A   1      32.338  24.617  22.799  1.00  0.00     0.142 A 
ATOM     13  C   UNL A   1      33.643  27.057  23.161  1.00  0.00     0.017 A 
ATOM     14  C   UNL A   1      31.673  25.801  22.498  1.00  0.00     0.056 A 
ATOM     15  F   UNL A   1      31.688  23.463  22.614  1.00  0.00    -0.206 F 
BRANCH  10  16
ATOM     16  S   UNL A   1      34.585  23.177  23.467  1.00  0.00     0.192 S 
ATOM     17  O   UNL A   1      35.642  23.129  22.473  1.00  0.00    -0.223 OA
ATOM     18  O   UNL A   1      33.616  22.096  23.515  1.00  0.00    -0.223 OA
BRANCH  16  19
ATOM     19  C   UNL A   1      35.407  23.329  25.050  1.00  0.00     0.199 C 
ATOM     20  C   UNL A   1      34.911  24.550  25.827  1.00  0.00     0.036 C 
BRANCH  19  21
ATOM     21  C   UNL A   1      35.246  22.074  25.880  1.00  0.00     0.239 C 
ATOM     22  N   UNL A   1      34.181  21.914  26.708  1.00  0.00    -0.344 N 
ATOM     23  H   UNL A   1      34.092  21.026  27.123  1.00  0.00     0.164 HD
ATOM     24  O   UNL A   1      36.045  21.137  25.811  1.00  0.00    -0.274 OA
BRANCH  22  25
ATOM     25  C   UNL A   1      33.166  22.873  27.059  1.00  0.00     0.206 C 
BRANCH  25  26
ATOM     26  C   UNL A   1      31.882  22.550  26.312  1.00  0.00    -0.085 C 
ATOM     27  C   UNL A   1      30.781  22.272  25.672  1.00  0.00     0.006 C 
ENDBRANCH  25  26
ENDBRANCH  22  25
ENDBRANCH  19  21
ENDBRANCH  16  19
ENDBRANCH  10  16
ENDBRANCH   7   9
ENDBRANCH   6   7
ENDBRANCH   5   6
ENDBRANCH   4   5
ENDBRANCH   3   4
ENDBRANCH   2   3
ENDBRANCH   1   2
BRANCH   1  28
ATOM     28  O   UNL A   1      30.633  25.742  26.646  1.00  0.00    -0.377 OA
BRANCH  28  29
ATOM     29  C   UNL A   1      31.814  26.538  26.555  1.00  0.00     0.188 C 
BRANCH  29  30
ATOM     30  C   UNL A   1      31.859  28.030  26.972  1.00  0.00     0.188 C 
BRANCH  30  31
ATOM     31  O   UNL A   1      32.232  28.935  25.945  1.00  0.00    -0.376 OA
BRANCH  31  32
ATOM     32  C   UNL A   1      32.146  30.321  26.215  1.00  0.00     0.202 C 
BRANCH  32  33
ATOM     33  C   UNL A   1      33.005  30.853  27.370  1.00  0.00     0.261 C 
BRANCH  33  34
ATOM     34  O   UNL A   1      34.424  30.741  27.198  1.00  0.00    -0.460 OA
BRANCH  34  35
ATOM     35  C   UNL A   1      35.186  31.741  27.689  1.00  0.00     0.338 C 
ATOM     36  O   UNL A   1      34.940  32.938  27.651  1.00  0.00    -0.246 OA
BRANCH  35  37
ATOM     37  C   UNL A   1      36.288  31.130  28.455  1.00  0.00     0.060 A 
ATOM     38  C   UNL A   1      37.445  31.881  28.707  1.00  0.00     0.016 A 
ATOM     39  C   UNL A   1      36.172  29.822  28.930  1.00  0.00     0.016 A 
ATOM     40  C   UNL A   1      38.511  31.305  29.397  1.00  0.00     0.010 A 
ATOM     41  C   UNL A   1      37.247  29.241  29.604  1.00  0.00     0.010 A 
ATOM     42  C   UNL A   1      38.436  29.966  29.803  1.00  0.00    -0.014 A 
BRANCH  42  43
ATOM     43  C   UNL A   1      39.663  29.258  30.237  1.00  0.00     0.031 A 
ATOM     44  C   UNL A   1      40.365  29.752  31.473  1.00  0.00     0.074 A 
ATOM     45  C   UNL A   1      40.147  28.205  29.556  1.00  0.00     0.049 A 
ATOM     46  N   UNL A   1      41.477  29.334  32.015  1.00  0.00    -0.248 NA
ATOM     47  C   UNL A   1      39.727  30.870  32.191  1.00  0.00     0.031 C 
ATOM     48  C   UNL A   1      39.546  27.624  28.359  1.00  0.00     0.029 A 
ATOM     49  N   UNL A   1      41.275  27.451  29.770  1.00  0.00    -0.354 N 
ATOM     50  C   UNL A   1      41.691  30.156  33.115  1.00  0.00     0.074 A 
ATOM     51  C   UNL A   1      40.600  31.104  33.159  1.00  0.00     0.031 C 
ATOM     52  C   UNL A   1      40.326  26.618  27.926  1.00  0.00     0.029 A 
ATOM     53  C   UNL A   1      41.496  26.505  28.796  1.00  0.00     0.049 A 
ATOM     54  H   UNL A   1      41.868  27.576  30.545  1.00  0.00     0.167 HD
ATOM     55  C   UNL A   1      42.697  30.114  34.018  1.00  0.00     0.034 A 
ATOM     56  C   UNL A   1      42.535  25.665  28.616  1.00  0.00     0.034 A 
ATOM     57  C   UNL A   1      43.767  29.156  33.984  1.00  0.00     0.049 A 
ATOM     58  C   UNL A   1      43.666  25.661  29.615  1.00  0.00     0.074 A 
ATOM     59  C   UNL A   1      44.807  29.004  34.883  1.00  0.00     0.029 A 
ATOM     60  N   UNL A   1      43.944  28.200  32.997  1.00  0.00    -0.354 N 
ATOM     61  N   UNL A   1      43.804  26.375  30.706  1.00  0.00    -0.248 NA
ATOM     62  C   UNL A   1      44.770  24.720  29.374  1.00  0.00     0.031 C 
ATOM     63  C   UNL A   1      45.638  27.983  34.417  1.00  0.00     0.029 A 
ATOM     64  C   UNL A   1      45.089  27.467  33.254  1.00  0.00     0.049 A 
ATOM     65  H   UNL A   1      43.345  28.064  32.228  1.00  0.00     0.167 HD
ATOM     66  C   UNL A   1      44.989  25.948  31.297  1.00  0.00     0.074 A 
ATOM     67  C   UNL A   1      45.522  24.901  30.452  1.00  0.00     0.031 C 
ATOM     68  C   UNL A   1      45.586  26.393  32.432  1.00  0.00     0.034 A 
BRANCH  55  69
ATOM     69  C   UNL A   1      42.684  31.121  35.138  1.00  0.00     0.023 A 
ATOM     70  C   UNL A   1      42.105  30.782  36.377  1.00  0.00     0.012 A 
ATOM     71  C   UNL A   1      43.323  32.367  34.989  1.00  0.00     0.148 A 
ATOM     72  C   UNL A   1      42.144  31.676  37.446  1.00  0.00     0.002 A 
ATOM     73  C   UNL A   1      43.403  33.232  36.073  1.00  0.00     0.091 A 
ATOM     74  F   UNL A   1      43.845  32.679  33.794  1.00  0.00    -0.205 F 
ATOM     75  C   UNL A   1      42.805  32.894  37.297  1.00  0.00     0.022 A 
BRANCH  73  76
ATOM     76  S   UNL A   1      44.307  34.782  36.013  1.00  0.00     0.127 S 
ATOM     77  O   UNL A   1      43.520  35.546  35.046  1.00  0.00    -0.237 OA
ATOM     78  O   UNL A   1      44.199  35.252  37.394  1.00  0.00    -0.237 OA
ATOM     79  O   UNL A   1      45.659  34.446  35.586  1.00  0.00    -0.744 OA
ENDBRANCH  73  76
ENDBRANCH  55  69
BRANCH  56  80
ATOM     80  C   UNL A   1      42.534  24.730  27.454  1.00  0.00     0.023 A 
ATOM     81  C   UNL A   1      43.222  25.082  26.277  1.00  0.00     0.012 A 
ATOM     82  C   UNL A   1      41.897  23.476  27.528  1.00  0.00     0.148 A 
ATOM     83  C   UNL A   1      43.261  24.209  25.189  1.00  0.00     0.002 A 
ATOM     84  C   UNL A   1      41.990  22.588  26.464  1.00  0.00     0.091 A 
ATOM     85  F   UNL A   1      41.233  23.167  28.652  1.00  0.00    -0.205 F 
ATOM     86  C   UNL A   1      42.657  22.959  25.286  1.00  0.00     0.022 A 
BRANCH  84  87
ATOM     87  S   UNL A   1      41.364  20.906  26.547  1.00  0.00     0.127 S 
ATOM     88  O   UNL A   1      40.392  20.893  25.456  1.00  0.00    -0.237 OA
ATOM     89  O   UNL A   1      42.576  20.126  26.301  1.00  0.00    -0.237 OA
ATOM     90  O   UNL A   1      40.807  20.755  27.884  1.00  0.00    -0.744 OA
ENDBRANCH  84  87
ENDBRANCH  56  80
BRANCH  68  91
ATOM     91  C   UNL A   1      46.875  25.741  32.866  1.00  0.00     0.023 A 
ATOM     92  C   UNL A   1      48.108  26.283  32.453  1.00  0.00     0.012 A 
ATOM     93  C   UNL A   1      46.861  24.678  33.793  1.00  0.00     0.148 A 
ATOM     94  C   UNL A   1      49.308  25.763  32.940  1.00  0.00     0.002 A 
ATOM     95  C   UNL A   1      48.058  24.202  34.315  1.00  0.00     0.091 A 
ATOM     96  F   UNL A   1      45.677  24.170  34.164  1.00  0.00    -0.205 F 
ATOM     97  C   UNL A   1      49.283  24.735  33.881  1.00  0.00     0.022 A 
BRANCH  95  98
ATOM     98  S   UNL A   1      48.124  22.959  35.611  1.00  0.00     0.127 S 
ATOM     99  O   UNL A   1      47.389  21.852  34.999  1.00  0.00    -0.237 OA
ATOM    100  O   UNL A   1      49.563  22.734  35.750  1.00  0.00    -0.237 OA
ATOM    101  O   UNL A   1      47.487  23.556  36.776  1.00  0.00    -0.744 OA
ENDBRANCH  95  98
ENDBRANCH  68  91
ENDBRANCH  42  43
ENDBRANCH  35  37
ENDBRANCH  34  35
ENDBRANCH  33  34
ENDBRANCH  32  33
ENDBRANCH  31  32
ENDBRANCH  30  31
ENDBRANCH  29  30
ENDBRANCH  28  29
ENDBRANCH   1  28
TORSDOF 28
ENDMDL
