MODEL 1
REMARK VINA RESULT:      -9.6      0.000      0.000
REMARK SMILES Cc1nn(Cc2ccc(Cl)cc2Cl)c(C)c1NC(=O)c1c(C(=O)OCCOCCOCCOCCOC(=O)c2ccc(-c3c4nc(c(-c5cccc(S(=O)(=O)[O-])c5F)c5ccc([nH]5)c(-c5cccc(S(=O)(=O)[O-])c5F)c5nc(c(-c6cccc(S(=O)(=O)[O-])c6F)c6ccc3[nH]6)C=C5)C=C4)cc2)cnn1C
REMARK SMILES IDX 29 1 28 2 27 3 26 4 25 5 24 6 22 7 23 8 21 9 20 10 104 11
REMARK SMILES IDX 102 12 103 13 105 14 18 15 17 16 19 18 16 19 1 20 2 21 3 22
REMARK SMILES IDX 4 23 14 24 15 25 5 26 6 27 7 28 12 29 8 30 11 31 13 32 9 33
REMARK SMILES IDX 10 34 30 35 31 36 32 37 33 38 34 39 35 40 36 41 37 42 38 43
REMARK SMILES IDX 39 44 40 45 101 46 41 47 100 48 42 49 43 50 44 51 94 52
REMARK SMILES IDX 45 53 99 54 93 55 95 56 46 57 98 58 92 59 91 60 47 62 79 63
REMARK SMILES IDX 59 64 78 65 60 66 63 67 77 68 96 69 61 70 62 71 76 73 97 74
REMARK SMILES IDX 64 75 48 76 49 77 57 78 50 79 52 80 58 81 51 82 53 83 54 84
REMARK SMILES IDX 55 85 56 86 80 87 81 88 89 89 82 90 84 91 90 92 83 93 85 94
REMARK SMILES IDX 86 95 87 96 88 97 65 98 66 99 74 100 67 101 69 102 75 103
REMARK SMILES IDX 68 104 70 105 71 106 72 107 73 108
REMARK H PARENT 17 17 95 61 63 72
REMARK Flexibility Score: inf
ROOT
ATOM      1  C   UNL A   1      35.422  33.904  28.976  1.00  0.00     0.188 C 
ENDROOT
BRANCH   1   2
ATOM      2  C   UNL A   1      35.092  32.643  28.177  1.00  0.00     0.188 C 
BRANCH   2   3
ATOM      3  O   UNL A   1      33.755  32.139  28.220  1.00  0.00    -0.376 OA
BRANCH   3   4
ATOM      4  C   UNL A   1      33.468  30.888  27.611  1.00  0.00     0.202 C 
BRANCH   4   5
ATOM      5  C   UNL A   1      32.920  30.961  26.185  1.00  0.00     0.261 C 
BRANCH   5   6
ATOM      6  O   UNL A   1      31.552  30.544  26.042  1.00  0.00    -0.460 OA
BRANCH   6   7
ATOM      7  C   UNL A   1      31.269  29.806  24.933  1.00  0.00     0.342 C 
ATOM      8  O   UNL A   1      30.308  29.998  24.191  1.00  0.00    -0.246 OA
BRANCH   7   9
ATOM      9  C   UNL A   1      32.187  28.708  24.737  1.00  0.00     0.111 A 
ATOM     10  C   UNL A   1      32.292  27.546  25.495  1.00  0.00     0.140 A 
ATOM     11  N   UNL A   1      33.493  26.998  25.140  1.00  0.00    -0.262 N 
ATOM     12  C   UNL A   1      33.240  28.609  23.803  1.00  0.00     0.151 A 
ATOM     13  N   UNL A   1      34.043  27.570  24.049  1.00  0.00    -0.180 NA
ATOM     14  C   UNL A   1      34.165  25.882  25.767  1.00  0.00     0.174 C 
BRANCH  10  15
ATOM     15  C   UNL A   1      31.469  27.056  26.561  1.00  0.00     0.274 C 
ATOM     16  N   UNL A   1      30.654  25.967  26.365  1.00  0.00    -0.317 N 
ATOM     17  H   UNL A   1      30.027  25.809  27.107  1.00  0.00     0.170 HD
ATOM     18  O   UNL A   1      31.452  27.601  27.664  1.00  0.00    -0.267 OA
BRANCH  16  19
ATOM     19  C   UNL A   1      30.535  25.047  25.336  1.00  0.00     0.085 A 
ATOM     20  C   UNL A   1      29.535  26.681  23.564  1.00  0.00     0.071 C 
ATOM     21  C   UNL A   1      30.048  25.371  24.036  1.00  0.00     0.083 A 
ATOM     22  N   UNL A   1      30.151  24.341  23.189  1.00  0.00    -0.175 NA
ATOM     23  N   UNL A   1      30.719  23.371  23.932  1.00  0.00    -0.263 N 
ATOM     24  C   UNL A   1      30.704  23.676  25.278  1.00  0.00     0.060 A 
ATOM     25  C   UNL A   1      30.772  22.589  26.274  1.00  0.00     0.069 C 
BRANCH  23  26
ATOM     26  C   UNL A   1      31.606  22.393  23.296  1.00  0.00     0.181 C 
BRANCH  26  27
ATOM     27  C   UNL A   1      33.051  22.458  23.710  1.00  0.00    -0.008 A 
ATOM     28  C   UNL A   1      33.566  21.428  24.518  1.00  0.00     0.009 A 
ATOM     29  C   UNL A   1      33.945  23.424  23.210  1.00  0.00     0.047 A 
ATOM     30  C   UNL A   1      34.936  21.329  24.764  1.00  0.00     0.021 A 
ATOM     31  C   UNL A   1      35.313  23.337  23.477  1.00  0.00     0.041 A 
ATOM     32  Cl  UNL A   1      33.429  24.724  22.194  1.00  0.00    -0.084 Cl
ATOM     33  C   UNL A   1      35.803  22.275  24.229  1.00  0.00     0.042 A 
ATOM     34  Cl  UNL A   1      37.493  22.104  24.445  1.00  0.00    -0.084 Cl
ENDBRANCH  26  27
ENDBRANCH  23  26
ENDBRANCH  16  19
ENDBRANCH  10  15
ENDBRANCH   7   9
ENDBRANCH   6   7
ENDBRANCH   5   6
ENDBRANCH   4   5
ENDBRANCH   3   4
ENDBRANCH   2   3
ENDBRANCH   1   2
BRANCH   1  35
ATOM     35  O   UNL A   1      36.825  34.071  29.155  1.00  0.00    -0.377 OA
BRANCH  35  36
ATOM     36  C   UNL A   1      37.286  33.738  30.461  1.00  0.00     0.188 C 
BRANCH  36  37
ATOM     37  C   UNL A   1      36.248  34.003  31.557  1.00  0.00     0.188 C 
BRANCH  37  38
ATOM     38  O   UNL A   1      36.482  33.197  32.722  1.00  0.00    -0.376 OA
BRANCH  38  39
ATOM     39  C   UNL A   1      36.005  31.851  32.598  1.00  0.00     0.202 C 
BRANCH  39  40
ATOM     40  C   UNL A   1      37.108  30.810  32.732  1.00  0.00     0.261 C 
BRANCH  40  41
ATOM     41  O   UNL A   1      36.840  29.602  32.029  1.00  0.00    -0.460 OA
BRANCH  41  42
ATOM     42  C   UNL A   1      36.592  29.681  30.707  1.00  0.00     0.338 C 
ATOM     43  O   UNL A   1      35.594  30.139  30.166  1.00  0.00    -0.246 OA
BRANCH  42  44
ATOM     44  C   UNL A   1      37.660  28.931  30.031  1.00  0.00     0.060 A 
ATOM     45  C   UNL A   1      38.259  27.908  30.760  1.00  0.00     0.016 A 
ATOM     46  C   UNL A   1      38.253  29.457  28.870  1.00  0.00     0.016 A 
ATOM     47  C   UNL A   1      39.574  27.608  30.480  1.00  0.00     0.010 A 
ATOM     48  C   UNL A   1      39.575  29.182  28.611  1.00  0.00     0.010 A 
ATOM     49  C   UNL A   1      40.241  28.336  29.486  1.00  0.00    -0.014 A 
BRANCH  49  50
ATOM     50  C   UNL A   1      41.673  28.202  29.405  1.00  0.00     0.031 A 
ATOM     51  C   UNL A   1      42.149  27.212  28.433  1.00  0.00     0.074 A 
ATOM     52  C   UNL A   1      42.535  28.931  30.131  1.00  0.00     0.049 A 
ATOM     53  N   UNL A   1      42.501  25.997  28.682  1.00  0.00    -0.248 NA
ATOM     54  C   UNL A   1      42.109  27.572  27.014  1.00  0.00     0.031 C 
ATOM     55  C   UNL A   1      42.292  30.164  30.882  1.00  0.00     0.029 A 
ATOM     56  N   UNL A   1      43.874  28.739  30.256  1.00  0.00    -0.354 N 
ATOM     57  C   UNL A   1      42.951  25.502  27.469  1.00  0.00     0.074 A 
ATOM     58  C   UNL A   1      42.508  26.429  26.455  1.00  0.00     0.031 C 
ATOM     59  C   UNL A   1      43.484  30.722  31.200  1.00  0.00     0.029 A 
ATOM     60  C   UNL A   1      44.550  29.811  30.812  1.00  0.00     0.049 A 
ATOM     61  H   UNL A   1      44.325  27.910  29.977  1.00  0.00     0.167 HD
ATOM     62  C   UNL A   1      43.863  24.498  27.408  1.00  0.00     0.034 A 
ATOM     63  C   UNL A   1      45.894  29.942  30.885  1.00  0.00     0.034 A 
ATOM     64  C   UNL A   1      44.084  23.873  28.685  1.00  0.00     0.049 A 
ATOM     65  C   UNL A   1      46.480  28.580  30.784  1.00  0.00     0.074 A 
ATOM     66  C   UNL A   1      43.298  23.220  29.612  1.00  0.00     0.029 A 
ATOM     67  N   UNL A   1      45.251  24.196  29.337  1.00  0.00    -0.354 N 
ATOM     68  N   UNL A   1      46.364  27.664  31.706  1.00  0.00    -0.248 NA
ATOM     69  C   UNL A   1      46.915  28.096  29.483  1.00  0.00     0.031 C 
ATOM     70  C   UNL A   1      43.849  23.565  30.881  1.00  0.00     0.029 A 
ATOM     71  C   UNL A   1      44.946  24.400  30.658  1.00  0.00     0.049 A 
ATOM     72  H   UNL A   1      46.143  24.270  28.929  1.00  0.00     0.167 HD
ATOM     73  C   UNL A   1      46.293  26.464  31.010  1.00  0.00     0.074 A 
ATOM     74  C   UNL A   1      46.780  26.780  29.672  1.00  0.00     0.031 C 
ATOM     75  C   UNL A   1      45.580  25.401  31.494  1.00  0.00     0.034 A 
BRANCH  62  76
ATOM     76  C   UNL A   1      44.807  24.293  26.260  1.00  0.00     0.023 A 
ATOM     77  C   UNL A   1      44.881  23.006  25.691  1.00  0.00     0.012 A 
ATOM     78  C   UNL A   1      45.777  25.236  25.862  1.00  0.00     0.148 A 
ATOM     79  C   UNL A   1      45.880  22.675  24.772  1.00  0.00     0.002 A 
ATOM     80  C   UNL A   1      46.704  24.933  24.873  1.00  0.00     0.091 A 
ATOM     81  F   UNL A   1      45.905  26.391  26.529  1.00  0.00    -0.205 F 
ATOM     82  C   UNL A   1      46.778  23.646  24.343  1.00  0.00     0.022 A 
BRANCH  80  83
ATOM     83  S   UNL A   1      47.796  26.207  24.237  1.00  0.00     0.127 S 
ATOM     84  O   UNL A   1      48.344  25.562  23.049  1.00  0.00    -0.237 OA
ATOM     85  O   UNL A   1      46.869  27.308  23.973  1.00  0.00    -0.237 OA
ATOM     86  O   UNL A   1      48.726  26.467  25.330  1.00  0.00    -0.744 OA
ENDBRANCH  80  83
ENDBRANCH  62  76
BRANCH  63  87
ATOM     87  C   UNL A   1      46.728  31.163  30.878  1.00  0.00     0.023 A 
ATOM     88  C   UNL A   1      47.256  31.636  29.661  1.00  0.00     0.012 A 
ATOM     89  C   UNL A   1      46.800  32.009  32.007  1.00  0.00     0.148 A 
ATOM     90  C   UNL A   1      47.805  32.920  29.562  1.00  0.00     0.002 A 
ATOM     91  C   UNL A   1      47.360  33.280  31.907  1.00  0.00     0.091 A 
ATOM     92  F   UNL A   1      46.235  31.613  33.154  1.00  0.00    -0.205 F 
ATOM     93  C   UNL A   1      47.853  33.744  30.682  1.00  0.00     0.022 A 
BRANCH  91  94
ATOM     94  S   UNL A   1      47.454  34.374  33.331  1.00  0.00     0.127 S 
ATOM     95  O   UNL A   1      48.166  35.535  32.792  1.00  0.00    -0.237 OA
ATOM     96  O   UNL A   1      46.046  34.610  33.632  1.00  0.00    -0.237 OA
ATOM     97  O   UNL A   1      48.217  33.632  34.328  1.00  0.00    -0.744 OA
ENDBRANCH  91  94
ENDBRANCH  63  87
BRANCH  75  98
ATOM     98  C   UNL A   1      45.140  25.435  32.940  1.00  0.00     0.023 A 
ATOM     99  C   UNL A   1      43.922  26.029  33.329  1.00  0.00     0.012 A 
ATOM    100  C   UNL A   1      45.873  24.707  33.898  1.00  0.00     0.148 A 
ATOM    101  C   UNL A   1      43.461  25.932  34.644  1.00  0.00     0.002 A 
ATOM    102  C   UNL A   1      45.386  24.571  35.194  1.00  0.00     0.091 A 
ATOM    103  F   UNL A   1      47.026  24.135  33.517  1.00  0.00    -0.205 F 
ATOM    104  C   UNL A   1      44.187  25.192  35.574  1.00  0.00     0.022 A 
BRANCH 102 105
ATOM    105  S   UNL A   1      46.199  23.519  36.403  1.00  0.00     0.127 S 
ATOM    106  O   UNL A   1      45.385  23.736  37.597  1.00  0.00    -0.237 OA
ATOM    107  O   UNL A   1      46.064  22.189  35.806  1.00  0.00    -0.237 OA
ATOM    108  O   UNL A   1      47.575  23.995  36.481  1.00  0.00    -0.744 OA
ENDBRANCH 102 105
ENDBRANCH  75  98
ENDBRANCH  49  50
ENDBRANCH  42  44
ENDBRANCH  41  42
ENDBRANCH  40  41
ENDBRANCH  39  40
ENDBRANCH  38  39
ENDBRANCH  37  38
ENDBRANCH  36  37
ENDBRANCH  35  36
ENDBRANCH   1  35
TORSDOF 27
ENDMDL
MODEL 2
REMARK VINA RESULT:      -9.1      3.931      7.527
REMARK SMILES Cc1nn(Cc2ccc(Cl)cc2Cl)c(C)c1NC(=O)c1c(C(=O)OCCOCCOCCOCCOC(=O)c2ccc(-c3c4nc(c(-c5cccc(S(=O)(=O)[O-])c5F)c5ccc([nH]5)c(-c5cccc(S(=O)(=O)[O-])c5F)c5nc(c(-c6cccc(S(=O)(=O)[O-])c6F)c6ccc3[nH]6)C=C5)C=C4)cc2)cnn1C
REMARK SMILES IDX 29 1 28 2 27 3 26 4 25 5 24 6 22 7 23 8 21 9 20 10 104 11
REMARK SMILES IDX 102 12 103 13 105 14 18 15 17 16 19 18 16 19 1 20 2 21 3 22
REMARK SMILES IDX 4 23 14 24 15 25 5 26 6 27 7 28 12 29 8 30 11 31 13 32 9 33
REMARK SMILES IDX 10 34 30 35 31 36 32 37 33 38 34 39 35 40 36 41 37 42 38 43
REMARK SMILES IDX 39 44 40 45 101 46 41 47 100 48 42 49 43 50 44 51 94 52
REMARK SMILES IDX 45 53 99 54 93 55 95 56 46 57 98 58 92 59 91 60 47 62 79 63
REMARK SMILES IDX 59 64 78 65 60 66 63 67 77 68 96 69 61 70 62 71 76 73 97 74
REMARK SMILES IDX 64 75 48 76 49 77 57 78 50 79 52 80 58 81 51 82 53 83 54 84
REMARK SMILES IDX 55 85 56 86 80 87 81 88 89 89 82 90 84 91 90 92 83 93 85 94
REMARK SMILES IDX 86 95 87 96 88 97 65 98 66 99 74 100 67 101 69 102 75 103
REMARK SMILES IDX 68 104 70 105 71 106 72 107 73 108
REMARK H PARENT 17 17 95 61 63 72
REMARK Flexibility Score: inf
ROOT
ATOM      1  C   UNL A   1      31.579  24.010  26.818  1.00  0.00     0.188 C 
ENDROOT
BRANCH   1   2
ATOM      2  C   UNL A   1      30.073  24.267  26.853  1.00  0.00     0.188 C 
BRANCH   2   3
ATOM      3  O   UNL A   1      29.585  25.525  26.381  1.00  0.00    -0.376 OA
BRANCH   3   4
ATOM      4  C   UNL A   1      28.369  25.564  25.648  1.00  0.00     0.202 C 
BRANCH   4   5
ATOM      5  C   UNL A   1      28.410  26.366  24.347  1.00  0.00     0.261 C 
BRANCH   5   6
ATOM      6  O   UNL A   1      29.621  27.112  24.135  1.00  0.00    -0.460 OA
BRANCH   6   7
ATOM      7  C   UNL A   1      30.285  26.849  22.976  1.00  0.00     0.342 C 
ATOM      8  O   UNL A   1      30.192  27.519  21.949  1.00  0.00    -0.246 OA
BRANCH   7   9
ATOM      9  C   UNL A   1      31.078  25.643  23.041  1.00  0.00     0.111 A 
ATOM     10  C   UNL A   1      32.416  25.490  22.694  1.00  0.00     0.140 A 
ATOM     11  N   UNL A   1      32.606  24.139  22.602  1.00  0.00    -0.262 N 
ATOM     12  C   UNL A   1      30.654  24.338  23.372  1.00  0.00     0.151 A 
ATOM     13  N   UNL A   1      31.582  23.417  23.100  1.00  0.00    -0.180 NA
ATOM     14  C   UNL A   1      33.773  23.452  22.093  1.00  0.00     0.174 C 
BRANCH  10  15
ATOM     15  C   UNL A   1      33.395  26.466  22.317  1.00  0.00     0.274 C 
ATOM     16  N   UNL A   1      33.672  27.528  23.146  1.00  0.00    -0.317 N 
ATOM     17  H   UNL A   1      34.243  28.212  22.728  1.00  0.00     0.170 HD
ATOM     18  O   UNL A   1      33.995  26.397  21.245  1.00  0.00    -0.267 OA
BRANCH  16  19
ATOM     19  C   UNL A   1      33.311  27.830  24.449  1.00  0.00     0.085 A 
ATOM     20  C   UNL A   1      34.309  25.688  25.558  1.00  0.00     0.071 C 
ATOM     21  C   UNL A   1      33.624  27.005  25.569  1.00  0.00     0.083 A 
ATOM     22  N   UNL A   1      33.279  27.578  26.727  1.00  0.00    -0.175 NA
ATOM     23  N   UNL A   1      32.769  28.769  26.356  1.00  0.00    -0.263 N 
ATOM     24  C   UNL A   1      32.527  28.826  24.999  1.00  0.00     0.060 A 
ATOM     25  C   UNL A   1      31.522  29.773  24.476  1.00  0.00     0.069 C 
BRANCH  23  26
ATOM     26  C   UNL A   1      32.916  29.929  27.240  1.00  0.00     0.181 C 
BRANCH  26  27
ATOM     27  C   UNL A   1      34.315  30.216  27.711  1.00  0.00    -0.008 A 
ATOM     28  C   UNL A   1      35.247  29.161  27.732  1.00  0.00     0.009 A 
ATOM     29  C   UNL A   1      34.774  31.516  27.996  1.00  0.00     0.047 A 
ATOM     30  C   UNL A   1      36.601  29.407  27.965  1.00  0.00     0.021 A 
ATOM     31  C   UNL A   1      36.125  31.757  28.253  1.00  0.00     0.041 A 
ATOM     32  Cl  UNL A   1      33.724  32.890  27.983  1.00  0.00    -0.084 Cl
ATOM     33  C   UNL A   1      37.034  30.706  28.207  1.00  0.00     0.042 A 
ATOM     34  Cl  UNL A   1      38.706  31.028  28.396  1.00  0.00    -0.084 Cl
ENDBRANCH  26  27
ENDBRANCH  23  26
ENDBRANCH  16  19
ENDBRANCH  10  15
ENDBRANCH   7   9
ENDBRANCH   6   7
ENDBRANCH   5   6
ENDBRANCH   4   5
ENDBRANCH   3   4
ENDBRANCH   2   3
ENDBRANCH   1   2
BRANCH   1  35
ATOM     35  O   UNL A   1      31.886  22.689  26.381  1.00  0.00    -0.377 OA
BRANCH  35  36
ATOM     36  C   UNL A   1      33.185  22.242  26.758  1.00  0.00     0.188 C 
BRANCH  36  37
ATOM     37  C   UNL A   1      33.876  21.405  25.677  1.00  0.00     0.188 C 
BRANCH  37  38
ATOM     38  O   UNL A   1      35.022  22.075  25.132  1.00  0.00    -0.376 OA
BRANCH  38  39
ATOM     39  C   UNL A   1      35.901  22.618  26.127  1.00  0.00     0.202 C 
BRANCH  39  40
ATOM     40  C   UNL A   1      37.372  22.495  25.757  1.00  0.00     0.261 C 
BRANCH  40  41
ATOM     41  O   UNL A   1      38.240  23.213  26.627  1.00  0.00    -0.460 OA
BRANCH  41  42
ATOM     42  C   UNL A   1      39.487  22.737  26.812  1.00  0.00     0.338 C 
ATOM     43  O   UNL A   1      39.813  21.575  27.018  1.00  0.00    -0.246 OA
BRANCH  42  44
ATOM     44  C   UNL A   1      40.374  23.904  26.920  1.00  0.00     0.060 A 
ATOM     45  C   UNL A   1      41.243  23.927  28.006  1.00  0.00     0.016 A 
ATOM     46  C   UNL A   1      40.097  25.060  26.169  1.00  0.00     0.016 A 
ATOM     47  C   UNL A   1      41.615  25.157  28.502  1.00  0.00     0.010 A 
ATOM     48  C   UNL A   1      40.441  26.287  26.682  1.00  0.00     0.010 A 
ATOM     49  C   UNL A   1      41.109  26.315  27.897  1.00  0.00    -0.014 A 
BRANCH  49  50
ATOM     50  C   UNL A   1      41.281  27.564  28.594  1.00  0.00     0.031 A 
ATOM     51  C   UNL A   1      42.367  28.411  28.091  1.00  0.00     0.074 A 
ATOM     52  C   UNL A   1      40.506  27.964  29.614  1.00  0.00     0.049 A 
ATOM     53  N   UNL A   1      43.561  28.496  28.570  1.00  0.00    -0.248 NA
ATOM     54  C   UNL A   1      42.141  29.145  26.843  1.00  0.00     0.031 C 
ATOM     55  C   UNL A   1      39.203  27.448  30.038  1.00  0.00     0.029 A 
ATOM     56  N   UNL A   1      40.714  29.023  30.441  1.00  0.00    -0.354 N 
ATOM     57  C   UNL A   1      44.177  29.481  27.814  1.00  0.00     0.074 A 
ATOM     58  C   UNL A   1      43.339  29.699  26.659  1.00  0.00     0.031 C 
ATOM     59  C   UNL A   1      38.644  28.331  30.898  1.00  0.00     0.029 A 
ATOM     60  C   UNL A   1      39.610  29.378  31.195  1.00  0.00     0.049 A 
ATOM     61  H   UNL A   1      41.575  29.496  30.499  1.00  0.00     0.167 HD
ATOM     62  C   UNL A   1      45.202  30.219  28.313  1.00  0.00     0.034 A 
ATOM     63  C   UNL A   1      39.501  30.489  31.957  1.00  0.00     0.034 A 
ATOM     64  C   UNL A   1      45.709  29.695  29.553  1.00  0.00     0.049 A 
ATOM     65  C   UNL A   1      40.879  30.947  32.274  1.00  0.00     0.074 A 
ATOM     66  C   UNL A   1      46.255  28.497  29.967  1.00  0.00     0.029 A 
ATOM     67  N   UNL A   1      45.351  30.366  30.699  1.00  0.00    -0.354 N 
ATOM     68  N   UNL A   1      41.702  30.304  33.056  1.00  0.00    -0.248 NA
ATOM     69  C   UNL A   1      41.492  31.966  31.436  1.00  0.00     0.031 C 
ATOM     70  C   UNL A   1      45.805  28.323  31.309  1.00  0.00     0.029 A 
ATOM     71  C   UNL A   1      45.018  29.429  31.642  1.00  0.00     0.049 A 
ATOM     72  H   UNL A   1      45.335  31.342  30.820  1.00  0.00     0.167 HD
ATOM     73  C   UNL A   1      42.960  30.527  32.511  1.00  0.00     0.074 A 
ATOM     74  C   UNL A   1      42.781  31.663  31.615  1.00  0.00     0.031 C 
ATOM     75  C   UNL A   1      43.957  29.596  32.617  1.00  0.00     0.034 A 
BRANCH  62  76
ATOM     76  C   UNL A   1      45.533  31.608  27.854  1.00  0.00     0.023 A 
ATOM     77  C   UNL A   1      46.867  31.879  27.486  1.00  0.00     0.012 A 
ATOM     78  C   UNL A   1      44.658  32.707  27.977  1.00  0.00     0.148 A 
ATOM     79  C   UNL A   1      47.306  33.185  27.256  1.00  0.00     0.002 A 
ATOM     80  C   UNL A   1      45.073  33.991  27.649  1.00  0.00     0.091 A 
ATOM     81  F   UNL A   1      43.455  32.547  28.542  1.00  0.00    -0.205 F 
ATOM     82  C   UNL A   1      46.404  34.242  27.314  1.00  0.00     0.022 A 
BRANCH  80  83
ATOM     83  S   UNL A   1      43.893  35.342  27.616  1.00  0.00     0.127 S 
ATOM     84  O   UNL A   1      43.024  34.950  26.512  1.00  0.00    -0.237 OA
ATOM     85  O   UNL A   1      43.286  35.257  28.944  1.00  0.00    -0.237 OA
ATOM     86  O   UNL A   1      44.710  36.534  27.415  1.00  0.00    -0.744 OA
ENDBRANCH  80  83
ENDBRANCH  62  76
BRANCH  63  87
ATOM     87  C   UNL A   1      38.304  31.284  32.308  1.00  0.00     0.023 A 
ATOM     88  C   UNL A   1      37.109  31.093  31.588  1.00  0.00     0.012 A 
ATOM     89  C   UNL A   1      38.249  32.039  33.501  1.00  0.00     0.148 A 
ATOM     90  C   UNL A   1      35.894  31.606  32.057  1.00  0.00     0.002 A 
ATOM     91  C   UNL A   1      37.040  32.559  33.956  1.00  0.00     0.091 A 
ATOM     92  F   UNL A   1      39.356  32.167  34.242  1.00  0.00    -0.205 F 
ATOM     93  C   UNL A   1      35.858  32.334  33.242  1.00  0.00     0.022 A 
BRANCH  91  94
ATOM     94  S   UNL A   1      36.947  33.517  35.475  1.00  0.00     0.127 S 
ATOM     95  O   UNL A   1      37.875  34.619  35.212  1.00  0.00    -0.237 OA
ATOM     96  O   UNL A   1      35.540  33.901  35.511  1.00  0.00    -0.237 OA
ATOM     97  O   UNL A   1      37.400  32.609  36.522  1.00  0.00    -0.744 OA
ENDBRANCH  91  94
ENDBRANCH  63  87
BRANCH  75  98
ATOM     98  C   UNL A   1      43.778  28.467  33.606  1.00  0.00     0.023 A 
ATOM     99  C   UNL A   1      43.274  27.211  33.212  1.00  0.00     0.012 A 
ATOM    100  C   UNL A   1      44.288  28.611  34.911  1.00  0.00     0.148 A 
ATOM    101  C   UNL A   1      43.245  26.135  34.102  1.00  0.00     0.002 A 
ATOM    102  C   UNL A   1      44.302  27.523  35.780  1.00  0.00     0.091 A 
ATOM    103  F   UNL A   1      44.778  29.806  35.276  1.00  0.00    -0.205 F 
ATOM    104  C   UNL A   1      43.770  26.288  35.382  1.00  0.00     0.022 A 
BRANCH 102 105
ATOM    105  S   UNL A   1      45.089  27.613  37.392  1.00  0.00     0.127 S 
ATOM    106  O   UNL A   1      44.757  26.312  37.969  1.00  0.00    -0.237 OA
ATOM    107  O   UNL A   1      46.502  27.785  37.046  1.00  0.00    -0.237 OA
ATOM    108  O   UNL A   1      44.499  28.768  38.058  1.00  0.00    -0.744 OA
ENDBRANCH 102 105
ENDBRANCH  75  98
ENDBRANCH  49  50
ENDBRANCH  42  44
ENDBRANCH  41  42
ENDBRANCH  40  41
ENDBRANCH  39  40
ENDBRANCH  38  39
ENDBRANCH  37  38
ENDBRANCH  36  37
ENDBRANCH  35  36
ENDBRANCH   1  35
TORSDOF 27
ENDMDL
MODEL 3
REMARK VINA RESULT:      -8.5      4.296      9.004
REMARK SMILES Cc1nn(Cc2ccc(Cl)cc2Cl)c(C)c1NC(=O)c1c(C(=O)OCCOCCOCCOCCOC(=O)c2ccc(-c3c4nc(c(-c5cccc(S(=O)(=O)[O-])c5F)c5ccc([nH]5)c(-c5cccc(S(=O)(=O)[O-])c5F)c5nc(c(-c6cccc(S(=O)(=O)[O-])c6F)c6ccc3[nH]6)C=C5)C=C4)cc2)cnn1C
REMARK SMILES IDX 29 1 28 2 27 3 26 4 25 5 24 6 22 7 23 8 21 9 20 10 104 11
REMARK SMILES IDX 102 12 103 13 105 14 18 15 17 16 19 18 16 19 1 20 2 21 3 22
REMARK SMILES IDX 4 23 14 24 15 25 5 26 6 27 7 28 12 29 8 30 11 31 13 32 9 33
REMARK SMILES IDX 10 34 30 35 31 36 32 37 33 38 34 39 35 40 36 41 37 42 38 43
REMARK SMILES IDX 39 44 40 45 101 46 41 47 100 48 42 49 43 50 44 51 94 52
REMARK SMILES IDX 45 53 99 54 93 55 95 56 46 57 98 58 92 59 91 60 47 62 79 63
REMARK SMILES IDX 59 64 78 65 60 66 63 67 77 68 96 69 61 70 62 71 76 73 97 74
REMARK SMILES IDX 64 75 48 76 49 77 57 78 50 79 52 80 58 81 51 82 53 83 54 84
REMARK SMILES IDX 55 85 56 86 80 87 81 88 89 89 82 90 84 91 90 92 83 93 85 94
REMARK SMILES IDX 86 95 87 96 88 97 65 98 66 99 74 100 67 101 69 102 75 103
REMARK SMILES IDX 68 104 70 105 71 106 72 107 73 108
REMARK H PARENT 17 17 95 61 63 72
REMARK Flexibility Score: inf
ROOT
ATOM      1  C   UNL A   1      40.328  23.764  27.544  1.00  0.00     0.188 C 
ENDROOT
BRANCH   1   2
ATOM      2  C   UNL A   1      39.286  24.747  27.009  1.00  0.00     0.188 C 
BRANCH   2   3
ATOM      3  O   UNL A   1      38.436  24.323  25.941  1.00  0.00    -0.376 OA
BRANCH   3   4
ATOM      4  C   UNL A   1      37.359  23.440  26.223  1.00  0.00     0.202 C 
BRANCH   4   5
ATOM      5  C   UNL A   1      36.494  23.053  25.023  1.00  0.00     0.261 C 
BRANCH   5   6
ATOM      6  O   UNL A   1      35.863  24.157  24.352  1.00  0.00    -0.460 OA
BRANCH   6   7
ATOM      7  C   UNL A   1      34.767  24.679  24.969  1.00  0.00     0.342 C 
ATOM      8  O   UNL A   1      34.788  25.638  25.739  1.00  0.00    -0.246 OA
BRANCH   7   9
ATOM      9  C   UNL A   1      33.555  23.946  24.684  1.00  0.00     0.111 A 
ATOM     10  C   UNL A   1      32.719  24.090  23.583  1.00  0.00     0.140 A 
ATOM     11  N   UNL A   1      31.564  23.444  23.928  1.00  0.00    -0.262 N 
ATOM     12  C   UNL A   1      32.899  22.998  25.497  1.00  0.00     0.151 A 
ATOM     13  N   UNL A   1      31.680  22.693  25.042  1.00  0.00    -0.180 NA
ATOM     14  C   UNL A   1      30.308  23.453  23.210  1.00  0.00     0.174 C 
BRANCH  10  15
ATOM     15  C   UNL A   1      32.875  24.875  22.394  1.00  0.00     0.274 C 
ATOM     16  N   UNL A   1      32.574  26.216  22.402  1.00  0.00    -0.317 N 
ATOM     17  H   UNL A   1      32.573  26.623  21.506  1.00  0.00     0.170 HD
ATOM     18  O   UNL A   1      33.258  24.375  21.337  1.00  0.00    -0.267 OA
BRANCH  16  19
ATOM     19  C   UNL A   1      32.274  27.112  23.416  1.00  0.00     0.085 A 
ATOM     20  C   UNL A   1      29.701  26.674  23.471  1.00  0.00     0.071 C 
ATOM     21  C   UNL A   1      30.960  27.310  23.933  1.00  0.00     0.083 A 
ATOM     22  N   UNL A   1      30.954  28.132  24.989  1.00  0.00    -0.175 NA
ATOM     23  N   UNL A   1      32.255  28.442  25.161  1.00  0.00    -0.263 N 
ATOM     24  C   UNL A   1      33.022  28.069  24.075  1.00  0.00     0.060 A 
ATOM     25  C   UNL A   1      34.303  28.755  23.817  1.00  0.00     0.069 C 
BRANCH  23  26
ATOM     26  C   UNL A   1      32.766  28.708  26.508  1.00  0.00     0.181 C 
BRANCH  26  27
ATOM     27  C   UNL A   1      32.993  30.157  26.844  1.00  0.00    -0.008 A 
ATOM     28  C   UNL A   1      31.939  31.067  26.638  1.00  0.00     0.009 A 
ATOM     29  C   UNL A   1      34.157  30.619  27.486  1.00  0.00     0.047 A 
ATOM     30  C   UNL A   1      32.021  32.376  27.116  1.00  0.00     0.021 A 
ATOM     31  C   UNL A   1      34.247  31.935  27.942  1.00  0.00     0.041 A 
ATOM     32  Cl  UNL A   1      35.507  29.588  27.807  1.00  0.00    -0.084 Cl
ATOM     33  C   UNL A   1      33.168  32.797  27.779  1.00  0.00     0.042 A 
ATOM     34  Cl  UNL A   1      33.235  34.370  28.453  1.00  0.00    -0.084 Cl
ENDBRANCH  26  27
ENDBRANCH  23  26
ENDBRANCH  16  19
ENDBRANCH  10  15
ENDBRANCH   7   9
ENDBRANCH   6   7
ENDBRANCH   5   6
ENDBRANCH   4   5
ENDBRANCH   3   4
ENDBRANCH   2   3
ENDBRANCH   1   2
BRANCH   1  35
ATOM     35  O   UNL A   1      41.647  24.298  27.482  1.00  0.00    -0.377 OA
BRANCH  35  36
ATOM     36  C   UNL A   1      41.932  24.998  26.275  1.00  0.00     0.188 C 
BRANCH  36  37
ATOM     37  C   UNL A   1      42.867  24.230  25.335  1.00  0.00     0.188 C 
BRANCH  37  38
ATOM     38  O   UNL A   1      44.110  24.920  25.135  1.00  0.00    -0.376 OA
BRANCH  38  39
ATOM     39  C   UNL A   1      45.167  24.466  25.991  1.00  0.00     0.202 C 
BRANCH  39  40
ATOM     40  C   UNL A   1      45.737  25.568  26.873  1.00  0.00     0.261 C 
BRANCH  40  41
ATOM     41  O   UNL A   1      44.866  25.962  27.927  1.00  0.00    -0.460 OA
BRANCH  41  42
ATOM     42  C   UNL A   1      45.113  25.486  29.163  1.00  0.00     0.338 C 
ATOM     43  O   UNL A   1      45.777  24.502  29.460  1.00  0.00    -0.246 OA
BRANCH  42  44
ATOM     44  C   UNL A   1      44.269  26.256  30.088  1.00  0.00     0.060 A 
ATOM     45  C   UNL A   1      43.009  26.623  29.623  1.00  0.00     0.016 A 
ATOM     46  C   UNL A   1      44.847  26.865  31.216  1.00  0.00     0.016 A 
ATOM     47  C   UNL A   1      42.456  27.782  30.120  1.00  0.00     0.010 A 
ATOM     48  C   UNL A   1      44.312  28.039  31.689  1.00  0.00     0.010 A 
ATOM     49  C   UNL A   1      43.176  28.530  31.061  1.00  0.00    -0.014 A 
BRANCH  49  50
ATOM     50  C   UNL A   1      42.714  29.863  31.352  1.00  0.00     0.031 A 
ATOM     51  C   UNL A   1      43.265  30.912  30.488  1.00  0.00     0.074 A 
ATOM     52  C   UNL A   1      41.829  30.154  32.318  1.00  0.00     0.049 A 
ATOM     53  N   UNL A   1      44.263  31.684  30.755  1.00  0.00    -0.248 NA
ATOM     54  C   UNL A   1      42.730  31.030  29.129  1.00  0.00     0.031 C 
ATOM     55  C   UNL A   1      40.931  29.255  33.044  1.00  0.00     0.029 A 
ATOM     56  N   UNL A   1      41.490  31.386  32.780  1.00  0.00    -0.354 N 
ATOM     57  C   UNL A   1      44.339  32.551  29.677  1.00  0.00     0.074 A 
ATOM     58  C   UNL A   1      43.515  31.987  28.634  1.00  0.00     0.031 C 
ATOM     59  C   UNL A   1      40.003  29.997  33.693  1.00  0.00     0.029 A 
ATOM     60  C   UNL A   1      40.340  31.405  33.550  1.00  0.00     0.049 A 
ATOM     61  H   UNL A   1      42.015  32.195  32.584  1.00  0.00     0.167 HD
ATOM     62  C   UNL A   1      44.873  33.793  29.804  1.00  0.00     0.034 A 
ATOM     63  C   UNL A   1      39.699  32.515  33.980  1.00  0.00     0.034 A 
ATOM     64  C   UNL A   1      45.554  33.978  31.058  1.00  0.00     0.049 A 
ATOM     65  C   UNL A   1      40.681  33.631  33.963  1.00  0.00     0.074 A 
ATOM     66  C   UNL A   1      46.603  33.363  31.710  1.00  0.00     0.029 A 
ATOM     67  N   UNL A   1      44.901  34.725  32.010  1.00  0.00    -0.354 N 
ATOM     68  N   UNL A   1      41.701  33.719  34.772  1.00  0.00    -0.248 NA
ATOM     69  C   UNL A   1      40.739  34.500  32.798  1.00  0.00     0.031 C 
ATOM     70  C   UNL A   1      46.274  33.427  33.095  1.00  0.00     0.029 A 
ATOM     71  C   UNL A   1      45.047  34.086  33.214  1.00  0.00     0.049 A 
ATOM     72  H   UNL A   1      44.414  35.566  31.855  1.00  0.00     0.167 HD
ATOM     73  C   UNL A   1      42.703  34.317  34.018  1.00  0.00     0.074 A 
ATOM     74  C   UNL A   1      42.011  34.899  32.874  1.00  0.00     0.031 C 
ATOM     75  C   UNL A   1      44.024  34.037  34.239  1.00  0.00     0.034 A 
BRANCH  62  76
ATOM     76  C   UNL A   1      44.501  34.957  28.934  1.00  0.00     0.023 A 
ATOM     77  C   UNL A   1      43.155  35.073  28.532  1.00  0.00     0.012 A 
ATOM     78  C   UNL A   1      45.440  35.809  28.316  1.00  0.00     0.148 A 
ATOM     79  C   UNL A   1      42.766  35.994  27.555  1.00  0.00     0.002 A 
ATOM     80  C   UNL A   1      45.033  36.790  27.421  1.00  0.00     0.091 A 
ATOM     81  F   UNL A   1      46.751  35.594  28.479  1.00  0.00    -0.205 F 
ATOM     82  C   UNL A   1      43.701  36.871  27.016  1.00  0.00     0.022 A 
BRANCH  80  83
ATOM     83  S   UNL A   1      46.211  37.994  26.803  1.00  0.00     0.127 S 
ATOM     84  O   UNL A   1      46.897  37.232  25.766  1.00  0.00    -0.237 OA
ATOM     85  O   UNL A   1      45.337  39.061  26.314  1.00  0.00    -0.237 OA
ATOM     86  O   UNL A   1      46.999  38.365  27.973  1.00  0.00    -0.744 OA
ENDBRANCH  80  83
ENDBRANCH  62  76
BRANCH  63  87
ATOM     87  C   UNL A   1      38.263  32.731  34.258  1.00  0.00     0.023 A 
ATOM     88  C   UNL A   1      37.869  33.262  35.501  1.00  0.00     0.012 A 
ATOM     89  C   UNL A   1      37.298  32.661  33.229  1.00  0.00     0.148 A 
ATOM     90  C   UNL A   1      36.569  33.741  35.702  1.00  0.00     0.002 A 
ATOM     91  C   UNL A   1      36.001  33.125  33.438  1.00  0.00     0.091 A 
ATOM     92  F   UNL A   1      37.669  32.232  32.016  1.00  0.00    -0.205 F 
ATOM     93  C   UNL A   1      35.636  33.677  34.671  1.00  0.00     0.022 A 
BRANCH  91  94
ATOM     94  S   UNL A   1      34.761  33.051  32.139  1.00  0.00     0.127 S 
ATOM     95  O   UNL A   1      35.009  34.286  31.392  1.00  0.00    -0.237 OA
ATOM     96  O   UNL A   1      35.128  31.829  31.431  1.00  0.00    -0.237 OA
ATOM     97  O   UNL A   1      33.481  33.038  32.837  1.00  0.00    -0.744 OA
ENDBRANCH  91  94
ENDBRANCH  63  87
BRANCH  75  98
ATOM     98  C   UNL A   1      44.398  33.324  35.519  1.00  0.00     0.023 A 
ATOM     99  C   UNL A   1      44.672  34.032  36.708  1.00  0.00     0.012 A 
ATOM    100  C   UNL A   1      44.300  31.920  35.576  1.00  0.00     0.148 A 
ATOM    101  C   UNL A   1      44.878  33.360  37.914  1.00  0.00     0.002 A 
ATOM    102  C   UNL A   1      44.458  31.258  36.790  1.00  0.00     0.091 A 
ATOM    103  F   UNL A   1      44.028  31.254  34.444  1.00  0.00    -0.205 F 
ATOM    104  C   UNL A   1      44.759  31.973  37.958  1.00  0.00     0.022 A 
BRANCH 102 105
ATOM    105  S   UNL A   1      44.182  29.489  36.944  1.00  0.00     0.127 S 
ATOM    106  O   UNL A   1      45.132  28.944  35.977  1.00  0.00    -0.237 OA
ATOM    107  O   UNL A   1      44.522  29.236  38.345  1.00  0.00    -0.237 OA
ATOM    108  O   UNL A   1      42.773  29.280  36.631  1.00  0.00    -0.744 OA
ENDBRANCH 102 105
ENDBRANCH  75  98
ENDBRANCH  49  50
ENDBRANCH  42  44
ENDBRANCH  41  42
ENDBRANCH  40  41
ENDBRANCH  39  40
ENDBRANCH  38  39
ENDBRANCH  37  38
ENDBRANCH  36  37
ENDBRANCH  35  36
ENDBRANCH   1  35
TORSDOF 27
ENDMDL
