MODEL 1
REMARK VINA RESULT:      -9.0      0.000      0.000
REMARK SMILES C[C@H](C(=O)OCCOCCOCCOCCOC(=O)c1ccc(-c2c3nc(c(-c4cccc(S(=O)(=O)[O-])c4F)c4ccc([nH]4)c(-c4cccc(S(=O)(=O)[O-])c4F)c4nc(c(-c5cccc(S(=O)(=O)[O-])c5F)c5ccc2[nH]5)C=C4)C=C3)cc1)c1cccc(C(=O)c2ccccc2)c1
REMARK SMILES IDX 11 1 10 2 9 3 8 4 7 5 6 6 5 7 3 8 4 9 2 10 1 11 83 12 84 13
REMARK SMILES IDX 96 14 85 15 87 16 86 17 88 18 89 19 90 20 91 21 95 22 92 23
REMARK SMILES IDX 94 24 93 25 12 26 13 27 14 28 15 29 16 30 17 31 18 32 19 33
REMARK SMILES IDX 20 34 21 35 82 36 22 37 81 38 23 39 24 40 25 41 75 42 26 43
REMARK SMILES IDX 80 44 74 45 76 46 27 47 79 48 73 49 72 50 28 52 60 53 40 54
REMARK SMILES IDX 59 55 41 56 44 57 58 58 77 59 42 60 43 61 57 63 78 64 45 65
REMARK SMILES IDX 29 66 30 67 38 68 31 69 33 70 39 71 32 72 34 73 35 74 36 75
REMARK SMILES IDX 37 76 61 77 62 78 70 79 63 80 65 81 71 82 64 83 66 84 67 85
REMARK SMILES IDX 68 86 69 87 46 88 47 89 55 90 48 91 50 92 56 93 49 94 51 95
REMARK SMILES IDX 52 96 53 97 54 98
REMARK H PARENT 76 51 44 62
REMARK Flexibility Score: inf
ROOT
ATOM      1  O   UNL A   1      42.082  19.787  25.539  1.00  0.00    -0.377 OA
ENDROOT
BRANCH   1   2
ATOM      2  C   UNL A   1      41.904  21.075  26.085  1.00  0.00     0.188 C 
BRANCH   2   3
ATOM      3  C   UNL A   1      40.849  21.198  27.205  1.00  0.00     0.188 C 
BRANCH   3   4
ATOM      4  O   UNL A   1      39.500  21.160  26.784  1.00  0.00    -0.376 OA
BRANCH   4   5
ATOM      5  C   UNL A   1      38.964  22.165  25.941  1.00  0.00     0.202 C 
BRANCH   5   6
ATOM      6  C   UNL A   1      37.597  22.106  25.237  1.00  0.00     0.261 C 
BRANCH   6   7
ATOM      7  O   UNL A   1      36.462  21.800  26.045  1.00  0.00    -0.463 OA
BRANCH   7   8
ATOM      8  C   UNL A   1      35.519  20.961  25.560  1.00  0.00     0.313 C 
ATOM      9  O   UNL A   1      35.774  19.958  24.900  1.00  0.00    -0.252 OA
BRANCH   8  10
ATOM     10  C   UNL A   1      34.100  21.300  26.032  1.00  0.00     0.126 C 
ATOM     11  C   UNL A   1      34.221  21.843  27.474  1.00  0.00     0.025 C 
BRANCH  10  12
ATOM     12  C   UNL A   1      33.196  22.154  25.125  1.00  0.00    -0.033 A 
ATOM     13  C   UNL A   1      33.073  21.936  23.743  1.00  0.00     0.004 A 
ATOM     14  C   UNL A   1      32.363  23.144  25.687  1.00  0.00     0.016 A 
ATOM     15  C   UNL A   1      32.226  22.718  22.948  1.00  0.00     0.001 A 
ATOM     16  C   UNL A   1      31.502  23.930  24.898  1.00  0.00     0.023 A 
ATOM     17  C   UNL A   1      31.443  23.714  23.523  1.00  0.00     0.012 A 
BRANCH  16  18
ATOM     18  C   UNL A   1      30.589  24.944  25.499  1.00  0.00     0.193 C 
ATOM     19  O   UNL A   1      30.109  24.783  26.617  1.00  0.00    -0.289 OA
BRANCH  18  20
ATOM     20  C   UNL A   1      30.278  26.203  24.791  1.00  0.00     0.022 A 
ATOM     21  C   UNL A   1      31.200  27.252  24.864  1.00  0.00     0.012 A 
ATOM     22  C   UNL A   1      29.086  26.353  24.074  1.00  0.00     0.012 A 
ATOM     23  C   UNL A   1      30.948  28.442  24.184  1.00  0.00     0.001 A 
ATOM     24  C   UNL A   1      28.838  27.548  23.399  1.00  0.00     0.001 A 
ATOM     25  C   UNL A   1      29.769  28.588  23.450  1.00  0.00     0.000 A 
ENDBRANCH  18  20
ENDBRANCH  16  18
ENDBRANCH  10  12
ENDBRANCH   8  10
ENDBRANCH   7   8
ENDBRANCH   6   7
ENDBRANCH   5   6
ENDBRANCH   4   5
ENDBRANCH   3   4
ENDBRANCH   2   3
ENDBRANCH   1   2
BRANCH   1  26
ATOM     26  C   UNL A   1      43.317  19.111  25.724  1.00  0.00     0.188 C 
BRANCH  26  27
ATOM     27  C   UNL A   1      44.365  18.963  24.597  1.00  0.00     0.188 C 
BRANCH  27  28
ATOM     28  O   UNL A   1      45.124  20.127  24.306  1.00  0.00    -0.376 OA
BRANCH  28  29
ATOM     29  C   UNL A   1      44.547  21.129  23.489  1.00  0.00     0.202 C 
BRANCH  29  30
ATOM     30  C   UNL A   1      45.128  22.544  23.610  1.00  0.00     0.261 C 
BRANCH  30  31
ATOM     31  O   UNL A   1      44.733  23.280  24.772  1.00  0.00    -0.460 OA
BRANCH  31  32
ATOM     32  C   UNL A   1      45.653  23.397  25.759  1.00  0.00     0.338 C 
ATOM     33  O   UNL A   1      46.446  22.556  26.124  1.00  0.00    -0.246 OA
BRANCH  32  34
ATOM     34  C   UNL A   1      45.651  24.810  26.191  1.00  0.00     0.060 A 
ATOM     35  C   UNL A   1      45.973  25.111  27.521  1.00  0.00     0.016 A 
ATOM     36  C   UNL A   1      45.365  25.828  25.279  1.00  0.00     0.016 A 
ATOM     37  C   UNL A   1      45.982  26.436  27.950  1.00  0.00     0.010 A 
ATOM     38  C   UNL A   1      45.348  27.152  25.717  1.00  0.00     0.010 A 
ATOM     39  C   UNL A   1      45.623  27.457  27.061  1.00  0.00    -0.014 A 
BRANCH  39  40
ATOM     40  C   UNL A   1      45.329  28.811  27.584  1.00  0.00     0.031 A 
ATOM     41  C   UNL A   1      46.454  29.806  27.636  1.00  0.00     0.074 A 
ATOM     42  C   UNL A   1      44.098  29.150  28.003  1.00  0.00     0.049 A 
ATOM     43  N   UNL A   1      46.459  31.031  28.091  1.00  0.00    -0.248 NA
ATOM     44  C   UNL A   1      47.752  29.355  27.105  1.00  0.00     0.031 C 
ATOM     45  C   UNL A   1      42.927  28.276  27.990  1.00  0.00     0.029 A 
ATOM     46  N   UNL A   1      43.639  30.323  28.549  1.00  0.00    -0.354 N 
ATOM     47  C   UNL A   1      47.762  31.487  27.930  1.00  0.00     0.074 A 
ATOM     48  C   UNL A   1      48.522  30.405  27.347  1.00  0.00     0.031 C 
ATOM     49  C   UNL A   1      41.890  28.932  28.539  1.00  0.00     0.029 A 
ATOM     50  C   UNL A   1      42.331  30.258  28.967  1.00  0.00     0.049 A 
ATOM     51  H   UNL A   1      44.194  31.132  28.635  1.00  0.00     0.167 HD
ATOM     52  C   UNL A   1      48.275  32.702  28.227  1.00  0.00     0.034 A 
ATOM     53  C   UNL A   1      41.591  31.157  29.646  1.00  0.00     0.034 A 
ATOM     54  C   UNL A   1      47.514  33.775  28.805  1.00  0.00     0.049 A 
ATOM     55  C   UNL A   1      42.196  32.490  30.006  1.00  0.00     0.074 A 
ATOM     56  C   UNL A   1      47.933  35.057  29.113  1.00  0.00     0.029 A 
ATOM     57  N   UNL A   1      46.184  33.685  29.183  1.00  0.00    -0.354 N 
ATOM     58  N   UNL A   1      43.398  32.949  29.750  1.00  0.00    -0.248 NA
ATOM     59  C   UNL A   1      41.333  33.444  30.720  1.00  0.00     0.031 C 
ATOM     60  C   UNL A   1      46.865  35.731  29.714  1.00  0.00     0.029 A 
ATOM     61  C   UNL A   1      45.768  34.884  29.736  1.00  0.00     0.049 A 
ATOM     62  H   UNL A   1      45.619  32.887  29.075  1.00  0.00     0.167 HD
ATOM     63  C   UNL A   1      43.423  34.253  30.235  1.00  0.00     0.074 A 
ATOM     64  C   UNL A   1      42.109  34.517  30.783  1.00  0.00     0.031 C 
ATOM     65  C   UNL A   1      44.442  35.148  30.234  1.00  0.00     0.034 A 
BRANCH  52  66
ATOM     66  C   UNL A   1      49.732  32.933  27.926  1.00  0.00     0.023 A 
ATOM     67  C   UNL A   1      50.707  32.641  28.902  1.00  0.00     0.012 A 
ATOM     68  C   UNL A   1      50.140  33.402  26.662  1.00  0.00     0.148 A 
ATOM     69  C   UNL A   1      52.060  32.849  28.640  1.00  0.00     0.002 A 
ATOM     70  C   UNL A   1      51.493  33.559  26.391  1.00  0.00     0.091 A 
ATOM     71  F   UNL A   1      49.198  33.697  25.755  1.00  0.00    -0.205 F 
ATOM     72  C   UNL A   1      52.453  33.297  27.381  1.00  0.00     0.022 A 
BRANCH  70  73
ATOM     73  S   UNL A   1      52.107  34.054  24.776  1.00  0.00     0.127 S 
ATOM     74  O   UNL A   1      53.545  34.152  25.026  1.00  0.00    -0.237 OA
ATOM     75  O   UNL A   1      51.708  32.923  23.938  1.00  0.00    -0.237 OA
ATOM     76  O   UNL A   1      51.442  35.310  24.460  1.00  0.00    -0.744 OA
ENDBRANCH  70  73
ENDBRANCH  52  66
BRANCH  53  77
ATOM     77  C   UNL A   1      40.184  30.834  30.021  1.00  0.00     0.023 A 
ATOM     78  C   UNL A   1      39.131  31.171  29.149  1.00  0.00     0.012 A 
ATOM     79  C   UNL A   1      39.889  30.187  31.237  1.00  0.00     0.148 A 
ATOM     80  C   UNL A   1      37.806  30.901  29.495  1.00  0.00     0.002 A 
ATOM     81  C   UNL A   1      38.573  29.867  31.549  1.00  0.00     0.091 A 
ATOM     82  F   UNL A   1      40.903  29.888  32.059  1.00  0.00    -0.205 F 
ATOM     83  C   UNL A   1      37.528  30.240  30.689  1.00  0.00     0.022 A 
BRANCH  81  84
ATOM     84  S   UNL A   1      38.131  28.903  32.998  1.00  0.00     0.127 S 
ATOM     85  O   UNL A   1      38.997  29.486  34.020  1.00  0.00    -0.237 OA
ATOM     86  O   UNL A   1      36.709  29.217  33.142  1.00  0.00    -0.237 OA
ATOM     87  O   UNL A   1      38.409  27.517  32.651  1.00  0.00    -0.744 OA
ENDBRANCH  81  84
ENDBRANCH  53  77
BRANCH  65  88
ATOM     88  C   UNL A   1      44.173  36.522  30.795  1.00  0.00     0.023 A 
ATOM     89  C   UNL A   1      44.430  36.797  32.153  1.00  0.00     0.012 A 
ATOM     90  C   UNL A   1      43.736  37.564  29.951  1.00  0.00     0.148 A 
ATOM     91  C   UNL A   1      44.223  38.076  32.669  1.00  0.00     0.002 A 
ATOM     92  C   UNL A   1      43.584  38.847  30.459  1.00  0.00     0.091 A 
ATOM     93  F   UNL A   1      43.482  37.279  28.665  1.00  0.00    -0.205 F 
ATOM     94  C   UNL A   1      43.813  39.103  31.821  1.00  0.00     0.022 A 
BRANCH  92  95
ATOM     95  S   UNL A   1      43.157  40.252  29.424  1.00  0.00     0.127 S 
ATOM     96  O   UNL A   1      44.259  40.258  28.463  1.00  0.00    -0.237 OA
ATOM     97  O   UNL A   1      41.865  39.845  28.869  1.00  0.00    -0.237 OA
ATOM     98  O   UNL A   1      43.098  41.405  30.311  1.00  0.00    -0.744 OA
ENDBRANCH  92  95
ENDBRANCH  65  88
ENDBRANCH  39  40
ENDBRANCH  32  34
ENDBRANCH  31  32
ENDBRANCH  30  31
ENDBRANCH  29  30
ENDBRANCH  28  29
ENDBRANCH  27  28
ENDBRANCH  26  27
ENDBRANCH   1  26
TORSDOF 26
ENDMDL
MODEL 2
REMARK VINA RESULT:      -8.9      5.959     11.093
REMARK SMILES C[C@H](C(=O)OCCOCCOCCOCCOC(=O)c1ccc(-c2c3nc(c(-c4cccc(S(=O)(=O)[O-])c4F)c4ccc([nH]4)c(-c4cccc(S(=O)(=O)[O-])c4F)c4nc(c(-c5cccc(S(=O)(=O)[O-])c5F)c5ccc2[nH]5)C=C4)C=C3)cc1)c1cccc(C(=O)c2ccccc2)c1
REMARK SMILES IDX 11 1 10 2 9 3 8 4 7 5 6 6 5 7 3 8 4 9 2 10 1 11 83 12 84 13
REMARK SMILES IDX 96 14 85 15 87 16 86 17 88 18 89 19 90 20 91 21 95 22 92 23
REMARK SMILES IDX 94 24 93 25 12 26 13 27 14 28 15 29 16 30 17 31 18 32 19 33
REMARK SMILES IDX 20 34 21 35 82 36 22 37 81 38 23 39 24 40 25 41 75 42 26 43
REMARK SMILES IDX 80 44 74 45 76 46 27 47 79 48 73 49 72 50 28 52 60 53 40 54
REMARK SMILES IDX 59 55 41 56 44 57 58 58 77 59 42 60 43 61 57 63 78 64 45 65
REMARK SMILES IDX 29 66 30 67 38 68 31 69 33 70 39 71 32 72 34 73 35 74 36 75
REMARK SMILES IDX 37 76 61 77 62 78 70 79 63 80 65 81 71 82 64 83 66 84 67 85
REMARK SMILES IDX 68 86 69 87 46 88 47 89 55 90 48 91 50 92 56 93 49 94 51 95
REMARK SMILES IDX 52 96 53 97 54 98
REMARK H PARENT 76 51 44 62
REMARK Flexibility Score: inf
ROOT
ATOM      1  O   UNL A   1      34.319  31.154  28.182  1.00  0.00    -0.377 OA
ENDROOT
BRANCH   1   2
ATOM      2  C   UNL A   1      33.816  30.676  26.954  1.00  0.00     0.188 C 
BRANCH   2   3
ATOM      3  C   UNL A   1      32.473  29.920  27.019  1.00  0.00     0.188 C 
BRANCH   3   4
ATOM      4  O   UNL A   1      31.592  30.138  25.936  1.00  0.00    -0.376 OA
BRANCH   4   5
ATOM      5  C   UNL A   1      31.408  29.159  24.928  1.00  0.00     0.202 C 
BRANCH   5   6
ATOM      6  C   UNL A   1      32.502  28.226  24.378  1.00  0.00     0.261 C 
BRANCH   6   7
ATOM      7  O   UNL A   1      32.111  27.280  23.384  1.00  0.00    -0.463 OA
BRANCH   7   8
ATOM      8  C   UNL A   1      31.465  26.156  23.768  1.00  0.00     0.313 C 
ATOM      9  O   UNL A   1      30.501  25.685  23.172  1.00  0.00    -0.252 OA
BRANCH   8  10
ATOM     10  C   UNL A   1      32.138  25.438  24.945  1.00  0.00     0.126 C 
ATOM     11  C   UNL A   1      31.012  24.982  25.900  1.00  0.00     0.025 C 
BRANCH  10  12
ATOM     12  C   UNL A   1      33.181  24.345  24.653  1.00  0.00    -0.033 A 
ATOM     13  C   UNL A   1      34.403  24.604  24.009  1.00  0.00     0.004 A 
ATOM     14  C   UNL A   1      32.981  23.032  25.128  1.00  0.00     0.016 A 
ATOM     15  C   UNL A   1      35.340  23.590  23.776  1.00  0.00     0.001 A 
ATOM     16  C   UNL A   1      33.921  22.008  24.907  1.00  0.00     0.023 A 
ATOM     17  C   UNL A   1      35.101  22.294  24.222  1.00  0.00     0.012 A 
BRANCH  16  18
ATOM     18  C   UNL A   1      33.730  20.632  25.448  1.00  0.00     0.193 C 
ATOM     19  O   UNL A   1      33.665  20.429  26.657  1.00  0.00    -0.289 OA
BRANCH  18  20
ATOM     20  C   UNL A   1      33.554  19.475  24.546  1.00  0.00     0.022 A 
ATOM     21  C   UNL A   1      34.497  18.444  24.597  1.00  0.00     0.012 A 
ATOM     22  C   UNL A   1      32.481  19.414  23.651  1.00  0.00     0.012 A 
ATOM     23  C   UNL A   1      34.343  17.327  23.777  1.00  0.00     0.001 A 
ATOM     24  C   UNL A   1      32.335  18.296  22.830  1.00  0.00     0.001 A 
ATOM     25  C   UNL A   1      33.262  17.252  22.897  1.00  0.00     0.000 A 
ENDBRANCH  18  20
ENDBRANCH  16  18
ENDBRANCH  10  12
ENDBRANCH   8  10
ENDBRANCH   7   8
ENDBRANCH   6   7
ENDBRANCH   5   6
ENDBRANCH   4   5
ENDBRANCH   3   4
ENDBRANCH   2   3
ENDBRANCH   1   2
BRANCH   1  26
ATOM     26  C   UNL A   1      34.967  32.416  28.231  1.00  0.00     0.188 C 
BRANCH  26  27
ATOM     27  C   UNL A   1      34.199  33.744  28.431  1.00  0.00     0.188 C 
BRANCH  27  28
ATOM     28  O   UNL A   1      33.484  33.863  29.652  1.00  0.00    -0.376 OA
BRANCH  28  29
ATOM     29  C   UNL A   1      33.902  34.834  30.593  1.00  0.00     0.202 C 
BRANCH  29  30
ATOM     30  C   UNL A   1      35.081  34.461  31.501  1.00  0.00     0.261 C 
BRANCH  30  31
ATOM     31  O   UNL A   1      35.346  33.061  31.631  1.00  0.00    -0.460 OA
BRANCH  31  32
ATOM     32  C   UNL A   1      35.865  32.647  32.812  1.00  0.00     0.338 C 
ATOM     33  O   UNL A   1      35.360  32.747  33.909  1.00  0.00    -0.246 OA
BRANCH  32  34
ATOM     34  C   UNL A   1      37.084  31.871  32.503  1.00  0.00     0.060 A 
ATOM     35  C   UNL A   1      37.201  30.569  33.007  1.00  0.00     0.016 A 
ATOM     36  C   UNL A   1      38.085  32.417  31.697  1.00  0.00     0.016 A 
ATOM     37  C   UNL A   1      38.339  29.816  32.726  1.00  0.00     0.010 A 
ATOM     38  C   UNL A   1      39.235  31.671  31.438  1.00  0.00     0.010 A 
ATOM     39  C   UNL A   1      39.381  30.382  31.981  1.00  0.00    -0.014 A 
BRANCH  39  40
ATOM     40  C   UNL A   1      40.702  29.715  31.947  1.00  0.00     0.031 A 
ATOM     41  C   UNL A   1      41.730  30.132  32.962  1.00  0.00     0.074 A 
ATOM     42  C   UNL A   1      40.986  28.764  31.040  1.00  0.00     0.049 A 
ATOM     43  N   UNL A   1      42.964  29.731  33.107  1.00  0.00    -0.248 NA
ATOM     44  C   UNL A   1      41.304  31.142  33.946  1.00  0.00     0.031 C 
ATOM     45  C   UNL A   1      40.069  28.269  30.016  1.00  0.00     0.029 A 
ATOM     46  N   UNL A   1      42.147  28.065  30.823  1.00  0.00    -0.354 N 
ATOM     47  C   UNL A   1      43.473  30.459  34.175  1.00  0.00     0.074 A 
ATOM     48  C   UNL A   1      42.419  31.335  34.635  1.00  0.00     0.031 C 
ATOM     49  C   UNL A   1      40.715  27.370  29.253  1.00  0.00     0.029 A 
ATOM     50  C   UNL A   1      42.096  27.249  29.718  1.00  0.00     0.049 A 
ATOM     51  H   UNL A   1      42.940  28.142  31.401  1.00  0.00     0.167 HD
ATOM     52  C   UNL A   1      44.704  30.394  34.733  1.00  0.00     0.034 A 
ATOM     53  C   UNL A   1      43.065  26.516  29.133  1.00  0.00     0.034 A 
ATOM     54  C   UNL A   1      45.748  29.522  34.273  1.00  0.00     0.049 A 
ATOM     55  C   UNL A   1      44.442  26.491  29.747  1.00  0.00     0.074 A 
ATOM     56  C   UNL A   1      47.020  29.355  34.792  1.00  0.00     0.029 A 
ATOM     57  N   UNL A   1      45.650  28.683  33.174  1.00  0.00    -0.354 N 
ATOM     58  N   UNL A   1      44.880  27.101  30.823  1.00  0.00    -0.248 NA
ATOM     59  C   UNL A   1      45.452  25.652  29.085  1.00  0.00     0.031 C 
ATOM     60  C   UNL A   1      47.704  28.444  33.981  1.00  0.00     0.029 A 
ATOM     61  C   UNL A   1      46.843  28.007  32.987  1.00  0.00     0.049 A 
ATOM     62  H   UNL A   1      44.850  28.584  32.609  1.00  0.00     0.167 HD
ATOM     63  C   UNL A   1      46.198  26.690  30.988  1.00  0.00     0.074 A 
ATOM     64  C   UNL A   1      46.483  25.764  29.912  1.00  0.00     0.031 C 
ATOM     65  C   UNL A   1      47.096  27.051  31.939  1.00  0.00     0.034 A 
BRANCH  52  66
ATOM     66  C   UNL A   1      44.981  31.294  35.908  1.00  0.00     0.023 A 
ATOM     67  C   UNL A   1      45.697  32.494  35.720  1.00  0.00     0.012 A 
ATOM     68  C   UNL A   1      44.500  30.971  37.191  1.00  0.00     0.148 A 
ATOM     69  C   UNL A   1      45.964  33.339  36.798  1.00  0.00     0.002 A 
ATOM     70  C   UNL A   1      44.726  31.841  38.250  1.00  0.00     0.091 A 
ATOM     71  F   UNL A   1      43.843  29.814  37.355  1.00  0.00    -0.205 F 
ATOM     72  C   UNL A   1      45.468  33.018  38.058  1.00  0.00     0.022 A 
BRANCH  70  73
ATOM     73  S   UNL A   1      44.062  31.559  39.895  1.00  0.00     0.127 S 
ATOM     74  O   UNL A   1      42.622  31.581  39.639  1.00  0.00    -0.237 OA
ATOM     75  O   UNL A   1      44.603  30.240  40.222  1.00  0.00    -0.237 OA
ATOM     76  O   UNL A   1      44.564  32.645  40.724  1.00  0.00    -0.744 OA
ENDBRANCH  70  73
ENDBRANCH  52  66
BRANCH  53  77
ATOM     77  C   UNL A   1      42.766  25.730  27.902  1.00  0.00     0.023 A 
ATOM     78  C   UNL A   1      42.974  26.307  26.635  1.00  0.00     0.012 A 
ATOM     79  C   UNL A   1      42.280  24.410  27.985  1.00  0.00     0.148 A 
ATOM     80  C   UNL A   1      42.673  25.596  25.471  1.00  0.00     0.002 A 
ATOM     81  C   UNL A   1      42.039  23.687  26.824  1.00  0.00     0.091 A 
ATOM     82  F   UNL A   1      42.075  23.886  29.201  1.00  0.00    -0.205 F 
ATOM     83  C   UNL A   1      42.215  24.284  25.566  1.00  0.00     0.022 A 
BRANCH  81  84
ATOM     84  S   UNL A   1      41.574  21.952  26.845  1.00  0.00     0.127 S 
ATOM     85  O   UNL A   1      40.243  22.007  27.445  1.00  0.00    -0.237 OA
ATOM     86  O   UNL A   1      41.596  21.621  25.420  1.00  0.00    -0.237 OA
ATOM     87  O   UNL A   1      42.596  21.279  27.635  1.00  0.00    -0.744 OA
ENDBRANCH  81  84
ENDBRANCH  53  77
BRANCH  65  88
ATOM     88  C   UNL A   1      48.460  26.409  31.901  1.00  0.00     0.023 A 
ATOM     89  C   UNL A   1      49.500  26.996  31.152  1.00  0.00     0.012 A 
ATOM     90  C   UNL A   1      48.729  25.261  32.674  1.00  0.00     0.148 A 
ATOM     91  C   UNL A   1      50.775  26.430  31.145  1.00  0.00     0.002 A 
ATOM     92  C   UNL A   1      50.014  24.735  32.706  1.00  0.00     0.091 A 
ATOM     93  F   UNL A   1      47.723  24.709  33.368  1.00  0.00    -0.205 F 
ATOM     94  C   UNL A   1      51.035  25.309  31.930  1.00  0.00     0.022 A 
BRANCH  92  95
ATOM     95  S   UNL A   1      50.467  23.356  33.764  1.00  0.00     0.127 S 
ATOM     96  O   UNL A   1      51.536  23.940  34.572  1.00  0.00    -0.237 OA
ATOM     97  O   UNL A   1      49.222  23.102  34.490  1.00  0.00    -0.237 OA
ATOM     98  O   UNL A   1      50.877  22.280  32.872  1.00  0.00    -0.744 OA
ENDBRANCH  92  95
ENDBRANCH  65  88
ENDBRANCH  39  40
ENDBRANCH  32  34
ENDBRANCH  31  32
ENDBRANCH  30  31
ENDBRANCH  29  30
ENDBRANCH  28  29
ENDBRANCH  27  28
ENDBRANCH  26  27
ENDBRANCH   1  26
TORSDOF 26
ENDMDL
MODEL 3
REMARK VINA RESULT:      -8.6      4.516      9.915
REMARK SMILES C[C@H](C(=O)OCCOCCOCCOCCOC(=O)c1ccc(-c2c3nc(c(-c4cccc(S(=O)(=O)[O-])c4F)c4ccc([nH]4)c(-c4cccc(S(=O)(=O)[O-])c4F)c4nc(c(-c5cccc(S(=O)(=O)[O-])c5F)c5ccc2[nH]5)C=C4)C=C3)cc1)c1cccc(C(=O)c2ccccc2)c1
REMARK SMILES IDX 11 1 10 2 9 3 8 4 7 5 6 6 5 7 3 8 4 9 2 10 1 11 83 12 84 13
REMARK SMILES IDX 96 14 85 15 87 16 86 17 88 18 89 19 90 20 91 21 95 22 92 23
REMARK SMILES IDX 94 24 93 25 12 26 13 27 14 28 15 29 16 30 17 31 18 32 19 33
REMARK SMILES IDX 20 34 21 35 82 36 22 37 81 38 23 39 24 40 25 41 75 42 26 43
REMARK SMILES IDX 80 44 74 45 76 46 27 47 79 48 73 49 72 50 28 52 60 53 40 54
REMARK SMILES IDX 59 55 41 56 44 57 58 58 77 59 42 60 43 61 57 63 78 64 45 65
REMARK SMILES IDX 29 66 30 67 38 68 31 69 33 70 39 71 32 72 34 73 35 74 36 75
REMARK SMILES IDX 37 76 61 77 62 78 70 79 63 80 65 81 71 82 64 83 66 84 67 85
REMARK SMILES IDX 68 86 69 87 46 88 47 89 55 90 48 91 50 92 56 93 49 94 51 95
REMARK SMILES IDX 52 96 53 97 54 98
REMARK H PARENT 76 51 44 62
REMARK Flexibility Score: inf
ROOT
ATOM      1  O   UNL A   1      34.776  30.523  28.595  1.00  0.00    -0.377 OA
ENDROOT
BRANCH   1   2
ATOM      2  C   UNL A   1      34.534  30.135  27.260  1.00  0.00     0.188 C 
BRANCH   2   3
ATOM      3  C   UNL A   1      33.053  30.064  26.833  1.00  0.00     0.188 C 
BRANCH   3   4
ATOM      4  O   UNL A   1      32.815  30.083  25.440  1.00  0.00    -0.376 OA
BRANCH   4   5
ATOM      5  C   UNL A   1      32.020  29.089  24.817  1.00  0.00     0.202 C 
BRANCH   5   6
ATOM      6  C   UNL A   1      32.541  27.989  23.875  1.00  0.00     0.261 C 
BRANCH   6   7
ATOM      7  O   UNL A   1      31.588  27.046  23.386  1.00  0.00    -0.463 OA
BRANCH   7   8
ATOM      8  C   UNL A   1      31.246  25.996  24.165  1.00  0.00     0.313 C 
ATOM      9  O   UNL A   1      30.181  25.392  24.068  1.00  0.00    -0.252 OA
BRANCH   8  10
ATOM     10  C   UNL A   1      32.376  25.532  25.093  1.00  0.00     0.126 C 
ATOM     11  C   UNL A   1      31.763  25.358  26.500  1.00  0.00     0.025 C 
BRANCH  10  12
ATOM     12  C   UNL A   1      33.264  24.354  24.656  1.00  0.00    -0.033 A 
ATOM     13  C   UNL A   1      34.378  24.504  23.814  1.00  0.00     0.004 A 
ATOM     14  C   UNL A   1      33.039  23.065  25.184  1.00  0.00     0.016 A 
ATOM     15  C   UNL A   1      35.178  23.414  23.451  1.00  0.00     0.001 A 
ATOM     16  C   UNL A   1      33.842  21.964  24.833  1.00  0.00     0.023 A 
ATOM     17  C   UNL A   1      34.911  22.146  23.957  1.00  0.00     0.012 A 
BRANCH  16  18
ATOM     18  C   UNL A   1      33.632  20.613  25.428  1.00  0.00     0.193 C 
ATOM     19  O   UNL A   1      33.428  20.474  26.630  1.00  0.00    -0.289 OA
BRANCH  18  20
ATOM     20  C   UNL A   1      33.605  19.403  24.580  1.00  0.00     0.022 A 
ATOM     21  C   UNL A   1      32.549  19.249  23.676  1.00  0.00     0.012 A 
ATOM     22  C   UNL A   1      34.601  18.427  24.684  1.00  0.00     0.012 A 
ATOM     23  C   UNL A   1      32.511  18.132  22.844  1.00  0.00     0.001 A 
ATOM     24  C   UNL A   1      34.555  17.309  23.850  1.00  0.00     0.001 A 
ATOM     25  C   UNL A   1      33.515  17.165  22.929  1.00  0.00     0.000 A 
ENDBRANCH  18  20
ENDBRANCH  16  18
ENDBRANCH  10  12
ENDBRANCH   8  10
ENDBRANCH   7   8
ENDBRANCH   6   7
ENDBRANCH   5   6
ENDBRANCH   4   5
ENDBRANCH   3   4
ENDBRANCH   2   3
ENDBRANCH   1   2
BRANCH   1  26
ATOM     26  C   UNL A   1      35.420  31.761  28.860  1.00  0.00     0.188 C 
BRANCH  26  27
ATOM     27  C   UNL A   1      34.639  33.064  29.148  1.00  0.00     0.188 C 
BRANCH  27  28
ATOM     28  O   UNL A   1      34.052  33.157  30.438  1.00  0.00    -0.376 OA
BRANCH  28  29
ATOM     29  C   UNL A   1      34.368  34.273  31.250  1.00  0.00     0.202 C 
BRANCH  29  30
ATOM     30  C   UNL A   1      35.600  34.148  32.156  1.00  0.00     0.261 C 
BRANCH  30  31
ATOM     31  O   UNL A   1      35.882  32.832  32.642  1.00  0.00    -0.460 OA
BRANCH  31  32
ATOM     32  C   UNL A   1      36.622  32.748  33.773  1.00  0.00     0.338 C 
ATOM     33  O   UNL A   1      36.290  33.075  34.892  1.00  0.00    -0.246 OA
BRANCH  32  34
ATOM     34  C   UNL A   1      37.851  32.001  33.435  1.00  0.00     0.060 A 
ATOM     35  C   UNL A   1      39.031  32.287  34.134  1.00  0.00     0.016 A 
ATOM     36  C   UNL A   1      37.826  31.004  32.457  1.00  0.00     0.016 A 
ATOM     37  C   UNL A   1      40.201  31.593  33.835  1.00  0.00     0.010 A 
ATOM     38  C   UNL A   1      39.004  30.328  32.140  1.00  0.00     0.010 A 
ATOM     39  C   UNL A   1      40.203  30.645  32.804  1.00  0.00    -0.014 A 
BRANCH  39  40
ATOM     40  C   UNL A   1      41.491  30.140  32.279  1.00  0.00     0.031 A 
ATOM     41  C   UNL A   1      42.148  30.907  31.165  1.00  0.00     0.074 A 
ATOM     42  C   UNL A   1      42.066  29.030  32.772  1.00  0.00     0.049 A 
ATOM     43  N   UNL A   1      43.247  30.644  30.510  1.00  0.00    -0.248 NA
ATOM     44  C   UNL A   1      41.467  32.140  30.730  1.00  0.00     0.031 C 
ATOM     45  C   UNL A   1      41.531  28.210  33.857  1.00  0.00     0.029 A 
ATOM     46  N   UNL A   1      43.220  28.387  32.399  1.00  0.00    -0.354 N 
ATOM     47  C   UNL A   1      43.375  31.657  29.568  1.00  0.00     0.074 A 
ATOM     48  C   UNL A   1      42.237  32.533  29.726  1.00  0.00     0.031 C 
ATOM     49  C   UNL A   1      42.338  27.150  34.038  1.00  0.00     0.029 A 
ATOM     50  C   UNL A   1      43.427  27.203  33.065  1.00  0.00     0.049 A 
ATOM     51  H   UNL A   1      43.839  28.740  31.719  1.00  0.00     0.167 HD
ATOM     52  C   UNL A   1      44.361  31.849  28.661  1.00  0.00     0.034 A 
ATOM     53  C   UNL A   1      44.372  26.258  32.883  1.00  0.00     0.034 A 
ATOM     54  C   UNL A   1      45.491  30.976  28.508  1.00  0.00     0.049 A 
ATOM     55  C   UNL A   1      45.437  26.471  31.837  1.00  0.00     0.074 A 
ATOM     56  C   UNL A   1      46.563  31.101  27.642  1.00  0.00     0.029 A 
ATOM     57  N   UNL A   1      45.687  29.805  29.223  1.00  0.00    -0.354 N 
ATOM     58  N   UNL A   1      45.607  27.488  31.026  1.00  0.00    -0.248 NA
ATOM     59  C   UNL A   1      46.458  25.422  31.702  1.00  0.00     0.031 C 
ATOM     60  C   UNL A   1      47.387  29.983  27.806  1.00  0.00     0.029 A 
ATOM     61  C   UNL A   1      46.854  29.188  28.808  1.00  0.00     0.049 A 
ATOM     62  H   UNL A   1      45.084  29.462  29.923  1.00  0.00     0.167 HD
ATOM     63  C   UNL A   1      46.773  27.220  30.315  1.00  0.00     0.074 A 
ATOM     64  C   UNL A   1      47.277  25.954  30.805  1.00  0.00     0.031 C 
ATOM     65  C   UNL A   1      47.369  27.950  29.340  1.00  0.00     0.034 A 
BRANCH  52  66
ATOM     66  C   UNL A   1      44.255  33.055  27.767  1.00  0.00     0.023 A 
ATOM     67  C   UNL A   1      43.846  32.903  26.426  1.00  0.00     0.012 A 
ATOM     68  C   UNL A   1      44.524  34.345  28.264  1.00  0.00     0.148 A 
ATOM     69  C   UNL A   1      43.744  34.010  25.584  1.00  0.00     0.002 A 
ATOM     70  C   UNL A   1      44.372  35.448  27.433  1.00  0.00     0.091 A 
ATOM     71  F   UNL A   1      44.936  34.468  29.534  1.00  0.00    -0.205 F 
ATOM     72  C   UNL A   1      43.996  35.281  26.090  1.00  0.00     0.022 A 
BRANCH  70  73
ATOM     73  S   UNL A   1      44.594  37.134  28.011  1.00  0.00     0.127 S 
ATOM     74  O   UNL A   1      43.639  37.194  29.117  1.00  0.00    -0.237 OA
ATOM     75  O   UNL A   1      45.999  37.136  28.416  1.00  0.00    -0.237 OA
ATOM     76  O   UNL A   1      44.287  37.993  26.876  1.00  0.00    -0.744 OA
ENDBRANCH  70  73
ENDBRANCH  52  66
BRANCH  53  77
ATOM     77  C   UNL A   1      44.364  25.025  33.721  1.00  0.00     0.023 A 
ATOM     78  C   UNL A   1      43.811  23.834  33.212  1.00  0.00     0.012 A 
ATOM     79  C   UNL A   1      44.908  25.029  35.021  1.00  0.00     0.148 A 
ATOM     80  C   UNL A   1      43.770  22.678  33.993  1.00  0.00     0.002 A 
ATOM     81  C   UNL A   1      44.918  23.860  35.771  1.00  0.00     0.091 A 
ATOM     82  F   UNL A   1      45.415  26.176  35.492  1.00  0.00    -0.205 F 
ATOM     83  C   UNL A   1      44.332  22.688  35.268  1.00  0.00     0.022 A 
BRANCH  81  84
ATOM     84  S   UNL A   1      45.734  23.742  37.366  1.00  0.00     0.127 S 
ATOM     85  O   UNL A   1      47.072  24.238  37.055  1.00  0.00    -0.237 OA
ATOM     86  O   UNL A   1      44.918  24.639  38.185  1.00  0.00    -0.237 OA
ATOM     87  O   UNL A   1      45.655  22.339  37.748  1.00  0.00    -0.744 OA
ENDBRANCH  81  84
ENDBRANCH  53  77
BRANCH  65  88
ATOM     88  C   UNL A   1      48.664  27.435  28.765  1.00  0.00     0.023 A 
ATOM     89  C   UNL A   1      48.657  26.623  27.613  1.00  0.00     0.012 A 
ATOM     90  C   UNL A   1      49.898  27.823  29.327  1.00  0.00     0.148 A 
ATOM     91  C   UNL A   1      49.853  26.177  27.052  1.00  0.00     0.002 A 
ATOM     92  C   UNL A   1      51.086  27.420  28.731  1.00  0.00     0.091 A 
ATOM     93  F   UNL A   1      49.884  28.585  30.431  1.00  0.00    -0.205 F 
ATOM     94  C   UNL A   1      51.066  26.585  27.603  1.00  0.00     0.022 A 
BRANCH  92  95
ATOM     95  S   UNL A   1      52.693  27.978  29.309  1.00  0.00     0.127 S 
ATOM     96  O   UNL A   1      53.593  27.332  28.354  1.00  0.00    -0.237 OA
ATOM     97  O   UNL A   1      52.587  29.430  29.163  1.00  0.00    -0.237 OA
ATOM     98  O   UNL A   1      52.810  27.515  30.685  1.00  0.00    -0.744 OA
ENDBRANCH  92  95
ENDBRANCH  65  88
ENDBRANCH  39  40
ENDBRANCH  32  34
ENDBRANCH  31  32
ENDBRANCH  30  31
ENDBRANCH  29  30
ENDBRANCH  28  29
ENDBRANCH  27  28
ENDBRANCH  26  27
ENDBRANCH   1  26
TORSDOF 26
ENDMDL
