MODEL 1
REMARK VINA RESULT:     -11.0      0.000      0.000
REMARK SMILES CC1=C(C)C[C@@H](C(=O)OCCOCCOCCOCCOC(=O)c2ccc(-c3c4nc(c(-c5cccc(S(=O)(=O)[O-])c5F)c5ccc([nH]5)c(-c5cccc(S(=O)(=O)[O-])c5F)c5nc(c(-c6cccc(S(=O)(=O)[O-])c6F)c6ccc3[nH]6)C=C5)C=C4)cc2)[C@@H](C(=O)NCC[NH+]2CCOCC2)C1
REMARK SMILES IDX 14 1 13 2 12 3 11 4 10 5 9 6 7 7 8 8 6 9 1 10 2 11 3 12
REMARK SMILES IDX 99 13 4 14 5 15 87 16 88 17 89 18 90 19 91 21 92 22 93 23
REMARK SMILES IDX 94 24 98 25 95 27 97 28 96 29 15 30 16 31 17 32 18 33 19 34
REMARK SMILES IDX 20 35 21 36 22 37 23 38 24 39 25 40 86 41 26 42 85 43 27 44
REMARK SMILES IDX 28 45 29 46 79 47 30 48 84 49 78 50 80 51 31 52 83 53 77 54
REMARK SMILES IDX 76 55 32 57 64 58 44 59 63 60 45 61 48 62 62 63 81 64 46 65
REMARK SMILES IDX 47 66 61 68 82 69 49 70 33 71 34 72 42 73 35 74 37 75 43 76
REMARK SMILES IDX 36 77 38 78 39 79 40 80 41 81 65 82 66 83 74 84 67 85 69 86
REMARK SMILES IDX 75 87 68 88 70 89 71 90 72 91 73 92 50 93 51 94 59 95 52 96
REMARK SMILES IDX 54 97 60 98 53 99 55 100 56 101 57 102 58 103
REMARK H PARENT 90 20 93 26 80 56 48 67
REMARK Flexibility Score: inf
ROOT
ATOM      1  C   UNL A   1      33.434  28.051  24.217  1.00  0.00     0.188 C 
ENDROOT
BRANCH   1   2
ATOM      2  C   UNL A   1      32.648  28.074  22.905  1.00  0.00     0.188 C 
BRANCH   2   3
ATOM      3  O   UNL A   1      31.321  27.554  22.938  1.00  0.00    -0.376 OA
BRANCH   3   4
ATOM      4  C   UNL A   1      31.118  26.199  22.537  1.00  0.00     0.202 C 
BRANCH   4   5
ATOM      5  C   UNL A   1      30.418  25.230  23.512  1.00  0.00     0.261 C 
BRANCH   5   6
ATOM      6  O   UNL A   1      31.033  23.928  23.659  1.00  0.00    -0.463 OA
BRANCH   6   7
ATOM      7  C   UNL A   1      32.368  23.907  23.533  1.00  0.00     0.310 C 
ATOM      8  O   UNL A   1      32.924  23.657  22.458  1.00  0.00    -0.252 OA
BRANCH   7   9
ATOM      9  C   UNL A   1      33.229  24.330  24.728  1.00  0.00     0.116 C 
ATOM     10  C   UNL A   1      36.347  21.442  25.808  1.00  0.00     0.039 C 
ATOM     11  C   UNL A   1      35.506  22.643  25.470  1.00  0.00    -0.074 C 
ATOM     12  C   UNL A   1      35.520  23.312  24.301  1.00  0.00    -0.073 C 
ATOM     13  C   UNL A   1      34.622  23.127  26.595  1.00  0.00     0.045 C 
ATOM     14  C   UNL A   1      36.358  22.988  23.094  1.00  0.00     0.039 C 
ATOM     15  C   UNL A   1      34.654  24.538  24.166  1.00  0.00     0.046 C 
ATOM     16  C   UNL A   1      33.274  23.783  26.186  1.00  0.00     0.097 C 
BRANCH  16  17
ATOM     17  C   UNL A   1      32.182  22.867  26.724  1.00  0.00     0.224 C 
ATOM     18  O   UNL A   1      31.300  23.291  27.473  1.00  0.00    -0.275 OA
ATOM     19  N   UNL A   1      32.063  21.576  26.245  1.00  0.00    -0.350 N 
ATOM     20  H   UNL A   1      31.525  20.981  26.818  1.00  0.00     0.163 HD
BRANCH  19  21
ATOM     21  C   UNL A   1      32.593  20.931  25.039  1.00  0.00     0.177 C 
BRANCH  21  22
ATOM     22  C   UNL A   1      33.223  19.514  25.228  1.00  0.00     0.283 C 
BRANCH  22  23
ATOM     23  N   UNL A   1      32.454  18.355  24.739  1.00  0.00    -0.330 N 
ATOM     24  C   UNL A   1      32.579  17.160  25.609  1.00  0.00     0.291 C 
ATOM     25  C   UNL A   1      32.724  17.942  23.342  1.00  0.00     0.291 C 
ATOM     26  H   UNL A   1      31.499  18.714  24.768  1.00  0.00     0.348 HD
ATOM     27  C   UNL A   1      33.817  16.289  25.364  1.00  0.00     0.221 C 
ATOM     28  C   UNL A   1      33.948  17.037  23.138  1.00  0.00     0.221 C 
ATOM     29  O   UNL A   1      33.901  15.890  23.992  1.00  0.00    -0.370 OA
ENDBRANCH  22  23
ENDBRANCH  21  22
ENDBRANCH  19  21
ENDBRANCH  16  17
ENDBRANCH   7   9
ENDBRANCH   6   7
ENDBRANCH   5   6
ENDBRANCH   4   5
ENDBRANCH   3   4
ENDBRANCH   2   3
ENDBRANCH   1   2
BRANCH   1  30
ATOM     30  O   UNL A   1      33.267  29.266  24.916  1.00  0.00    -0.377 OA
BRANCH  30  31
ATOM     31  C   UNL A   1      33.770  29.460  26.238  1.00  0.00     0.188 C 
BRANCH  31  32
ATOM     32  C   UNL A   1      33.163  30.563  27.102  1.00  0.00     0.188 C 
BRANCH  32  33
ATOM     33  O   UNL A   1      31.813  30.954  26.842  1.00  0.00    -0.376 OA
BRANCH  33  34
ATOM     34  C   UNL A   1      31.503  32.340  26.851  1.00  0.00     0.202 C 
BRANCH  34  35
ATOM     35  C   UNL A   1      32.624  33.284  27.263  1.00  0.00     0.261 C 
BRANCH  35  36
ATOM     36  O   UNL A   1      32.674  33.485  28.663  1.00  0.00    -0.460 OA
BRANCH  36  37
ATOM     37  C   UNL A   1      33.753  34.177  29.048  1.00  0.00     0.338 C 
ATOM     38  O   UNL A   1      33.815  35.337  29.446  1.00  0.00    -0.246 OA
BRANCH  37  39
ATOM     39  C   UNL A   1      34.877  33.261  29.029  1.00  0.00     0.060 A 
ATOM     40  C   UNL A   1      34.767  32.127  29.830  1.00  0.00     0.016 A 
ATOM     41  C   UNL A   1      36.042  33.574  28.316  1.00  0.00     0.016 A 
ATOM     42  C   UNL A   1      35.886  31.355  30.031  1.00  0.00     0.010 A 
ATOM     43  C   UNL A   1      37.167  32.794  28.517  1.00  0.00     0.010 A 
ATOM     44  C   UNL A   1      37.097  31.746  29.443  1.00  0.00    -0.014 A 
BRANCH  44  45
ATOM     45  C   UNL A   1      38.315  31.199  30.046  1.00  0.00     0.031 A 
ATOM     46  C   UNL A   1      38.635  31.593  31.458  1.00  0.00     0.074 A 
ATOM     47  C   UNL A   1      38.994  30.263  29.372  1.00  0.00     0.049 A 
ATOM     48  N   UNL A   1      39.558  31.126  32.251  1.00  0.00    -0.248 NA
ATOM     49  C   UNL A   1      37.798  32.645  32.067  1.00  0.00     0.031 C 
ATOM     50  C   UNL A   1      38.697  29.829  28.006  1.00  0.00     0.029 A 
ATOM     51  N   UNL A   1      40.055  29.498  29.754  1.00  0.00    -0.354 N 
ATOM     52  C   UNL A   1      39.430  31.840  33.437  1.00  0.00     0.074 A 
ATOM     53  C   UNL A   1      38.354  32.786  33.260  1.00  0.00     0.031 C 
ATOM     54  C   UNL A   1      39.561  28.863  27.663  1.00  0.00     0.029 A 
ATOM     55  C   UNL A   1      40.479  28.638  28.774  1.00  0.00     0.049 A 
ATOM     56  H   UNL A   1      40.474  29.557  30.642  1.00  0.00     0.167 HD
ATOM     57  C   UNL A   1      40.146  31.700  34.575  1.00  0.00     0.034 A 
ATOM     58  C   UNL A   1      41.507  27.774  28.792  1.00  0.00     0.034 A 
ATOM     59  C   UNL A   1      41.198  30.733  34.714  1.00  0.00     0.049 A 
ATOM     60  C   UNL A   1      42.288  27.645  30.068  1.00  0.00     0.074 A 
ATOM     61  C   UNL A   1      41.990  30.470  35.814  1.00  0.00     0.029 A 
ATOM     62  N   UNL A   1      41.609  29.873  33.704  1.00  0.00    -0.354 N 
ATOM     63  N   UNL A   1      42.113  28.267  31.210  1.00  0.00    -0.248 NA
ATOM     64  C   UNL A   1      43.382  26.668  30.072  1.00  0.00     0.031 C 
ATOM     65  C   UNL A   1      42.906  29.474  35.455  1.00  0.00     0.029 A 
ATOM     66  C   UNL A   1      42.655  29.085  34.146  1.00  0.00     0.049 A 
ATOM     67  H   UNL A   1      41.213  29.830  32.803  1.00  0.00     0.167 HD
ATOM     68  C   UNL A   1      43.055  27.741  32.082  1.00  0.00     0.074 A 
ATOM     69  C   UNL A   1      43.776  26.724  31.337  1.00  0.00     0.031 C 
ATOM     70  C   UNL A   1      43.322  28.069  33.371  1.00  0.00     0.034 A 
BRANCH  57  71
ATOM     71  C   UNL A   1      39.817  32.610  35.729  1.00  0.00     0.023 A 
ATOM     72  C   UNL A   1      40.403  33.889  35.817  1.00  0.00     0.012 A 
ATOM     73  C   UNL A   1      38.905  32.202  36.722  1.00  0.00     0.148 A 
ATOM     74  C   UNL A   1      40.112  34.734  36.890  1.00  0.00     0.002 A 
ATOM     75  C   UNL A   1      38.583  33.067  37.762  1.00  0.00     0.091 A 
ATOM     76  F   UNL A   1      38.381  30.970  36.641  1.00  0.00    -0.205 F 
ATOM     77  C   UNL A   1      39.195  34.328  37.854  1.00  0.00     0.022 A 
BRANCH  75  78
ATOM     78  S   UNL A   1      37.362  32.665  39.016  1.00  0.00     0.127 S 
ATOM     79  O   UNL A   1      36.114  32.778  38.261  1.00  0.00    -0.237 OA
ATOM     80  O   UNL A   1      37.734  31.296  39.376  1.00  0.00    -0.237 OA
ATOM     81  O   UNL A   1      37.537  33.645  40.079  1.00  0.00    -0.744 OA
ENDBRANCH  75  78
ENDBRANCH  57  71
BRANCH  58  82
ATOM     82  C   UNL A   1      41.813  26.969  27.580  1.00  0.00     0.023 A 
ATOM     83  C   UNL A   1      42.440  27.567  26.473  1.00  0.00     0.012 A 
ATOM     84  C   UNL A   1      41.527  25.589  27.548  1.00  0.00     0.148 A 
ATOM     85  C   UNL A   1      42.751  26.812  25.341  1.00  0.00     0.002 A 
ATOM     86  C   UNL A   1      41.891  24.831  26.442  1.00  0.00     0.091 A 
ATOM     87  F   UNL A   1      40.921  25.041  28.610  1.00  0.00    -0.205 F 
ATOM     88  C   UNL A   1      42.487  25.444  25.330  1.00  0.00     0.022 A 
BRANCH  86  89
ATOM     89  S   UNL A   1      41.708  23.045  26.401  1.00  0.00     0.127 S 
ATOM     90  O   UNL A   1      42.372  22.706  25.146  1.00  0.00    -0.237 OA
ATOM     91  O   UNL A   1      42.428  22.641  27.610  1.00  0.00    -0.237 OA
ATOM     92  O   UNL A   1      40.273  22.795  26.446  1.00  0.00    -0.744 OA
ENDBRANCH  86  89
ENDBRANCH  58  82
BRANCH  70  93
ATOM     93  C   UNL A   1      44.421  27.298  34.049  1.00  0.00     0.023 A 
ATOM     94  C   UNL A   1      45.755  27.738  33.945  1.00  0.00     0.012 A 
ATOM     95  C   UNL A   1      44.121  26.158  34.819  1.00  0.00     0.148 A 
ATOM     96  C   UNL A   1      46.783  27.021  34.553  1.00  0.00     0.002 A 
ATOM     97  C   UNL A   1      45.144  25.484  35.471  1.00  0.00     0.091 A 
ATOM     98  F   UNL A   1      42.846  25.748  34.891  1.00  0.00    -0.205 F 
ATOM     99  C   UNL A   1      46.477  25.902  35.323  1.00  0.00     0.022 A 
BRANCH  97 100
ATOM    100  S   UNL A   1      44.828  24.100  36.569  1.00  0.00     0.127 S 
ATOM    101  O   UNL A   1      43.960  24.710  37.575  1.00  0.00    -0.237 OA
ATOM    102  O   UNL A   1      44.160  23.147  35.682  1.00  0.00    -0.237 OA
ATOM    103  O   UNL A   1      46.133  23.663  37.047  1.00  0.00    -0.744 OA
ENDBRANCH  97 100
ENDBRANCH  70  93
ENDBRANCH  44  45
ENDBRANCH  37  39
ENDBRANCH  36  37
ENDBRANCH  35  36
ENDBRANCH  34  35
ENDBRANCH  33  34
ENDBRANCH  32  33
ENDBRANCH  31  32
ENDBRANCH  30  31
ENDBRANCH   1  30
TORSDOF 27
ENDMDL
MODEL 2
REMARK VINA RESULT:     -10.4      0.837      7.222
REMARK SMILES CC1=C(C)C[C@@H](C(=O)OCCOCCOCCOCCOC(=O)c2ccc(-c3c4nc(c(-c5cccc(S(=O)(=O)[O-])c5F)c5ccc([nH]5)c(-c5cccc(S(=O)(=O)[O-])c5F)c5nc(c(-c6cccc(S(=O)(=O)[O-])c6F)c6ccc3[nH]6)C=C5)C=C4)cc2)[C@@H](C(=O)NCC[NH+]2CCOCC2)C1
REMARK SMILES IDX 14 1 13 2 12 3 11 4 10 5 9 6 7 7 8 8 6 9 1 10 2 11 3 12
REMARK SMILES IDX 99 13 4 14 5 15 87 16 88 17 89 18 90 19 91 21 92 22 93 23
REMARK SMILES IDX 94 24 98 25 95 27 97 28 96 29 15 30 16 31 17 32 18 33 19 34
REMARK SMILES IDX 20 35 21 36 22 37 23 38 24 39 25 40 86 41 26 42 85 43 27 44
REMARK SMILES IDX 28 45 29 46 79 47 30 48 84 49 78 50 80 51 31 52 83 53 77 54
REMARK SMILES IDX 76 55 32 57 64 58 44 59 63 60 45 61 48 62 62 63 81 64 46 65
REMARK SMILES IDX 47 66 61 68 82 69 49 70 33 71 34 72 42 73 35 74 37 75 43 76
REMARK SMILES IDX 36 77 38 78 39 79 40 80 41 81 65 82 66 83 74 84 67 85 69 86
REMARK SMILES IDX 75 87 68 88 70 89 71 90 72 91 73 92 50 93 51 94 59 95 52 96
REMARK SMILES IDX 54 97 60 98 53 99 55 100 56 101 57 102 58 103
REMARK H PARENT 90 20 93 26 80 56 48 67
REMARK Flexibility Score: inf
ROOT
ATOM      1  C   UNL A   1      33.257  28.455  24.165  1.00  0.00     0.188 C 
ENDROOT
BRANCH   1   2
ATOM      2  C   UNL A   1      32.542  28.641  22.825  1.00  0.00     0.188 C 
BRANCH   2   3
ATOM      3  O   UNL A   1      31.372  27.857  22.605  1.00  0.00    -0.376 OA
BRANCH   3   4
ATOM      4  C   UNL A   1      31.513  26.438  22.539  1.00  0.00     0.202 C 
BRANCH   4   5
ATOM      5  C   UNL A   1      30.793  25.568  23.591  1.00  0.00     0.261 C 
BRANCH   5   6
ATOM      6  O   UNL A   1      30.942  24.137  23.436  1.00  0.00    -0.463 OA
BRANCH   6   7
ATOM      7  C   UNL A   1      32.193  23.673  23.570  1.00  0.00     0.310 C 
ATOM      8  O   UNL A   1      32.697  22.895  22.753  1.00  0.00    -0.252 OA
BRANCH   7   9
ATOM      9  C   UNL A   1      33.067  24.223  24.702  1.00  0.00     0.116 C 
ATOM     10  C   UNL A   1      36.397  21.604  25.836  1.00  0.00     0.039 C 
ATOM     11  C   UNL A   1      35.471  22.728  25.457  1.00  0.00    -0.074 C 
ATOM     12  C   UNL A   1      35.402  23.320  24.249  1.00  0.00    -0.073 C 
ATOM     13  C   UNL A   1      34.597  23.227  26.584  1.00  0.00     0.045 C 
ATOM     14  C   UNL A   1      36.215  22.972  23.033  1.00  0.00     0.039 C 
ATOM     15  C   UNL A   1      34.456  24.480  24.073  1.00  0.00     0.046 C 
ATOM     16  C   UNL A   1      33.198  23.773  26.188  1.00  0.00     0.097 C 
BRANCH  16  17
ATOM     17  C   UNL A   1      32.185  22.829  26.824  1.00  0.00     0.224 C 
ATOM     18  O   UNL A   1      31.236  23.256  27.484  1.00  0.00    -0.275 OA
ATOM     19  N   UNL A   1      32.217  21.479  26.529  1.00  0.00    -0.350 N 
ATOM     20  H   UNL A   1      31.722  20.915  27.167  1.00  0.00     0.163 HD
BRANCH  19  21
ATOM     21  C   UNL A   1      32.857  20.734  25.439  1.00  0.00     0.177 C 
BRANCH  21  22
ATOM     22  C   UNL A   1      33.196  19.237  25.726  1.00  0.00     0.283 C 
BRANCH  22  23
ATOM     23  N   UNL A   1      32.969  18.265  24.639  1.00  0.00    -0.330 N 
ATOM     24  C   UNL A   1      32.171  17.088  25.064  1.00  0.00     0.291 C 
ATOM     25  C   UNL A   1      34.182  17.778  23.943  1.00  0.00     0.291 C 
ATOM     26  H   UNL A   1      32.441  18.826  23.970  1.00  0.00     0.348 HD
ATOM     27  C   UNL A   1      32.962  15.963  25.741  1.00  0.00     0.221 C 
ATOM     28  C   UNL A   1      34.926  16.623  24.629  1.00  0.00     0.221 C 
ATOM     29  O   UNL A   1      34.048  15.530  24.917  1.00  0.00    -0.370 OA
ENDBRANCH  22  23
ENDBRANCH  21  22
ENDBRANCH  19  21
ENDBRANCH  16  17
ENDBRANCH   7   9
ENDBRANCH   6   7
ENDBRANCH   5   6
ENDBRANCH   4   5
ENDBRANCH   3   4
ENDBRANCH   2   3
ENDBRANCH   1   2
BRANCH   1  30
ATOM     30  O   UNL A   1      33.102  29.604  24.972  1.00  0.00    -0.377 OA
BRANCH  30  31
ATOM     31  C   UNL A   1      33.450  29.615  26.356  1.00  0.00     0.188 C 
BRANCH  31  32
ATOM     32  C   UNL A   1      32.864  30.703  27.254  1.00  0.00     0.188 C 
BRANCH  32  33
ATOM     33  O   UNL A   1      31.706  31.402  26.794  1.00  0.00    -0.376 OA
BRANCH  33  34
ATOM     34  C   UNL A   1      31.704  32.820  26.872  1.00  0.00     0.202 C 
BRANCH  34  35
ATOM     35  C   UNL A   1      32.914  33.465  27.530  1.00  0.00     0.261 C 
BRANCH  35  36
ATOM     36  O   UNL A   1      32.554  34.391  28.538  1.00  0.00    -0.460 OA
BRANCH  36  37
ATOM     37  C   UNL A   1      33.615  34.956  29.127  1.00  0.00     0.338 C 
ATOM     38  O   UNL A   1      33.719  36.088  29.589  1.00  0.00    -0.246 OA
BRANCH  37  39
ATOM     39  C   UNL A   1      34.637  33.933  29.238  1.00  0.00     0.060 A 
ATOM     40  C   UNL A   1      34.280  32.771  29.919  1.00  0.00     0.016 A 
ATOM     41  C   UNL A   1      35.936  34.167  28.769  1.00  0.00     0.016 A 
ATOM     42  C   UNL A   1      35.269  31.879  30.256  1.00  0.00     0.010 A 
ATOM     43  C   UNL A   1      36.931  33.266  29.107  1.00  0.00     0.010 A 
ATOM     44  C   UNL A   1      36.598  32.179  29.924  1.00  0.00    -0.014 A 
BRANCH  44  45
ATOM     45  C   UNL A   1      37.630  31.476  30.691  1.00  0.00     0.031 A 
ATOM     46  C   UNL A   1      38.471  30.465  29.969  1.00  0.00     0.074 A 
ATOM     47  C   UNL A   1      37.873  31.874  31.945  1.00  0.00     0.049 A 
ATOM     48  N   UNL A   1      39.534  29.835  30.385  1.00  0.00    -0.248 NA
ATOM     49  C   UNL A   1      38.074  30.123  28.589  1.00  0.00     0.031 C 
ATOM     50  C   UNL A   1      37.096  32.878  32.674  1.00  0.00     0.029 A 
ATOM     51  N   UNL A   1      38.854  31.500  32.813  1.00  0.00    -0.354 N 
ATOM     52  C   UNL A   1      39.915  29.009  29.334  1.00  0.00     0.074 A 
ATOM     53  C   UNL A   1      38.965  29.200  28.265  1.00  0.00     0.031 C 
ATOM     54  C   UNL A   1      37.637  33.043  33.890  1.00  0.00     0.029 A 
ATOM     55  C   UNL A   1      38.776  32.141  34.023  1.00  0.00     0.049 A 
ATOM     56  H   UNL A   1      39.548  30.838  32.595  1.00  0.00     0.167 HD
ATOM     57  C   UNL A   1      40.979  28.178  29.272  1.00  0.00     0.034 A 
ATOM     58  C   UNL A   1      39.547  31.992  35.113  1.00  0.00     0.034 A 
ATOM     59  C   UNL A   1      41.912  28.031  30.354  1.00  0.00     0.049 A 
ATOM     60  C   UNL A   1      40.717  31.056  35.016  1.00  0.00     0.074 A 
ATOM     61  C   UNL A   1      43.042  27.241  30.420  1.00  0.00     0.029 A 
ATOM     62  N   UNL A   1      41.808  28.692  31.571  1.00  0.00    -0.354 N 
ATOM     63  N   UNL A   1      41.118  30.337  33.993  1.00  0.00    -0.248 NA
ATOM     64  C   UNL A   1      41.565  30.940  36.207  1.00  0.00     0.031 C 
ATOM     65  C   UNL A   1      43.602  27.397  31.693  1.00  0.00     0.029 A 
ATOM     66  C   UNL A   1      42.845  28.318  32.405  1.00  0.00     0.049 A 
ATOM     67  H   UNL A   1      41.099  29.333  31.806  1.00  0.00     0.167 HD
ATOM     68  C   UNL A   1      42.280  29.701  34.405  1.00  0.00     0.074 A 
ATOM     69  C   UNL A   1      42.533  30.151  35.762  1.00  0.00     0.031 C 
ATOM     70  C   UNL A   1      43.065  28.815  33.740  1.00  0.00     0.034 A 
BRANCH  57  71
ATOM     71  C   UNL A   1      41.172  27.375  28.012  1.00  0.00     0.023 A 
ATOM     72  C   UNL A   1      41.700  27.981  26.855  1.00  0.00     0.012 A 
ATOM     73  C   UNL A   1      40.844  26.005  27.982  1.00  0.00     0.148 A 
ATOM     74  C   UNL A   1      41.872  27.247  25.680  1.00  0.00     0.002 A 
ATOM     75  C   UNL A   1      41.061  25.268  26.823  1.00  0.00     0.091 A 
ATOM     76  F   UNL A   1      40.312  25.451  29.081  1.00  0.00    -0.205 F 
ATOM     77  C   UNL A   1      41.562  25.890  25.668  1.00  0.00     0.022 A 
BRANCH  75  78
ATOM     78  S   UNL A   1      40.761  23.500  26.728  1.00  0.00     0.127 S 
ATOM     79  O   UNL A   1      41.718  23.092  25.700  1.00  0.00    -0.237 OA
ATOM     80  O   UNL A   1      41.097  23.060  28.082  1.00  0.00    -0.237 OA
ATOM     81  O   UNL A   1      39.358  23.347  26.367  1.00  0.00    -0.744 OA
ENDBRANCH  75  78
ENDBRANCH  57  71
BRANCH  58  82
ATOM     82  C   UNL A   1      39.239  32.766  36.344  1.00  0.00     0.023 A 
ATOM     83  C   UNL A   1      39.768  34.057  36.517  1.00  0.00     0.012 A 
ATOM     84  C   UNL A   1      38.375  32.238  37.324  1.00  0.00     0.148 A 
ATOM     85  C   UNL A   1      39.465  34.799  37.660  1.00  0.00     0.002 A 
ATOM     86  C   UNL A   1      38.031  33.003  38.431  1.00  0.00     0.091 A 
ATOM     87  F   UNL A   1      37.889  31.002  37.143  1.00  0.00    -0.205 F 
ATOM     88  C   UNL A   1      38.589  34.277  38.609  1.00  0.00     0.022 A 
BRANCH  86  89
ATOM     89  S   UNL A   1      36.809  32.461  39.630  1.00  0.00     0.127 S 
ATOM     90  O   UNL A   1      35.570  32.582  38.868  1.00  0.00    -0.237 OA
ATOM     91  O   UNL A   1      37.239  31.088  39.897  1.00  0.00    -0.237 OA
ATOM     92  O   UNL A   1      36.944  33.364  40.766  1.00  0.00    -0.744 OA
ENDBRANCH  86  89
ENDBRANCH  58  82
BRANCH  70  93
ATOM     93  C   UNL A   1      44.274  28.305  34.474  1.00  0.00     0.023 A 
ATOM     94  C   UNL A   1      45.480  29.033  34.434  1.00  0.00     0.012 A 
ATOM     95  C   UNL A   1      44.201  27.121  35.233  1.00  0.00     0.148 A 
ATOM     96  C   UNL A   1      46.611  28.560  35.094  1.00  0.00     0.002 A 
ATOM     97  C   UNL A   1      45.316  26.689  35.936  1.00  0.00     0.091 A 
ATOM     98  F   UNL A   1      43.048  26.436  35.243  1.00  0.00    -0.205 F 
ATOM     99  C   UNL A   1      46.527  27.395  35.852  1.00  0.00     0.022 A 
BRANCH  97 100
ATOM    100  S   UNL A   1      45.264  25.261  37.022  1.00  0.00     0.127 S 
ATOM    101  O   UNL A   1      45.259  24.157  36.064  1.00  0.00    -0.237 OA
ATOM    102  O   UNL A   1      46.506  25.405  37.783  1.00  0.00    -0.237 OA
ATOM    103  O   UNL A   1      44.053  25.408  37.819  1.00  0.00    -0.744 OA
ENDBRANCH  97 100
ENDBRANCH  70  93
ENDBRANCH  44  45
ENDBRANCH  37  39
ENDBRANCH  36  37
ENDBRANCH  35  36
ENDBRANCH  34  35
ENDBRANCH  33  34
ENDBRANCH  32  33
ENDBRANCH  31  32
ENDBRANCH  30  31
ENDBRANCH   1  30
TORSDOF 27
ENDMDL
MODEL 3
REMARK VINA RESULT:     -10.1      2.640      9.481
REMARK SMILES CC1=C(C)C[C@@H](C(=O)OCCOCCOCCOCCOC(=O)c2ccc(-c3c4nc(c(-c5cccc(S(=O)(=O)[O-])c5F)c5ccc([nH]5)c(-c5cccc(S(=O)(=O)[O-])c5F)c5nc(c(-c6cccc(S(=O)(=O)[O-])c6F)c6ccc3[nH]6)C=C5)C=C4)cc2)[C@@H](C(=O)NCC[NH+]2CCOCC2)C1
REMARK SMILES IDX 14 1 13 2 12 3 11 4 10 5 9 6 7 7 8 8 6 9 1 10 2 11 3 12
REMARK SMILES IDX 99 13 4 14 5 15 87 16 88 17 89 18 90 19 91 21 92 22 93 23
REMARK SMILES IDX 94 24 98 25 95 27 97 28 96 29 15 30 16 31 17 32 18 33 19 34
REMARK SMILES IDX 20 35 21 36 22 37 23 38 24 39 25 40 86 41 26 42 85 43 27 44
REMARK SMILES IDX 28 45 29 46 79 47 30 48 84 49 78 50 80 51 31 52 83 53 77 54
REMARK SMILES IDX 76 55 32 57 64 58 44 59 63 60 45 61 48 62 62 63 81 64 46 65
REMARK SMILES IDX 47 66 61 68 82 69 49 70 33 71 34 72 42 73 35 74 37 75 43 76
REMARK SMILES IDX 36 77 38 78 39 79 40 80 41 81 65 82 66 83 74 84 67 85 69 86
REMARK SMILES IDX 75 87 68 88 70 89 71 90 72 91 73 92 50 93 51 94 59 95 52 96
REMARK SMILES IDX 54 97 60 98 53 99 55 100 56 101 57 102 58 103
REMARK H PARENT 90 20 93 26 80 56 48 67
REMARK Flexibility Score: inf
ROOT
ATOM      1  C   UNL A   1      40.245  20.303  26.357  1.00  0.00     0.188 C 
ENDROOT
BRANCH   1   2
ATOM      2  C   UNL A   1      39.365  21.418  25.789  1.00  0.00     0.188 C 
BRANCH   2   3
ATOM      3  O   UNL A   1      38.198  21.018  25.075  1.00  0.00    -0.376 OA
BRANCH   3   4
ATOM      4  C   UNL A   1      36.925  21.415  25.586  1.00  0.00     0.202 C 
BRANCH   4   5
ATOM      5  C   UNL A   1      36.482  22.883  25.427  1.00  0.00     0.261 C 
BRANCH   5   6
ATOM      6  O   UNL A   1      35.582  23.386  26.444  1.00  0.00    -0.463 OA
BRANCH   6   7
ATOM      7  C   UNL A   1      34.547  22.586  26.738  1.00  0.00     0.310 C 
ATOM      8  O   UNL A   1      34.667  21.592  27.462  1.00  0.00    -0.252 OA
BRANCH   7   9
ATOM      9  C   UNL A   1      33.146  22.989  26.265  1.00  0.00     0.116 C 
ATOM     10  C   UNL A   1      32.088  21.473  22.288  1.00  0.00     0.039 C 
ATOM     11  C   UNL A   1      32.165  21.895  23.731  1.00  0.00    -0.074 C 
ATOM     12  C   UNL A   1      32.360  21.077  24.783  1.00  0.00    -0.073 C 
ATOM     13  C   UNL A   1      31.948  23.372  23.964  1.00  0.00     0.045 C 
ATOM     14  C   UNL A   1      32.561  19.587  24.733  1.00  0.00     0.039 C 
ATOM     15  C   UNL A   1      32.341  21.673  26.166  1.00  0.00     0.046 C 
ATOM     16  C   UNL A   1      32.702  24.003  25.167  1.00  0.00     0.097 C 
BRANCH  16  17
ATOM     17  C   UNL A   1      33.681  25.005  24.570  1.00  0.00     0.224 C 
ATOM     18  O   UNL A   1      34.195  24.821  23.466  1.00  0.00    -0.275 OA
ATOM     19  N   UNL A   1      33.880  26.227  25.185  1.00  0.00    -0.350 N 
ATOM     20  H   UNL A   1      34.701  26.693  24.900  1.00  0.00     0.163 HD
BRANCH  19  21
ATOM     21  C   UNL A   1      33.092  26.957  26.184  1.00  0.00     0.177 C 
BRANCH  21  22
ATOM     22  C   UNL A   1      31.748  27.580  25.691  1.00  0.00     0.283 C 
BRANCH  22  23
ATOM     23  N   UNL A   1      31.790  28.952  25.150  1.00  0.00    -0.330 N 
ATOM     24  C   UNL A   1      30.646  29.264  24.258  1.00  0.00     0.291 C 
ATOM     25  C   UNL A   1      33.040  29.335  24.453  1.00  0.00     0.291 C 
ATOM     26  H   UNL A   1      31.735  29.510  26.002  1.00  0.00     0.348 HD
ATOM     27  C   UNL A   1      30.802  28.814  22.800  1.00  0.00     0.221 C 
ATOM     28  C   UNL A   1      33.144  28.903  22.984  1.00  0.00     0.221 C 
ATOM     29  O   UNL A   1      32.007  29.332  22.228  1.00  0.00    -0.370 OA
ENDBRANCH  22  23
ENDBRANCH  21  22
ENDBRANCH  19  21
ENDBRANCH  16  17
ENDBRANCH   7   9
ENDBRANCH   6   7
ENDBRANCH   5   6
ENDBRANCH   4   5
ENDBRANCH   3   4
ENDBRANCH   2   3
ENDBRANCH   1   2
BRANCH   1  30
ATOM     30  O   UNL A   1      41.557  20.398  25.843  1.00  0.00    -0.377 OA
BRANCH  30  31
ATOM     31  C   UNL A   1      42.560  19.425  26.131  1.00  0.00     0.188 C 
BRANCH  31  32
ATOM     32  C   UNL A   1      43.859  19.447  25.328  1.00  0.00     0.188 C 
BRANCH  32  33
ATOM     33  O   UNL A   1      43.996  20.427  24.297  1.00  0.00    -0.376 OA
BRANCH  33  34
ATOM     34  C   UNL A   1      45.047  21.376  24.410  1.00  0.00     0.202 C 
BRANCH  34  35
ATOM     35  C   UNL A   1      44.733  22.794  23.960  1.00  0.00     0.261 C 
BRANCH  35  36
ATOM     36  O   UNL A   1      44.009  23.523  24.933  1.00  0.00    -0.460 OA
BRANCH  36  37
ATOM     37  C   UNL A   1      44.510  24.747  25.143  1.00  0.00     0.338 C 
ATOM     38  O   UNL A   1      45.580  25.210  24.760  1.00  0.00    -0.246 OA
BRANCH  37  39
ATOM     39  C   UNL A   1      43.490  25.512  25.833  1.00  0.00     0.060 A 
ATOM     40  C   UNL A   1      43.771  26.858  26.059  1.00  0.00     0.016 A 
ATOM     41  C   UNL A   1      42.339  24.886  26.328  1.00  0.00     0.016 A 
ATOM     42  C   UNL A   1      42.953  27.565  26.907  1.00  0.00     0.010 A 
ATOM     43  C   UNL A   1      41.514  25.600  27.180  1.00  0.00     0.010 A 
ATOM     44  C   UNL A   1      41.883  26.905  27.529  1.00  0.00    -0.014 A 
BRANCH  44  45
ATOM     45  C   UNL A   1      41.354  27.533  28.741  1.00  0.00     0.031 A 
ATOM     46  C   UNL A   1      42.208  27.505  29.975  1.00  0.00     0.074 A 
ATOM     47  C   UNL A   1      40.213  28.228  28.652  1.00  0.00     0.049 A 
ATOM     48  N   UNL A   1      42.029  28.119  31.110  1.00  0.00    -0.248 NA
ATOM     49  C   UNL A   1      43.436  26.688  29.922  1.00  0.00     0.031 C 
ATOM     50  C   UNL A   1      39.367  28.305  27.461  1.00  0.00     0.029 A 
ATOM     51  N   UNL A   1      39.588  29.015  29.571  1.00  0.00    -0.354 N 
ATOM     52  C   UNL A   1      43.101  27.745  31.912  1.00  0.00     0.074 A 
ATOM     53  C   UNL A   1      43.920  26.837  31.145  1.00  0.00     0.031 C 
ATOM     54  C   UNL A   1      38.324  29.107  27.723  1.00  0.00     0.029 A 
ATOM     55  C   UNL A   1      38.425  29.570  29.102  1.00  0.00     0.049 A 
ATOM     56  H   UNL A   1      39.935  29.170  30.479  1.00  0.00     0.167 HD
ATOM     57  C   UNL A   1      43.377  28.143  33.174  1.00  0.00     0.034 A 
ATOM     58  C   UNL A   1      37.545  30.360  29.740  1.00  0.00     0.034 A 
ATOM     59  C   UNL A   1      42.543  29.063  33.895  1.00  0.00     0.049 A 
ATOM     60  C   UNL A   1      37.874  30.780  31.144  1.00  0.00     0.074 A 
ATOM     61  C   UNL A   1      42.712  29.566  35.170  1.00  0.00     0.029 A 
ATOM     62  N   UNL A   1      41.368  29.610  33.397  1.00  0.00    -0.354 N 
ATOM     63  N   UNL A   1      38.929  30.485  31.868  1.00  0.00    -0.248 NA
ATOM     64  C   UNL A   1      36.917  31.672  31.804  1.00  0.00     0.031 C 
ATOM     65  C   UNL A   1      41.618  30.390  35.455  1.00  0.00     0.029 A 
ATOM     66  C   UNL A   1      40.790  30.436  34.342  1.00  0.00     0.049 A 
ATOM     67  H   UNL A   1      41.000  29.435  32.500  1.00  0.00     0.167 HD
ATOM     68  C   UNL A   1      38.778  31.176  33.062  1.00  0.00     0.074 A 
ATOM     69  C   UNL A   1      37.542  31.929  32.944  1.00  0.00     0.031 C 
ATOM     70  C   UNL A   1      39.569  31.183  34.165  1.00  0.00     0.034 A 
BRANCH  57  71
ATOM     71  C   UNL A   1      44.608  27.581  33.835  1.00  0.00     0.023 A 
ATOM     72  C   UNL A   1      45.813  28.313  33.836  1.00  0.00     0.012 A 
ATOM     73  C   UNL A   1      44.564  26.328  34.477  1.00  0.00     0.148 A 
ATOM     74  C   UNL A   1      46.961  27.794  34.438  1.00  0.00     0.002 A 
ATOM     75  C   UNL A   1      45.698  25.838  35.115  1.00  0.00     0.091 A 
ATOM     76  F   UNL A   1      43.420  25.630  34.438  1.00  0.00    -0.205 F 
ATOM     77  C   UNL A   1      46.900  26.564  35.085  1.00  0.00     0.022 A 
BRANCH  75  78
ATOM     78  S   UNL A   1      45.704  24.297  36.036  1.00  0.00     0.127 S 
ATOM     79  O   UNL A   1      46.695  24.575  37.074  1.00  0.00    -0.237 OA
ATOM     80  O   UNL A   1      44.323  24.224  36.516  1.00  0.00    -0.237 OA
ATOM     81  O   UNL A   1      46.074  23.259  35.084  1.00  0.00    -0.744 OA
ENDBRANCH  75  78
ENDBRANCH  57  71
BRANCH  58  82
ATOM     82  C   UNL A   1      36.313  30.806  29.039  1.00  0.00     0.023 A 
ATOM     83  C   UNL A   1      35.430  29.861  28.488  1.00  0.00     0.012 A 
ATOM     84  C   UNL A   1      35.990  32.177  28.964  1.00  0.00     0.148 A 
ATOM     85  C   UNL A   1      34.260  30.272  27.848  1.00  0.00     0.002 A 
ATOM     86  C   UNL A   1      34.796  32.576  28.376  1.00  0.00     0.091 A 
ATOM     87  F   UNL A   1      36.849  33.062  29.487  1.00  0.00    -0.205 F 
ATOM     88  C   UNL A   1      33.938  31.627  27.802  1.00  0.00     0.022 A 
BRANCH  86  89
ATOM     89  S   UNL A   1      34.244  34.285  28.394  1.00  0.00     0.127 S 
ATOM     90  O   UNL A   1      34.881  34.816  27.192  1.00  0.00    -0.237 OA
ATOM     91  O   UNL A   1      32.791  34.133  28.307  1.00  0.00    -0.237 OA
ATOM     92  O   UNL A   1      34.715  34.838  29.657  1.00  0.00    -0.744 OA
ENDBRANCH  86  89
ENDBRANCH  58  82
BRANCH  70  93
ATOM     93  C   UNL A   1      39.123  32.052  35.308  1.00  0.00     0.023 A 
ATOM     94  C   UNL A   1      38.210  31.550  36.257  1.00  0.00     0.012 A 
ATOM     95  C   UNL A   1      39.639  33.353  35.459  1.00  0.00     0.148 A 
ATOM     96  C   UNL A   1      37.775  32.352  37.309  1.00  0.00     0.002 A 
ATOM     97  C   UNL A   1      39.246  34.123  36.543  1.00  0.00     0.091 A 
ATOM     98  F   UNL A   1      40.494  33.815  34.535  1.00  0.00    -0.205 F 
ATOM     99  C   UNL A   1      38.300  33.633  37.458  1.00  0.00     0.022 A 
BRANCH  97 100
ATOM    100  S   UNL A   1      39.953  35.740  36.872  1.00  0.00     0.127 S 
ATOM    101  O   UNL A   1      41.375  35.424  37.000  1.00  0.00    -0.237 OA
ATOM    102  O   UNL A   1      39.599  36.485  35.663  1.00  0.00    -0.237 OA
ATOM    103  O   UNL A   1      39.305  36.221  38.085  1.00  0.00    -0.744 OA
ENDBRANCH  97 100
ENDBRANCH  70  93
ENDBRANCH  44  45
ENDBRANCH  37  39
ENDBRANCH  36  37
ENDBRANCH  35  36
ENDBRANCH  34  35
ENDBRANCH  33  34
ENDBRANCH  32  33
ENDBRANCH  31  32
ENDBRANCH  30  31
ENDBRANCH   1  30
TORSDOF 27
ENDMDL
