MODEL 1
REMARK VINA RESULT:      -6.7      0.000      0.000
REMARK SMILES O=C(OCCOCCOCCOCCOC(=O)c1cc(N2CCN(c3ccc(F)cc3)CC2)ccc1NC(=O)C1CCCC1)c1ccc(-c2c3nc(c(-c4cccc(S(=O)(=O)[O-])c4F)c4ccc([nH]4)c(-c4cccc(S(=O)(=O)[O-])c4F)c4nc(c(-c5cccc(S(=O)(=O)[O-])c5F)c5ccc2[nH]5)C=C4)C=C3)cc1
REMARK SMILES IDX 8 1 7 2 6 3 5 4 4 5 3 6 2 7 1 8 45 9 46 10 107 11 47 12
REMARK SMILES IDX 106 13 48 14 49 15 50 16 100 17 51 18 105 19 99 20 101 21
REMARK SMILES IDX 52 22 104 23 98 24 97 25 53 27 85 28 65 29 84 30 66 31 69 32
REMARK SMILES IDX 83 33 102 34 67 35 68 36 82 38 103 39 70 40 54 41 55 42
REMARK SMILES IDX 63 43 56 44 58 45 64 46 57 47 59 48 60 49 61 50 62 51 86 52
REMARK SMILES IDX 87 53 95 54 88 55 90 56 96 57 89 58 91 59 92 60 93 61 94 62
REMARK SMILES IDX 71 63 72 64 80 65 73 66 75 67 81 68 74 69 76 70 77 71 78 72
REMARK SMILES IDX 79 73 9 74 10 75 11 76 12 77 13 78 14 79 15 80 16 81 17 82
REMARK SMILES IDX 18 83 19 84 36 85 20 86 35 87 34 88 37 89 38 90 39 92 40 93
REMARK SMILES IDX 41 94 44 95 42 96 43 97 21 98 22 99 33 100 23 101 32 102
REMARK SMILES IDX 24 103 25 104 26 105 31 106 27 107 30 108 28 109 29 110
REMARK H PARENT 101 26 69 37 37 91
REMARK Flexibility Score: inf
ROOT
ATOM      1  C   UNL A   1      54.036  30.037  32.706  1.00  0.00     0.188 C 
ENDROOT
BRANCH   1   2
ATOM      2  C   UNL A   1      54.312  28.534  32.614  1.00  0.00     0.188 C 
BRANCH   2   3
ATOM      3  O   UNL A   1      53.282  27.789  33.271  1.00  0.00    -0.376 OA
BRANCH   3   4
ATOM      4  C   UNL A   1      52.931  28.233  34.581  1.00  0.00     0.202 C 
BRANCH   4   5
ATOM      5  C   UNL A   1      51.710  27.533  35.175  1.00  0.00     0.261 C 
BRANCH   5   6
ATOM      6  O   UNL A   1      50.488  28.116  34.710  1.00  0.00    -0.460 OA
BRANCH   6   7
ATOM      7  C   UNL A   1      49.707  27.676  33.689  1.00  0.00     0.338 C 
ATOM      8  O   UNL A   1      50.218  26.916  32.868  1.00  0.00    -0.246 OA
BRANCH   7   9
ATOM      9  C   UNL A   1      48.262  28.037  33.511  1.00  0.00     0.060 A 
ATOM     10  C   UNL A   1      47.178  27.491  34.211  1.00  0.00     0.016 A 
ATOM     11  C   UNL A   1      47.991  29.061  32.589  1.00  0.00     0.016 A 
ATOM     12  C   UNL A   1      45.870  27.887  33.967  1.00  0.00     0.010 A 
ATOM     13  C   UNL A   1      46.681  29.471  32.338  1.00  0.00     0.010 A 
ATOM     14  C   UNL A   1      45.618  28.852  33.003  1.00  0.00    -0.014 A 
BRANCH  14  15
ATOM     15  C   UNL A   1      44.239  29.022  32.529  1.00  0.00     0.031 A 
ATOM     16  C   UNL A   1      43.855  28.277  31.289  1.00  0.00     0.074 A 
ATOM     17  C   UNL A   1      43.363  29.768  33.218  1.00  0.00     0.049 A 
ATOM     18  N   UNL A   1      42.783  28.379  30.559  1.00  0.00    -0.248 NA
ATOM     19  C   UNL A   1      44.825  27.276  30.806  1.00  0.00     0.031 C 
ATOM     20  C   UNL A   1      43.636  30.421  34.498  1.00  0.00     0.029 A 
ATOM     21  N   UNL A   1      42.075  30.120  32.922  1.00  0.00    -0.354 N 
ATOM     22  C   UNL A   1      42.985  27.520  29.487  1.00  0.00     0.074 A 
ATOM     23  C   UNL A   1      44.262  26.875  29.678  1.00  0.00     0.031 C 
ATOM     24  C   UNL A   1      42.557  31.134  34.859  1.00  0.00     0.029 A 
ATOM     25  C   UNL A   1      41.554  31.038  33.803  1.00  0.00     0.049 A 
ATOM     26  H   UNL A   1      41.572  29.755  32.159  1.00  0.00     0.167 HD
ATOM     27  C   UNL A   1      42.175  27.313  28.425  1.00  0.00     0.034 A 
ATOM     28  C   UNL A   1      40.422  31.764  33.715  1.00  0.00     0.034 A 
ATOM     29  C   UNL A   1      40.911  27.975  28.281  1.00  0.00     0.049 A 
ATOM     30  C   UNL A   1      39.546  31.550  32.510  1.00  0.00     0.074 A 
ATOM     31  C   UNL A   1      39.997  27.885  27.252  1.00  0.00     0.029 A 
ATOM     32  N   UNL A   1      40.392  28.869  29.212  1.00  0.00    -0.354 N 
ATOM     33  N   UNL A   1      39.731  30.737  31.494  1.00  0.00    -0.248 NA
ATOM     34  C   UNL A   1      38.306  32.331  32.435  1.00  0.00     0.031 C 
ATOM     35  C   UNL A   1      38.936  28.748  27.548  1.00  0.00     0.029 A 
ATOM     36  C   UNL A   1      39.171  29.344  28.781  1.00  0.00     0.049 A 
ATOM     37  H   UNL A   1      40.832  29.125  30.055  1.00  0.00     0.167 HD
ATOM     38  C   UNL A   1      38.620  30.884  30.675  1.00  0.00     0.074 A 
ATOM     39  C   UNL A   1      37.762  31.861  31.319  1.00  0.00     0.031 C 
ATOM     40  C   UNL A   1      38.332  30.277  29.496  1.00  0.00     0.034 A 
BRANCH  27  41
ATOM     41  C   UNL A   1      42.682  26.396  27.348  1.00  0.00     0.023 A 
ATOM     42  C   UNL A   1      43.493  26.896  26.307  1.00  0.00     0.012 A 
ATOM     43  C   UNL A   1      42.297  25.041  27.331  1.00  0.00     0.148 A 
ATOM     44  C   UNL A   1      43.864  26.077  25.241  1.00  0.00     0.002 A 
ATOM     45  C   UNL A   1      42.709  24.220  26.288  1.00  0.00     0.091 A 
ATOM     46  F   UNL A   1      41.497  24.591  28.307  1.00  0.00    -0.205 F 
ATOM     47  C   UNL A   1      43.476  24.739  25.234  1.00  0.00     0.022 A 
BRANCH  45  48
ATOM     48  S   UNL A   1      42.306  22.471  26.224  1.00  0.00     0.127 S 
ATOM     49  O   UNL A   1      42.917  21.981  27.459  1.00  0.00    -0.237 OA
ATOM     50  O   UNL A   1      40.843  22.492  26.235  1.00  0.00    -0.237 OA
ATOM     51  O   UNL A   1      42.893  21.971  24.989  1.00  0.00    -0.744 OA
ENDBRANCH  45  48
ENDBRANCH  27  41
BRANCH  28  52
ATOM     52  C   UNL A   1      40.093  32.748  34.784  1.00  0.00     0.023 A 
ATOM     53  C   UNL A   1      40.486  34.093  34.645  1.00  0.00     0.012 A 
ATOM     54  C   UNL A   1      39.316  32.374  35.900  1.00  0.00     0.148 A 
ATOM     55  C   UNL A   1      40.117  35.043  35.600  1.00  0.00     0.002 A 
ATOM     56  C   UNL A   1      38.905  33.336  36.816  1.00  0.00     0.091 A 
ATOM     57  F   UNL A   1      38.964  31.087  36.024  1.00  0.00    -0.205 F 
ATOM     58  C   UNL A   1      39.316  34.669  36.676  1.00  0.00     0.022 A 
BRANCH  56  59
ATOM     59  S   UNL A   1      37.760  32.972  38.154  1.00  0.00     0.127 S 
ATOM     60  O   UNL A   1      36.472  33.019  37.467  1.00  0.00    -0.237 OA
ATOM     61  O   UNL A   1      38.193  31.635  38.562  1.00  0.00    -0.237 OA
ATOM     62  O   UNL A   1      37.978  34.007  39.155  1.00  0.00    -0.744 OA
ENDBRANCH  56  59
ENDBRANCH  28  52
BRANCH  40  63
ATOM     63  C   UNL A   1      37.015  30.601  28.850  1.00  0.00     0.023 A 
ATOM     64  C   UNL A   1      36.107  29.569  28.551  1.00  0.00     0.012 A 
ATOM     65  C   UNL A   1      36.628  31.945  28.691  1.00  0.00     0.148 A 
ATOM     66  C   UNL A   1      34.826  29.874  28.094  1.00  0.00     0.002 A 
ATOM     67  C   UNL A   1      35.336  32.241  28.286  1.00  0.00     0.091 A 
ATOM     68  F   UNL A   1      37.525  32.905  28.969  1.00  0.00    -0.205 F 
ATOM     69  C   UNL A   1      34.436  31.208  27.978  1.00  0.00     0.022 A 
BRANCH  67  70
ATOM     70  S   UNL A   1      34.713  33.924  28.226  1.00  0.00     0.127 S 
ATOM     71  O   UNL A   1      33.275  33.703  28.073  1.00  0.00    -0.237 OA
ATOM     72  O   UNL A   1      35.115  34.449  29.531  1.00  0.00    -0.237 OA
ATOM     73  O   UNL A   1      35.368  34.558  27.091  1.00  0.00    -0.744 OA
ENDBRANCH  67  70
ENDBRANCH  40  63
ENDBRANCH  14  15
ENDBRANCH   7   9
ENDBRANCH   6   7
ENDBRANCH   5   6
ENDBRANCH   4   5
ENDBRANCH   3   4
ENDBRANCH   2   3
ENDBRANCH   1   2
BRANCH   1  74
ATOM     74  O   UNL A   1      53.064  30.525  31.777  1.00  0.00    -0.377 OA
BRANCH  74  75
ATOM     75  C   UNL A   1      51.777  30.805  32.319  1.00  0.00     0.188 C 
BRANCH  75  76
ATOM     76  C   UNL A   1      50.681  31.362  31.387  1.00  0.00     0.188 C 
BRANCH  76  77
ATOM     77  O   UNL A   1      50.598  32.778  31.370  1.00  0.00    -0.376 OA
BRANCH  77  78
ATOM     78  C   UNL A   1      49.326  33.317  31.022  1.00  0.00     0.202 C 
BRANCH  78  79
ATOM     79  C   UNL A   1      48.262  33.267  32.129  1.00  0.00     0.261 C 
BRANCH  79  80
ATOM     80  O   UNL A   1      47.070  32.536  31.790  1.00  0.00    -0.460 OA
BRANCH  80  81
ATOM     81  C   UNL A   1      45.973  33.203  31.363  1.00  0.00     0.340 C 
ATOM     82  O   UNL A   1      45.616  34.319  31.696  1.00  0.00    -0.246 OA
BRANCH  81  83
ATOM     83  C   UNL A   1      45.414  32.430  30.219  1.00  0.00     0.085 A 
ATOM     84  C   UNL A   1      46.323  31.765  29.378  1.00  0.00     0.043 A 
ATOM     85  C   UNL A   1      44.035  32.226  30.045  1.00  0.00     0.055 A 
ATOM     86  C   UNL A   1      45.890  30.802  28.452  1.00  0.00     0.038 A 
ATOM     87  C   UNL A   1      43.597  31.268  29.123  1.00  0.00     0.029 A 
ATOM     88  C   UNL A   1      44.519  30.552  28.352  1.00  0.00     0.028 A 
BRANCH  85  89
ATOM     89  N   UNL A   1      43.110  32.937  30.826  1.00  0.00    -0.325 N 
ATOM     90  C   UNL A   1      42.342  34.013  30.476  1.00  0.00     0.227 C 
ATOM     91  H   UNL A   1      42.999  32.617  31.751  1.00  0.00     0.169 HD
ATOM     92  O   UNL A   1      41.528  34.455  31.289  1.00  0.00    -0.274 OA
BRANCH  90  93
ATOM     93  C   UNL A   1      42.531  34.653  29.103  1.00  0.00     0.079 C 
ATOM     94  C   UNL A   1      41.354  35.549  28.715  1.00  0.00     0.013 C 
ATOM     95  C   UNL A   1      43.688  35.651  29.007  1.00  0.00     0.013 C 
ATOM     96  C   UNL A   1      41.886  36.384  27.556  1.00  0.00     0.001 C 
ATOM     97  C   UNL A   1      43.401  36.424  27.730  1.00  0.00     0.001 C 
ENDBRANCH  90  93
ENDBRANCH  85  89
BRANCH  86  98
ATOM     98  N   UNL A   1      46.803  30.115  27.689  1.00  0.00    -0.368 N 
ATOM     99  C   UNL A   1      48.011  30.739  27.123  1.00  0.00     0.138 C 
ATOM    100  C   UNL A   1      46.743  28.648  27.645  1.00  0.00     0.138 C 
ATOM    101  C   UNL A   1      49.318  30.094  27.654  1.00  0.00     0.138 C 
ATOM    102  C   UNL A   1      48.029  28.045  28.250  1.00  0.00     0.138 C 
ATOM    103  N   UNL A   1      49.233  28.623  27.630  1.00  0.00    -0.368 N 
BRANCH 103 104
ATOM    104  C   UNL A   1      50.094  27.866  26.868  1.00  0.00     0.037 A 
ATOM    105  C   UNL A   1      49.664  26.668  26.276  1.00  0.00     0.029 A 
ATOM    106  C   UNL A   1      51.419  28.267  26.634  1.00  0.00     0.029 A 
ATOM    107  C   UNL A   1      50.512  25.914  25.458  1.00  0.00     0.041 A 
ATOM    108  C   UNL A   1      52.279  27.510  25.833  1.00  0.00     0.041 A 
ATOM    109  C   UNL A   1      51.814  26.344  25.244  1.00  0.00     0.123 A 
ATOM    110  F   UNL A   1      52.628  25.628  24.459  1.00  0.00    -0.207 F 
ENDBRANCH 103 104
ENDBRANCH  86  98
ENDBRANCH  81  83
ENDBRANCH  80  81
ENDBRANCH  79  80
ENDBRANCH  78  79
ENDBRANCH  77  78
ENDBRANCH  76  77
ENDBRANCH  75  76
ENDBRANCH  74  75
ENDBRANCH   1  74
TORSDOF 27
ENDMDL
MODEL 2
REMARK VINA RESULT:      -6.6      4.548      9.308
REMARK SMILES O=C(OCCOCCOCCOCCOC(=O)c1cc(N2CCN(c3ccc(F)cc3)CC2)ccc1NC(=O)C1CCCC1)c1ccc(-c2c3nc(c(-c4cccc(S(=O)(=O)[O-])c4F)c4ccc([nH]4)c(-c4cccc(S(=O)(=O)[O-])c4F)c4nc(c(-c5cccc(S(=O)(=O)[O-])c5F)c5ccc2[nH]5)C=C4)C=C3)cc1
REMARK SMILES IDX 8 1 7 2 6 3 5 4 4 5 3 6 2 7 1 8 45 9 46 10 107 11 47 12
REMARK SMILES IDX 106 13 48 14 49 15 50 16 100 17 51 18 105 19 99 20 101 21
REMARK SMILES IDX 52 22 104 23 98 24 97 25 53 27 85 28 65 29 84 30 66 31 69 32
REMARK SMILES IDX 83 33 102 34 67 35 68 36 82 38 103 39 70 40 54 41 55 42
REMARK SMILES IDX 63 43 56 44 58 45 64 46 57 47 59 48 60 49 61 50 62 51 86 52
REMARK SMILES IDX 87 53 95 54 88 55 90 56 96 57 89 58 91 59 92 60 93 61 94 62
REMARK SMILES IDX 71 63 72 64 80 65 73 66 75 67 81 68 74 69 76 70 77 71 78 72
REMARK SMILES IDX 79 73 9 74 10 75 11 76 12 77 13 78 14 79 15 80 16 81 17 82
REMARK SMILES IDX 18 83 19 84 36 85 20 86 35 87 34 88 37 89 38 90 39 92 40 93
REMARK SMILES IDX 41 94 44 95 42 96 43 97 21 98 22 99 33 100 23 101 32 102
REMARK SMILES IDX 24 103 25 104 26 105 31 106 27 107 30 108 28 109 29 110
REMARK H PARENT 101 26 69 37 37 91
REMARK Flexibility Score: inf
ROOT
ATOM      1  C   UNL A   1      47.363  28.189  26.422  1.00  0.00     0.188 C 
ENDROOT
BRANCH   1   2
ATOM      2  C   UNL A   1      47.537  26.672  26.521  1.00  0.00     0.188 C 
BRANCH   2   3
ATOM      3  O   UNL A   1      48.840  26.343  27.014  1.00  0.00    -0.376 OA
BRANCH   3   4
ATOM      4  C   UNL A   1      48.909  25.225  27.897  1.00  0.00     0.202 C 
BRANCH   4   5
ATOM      5  C   UNL A   1      49.083  25.596  29.368  1.00  0.00     0.261 C 
BRANCH   5   6
ATOM      6  O   UNL A   1      47.836  25.581  30.069  1.00  0.00    -0.460 OA
BRANCH   6   7
ATOM      7  C   UNL A   1      47.566  26.147  31.274  1.00  0.00     0.338 C 
ATOM      8  O   UNL A   1      47.942  25.549  32.281  1.00  0.00    -0.246 OA
BRANCH   7   9
ATOM      9  C   UNL A   1      46.864  27.461  31.456  1.00  0.00     0.060 A 
ATOM     10  C   UNL A   1      45.799  27.946  30.686  1.00  0.00     0.016 A 
ATOM     11  C   UNL A   1      47.291  28.243  32.541  1.00  0.00     0.016 A 
ATOM     12  C   UNL A   1      45.218  29.183  30.930  1.00  0.00     0.010 A 
ATOM     13  C   UNL A   1      46.713  29.487  32.800  1.00  0.00     0.010 A 
ATOM     14  C   UNL A   1      45.701  29.971  31.965  1.00  0.00    -0.014 A 
BRANCH  14  15
ATOM     15  C   UNL A   1      45.312  31.386  32.005  1.00  0.00     0.031 A 
ATOM     16  C   UNL A   1      46.115  32.331  31.169  1.00  0.00     0.074 A 
ATOM     17  C   UNL A   1      44.249  31.785  32.720  1.00  0.00     0.049 A 
ATOM     18  N   UNL A   1      46.111  33.632  31.151  1.00  0.00    -0.248 NA
ATOM     19  C   UNL A   1      47.061  31.715  30.219  1.00  0.00     0.031 C 
ATOM     20  C   UNL A   1      43.349  30.900  33.459  1.00  0.00     0.029 A 
ATOM     21  N   UNL A   1      43.764  33.042  32.958  1.00  0.00    -0.354 N 
ATOM     22  C   UNL A   1      47.107  33.991  30.254  1.00  0.00     0.074 A 
ATOM     23  C   UNL A   1      47.671  32.776  29.718  1.00  0.00     0.031 C 
ATOM     24  C   UNL A   1      42.441  31.648  34.107  1.00  0.00     0.029 A 
ATOM     25  C   UNL A   1      42.744  33.058  33.880  1.00  0.00     0.049 A 
ATOM     26  H   UNL A   1      44.108  33.851  32.516  1.00  0.00     0.167 HD
ATOM     27  C   UNL A   1      47.524  35.236  29.931  1.00  0.00     0.034 A 
ATOM     28  C   UNL A   1      42.178  34.103  34.513  1.00  0.00     0.034 A 
ATOM     29  C   UNL A   1      46.928  36.415  30.488  1.00  0.00     0.049 A 
ATOM     30  C   UNL A   1      42.675  35.482  34.170  1.00  0.00     0.074 A 
ATOM     31  C   UNL A   1      47.260  37.737  30.275  1.00  0.00     0.029 A 
ATOM     32  N   UNL A   1      45.869  36.400  31.388  1.00  0.00    -0.354 N 
ATOM     33  N   UNL A   1      43.616  35.828  33.321  1.00  0.00    -0.248 NA
ATOM     34  C   UNL A   1      42.036  36.614  34.851  1.00  0.00     0.031 C 
ATOM     35  C   UNL A   1      46.416  38.521  31.070  1.00  0.00     0.029 A 
ATOM     36  C   UNL A   1      45.534  37.688  31.747  1.00  0.00     0.049 A 
ATOM     37  H   UNL A   1      45.423  35.587  31.721  1.00  0.00     0.167 HD
ATOM     38  C   UNL A   1      43.663  37.215  33.340  1.00  0.00     0.074 A 
ATOM     39  C   UNL A   1      42.648  37.647  34.283  1.00  0.00     0.031 C 
ATOM     40  C   UNL A   1      44.471  38.060  32.651  1.00  0.00     0.034 A 
BRANCH  27  41
ATOM     41  C   UNL A   1      48.698  35.342  28.998  1.00  0.00     0.023 A 
ATOM     42  C   UNL A   1      48.508  35.275  27.602  1.00  0.00     0.012 A 
ATOM     43  C   UNL A   1      50.006  35.442  29.512  1.00  0.00     0.148 A 
ATOM     44  C   UNL A   1      49.603  35.250  26.737  1.00  0.00     0.002 A 
ATOM     45  C   UNL A   1      51.089  35.462  28.641  1.00  0.00     0.091 A 
ATOM     46  F   UNL A   1      50.170  35.468  30.842  1.00  0.00    -0.205 F 
ATOM     47  C   UNL A   1      50.892  35.348  27.257  1.00  0.00     0.022 A 
BRANCH  45  48
ATOM     48  S   UNL A   1      52.781  35.644  29.216  1.00  0.00     0.127 S 
ATOM     49  O   UNL A   1      52.940  34.454  30.051  1.00  0.00    -0.237 OA
ATOM     50  O   UNL A   1      53.536  35.614  27.962  1.00  0.00    -0.237 OA
ATOM     51  O   UNL A   1      52.829  36.918  29.919  1.00  0.00    -0.744 OA
ENDBRANCH  45  48
ENDBRANCH  27  41
BRANCH  28  52
ATOM     52  C   UNL A   1      41.112  33.862  35.526  1.00  0.00     0.023 A 
ATOM     53  C   UNL A   1      41.417  33.937  36.898  1.00  0.00     0.012 A 
ATOM     54  C   UNL A   1      39.775  33.641  35.133  1.00  0.00     0.148 A 
ATOM     55  C   UNL A   1      40.414  33.791  37.858  1.00  0.00     0.002 A 
ATOM     56  C   UNL A   1      38.773  33.554  36.093  1.00  0.00     0.091 A 
ATOM     57  F   UNL A   1      39.505  33.557  33.823  1.00  0.00    -0.205 F 
ATOM     58  C   UNL A   1      39.092  33.614  37.457  1.00  0.00     0.022 A 
BRANCH  56  59
ATOM     59  S   UNL A   1      37.028  33.465  35.666  1.00  0.00     0.127 S 
ATOM     60  O   UNL A   1      36.398  33.447  36.983  1.00  0.00    -0.237 OA
ATOM     61  O   UNL A   1      36.842  34.705  34.911  1.00  0.00    -0.237 OA
ATOM     62  O   UNL A   1      36.875  32.250  34.877  1.00  0.00    -0.744 OA
ENDBRANCH  56  59
ENDBRANCH  28  52
BRANCH  40  63
ATOM     63  C   UNL A   1      44.259  39.535  32.841  1.00  0.00     0.023 A 
ATOM     64  C   UNL A   1      43.257  40.200  32.110  1.00  0.00     0.012 A 
ATOM     65  C   UNL A   1      44.953  40.214  33.860  1.00  0.00     0.148 A 
ATOM     66  C   UNL A   1      42.954  41.531  32.390  1.00  0.00     0.002 A 
ATOM     67  C   UNL A   1      44.609  41.522  34.167  1.00  0.00     0.091 A 
ATOM     68  F   UNL A   1      45.914  39.556  34.526  1.00  0.00    -0.205 F 
ATOM     69  C   UNL A   1      43.616  42.185  33.428  1.00  0.00     0.022 A 
BRANCH  67  70
ATOM     70  S   UNL A   1      45.324  42.397  35.562  1.00  0.00     0.127 S 
ATOM     71  O   UNL A   1      46.750  42.125  35.385  1.00  0.00    -0.237 OA
ATOM     72  O   UNL A   1      44.928  43.780  35.295  1.00  0.00    -0.237 OA
ATOM     73  O   UNL A   1      44.724  41.816  36.755  1.00  0.00    -0.744 OA
ENDBRANCH  67  70
ENDBRANCH  40  63
ENDBRANCH  14  15
ENDBRANCH   7   9
ENDBRANCH   6   7
ENDBRANCH   5   6
ENDBRANCH   4   5
ENDBRANCH   3   4
ENDBRANCH   2   3
ENDBRANCH   1   2
BRANCH   1  74
ATOM     74  O   UNL A   1      46.302  28.724  27.218  1.00  0.00    -0.377 OA
BRANCH  74  75
ATOM     75  C   UNL A   1      45.193  29.252  26.499  1.00  0.00     0.188 C 
BRANCH  75  76
ATOM     76  C   UNL A   1      44.359  30.382  27.138  1.00  0.00     0.188 C 
BRANCH  76  77
ATOM     77  O   UNL A   1      43.326  29.927  27.997  1.00  0.00    -0.376 OA
BRANCH  77  78
ATOM     78  C   UNL A   1      42.273  29.205  27.367  1.00  0.00     0.202 C 
BRANCH  78  79
ATOM     79  C   UNL A   1      41.232  28.593  28.316  1.00  0.00     0.261 C 
BRANCH  79  80
ATOM     80  O   UNL A   1      40.540  29.542  29.148  1.00  0.00    -0.460 OA
BRANCH  80  81
ATOM     81  C   UNL A   1      41.040  29.856  30.366  1.00  0.00     0.340 C 
ATOM     82  O   UNL A   1      41.703  29.139  31.095  1.00  0.00    -0.246 OA
BRANCH  81  83
ATOM     83  C   UNL A   1      40.847  31.322  30.549  1.00  0.00     0.085 A 
ATOM     84  C   UNL A   1      41.846  32.175  30.048  1.00  0.00     0.043 A 
ATOM     85  C   UNL A   1      39.660  31.871  31.060  1.00  0.00     0.055 A 
ATOM     86  C   UNL A   1      41.631  33.557  29.929  1.00  0.00     0.038 A 
ATOM     87  C   UNL A   1      39.440  33.249  30.943  1.00  0.00     0.029 A 
ATOM     88  C   UNL A   1      40.409  34.076  30.366  1.00  0.00     0.028 A 
BRANCH  85  89
ATOM     89  N   UNL A   1      38.683  31.041  31.630  1.00  0.00    -0.325 N 
ATOM     90  C   UNL A   1      37.577  30.491  31.043  1.00  0.00     0.227 C 
ATOM     91  H   UNL A   1      38.812  30.823  32.582  1.00  0.00     0.169 HD
ATOM     92  O   UNL A   1      36.873  29.722  31.700  1.00  0.00    -0.274 OA
BRANCH  90  93
ATOM     93  C   UNL A   1      37.228  30.867  29.606  1.00  0.00     0.079 C 
ATOM     94  C   UNL A   1      36.583  29.707  28.845  1.00  0.00     0.013 C 
ATOM     95  C   UNL A   1      36.142  31.936  29.460  1.00  0.00     0.013 C 
ATOM     96  C   UNL A   1      35.959  30.364  27.619  1.00  0.00     0.001 C 
ATOM     97  C   UNL A   1      35.702  31.816  28.009  1.00  0.00     0.001 C 
ENDBRANCH  90  93
ENDBRANCH  85  89
BRANCH  86  98
ATOM     98  N   UNL A   1      42.595  34.363  29.372  1.00  0.00    -0.368 N 
ATOM     99  C   UNL A   1      43.177  34.120  28.041  1.00  0.00     0.138 C 
ATOM    100  C   UNL A   1      42.880  35.669  29.981  1.00  0.00     0.138 C 
ATOM    101  C   UNL A   1      42.911  35.285  27.054  1.00  0.00     0.138 C 
ATOM    102  C   UNL A   1      42.532  36.803  28.994  1.00  0.00     0.138 C 
ATOM    103  N   UNL A   1      43.173  36.590  27.687  1.00  0.00    -0.368 N 
BRANCH 103 104
ATOM    104  C   UNL A   1      44.143  37.440  27.204  1.00  0.00     0.037 A 
ATOM    105  C   UNL A   1      43.834  38.771  26.884  1.00  0.00     0.029 A 
ATOM    106  C   UNL A   1      45.473  37.023  27.037  1.00  0.00     0.029 A 
ATOM    107  C   UNL A   1      44.818  39.661  26.441  1.00  0.00     0.041 A 
ATOM    108  C   UNL A   1      46.460  37.900  26.576  1.00  0.00     0.041 A 
ATOM    109  C   UNL A   1      46.124  39.215  26.292  1.00  0.00     0.123 A 
ATOM    110  F   UNL A   1      47.070  40.064  25.872  1.00  0.00    -0.207 F 
ENDBRANCH 103 104
ENDBRANCH  86  98
ENDBRANCH  81  83
ENDBRANCH  80  81
ENDBRANCH  79  80
ENDBRANCH  78  79
ENDBRANCH  77  78
ENDBRANCH  76  77
ENDBRANCH  75  76
ENDBRANCH  74  75
ENDBRANCH   1  74
TORSDOF 27
ENDMDL
MODEL 3
REMARK VINA RESULT:      -6.5      4.499     10.393
REMARK SMILES O=C(OCCOCCOCCOCCOC(=O)c1cc(N2CCN(c3ccc(F)cc3)CC2)ccc1NC(=O)C1CCCC1)c1ccc(-c2c3nc(c(-c4cccc(S(=O)(=O)[O-])c4F)c4ccc([nH]4)c(-c4cccc(S(=O)(=O)[O-])c4F)c4nc(c(-c5cccc(S(=O)(=O)[O-])c5F)c5ccc2[nH]5)C=C4)C=C3)cc1
REMARK SMILES IDX 8 1 7 2 6 3 5 4 4 5 3 6 2 7 1 8 45 9 46 10 107 11 47 12
REMARK SMILES IDX 106 13 48 14 49 15 50 16 100 17 51 18 105 19 99 20 101 21
REMARK SMILES IDX 52 22 104 23 98 24 97 25 53 27 85 28 65 29 84 30 66 31 69 32
REMARK SMILES IDX 83 33 102 34 67 35 68 36 82 38 103 39 70 40 54 41 55 42
REMARK SMILES IDX 63 43 56 44 58 45 64 46 57 47 59 48 60 49 61 50 62 51 86 52
REMARK SMILES IDX 87 53 95 54 88 55 90 56 96 57 89 58 91 59 92 60 93 61 94 62
REMARK SMILES IDX 71 63 72 64 80 65 73 66 75 67 81 68 74 69 76 70 77 71 78 72
REMARK SMILES IDX 79 73 9 74 10 75 11 76 12 77 13 78 14 79 15 80 16 81 17 82
REMARK SMILES IDX 18 83 19 84 36 85 20 86 35 87 34 88 37 89 38 90 39 92 40 93
REMARK SMILES IDX 41 94 44 95 42 96 43 97 21 98 22 99 33 100 23 101 32 102
REMARK SMILES IDX 24 103 25 104 26 105 31 106 27 107 30 108 28 109 29 110
REMARK H PARENT 101 26 69 37 37 91
REMARK Flexibility Score: inf
ROOT
ATOM      1  C   UNL A   1      46.813  28.786  26.855  1.00  0.00     0.188 C 
ENDROOT
BRANCH   1   2
ATOM      2  C   UNL A   1      46.861  27.284  27.147  1.00  0.00     0.188 C 
BRANCH   2   3
ATOM      3  O   UNL A   1      48.172  26.891  27.567  1.00  0.00    -0.376 OA
BRANCH   3   4
ATOM      4  C   UNL A   1      48.269  25.613  28.193  1.00  0.00     0.202 C 
BRANCH   4   5
ATOM      5  C   UNL A   1      49.060  25.613  29.500  1.00  0.00     0.261 C 
BRANCH   5   6
ATOM      6  O   UNL A   1      48.201  25.502  30.639  1.00  0.00    -0.460 OA
BRANCH   6   7
ATOM      7  C   UNL A   1      48.287  26.199  31.801  1.00  0.00     0.338 C 
ATOM      8  O   UNL A   1      48.874  25.668  32.742  1.00  0.00    -0.246 OA
BRANCH   7   9
ATOM      9  C   UNL A   1      47.735  27.580  32.005  1.00  0.00     0.060 A 
ATOM     10  C   UNL A   1      46.783  28.220  31.202  1.00  0.00     0.016 A 
ATOM     11  C   UNL A   1      48.186  28.261  33.148  1.00  0.00     0.016 A 
ATOM     12  C   UNL A   1      46.339  29.508  31.471  1.00  0.00     0.010 A 
ATOM     13  C   UNL A   1      47.745  29.554  33.432  1.00  0.00     0.010 A 
ATOM     14  C   UNL A   1      46.848  30.189  32.567  1.00  0.00    -0.014 A 
BRANCH  14  15
ATOM     15  C   UNL A   1      46.628  31.639  32.652  1.00  0.00     0.031 A 
ATOM     16  C   UNL A   1      45.539  32.103  33.567  1.00  0.00     0.074 A 
ATOM     17  C   UNL A   1      47.410  32.493  31.976  1.00  0.00     0.049 A 
ATOM     18  N   UNL A   1      45.016  33.286  33.699  1.00  0.00    -0.248 NA
ATOM     19  C   UNL A   1      44.959  31.080  34.459  1.00  0.00     0.031 C 
ATOM     20  C   UNL A   1      48.566  32.114  31.163  1.00  0.00     0.029 A 
ATOM     21  N   UNL A   1      47.334  33.853  31.849  1.00  0.00    -0.354 N 
ATOM     22  C   UNL A   1      43.991  33.135  34.623  1.00  0.00     0.074 A 
ATOM     23  C   UNL A   1      43.989  31.756  35.050  1.00  0.00     0.031 C 
ATOM     24  C   UNL A   1      49.068  33.217  30.583  1.00  0.00     0.029 A 
ATOM     25  C   UNL A   1      48.227  34.357  30.933  1.00  0.00     0.049 A 
ATOM     26  H   UNL A   1      46.707  34.412  32.361  1.00  0.00     0.167 HD
ATOM     27  C   UNL A   1      43.116  34.070  35.054  1.00  0.00     0.034 A 
ATOM     28  C   UNL A   1      48.297  35.590  30.395  1.00  0.00     0.034 A 
ATOM     29  C   UNL A   1      43.161  35.431  34.604  1.00  0.00     0.049 A 
ATOM     30  C   UNL A   1      47.294  36.614  30.857  1.00  0.00     0.074 A 
ATOM     31  C   UNL A   1      42.329  36.481  34.932  1.00  0.00     0.029 A 
ATOM     32  N   UNL A   1      44.104  35.922  33.707  1.00  0.00    -0.354 N 
ATOM     33  N   UNL A   1      46.325  36.476  31.733  1.00  0.00    -0.248 NA
ATOM     34  C   UNL A   1      47.394  37.959  30.279  1.00  0.00     0.031 C 
ATOM     35  C   UNL A   1      42.753  37.602  34.210  1.00  0.00     0.029 A 
ATOM     36  C   UNL A   1      43.873  37.259  33.463  1.00  0.00     0.049 A 
ATOM     37  H   UNL A   1      44.829  35.391  33.304  1.00  0.00     0.167 HD
ATOM     38  C   UNL A   1      45.718  37.720  31.836  1.00  0.00     0.074 A 
ATOM     39  C   UNL A   1      46.436  38.603  30.935  1.00  0.00     0.031 C 
ATOM     40  C   UNL A   1      44.661  38.103  32.595  1.00  0.00     0.034 A 
BRANCH  27  41
ATOM     41  C   UNL A   1      42.034  33.613  35.992  1.00  0.00     0.023 A 
ATOM     42  C   UNL A   1      42.204  33.725  37.388  1.00  0.00     0.012 A 
ATOM     43  C   UNL A   1      40.868  33.006  35.487  1.00  0.00     0.148 A 
ATOM     44  C   UNL A   1      41.259  33.192  38.264  1.00  0.00     0.002 A 
ATOM     45  C   UNL A   1      39.908  32.518  36.366  1.00  0.00     0.091 A 
ATOM     46  F   UNL A   1      40.738  32.875  34.159  1.00  0.00    -0.205 F 
ATOM     47  C   UNL A   1      40.109  32.593  37.753  1.00  0.00     0.022 A 
BRANCH  45  48
ATOM     48  S   UNL A   1      38.371  31.782  35.800  1.00  0.00     0.127 S 
ATOM     49  O   UNL A   1      37.860  31.179  37.030  1.00  0.00    -0.237 OA
ATOM     50  O   UNL A   1      37.622  32.953  35.339  1.00  0.00    -0.237 OA
ATOM     51  O   UNL A   1      38.740  30.848  34.745  1.00  0.00    -0.744 OA
ENDBRANCH  45  48
ENDBRANCH  27  41
BRANCH  28  52
ATOM     52  C   UNL A   1      49.333  35.887  29.366  1.00  0.00     0.023 A 
ATOM     53  C   UNL A   1      50.496  36.594  29.725  1.00  0.00     0.012 A 
ATOM     54  C   UNL A   1      49.209  35.395  28.049  1.00  0.00     0.148 A 
ATOM     55  C   UNL A   1      51.512  36.811  28.791  1.00  0.00     0.002 A 
ATOM     56  C   UNL A   1      50.249  35.565  27.142  1.00  0.00     0.091 A 
ATOM     57  F   UNL A   1      48.089  34.737  27.721  1.00  0.00    -0.205 F 
ATOM     58  C   UNL A   1      51.395  36.286  27.507  1.00  0.00     0.022 A 
BRANCH  56  59
ATOM     59  S   UNL A   1      50.246  34.806  25.512  1.00  0.00     0.127 S 
ATOM     60  O   UNL A   1      50.973  35.795  24.720  1.00  0.00    -0.237 OA
ATOM     61  O   UNL A   1      50.974  33.560  25.762  1.00  0.00    -0.237 OA
ATOM     62  O   UNL A   1      48.845  34.625  25.162  1.00  0.00    -0.744 OA
ENDBRANCH  56  59
ENDBRANCH  28  52
BRANCH  40  63
ATOM     63  C   UNL A   1      44.249  39.547  32.537  1.00  0.00     0.023 A 
ATOM     64  C   UNL A   1      43.330  39.976  31.562  1.00  0.00     0.012 A 
ATOM     65  C   UNL A   1      44.660  40.431  33.553  1.00  0.00     0.148 A 
ATOM     66  C   UNL A   1      42.829  41.276  31.596  1.00  0.00     0.002 A 
ATOM     67  C   UNL A   1      44.117  41.705  33.611  1.00  0.00     0.091 A 
ATOM     68  F   UNL A   1      45.549  39.994  34.458  1.00  0.00    -0.205 F 
ATOM     69  C   UNL A   1      43.208  42.133  32.629  1.00  0.00     0.022 A 
BRANCH  67  70
ATOM     70  S   UNL A   1      44.455  42.829  34.969  1.00  0.00     0.127 S 
ATOM     71  O   UNL A   1      44.477  44.122  34.286  1.00  0.00    -0.237 OA
ATOM     72  O   UNL A   1      43.299  42.618  35.840  1.00  0.00    -0.237 OA
ATOM     73  O   UNL A   1      45.727  42.406  35.538  1.00  0.00    -0.744 OA
ENDBRANCH  67  70
ENDBRANCH  40  63
ENDBRANCH  14  15
ENDBRANCH   7   9
ENDBRANCH   6   7
ENDBRANCH   5   6
ENDBRANCH   4   5
ENDBRANCH   3   4
ENDBRANCH   2   3
ENDBRANCH   1   2
BRANCH   1  74
ATOM     74  O   UNL A   1      45.936  29.533  27.701  1.00  0.00    -0.377 OA
BRANCH  74  75
ATOM     75  C   UNL A   1      44.869  30.209  27.045  1.00  0.00     0.188 C 
BRANCH  75  76
ATOM     76  C   UNL A   1      44.148  31.358  27.781  1.00  0.00     0.188 C 
BRANCH  76  77
ATOM     77  O   UNL A   1      43.283  30.930  28.820  1.00  0.00    -0.376 OA
BRANCH  77  78
ATOM     78  C   UNL A   1      42.315  29.951  28.452  1.00  0.00     0.202 C 
BRANCH  78  79
ATOM     79  C   UNL A   1      41.618  29.241  29.623  1.00  0.00     0.261 C 
BRANCH  79  80
ATOM     80  O   UNL A   1      40.589  30.012  30.271  1.00  0.00    -0.460 OA
BRANCH  80  81
ATOM     81  C   UNL A   1      40.890  30.740  31.371  1.00  0.00     0.340 C 
ATOM     82  O   UNL A   1      41.630  30.420  32.285  1.00  0.00    -0.246 OA
BRANCH  81  83
ATOM     83  C   UNL A   1      40.351  32.110  31.145  1.00  0.00     0.085 A 
ATOM     84  C   UNL A   1      41.242  33.088  30.668  1.00  0.00     0.043 A 
ATOM     85  C   UNL A   1      38.983  32.412  31.249  1.00  0.00     0.055 A 
ATOM     86  C   UNL A   1      40.777  34.316  30.171  1.00  0.00     0.038 A 
ATOM     87  C   UNL A   1      38.515  33.635  30.755  1.00  0.00     0.029 A 
ATOM     88  C   UNL A   1      39.403  34.566  30.206  1.00  0.00     0.028 A 
BRANCH  85  89
ATOM     89  N   UNL A   1      38.090  31.475  31.792  1.00  0.00    -0.325 N 
ATOM     90  C   UNL A   1      37.203  30.662  31.142  1.00  0.00     0.227 C 
ATOM     91  H   UNL A   1      38.106  31.390  32.773  1.00  0.00     0.169 HD
ATOM     92  O   UNL A   1      36.551  29.847  31.797  1.00  0.00    -0.274 OA
BRANCH  90  93
ATOM     93  C   UNL A   1      37.021  30.806  29.634  1.00  0.00     0.079 C 
ATOM     94  C   UNL A   1      36.805  29.457  28.946  1.00  0.00     0.013 C 
ATOM     95  C   UNL A   1      35.755  31.548  29.200  1.00  0.00     0.013 C 
ATOM     96  C   UNL A   1      36.258  29.822  27.570  1.00  0.00     0.001 C 
ATOM     97  C   UNL A   1      35.604  31.190  27.730  1.00  0.00     0.001 C 
ENDBRANCH  90  93
ENDBRANCH  85  89
BRANCH  86  98
ATOM     98  N   UNL A   1      41.660  35.229  29.646  1.00  0.00    -0.368 N 
ATOM     99  C   UNL A   1      42.936  35.580  30.293  1.00  0.00     0.138 C 
ATOM    100  C   UNL A   1      41.483  35.685  28.261  1.00  0.00     0.138 C 
ATOM    101  C   UNL A   1      44.164  35.234  29.413  1.00  0.00     0.138 C 
ATOM    102  C   UNL A   1      42.691  35.257  27.402  1.00  0.00     0.138 C 
ATOM    103  N   UNL A   1      43.961  35.672  28.020  1.00  0.00    -0.368 N 
BRANCH 103 104
ATOM    104  C   UNL A   1      44.786  36.604  27.433  1.00  0.00     0.037 A 
ATOM    105  C   UNL A   1      44.693  37.962  27.776  1.00  0.00     0.029 A 
ATOM    106  C   UNL A   1      45.763  36.237  26.493  1.00  0.00     0.029 A 
ATOM    107  C   UNL A   1      45.558  38.913  27.225  1.00  0.00     0.041 A 
ATOM    108  C   UNL A   1      46.619  37.184  25.924  1.00  0.00     0.041 A 
ATOM    109  C   UNL A   1      46.515  38.514  26.303  1.00  0.00     0.123 A 
ATOM    110  F   UNL A   1      47.347  39.420  25.777  1.00  0.00    -0.207 F 
ENDBRANCH 103 104
ENDBRANCH  86  98
ENDBRANCH  81  83
ENDBRANCH  80  81
ENDBRANCH  79  80
ENDBRANCH  78  79
ENDBRANCH  77  78
ENDBRANCH  76  77
ENDBRANCH  75  76
ENDBRANCH  74  75
ENDBRANCH   1  74
TORSDOF 27
ENDMDL
