MODEL 1
REMARK VINA RESULT:      -9.5      0.000      0.000
REMARK SMILES COC(=O)[C@H]1CCN(S(=O)(=O)N2CCC[C@H](C(=O)OCCOCCOCCOCCOC(=O)c3ccc(-c4c5nc(c(-c6cccc(S(=O)(=O)[O-])c6F)c6ccc([nH]6)c(-c6cccc(S(=O)(=O)[O-])c6F)c6nc(c(-c7cccc(S(=O)(=O)[O-])c7F)c7ccc4[nH]7)C=C6)C=C5)cc3)C2)C1
REMARK SMILES IDX 24 1 23 2 22 3 21 4 20 5 19 6 17 7 18 8 16 9 12 10 13 11
REMARK SMILES IDX 97 12 14 13 15 14 9 15 10 16 11 17 8 18 5 19 6 20 98 21 7 22
REMARK SMILES IDX 3 23 4 24 2 25 1 26 25 27 26 28 27 29 28 30 29 31 30 32
REMARK SMILES IDX 31 33 32 34 33 35 34 36 35 37 96 38 36 39 95 40 37 41 38 42
REMARK SMILES IDX 39 43 89 44 40 45 94 46 88 47 90 48 41 49 93 50 87 51 86 52
REMARK SMILES IDX 42 54 74 55 54 56 73 57 55 58 58 59 72 60 91 61 56 62 57 63
REMARK SMILES IDX 71 65 92 66 59 67 43 68 44 69 52 70 45 71 47 72 53 73 46 74
REMARK SMILES IDX 48 75 49 76 50 77 51 78 75 79 76 80 84 81 77 82 79 83 85 84
REMARK SMILES IDX 78 85 80 86 81 87 82 88 83 89 60 90 61 91 69 92 62 93 64 94
REMARK SMILES IDX 70 95 63 96 65 97 66 98 67 99 68 100
REMARK H PARENT 90 53 58 64
REMARK Flexibility Score: inf
ROOT
ATOM      1  C   UNL A   1      41.987  20.552  26.702  1.00  0.00     0.188 C 
ENDROOT
BRANCH   1   2
ATOM      2  C   UNL A   1      40.459  20.620  26.564  1.00  0.00     0.188 C 
BRANCH   2   3
ATOM      3  O   UNL A   1      39.984  21.807  25.974  1.00  0.00    -0.376 OA
BRANCH   3   4
ATOM      4  C   UNL A   1      39.489  22.865  26.776  1.00  0.00     0.202 C 
BRANCH   4   5
ATOM      5  C   UNL A   1      38.407  23.859  26.307  1.00  0.00     0.261 C 
BRANCH   5   6
ATOM      6  O   UNL A   1      37.483  23.415  25.312  1.00  0.00    -0.463 OA
BRANCH   6   7
ATOM      7  C   UNL A   1      36.431  22.711  25.766  1.00  0.00     0.310 C 
ATOM      8  O   UNL A   1      36.401  21.482  25.820  1.00  0.00    -0.252 OA
BRANCH   7   9
ATOM      9  C   UNL A   1      35.259  23.550  26.246  1.00  0.00     0.114 C 
ATOM     10  N   UNL A   1      33.618  21.986  25.351  1.00  0.00    -0.188 NA
ATOM     11  C   UNL A   1      32.937  22.977  24.484  1.00  0.00     0.103 C 
ATOM     12  C   UNL A   1      34.200  22.535  26.582  1.00  0.00     0.118 C 
ATOM     13  C   UNL A   1      33.884  24.138  24.177  1.00  0.00     0.018 C 
ATOM     14  C   UNL A   1      34.583  24.653  25.426  1.00  0.00     0.018 C 
BRANCH  10  15
ATOM     15  S   UNL A   1      32.945  20.454  25.452  1.00  0.00     0.282 S 
ATOM     16  O   UNL A   1      31.526  20.568  25.185  1.00  0.00    -0.195 OA
ATOM     17  O   UNL A   1      33.434  19.823  26.643  1.00  0.00    -0.195 OA
BRANCH  15  18
ATOM     18  N   UNL A   1      33.657  19.690  24.101  1.00  0.00    -0.188 NA
ATOM     19  C   UNL A   1      34.083  17.304  24.072  1.00  0.00     0.116 C 
ATOM     20  C   UNL A   1      32.666  17.586  23.619  1.00  0.00     0.033 C 
ATOM     21  C   UNL A   1      34.667  18.655  24.497  1.00  0.00     0.118 C 
ATOM     22  C   UNL A   1      32.767  19.008  23.129  1.00  0.00     0.104 C 
BRANCH  19  23
ATOM     23  C   UNL A   1      34.135  16.306  25.194  1.00  0.00     0.310 C 
ATOM     24  O   UNL A   1      35.093  15.573  25.397  1.00  0.00    -0.252 OA
BRANCH  23  25
ATOM     25  O   UNL A   1      32.995  16.333  25.931  1.00  0.00    -0.469 OA
ATOM     26  C   UNL A   1      32.216  15.142  25.873  1.00  0.00     0.282 C 
ENDBRANCH  23  25
ENDBRANCH  19  23
ENDBRANCH  15  18
ENDBRANCH  10  15
ENDBRANCH   7   9
ENDBRANCH   6   7
ENDBRANCH   5   6
ENDBRANCH   4   5
ENDBRANCH   3   4
ENDBRANCH   2   3
ENDBRANCH   1   2
BRANCH   1  27
ATOM     27  O   UNL A   1      42.689  19.410  26.234  1.00  0.00    -0.377 OA
BRANCH  27  28
ATOM     28  C   UNL A   1      43.527  19.502  25.083  1.00  0.00     0.188 C 
BRANCH  28  29
ATOM     29  C   UNL A   1      45.042  19.745  25.241  1.00  0.00     0.188 C 
BRANCH  29  30
ATOM     30  O   UNL A   1      45.531  20.933  24.643  1.00  0.00    -0.376 OA
BRANCH  30  31
ATOM     31  C   UNL A   1      46.371  21.765  25.431  1.00  0.00     0.202 C 
BRANCH  31  32
ATOM     32  C   UNL A   1      46.084  23.275  25.446  1.00  0.00     0.261 C 
BRANCH  32  33
ATOM     33  O   UNL A   1      44.872  23.684  26.099  1.00  0.00    -0.460 OA
BRANCH  33  34
ATOM     34  C   UNL A   1      44.092  24.605  25.489  1.00  0.00     0.338 C 
ATOM     35  O   UNL A   1      43.838  24.691  24.302  1.00  0.00    -0.246 OA
BRANCH  34  36
ATOM     36  C   UNL A   1      43.428  25.379  26.556  1.00  0.00     0.060 A 
ATOM     37  C   UNL A   1      43.788  26.719  26.758  1.00  0.00     0.016 A 
ATOM     38  C   UNL A   1      42.427  24.788  27.325  1.00  0.00     0.016 A 
ATOM     39  C   UNL A   1      43.140  27.476  27.732  1.00  0.00     0.010 A 
ATOM     40  C   UNL A   1      41.804  25.536  28.323  1.00  0.00     0.010 A 
ATOM     41  C   UNL A   1      42.169  26.877  28.541  1.00  0.00    -0.014 A 
BRANCH  41  42
ATOM     42  C   UNL A   1      41.642  27.591  29.725  1.00  0.00     0.031 A 
ATOM     43  C   UNL A   1      40.420  28.446  29.557  1.00  0.00     0.074 A 
ATOM     44  C   UNL A   1      42.263  27.515  30.916  1.00  0.00     0.049 A 
ATOM     45  N   UNL A   1      39.856  29.260  30.407  1.00  0.00    -0.248 NA
ATOM     46  C   UNL A   1      39.753  28.376  28.247  1.00  0.00     0.031 C 
ATOM     47  C   UNL A   1      43.443  26.705  31.202  1.00  0.00     0.029 A 
ATOM     48  N   UNL A   1      42.003  28.171  32.093  1.00  0.00    -0.354 N 
ATOM     49  C   UNL A   1      38.785  29.828  29.728  1.00  0.00     0.074 A 
ATOM     50  C   UNL A   1      38.786  29.269  28.393  1.00  0.00     0.031 C 
ATOM     51  C   UNL A   1      43.844  26.955  32.461  1.00  0.00     0.029 A 
ATOM     52  C   UNL A   1      42.969  27.969  33.050  1.00  0.00     0.049 A 
ATOM     53  H   UNL A   1      41.206  28.730  32.238  1.00  0.00     0.167 HD
ATOM     54  C   UNL A   1      37.880  30.729  30.176  1.00  0.00     0.034 A 
ATOM     55  C   UNL A   1      43.156  28.573  34.240  1.00  0.00     0.034 A 
ATOM     56  C   UNL A   1      37.893  31.286  31.501  1.00  0.00     0.049 A 
ATOM     57  C   UNL A   1      42.178  29.623  34.699  1.00  0.00     0.074 A 
ATOM     58  C   UNL A   1      37.000  32.177  32.067  1.00  0.00     0.029 A 
ATOM     59  N   UNL A   1      38.866  31.032  32.457  1.00  0.00    -0.354 N 
ATOM     60  N   UNL A   1      41.104  30.073  34.094  1.00  0.00    -0.248 NA
ATOM     61  C   UNL A   1      42.425  30.235  36.013  1.00  0.00     0.031 C 
ATOM     62  C   UNL A   1      37.458  32.499  33.349  1.00  0.00     0.029 A 
ATOM     63  C   UNL A   1      38.612  31.772  33.599  1.00  0.00     0.049 A 
ATOM     64  H   UNL A   1      39.625  30.417  32.339  1.00  0.00     0.167 HD
ATOM     65  C   UNL A   1      40.537  31.003  34.959  1.00  0.00     0.074 A 
ATOM     66  C   UNL A   1      41.373  31.034  36.142  1.00  0.00     0.031 C 
ATOM     67  C   UNL A   1      39.434  31.771  34.784  1.00  0.00     0.034 A 
BRANCH  54  68
ATOM     68  C   UNL A   1      36.808  31.167  29.215  1.00  0.00     0.023 A 
ATOM     69  C   UNL A   1      36.751  32.511  28.790  1.00  0.00     0.012 A 
ATOM     70  C   UNL A   1      35.864  30.247  28.719  1.00  0.00     0.148 A 
ATOM     71  C   UNL A   1      35.744  32.941  27.926  1.00  0.00     0.002 A 
ATOM     72  C   UNL A   1      34.895  30.672  27.819  1.00  0.00     0.091 A 
ATOM     73  F   UNL A   1      35.919  28.979  29.151  1.00  0.00    -0.205 F 
ATOM     74  C   UNL A   1      34.823  32.021  27.434  1.00  0.00     0.022 A 
BRANCH  72  75
ATOM     75  S   UNL A   1      33.712  29.549  27.069  1.00  0.00     0.127 S 
ATOM     76  O   UNL A   1      32.783  30.481  26.432  1.00  0.00    -0.237 OA
ATOM     77  O   UNL A   1      34.552  28.794  26.139  1.00  0.00    -0.237 OA
ATOM     78  O   UNL A   1      33.156  28.761  28.161  1.00  0.00    -0.744 OA
ENDBRANCH  72  75
ENDBRANCH  54  68
BRANCH  55  79
ATOM     79  C   UNL A   1      44.340  28.215  35.069  1.00  0.00     0.023 A 
ATOM     80  C   UNL A   1      45.584  28.821  34.817  1.00  0.00     0.012 A 
ATOM     81  C   UNL A   1      44.224  27.290  36.127  1.00  0.00     0.148 A 
ATOM     82  C   UNL A   1      46.699  28.501  35.593  1.00  0.00     0.002 A 
ATOM     83  C   UNL A   1      45.325  27.012  36.926  1.00  0.00     0.091 A 
ATOM     84  F   UNL A   1      43.034  26.709  36.335  1.00  0.00    -0.205 F 
ATOM     85  C   UNL A   1      46.567  27.609  36.655  1.00  0.00     0.022 A 
BRANCH  83  86
ATOM     86  S   UNL A   1      45.220  25.957  38.375  1.00  0.00     0.127 S 
ATOM     87  O   UNL A   1      46.535  26.149  38.981  1.00  0.00    -0.237 OA
ATOM     88  O   UNL A   1      44.113  26.566  39.108  1.00  0.00    -0.237 OA
ATOM     89  O   UNL A   1      44.948  24.618  37.867  1.00  0.00    -0.744 OA
ENDBRANCH  83  86
ENDBRANCH  55  79
BRANCH  67  90
ATOM     90  C   UNL A   1      39.038  32.705  35.901  1.00  0.00     0.023 A 
ATOM     91  C   UNL A   1      38.154  32.262  36.905  1.00  0.00     0.012 A 
ATOM     92  C   UNL A   1      39.620  33.984  36.006  1.00  0.00     0.148 A 
ATOM     93  C   UNL A   1      37.839  33.087  37.985  1.00  0.00     0.002 A 
ATOM     94  C   UNL A   1      39.340  34.781  37.110  1.00  0.00     0.091 A 
ATOM     95  F   UNL A   1      40.449  34.390  35.034  1.00  0.00    -0.205 F 
ATOM     96  C   UNL A   1      38.441  34.338  38.094  1.00  0.00     0.022 A 
BRANCH  94  97
ATOM     97  S   UNL A   1      40.137  36.366  37.391  1.00  0.00     0.127 S 
ATOM     98  O   UNL A   1      40.073  36.972  36.061  1.00  0.00    -0.237 OA
ATOM     99  O   UNL A   1      39.257  36.981  38.383  1.00  0.00    -0.237 OA
ATOM    100  O   UNL A   1      41.481  36.067  37.867  1.00  0.00    -0.744 OA
ENDBRANCH  94  97
ENDBRANCH  67  90
ENDBRANCH  41  42
ENDBRANCH  34  36
ENDBRANCH  33  34
ENDBRANCH  32  33
ENDBRANCH  31  32
ENDBRANCH  30  31
ENDBRANCH  29  30
ENDBRANCH  28  29
ENDBRANCH  27  28
ENDBRANCH   1  27
TORSDOF 27
ENDMDL
MODEL 2
REMARK VINA RESULT:      -9.2      4.983      6.033
REMARK SMILES COC(=O)[C@H]1CCN(S(=O)(=O)N2CCC[C@H](C(=O)OCCOCCOCCOCCOC(=O)c3ccc(-c4c5nc(c(-c6cccc(S(=O)(=O)[O-])c6F)c6ccc([nH]6)c(-c6cccc(S(=O)(=O)[O-])c6F)c6nc(c(-c7cccc(S(=O)(=O)[O-])c7F)c7ccc4[nH]7)C=C6)C=C5)cc3)C2)C1
REMARK SMILES IDX 24 1 23 2 22 3 21 4 20 5 19 6 17 7 18 8 16 9 12 10 13 11
REMARK SMILES IDX 97 12 14 13 15 14 9 15 10 16 11 17 8 18 5 19 6 20 98 21 7 22
REMARK SMILES IDX 3 23 4 24 2 25 1 26 25 27 26 28 27 29 28 30 29 31 30 32
REMARK SMILES IDX 31 33 32 34 33 35 34 36 35 37 96 38 36 39 95 40 37 41 38 42
REMARK SMILES IDX 39 43 89 44 40 45 94 46 88 47 90 48 41 49 93 50 87 51 86 52
REMARK SMILES IDX 42 54 74 55 54 56 73 57 55 58 58 59 72 60 91 61 56 62 57 63
REMARK SMILES IDX 71 65 92 66 59 67 43 68 44 69 52 70 45 71 47 72 53 73 46 74
REMARK SMILES IDX 48 75 49 76 50 77 51 78 75 79 76 80 84 81 77 82 79 83 85 84
REMARK SMILES IDX 78 85 80 86 81 87 82 88 83 89 60 90 61 91 69 92 62 93 64 94
REMARK SMILES IDX 70 95 63 96 65 97 66 98 67 99 68 100
REMARK H PARENT 90 53 58 64
REMARK Flexibility Score: inf
ROOT
ATOM      1  C   UNL A   1      42.010  20.682  26.596  1.00  0.00     0.188 C 
ENDROOT
BRANCH   1   2
ATOM      2  C   UNL A   1      40.508  20.895  26.833  1.00  0.00     0.188 C 
BRANCH   2   3
ATOM      3  O   UNL A   1      39.969  22.009  26.161  1.00  0.00    -0.376 OA
BRANCH   3   4
ATOM      4  C   UNL A   1      39.390  23.079  26.887  1.00  0.00     0.202 C 
BRANCH   4   5
ATOM      5  C   UNL A   1      38.314  24.021  26.308  1.00  0.00     0.261 C 
BRANCH   5   6
ATOM      6  O   UNL A   1      37.414  23.484  25.337  1.00  0.00    -0.463 OA
BRANCH   6   7
ATOM      7  C   UNL A   1      36.362  22.807  25.828  1.00  0.00     0.310 C 
ATOM      8  O   UNL A   1      36.388  21.608  26.105  1.00  0.00    -0.252 OA
BRANCH   7   9
ATOM      9  C   UNL A   1      35.112  23.641  26.053  1.00  0.00     0.114 C 
ATOM     10  N   UNL A   1      33.651  21.913  25.149  1.00  0.00    -0.188 NA
ATOM     11  C   UNL A   1      33.060  22.767  24.091  1.00  0.00     0.103 C 
ATOM     12  C   UNL A   1      34.049  22.624  26.370  1.00  0.00     0.118 C 
ATOM     13  C   UNL A   1      34.004  23.928  23.771  1.00  0.00     0.018 C 
ATOM     14  C   UNL A   1      34.517  24.612  25.029  1.00  0.00     0.018 C 
BRANCH  10  15
ATOM     15  S   UNL A   1      33.017  20.373  25.344  1.00  0.00     0.282 S 
ATOM     16  O   UNL A   1      31.583  20.450  25.157  1.00  0.00    -0.195 OA
ATOM     17  O   UNL A   1      33.587  19.796  26.527  1.00  0.00    -0.195 OA
BRANCH  15  18
ATOM     18  N   UNL A   1      33.666  19.573  23.982  1.00  0.00    -0.188 NA
ATOM     19  C   UNL A   1      34.025  17.176  23.973  1.00  0.00     0.116 C 
ATOM     20  C   UNL A   1      32.603  17.491  23.560  1.00  0.00     0.033 C 
ATOM     21  C   UNL A   1      34.659  18.516  24.361  1.00  0.00     0.118 C 
ATOM     22  C   UNL A   1      32.728  18.904  23.048  1.00  0.00     0.104 C 
BRANCH  19  23
ATOM     23  C   UNL A   1      34.084  16.191  25.107  1.00  0.00     0.310 C 
ATOM     24  O   UNL A   1      35.052  15.474  25.323  1.00  0.00    -0.252 OA
BRANCH  23  25
ATOM     25  O   UNL A   1      32.940  16.209  25.835  1.00  0.00    -0.469 OA
ATOM     26  C   UNL A   1      32.298  14.945  25.975  1.00  0.00     0.282 C 
ENDBRANCH  23  25
ENDBRANCH  19  23
ENDBRANCH  15  18
ENDBRANCH  10  15
ENDBRANCH   7   9
ENDBRANCH   6   7
ENDBRANCH   5   6
ENDBRANCH   4   5
ENDBRANCH   3   4
ENDBRANCH   2   3
ENDBRANCH   1   2
BRANCH   1  27
ATOM     27  O   UNL A   1      42.527  19.366  26.473  1.00  0.00    -0.377 OA
BRANCH  27  28
ATOM     28  C   UNL A   1      43.261  18.986  25.310  1.00  0.00     0.188 C 
BRANCH  28  29
ATOM     29  C   UNL A   1      44.803  18.957  25.337  1.00  0.00     0.188 C 
BRANCH  29  30
ATOM     30  O   UNL A   1      45.441  19.670  24.291  1.00  0.00    -0.376 OA
BRANCH  30  31
ATOM     31  C   UNL A   1      46.439  20.613  24.657  1.00  0.00     0.202 C 
BRANCH  31  32
ATOM     32  C   UNL A   1      46.097  22.107  24.541  1.00  0.00     0.261 C 
BRANCH  32  33
ATOM     33  O   UNL A   1      45.124  22.611  25.470  1.00  0.00    -0.460 OA
BRANCH  33  34
ATOM     34  C   UNL A   1      44.082  23.323  24.987  1.00  0.00     0.338 C 
ATOM     35  O   UNL A   1      43.248  22.960  24.178  1.00  0.00    -0.246 OA
BRANCH  34  36
ATOM     36  C   UNL A   1      44.010  24.568  25.777  1.00  0.00     0.060 A 
ATOM     37  C   UNL A   1      43.885  25.796  25.113  1.00  0.00     0.016 A 
ATOM     38  C   UNL A   1      44.028  24.510  27.169  1.00  0.00     0.016 A 
ATOM     39  C   UNL A   1      43.773  26.977  25.845  1.00  0.00     0.010 A 
ATOM     40  C   UNL A   1      43.951  25.695  27.901  1.00  0.00     0.010 A 
ATOM     41  C   UNL A   1      43.840  26.933  27.242  1.00  0.00    -0.014 A 
BRANCH  41  42
ATOM     42  C   UNL A   1      43.958  28.185  28.021  1.00  0.00     0.031 A 
ATOM     43  C   UNL A   1      42.707  28.802  28.574  1.00  0.00     0.074 A 
ATOM     44  C   UNL A   1      45.149  28.785  28.196  1.00  0.00     0.049 A 
ATOM     45  N   UNL A   1      42.544  29.951  29.171  1.00  0.00    -0.248 NA
ATOM     46  C   UNL A   1      41.473  28.014  28.423  1.00  0.00     0.031 C 
ATOM     47  C   UNL A   1      46.431  28.271  27.721  1.00  0.00     0.029 A 
ATOM     48  N   UNL A   1      45.458  29.985  28.786  1.00  0.00    -0.354 N 
ATOM     49  C   UNL A   1      41.184  30.045  29.439  1.00  0.00     0.074 A 
ATOM     50  C   UNL A   1      40.568  28.837  28.932  1.00  0.00     0.031 C 
ATOM     51  C   UNL A   1      47.386  29.179  27.987  1.00  0.00     0.029 A 
ATOM     52  C   UNL A   1      46.772  30.349  28.616  1.00  0.00     0.049 A 
ATOM     53  H   UNL A   1      44.804  30.530  29.280  1.00  0.00     0.167 HD
ATOM     54  C   UNL A   1      40.510  31.043  30.057  1.00  0.00     0.034 A 
ATOM     55  C   UNL A   1      47.395  31.514  28.886  1.00  0.00     0.034 A 
ATOM     56  C   UNL A   1      41.129  32.243  30.548  1.00  0.00     0.049 A 
ATOM     57  C   UNL A   1      46.617  32.642  29.513  1.00  0.00     0.074 A 
ATOM     58  C   UNL A   1      40.542  33.298  31.222  1.00  0.00     0.029 A 
ATOM     59  N   UNL A   1      42.469  32.564  30.391  1.00  0.00    -0.354 N 
ATOM     60  N   UNL A   1      45.354  32.678  29.864  1.00  0.00    -0.248 NA
ATOM     61  C   UNL A   1      47.354  33.881  29.799  1.00  0.00     0.031 C 
ATOM     62  C   UNL A   1      41.517  34.279  31.430  1.00  0.00     0.029 A 
ATOM     63  C   UNL A   1      42.722  33.815  30.928  1.00  0.00     0.049 A 
ATOM     64  H   UNL A   1      43.140  31.988  29.960  1.00  0.00     0.167 HD
ATOM     65  C   UNL A   1      45.149  33.933  30.430  1.00  0.00     0.074 A 
ATOM     66  C   UNL A   1      46.425  34.617  30.397  1.00  0.00     0.031 C 
ATOM     67  C   UNL A   1      44.005  34.473  30.919  1.00  0.00     0.034 A 
BRANCH  54  68
ATOM     68  C   UNL A   1      39.024  30.872  30.223  1.00  0.00     0.023 A 
ATOM     69  C   UNL A   1      38.521  29.879  31.089  1.00  0.00     0.012 A 
ATOM     70  C   UNL A   1      38.121  31.704  29.532  1.00  0.00     0.148 A 
ATOM     71  C   UNL A   1      37.148  29.686  31.229  1.00  0.00     0.002 A 
ATOM     72  C   UNL A   1      36.754  31.539  29.715  1.00  0.00     0.091 A 
ATOM     73  F   UNL A   1      38.616  32.628  28.694  1.00  0.00    -0.205 F 
ATOM     74  C   UNL A   1      36.265  30.521  30.549  1.00  0.00     0.022 A 
BRANCH  72  75
ATOM     75  S   UNL A   1      35.538  32.613  28.945  1.00  0.00     0.127 S 
ATOM     76  O   UNL A   1      34.286  32.036  29.431  1.00  0.00    -0.237 OA
ATOM     77  O   UNL A   1      35.872  33.916  29.520  1.00  0.00    -0.237 OA
ATOM     78  O   UNL A   1      35.760  32.507  27.509  1.00  0.00    -0.744 OA
ENDBRANCH  72  75
ENDBRANCH  54  68
BRANCH  55  79
ATOM     79  C   UNL A   1      48.833  31.678  28.535  1.00  0.00     0.023 A 
ATOM     80  C   UNL A   1      49.826  31.128  29.366  1.00  0.00     0.012 A 
ATOM     81  C   UNL A   1      49.214  32.360  27.362  1.00  0.00     0.148 A 
ATOM     82  C   UNL A   1      51.177  31.267  29.044  1.00  0.00     0.002 A 
ATOM     83  C   UNL A   1      50.557  32.454  27.022  1.00  0.00     0.091 A 
ATOM     84  F   UNL A   1      48.252  32.895  26.597  1.00  0.00    -0.205 F 
ATOM     85  C   UNL A   1      51.542  31.917  27.867  1.00  0.00     0.022 A 
BRANCH  83  86
ATOM     86  S   UNL A   1      51.109  33.181  25.476  1.00  0.00     0.127 S 
ATOM     87  O   UNL A   1      52.368  33.806  25.872  1.00  0.00    -0.237 OA
ATOM     88  O   UNL A   1      51.252  32.002  24.625  1.00  0.00    -0.237 OA
ATOM     89  O   UNL A   1      50.049  34.097  25.072  1.00  0.00    -0.744 OA
ENDBRANCH  83  86
ENDBRANCH  55  79
BRANCH  67  90
ATOM     90  C   UNL A   1      44.070  35.871  31.483  1.00  0.00     0.023 A 
ATOM     91  C   UNL A   1      44.388  36.064  32.842  1.00  0.00     0.012 A 
ATOM     92  C   UNL A   1      43.912  36.992  30.644  1.00  0.00     0.148 A 
ATOM     93  C   UNL A   1      44.526  37.351  33.362  1.00  0.00     0.002 A 
ATOM     94  C   UNL A   1      44.100  38.270  31.156  1.00  0.00     0.091 A 
ATOM     95  F   UNL A   1      43.598  36.786  29.357  1.00  0.00    -0.205 F 
ATOM     96  C   UNL A   1      44.396  38.452  32.518  1.00  0.00     0.022 A 
BRANCH  94  97
ATOM     97  S   UNL A   1      44.049  39.744  30.132  1.00  0.00     0.127 S 
ATOM     98  O   UNL A   1      44.203  40.805  31.127  1.00  0.00    -0.237 OA
ATOM     99  O   UNL A   1      45.207  39.554  29.260  1.00  0.00    -0.237 OA
ATOM    100  O   UNL A   1      42.761  39.721  29.451  1.00  0.00    -0.744 OA
ENDBRANCH  94  97
ENDBRANCH  67  90
ENDBRANCH  41  42
ENDBRANCH  34  36
ENDBRANCH  33  34
ENDBRANCH  32  33
ENDBRANCH  31  32
ENDBRANCH  30  31
ENDBRANCH  29  30
ENDBRANCH  28  29
ENDBRANCH  27  28
ENDBRANCH   1  27
TORSDOF 27
ENDMDL
MODEL 3
REMARK VINA RESULT:      -9.1      1.688      2.095
REMARK SMILES COC(=O)[C@H]1CCN(S(=O)(=O)N2CCC[C@H](C(=O)OCCOCCOCCOCCOC(=O)c3ccc(-c4c5nc(c(-c6cccc(S(=O)(=O)[O-])c6F)c6ccc([nH]6)c(-c6cccc(S(=O)(=O)[O-])c6F)c6nc(c(-c7cccc(S(=O)(=O)[O-])c7F)c7ccc4[nH]7)C=C6)C=C5)cc3)C2)C1
REMARK SMILES IDX 24 1 23 2 22 3 21 4 20 5 19 6 17 7 18 8 16 9 12 10 13 11
REMARK SMILES IDX 97 12 14 13 15 14 9 15 10 16 11 17 8 18 5 19 6 20 98 21 7 22
REMARK SMILES IDX 3 23 4 24 2 25 1 26 25 27 26 28 27 29 28 30 29 31 30 32
REMARK SMILES IDX 31 33 32 34 33 35 34 36 35 37 96 38 36 39 95 40 37 41 38 42
REMARK SMILES IDX 39 43 89 44 40 45 94 46 88 47 90 48 41 49 93 50 87 51 86 52
REMARK SMILES IDX 42 54 74 55 54 56 73 57 55 58 58 59 72 60 91 61 56 62 57 63
REMARK SMILES IDX 71 65 92 66 59 67 43 68 44 69 52 70 45 71 47 72 53 73 46 74
REMARK SMILES IDX 48 75 49 76 50 77 51 78 75 79 76 80 84 81 77 82 79 83 85 84
REMARK SMILES IDX 78 85 80 86 81 87 82 88 83 89 60 90 61 91 69 92 62 93 64 94
REMARK SMILES IDX 70 95 63 96 65 97 66 98 67 99 68 100
REMARK H PARENT 90 53 58 64
REMARK Flexibility Score: inf
ROOT
ATOM      1  C   UNL A   1      42.018  20.396  26.767  1.00  0.00     0.188 C 
ENDROOT
BRANCH   1   2
ATOM      2  C   UNL A   1      40.498  20.606  26.828  1.00  0.00     0.188 C 
BRANCH   2   3
ATOM      3  O   UNL A   1      40.036  21.710  26.087  1.00  0.00    -0.376 OA
BRANCH   3   4
ATOM      4  C   UNL A   1      39.528  22.859  26.743  1.00  0.00     0.202 C 
BRANCH   4   5
ATOM      5  C   UNL A   1      38.399  23.741  26.172  1.00  0.00     0.261 C 
BRANCH   5   6
ATOM      6  O   UNL A   1      37.505  23.147  25.229  1.00  0.00    -0.463 OA
BRANCH   6   7
ATOM      7  C   UNL A   1      36.474  22.462  25.754  1.00  0.00     0.310 C 
ATOM      8  O   UNL A   1      36.449  21.235  25.857  1.00  0.00    -0.252 OA
BRANCH   7   9
ATOM      9  C   UNL A   1      35.322  23.318  26.251  1.00  0.00     0.114 C 
ATOM     10  N   UNL A   1      33.646  21.816  25.317  1.00  0.00    -0.188 NA
ATOM     11  C   UNL A   1      32.992  22.844  24.472  1.00  0.00     0.103 C 
ATOM     12  C   UNL A   1      34.238  22.323  26.561  1.00  0.00     0.118 C 
ATOM     13  C   UNL A   1      33.968  23.987  24.192  1.00  0.00     0.018 C 
ATOM     14  C   UNL A   1      34.676  24.456  25.454  1.00  0.00     0.018 C 
BRANCH  10  15
ATOM     15  S   UNL A   1      32.935  20.300  25.382  1.00  0.00     0.282 S 
ATOM     16  O   UNL A   1      31.520  20.454  25.112  1.00  0.00    -0.195 OA
ATOM     17  O   UNL A   1      33.402  19.631  26.561  1.00  0.00    -0.195 OA
BRANCH  15  18
ATOM     18  N   UNL A   1      33.634  19.548  24.017  1.00  0.00    -0.188 NA
ATOM     19  C   UNL A   1      34.091  17.167  23.977  1.00  0.00     0.116 C 
ATOM     20  C   UNL A   1      32.662  17.431  23.548  1.00  0.00     0.033 C 
ATOM     21  C   UNL A   1      34.664  18.526  24.394  1.00  0.00     0.118 C 
ATOM     22  C   UNL A   1      32.737  18.856  23.060  1.00  0.00     0.104 C 
BRANCH  19  23
ATOM     23  C   UNL A   1      34.174  16.168  25.096  1.00  0.00     0.310 C 
ATOM     24  O   UNL A   1      35.117  15.402  25.243  1.00  0.00    -0.252 OA
BRANCH  23  25
ATOM     25  O   UNL A   1      33.082  16.234  25.899  1.00  0.00    -0.469 OA
ATOM     26  C   UNL A   1      32.340  15.023  26.002  1.00  0.00     0.282 C 
ENDBRANCH  23  25
ENDBRANCH  19  23
ENDBRANCH  15  18
ENDBRANCH  10  15
ENDBRANCH   7   9
ENDBRANCH   6   7
ENDBRANCH   5   6
ENDBRANCH   4   5
ENDBRANCH   3   4
ENDBRANCH   2   3
ENDBRANCH   1   2
BRANCH   1  27
ATOM     27  O   UNL A   1      42.543  19.115  26.454  1.00  0.00    -0.377 OA
BRANCH  27  28
ATOM     28  C   UNL A   1      43.250  18.905  25.232  1.00  0.00     0.188 C 
BRANCH  28  29
ATOM     29  C   UNL A   1      44.792  18.833  25.228  1.00  0.00     0.188 C 
BRANCH  29  30
ATOM     30  O   UNL A   1      45.438  19.740  24.352  1.00  0.00    -0.376 OA
BRANCH  30  31
ATOM     31  C   UNL A   1      46.344  20.671  24.927  1.00  0.00     0.202 C 
BRANCH  31  32
ATOM     32  C   UNL A   1      45.945  22.156  24.936  1.00  0.00     0.261 C 
BRANCH  32  33
ATOM     33  O   UNL A   1      44.816  22.505  25.752  1.00  0.00    -0.460 OA
BRANCH  33  34
ATOM     34  C   UNL A   1      43.837  23.260  25.205  1.00  0.00     0.338 C 
ATOM     35  O   UNL A   1      43.307  23.112  24.119  1.00  0.00    -0.246 OA
BRANCH  34  36
ATOM     36  C   UNL A   1      43.372  24.186  26.255  1.00  0.00     0.060 A 
ATOM     37  C   UNL A   1      43.557  25.566  26.086  1.00  0.00     0.016 A 
ATOM     38  C   UNL A   1      42.721  23.689  27.384  1.00  0.00     0.016 A 
ATOM     39  C   UNL A   1      43.085  26.456  27.049  1.00  0.00     0.010 A 
ATOM     40  C   UNL A   1      42.281  24.579  28.363  1.00  0.00     0.010 A 
ATOM     41  C   UNL A   1      42.475  25.963  28.207  1.00  0.00    -0.014 A 
BRANCH  41  42
ATOM     42  C   UNL A   1      42.182  26.871  29.338  1.00  0.00     0.031 A 
ATOM     43  C   UNL A   1      40.919  27.680  29.294  1.00  0.00     0.074 A 
ATOM     44  C   UNL A   1      43.042  27.006  30.362  1.00  0.00     0.049 A 
ATOM     45  N   UNL A   1      40.514  28.628  30.094  1.00  0.00    -0.248 NA
ATOM     46  C   UNL A   1      39.993  27.380  28.189  1.00  0.00     0.031 C 
ATOM     47  C   UNL A   1      44.289  26.262  30.521  1.00  0.00     0.029 A 
ATOM     48  N   UNL A   1      43.011  27.856  31.439  1.00  0.00    -0.354 N 
ATOM     49  C   UNL A   1      39.302  29.065  29.575  1.00  0.00     0.074 A 
ATOM     50  C   UNL A   1      39.044  28.282  28.385  1.00  0.00     0.031 C 
ATOM     51  C   UNL A   1      44.936  26.729  31.603  1.00  0.00     0.029 A 
ATOM     52  C   UNL A   1      44.164  27.827  32.186  1.00  0.00     0.049 A 
ATOM     53  H   UNL A   1      42.241  28.430  31.655  1.00  0.00     0.167 HD
ATOM     54  C   UNL A   1      38.476  30.028  30.048  1.00  0.00     0.034 A 
ATOM     55  C   UNL A   1      44.574  28.630  33.188  1.00  0.00     0.034 A 
ATOM     56  C   UNL A   1      38.746  30.808  31.224  1.00  0.00     0.049 A 
ATOM     57  C   UNL A   1      43.673  29.741  33.661  1.00  0.00     0.074 A 
ATOM     58  C   UNL A   1      37.957  31.781  31.810  1.00  0.00     0.029 A 
ATOM     59  N   UNL A   1      39.908  30.727  31.978  1.00  0.00    -0.354 N 
ATOM     60  N   UNL A   1      42.479  30.075  33.234  1.00  0.00    -0.248 NA
ATOM     61  C   UNL A   1      44.167  30.573  34.768  1.00  0.00     0.031 C 
ATOM     62  C   UNL A   1      38.663  32.322  32.890  1.00  0.00     0.029 A 
ATOM     63  C   UNL A   1      39.871  31.654  33.005  1.00  0.00     0.049 A 
ATOM     64  H   UNL A   1      40.649  30.103  31.806  1.00  0.00     0.167 HD
ATOM     65  C   UNL A   1      42.069  31.139  34.031  1.00  0.00     0.074 A 
ATOM     66  C   UNL A   1      43.135  31.379  34.983  1.00  0.00     0.031 C 
ATOM     67  C   UNL A   1      40.924  31.862  33.969  1.00  0.00     0.034 A 
BRANCH  54  68
ATOM     68  C   UNL A   1      37.208  30.289  29.279  1.00  0.00     0.023 A 
ATOM     69  C   UNL A   1      36.480  29.210  28.736  1.00  0.00     0.012 A 
ATOM     70  C   UNL A   1      36.729  31.602  29.106  1.00  0.00     0.148 A 
ATOM     71  C   UNL A   1      35.322  29.437  27.993  1.00  0.00     0.002 A 
ATOM     72  C   UNL A   1      35.547  31.816  28.407  1.00  0.00     0.091 A 
ATOM     73  F   UNL A   1      37.446  32.617  29.609  1.00  0.00    -0.205 F 
ATOM     74  C   UNL A   1      34.851  30.738  27.836  1.00  0.00     0.022 A 
BRANCH  72  75
ATOM     75  S   UNL A   1      34.817  33.446  28.217  1.00  0.00     0.127 S 
ATOM     76  O   UNL A   1      34.977  34.000  29.560  1.00  0.00    -0.237 OA
ATOM     77  O   UNL A   1      35.679  34.051  27.201  1.00  0.00    -0.237 OA
ATOM     78  O   UNL A   1      33.442  33.223  27.792  1.00  0.00    -0.744 OA
ENDBRANCH  72  75
ENDBRANCH  54  68
BRANCH  55  79
ATOM     79  C   UNL A   1      45.919  28.426  33.792  1.00  0.00     0.023 A 
ATOM     80  C   UNL A   1      47.029  29.129  33.290  1.00  0.00     0.012 A 
ATOM     81  C   UNL A   1      46.093  27.550  34.883  1.00  0.00     0.148 A 
ATOM     82  C   UNL A   1      48.294  28.954  33.854  1.00  0.00     0.002 A 
ATOM     83  C   UNL A   1      47.345  27.416  35.470  1.00  0.00     0.091 A 
ATOM     84  F   UNL A   1      45.026  26.873  35.330  1.00  0.00    -0.205 F 
ATOM     85  C   UNL A   1      48.449  28.109  34.950  1.00  0.00     0.022 A 
BRANCH  83  86
ATOM     86  S   UNL A   1      47.613  26.431  36.947  1.00  0.00     0.127 S 
ATOM     87  O   UNL A   1      47.393  25.077  36.447  1.00  0.00    -0.237 OA
ATOM     88  O   UNL A   1      49.003  26.747  37.268  1.00  0.00    -0.237 OA
ATOM     89  O   UNL A   1      46.640  26.911  37.921  1.00  0.00    -0.744 OA
ENDBRANCH  83  86
ENDBRANCH  55  79
BRANCH  67  90
ATOM     90  C   UNL A   1      40.736  32.975  34.970  1.00  0.00     0.023 A 
ATOM     91  C   UNL A   1      41.121  34.290  34.636  1.00  0.00     0.012 A 
ATOM     92  C   UNL A   1      40.089  32.735  36.198  1.00  0.00     0.148 A 
ATOM     93  C   UNL A   1      40.884  35.343  35.520  1.00  0.00     0.002 A 
ATOM     94  C   UNL A   1      39.811  33.795  37.051  1.00  0.00     0.091 A 
ATOM     95  F   UNL A   1      39.741  31.476  36.500  1.00  0.00    -0.205 F 
ATOM     96  C   UNL A   1      40.219  35.098  36.719  1.00  0.00     0.022 A 
BRANCH  94  97
ATOM     97  S   UNL A   1      38.876  33.599  38.572  1.00  0.00     0.127 S 
ATOM     98  O   UNL A   1      39.728  32.683  39.330  1.00  0.00    -0.237 OA
ATOM     99  O   UNL A   1      38.840  34.966  39.090  1.00  0.00    -0.237 OA
ATOM    100  O   UNL A   1      37.580  33.058  38.185  1.00  0.00    -0.744 OA
ENDBRANCH  94  97
ENDBRANCH  67  90
ENDBRANCH  41  42
ENDBRANCH  34  36
ENDBRANCH  33  34
ENDBRANCH  32  33
ENDBRANCH  31  32
ENDBRANCH  30  31
ENDBRANCH  29  30
ENDBRANCH  28  29
ENDBRANCH  27  28
ENDBRANCH   1  27
TORSDOF 27
ENDMDL
