MODEL 1
REMARK VINA RESULT:     -10.7      0.000      0.000
REMARK SMILES C[C@@]1(C(=O)c2ccccc2N)[C@H](C(=O)OCCOCCOCCOCCOC(=O)c2ccc(-c3c4nc(c(-c5cccc(S(=O)(=O)[O-])c5F)c5ccc([nH]5)c(-c5cccc(S(=O)(=O)[O-])c5F)c5nc(c(-c6cccc(S(=O)(=O)[O-])c6F)c6ccc3[nH]6)C=C5)C=C4)cc2)[C@@H]1C(=O)N1CCOCC1
REMARK SMILES IDX 21 1 20 2 19 3 18 4 17 5 16 6 15 7 13 8 14 9 12 10 1 11 2 12
REMARK SMILES IDX 93 13 3 14 4 15 5 16 6 17 10 18 7 19 9 20 8 21 11 22 94 25
REMARK SMILES IDX 95 26 96 27 97 28 101 29 98 30 100 31 99 32 22 33 23 34
REMARK SMILES IDX 24 35 25 36 26 37 27 38 28 39 29 40 30 41 31 42 92 43 32 44
REMARK SMILES IDX 91 45 33 46 34 47 35 48 85 49 36 50 90 51 84 52 86 53 37 54
REMARK SMILES IDX 89 55 83 56 82 57 38 59 70 60 50 61 69 62 51 63 54 64 68 65
REMARK SMILES IDX 87 66 52 67 53 68 67 70 88 71 55 72 39 73 40 74 48 75 41 76
REMARK SMILES IDX 43 77 49 78 42 79 44 80 45 81 46 82 47 83 71 84 72 85 80 86
REMARK SMILES IDX 73 87 75 88 81 89 74 90 76 91 77 92 78 93 79 94 56 95 57 96
REMARK SMILES IDX 65 97 58 98 60 99 66 100 59 101 61 102 62 103 63 104 64 105
REMARK H PARENT 11 23 11 24 86 58 54 69
REMARK Flexibility Score: inf
ROOT
ATOM      1  O   UNL A   1      32.760  27.499  23.692  1.00  0.00    -0.377 OA
ENDROOT
BRANCH   1   2
ATOM      2  C   UNL A   1      31.441  27.947  23.478  1.00  0.00     0.188 C 
BRANCH   2   3
ATOM      3  C   UNL A   1      30.395  26.817  23.496  1.00  0.00     0.188 C 
BRANCH   3   4
ATOM      4  O   UNL A   1      29.599  26.521  24.642  1.00  0.00    -0.376 OA
BRANCH   4   5
ATOM      5  C   UNL A   1      30.007  25.566  25.609  1.00  0.00     0.202 C 
BRANCH   5   6
ATOM      6  C   UNL A   1      31.461  25.077  25.600  1.00  0.00     0.261 C 
BRANCH   6   7
ATOM      7  O   UNL A   1      31.726  23.845  26.296  1.00  0.00    -0.463 OA
BRANCH   7   8
ATOM      8  C   UNL A   1      31.123  22.763  25.748  1.00  0.00     0.310 C 
ATOM      9  O   UNL A   1      30.218  22.128  26.250  1.00  0.00    -0.252 OA
BRANCH   8  10
ATOM     10  C   UNL A   1      31.532  22.429  24.365  1.00  0.00     0.127 C 
ATOM     11  C   UNL A   1      32.484  22.421  22.009  1.00  0.00     0.022 C 
ATOM     12  C   UNL A   1      32.805  22.376  23.531  1.00  0.00     0.057 C 
ATOM     13  C   UNL A   1      32.261  21.120  24.168  1.00  0.00     0.108 C 
BRANCH  12  14
ATOM     14  C   UNL A   1      34.037  23.220  23.820  1.00  0.00     0.172 C 
ATOM     15  O   UNL A   1      33.959  24.400  23.453  1.00  0.00    -0.293 OA
BRANCH  14  16
ATOM     16  C   UNL A   1      35.299  22.915  24.529  1.00  0.00     0.041 A 
ATOM     17  C   UNL A   1      36.171  22.070  23.801  1.00  0.00     0.014 A 
ATOM     18  C   UNL A   1      35.570  23.124  25.886  1.00  0.00     0.042 A 
ATOM     19  C   UNL A   1      37.345  21.553  24.341  1.00  0.00     0.001 A 
ATOM     20  C   UNL A   1      36.778  22.612  26.414  1.00  0.00     0.026 A 
ATOM     21  C   UNL A   1      37.669  21.856  25.650  1.00  0.00     0.002 A 
BRANCH  18  22
ATOM     22  N   UNL A   1      34.619  23.532  26.817  1.00  0.00    -0.398 N 
ATOM     23  H   UNL A   1      33.747  23.874  26.512  1.00  0.00     0.156 HD
ATOM     24  H   UNL A   1      34.818  23.478  27.779  1.00  0.00     0.156 HD
ENDBRANCH  18  22
ENDBRANCH  14  16
ENDBRANCH  12  14
BRANCH  13  25
ATOM     25  C   UNL A   1      32.886  20.333  25.245  1.00  0.00     0.227 C 
ATOM     26  O   UNL A   1      33.445  20.928  26.158  1.00  0.00    -0.275 OA
ATOM     27  N   UNL A   1      33.079  18.995  24.979  1.00  0.00    -0.338 N 
ATOM     28  C   UNL A   1      34.311  18.660  24.273  1.00  0.00     0.148 C 
ATOM     29  C   UNL A   1      32.702  18.012  25.993  1.00  0.00     0.148 C 
ATOM     30  C   UNL A   1      34.292  17.225  23.751  1.00  0.00     0.181 C 
ATOM     31  C   UNL A   1      32.755  16.588  25.423  1.00  0.00     0.181 C 
ATOM     32  O   UNL A   1      34.030  16.303  24.821  1.00  0.00    -0.378 OA
ENDBRANCH  13  25
ENDBRANCH   8  10
ENDBRANCH   7   8
ENDBRANCH   6   7
ENDBRANCH   5   6
ENDBRANCH   4   5
ENDBRANCH   3   4
ENDBRANCH   2   3
ENDBRANCH   1   2
BRANCH   1  33
ATOM     33  C   UNL A   1      33.610  28.308  24.484  1.00  0.00     0.188 C 
BRANCH  33  34
ATOM     34  C   UNL A   1      32.989  28.904  25.750  1.00  0.00     0.188 C 
BRANCH  34  35
ATOM     35  O   UNL A   1      32.745  30.306  25.644  1.00  0.00    -0.376 OA
BRANCH  35  36
ATOM     36  C   UNL A   1      31.492  30.771  26.143  1.00  0.00     0.202 C 
BRANCH  36  37
ATOM     37  C   UNL A   1      31.542  32.060  26.984  1.00  0.00     0.261 C 
BRANCH  37  38
ATOM     38  O   UNL A   1      32.714  32.883  26.834  1.00  0.00    -0.460 OA
BRANCH  38  39
ATOM     39  C   UNL A   1      33.284  33.396  27.942  1.00  0.00     0.338 C 
ATOM     40  O   UNL A   1      32.777  34.168  28.736  1.00  0.00    -0.246 OA
BRANCH  39  41
ATOM     41  C   UNL A   1      34.575  32.709  28.170  1.00  0.00     0.060 A 
ATOM     42  C   UNL A   1      34.549  31.354  28.521  1.00  0.00     0.016 A 
ATOM     43  C   UNL A   1      35.791  33.393  28.084  1.00  0.00     0.016 A 
ATOM     44  C   UNL A   1      35.730  30.698  28.862  1.00  0.00     0.010 A 
ATOM     45  C   UNL A   1      36.976  32.737  28.441  1.00  0.00     0.010 A 
ATOM     46  C   UNL A   1      36.941  31.403  28.883  1.00  0.00    -0.014 A 
BRANCH  46  47
ATOM     47  C   UNL A   1      38.109  30.808  29.579  1.00  0.00     0.031 A 
ATOM     48  C   UNL A   1      38.378  31.219  31.003  1.00  0.00     0.074 A 
ATOM     49  C   UNL A   1      38.899  29.901  28.979  1.00  0.00     0.049 A 
ATOM     50  N   UNL A   1      39.299  30.795  31.829  1.00  0.00    -0.248 NA
ATOM     51  C   UNL A   1      37.487  32.243  31.573  1.00  0.00     0.031 C 
ATOM     52  C   UNL A   1      38.750  29.423  27.606  1.00  0.00     0.029 A 
ATOM     53  N   UNL A   1      39.997  29.229  29.455  1.00  0.00    -0.354 N 
ATOM     54  C   UNL A   1      39.110  31.508  33.006  1.00  0.00     0.074 A 
ATOM     55  C   UNL A   1      38.000  32.408  32.783  1.00  0.00     0.031 C 
ATOM     56  C   UNL A   1      39.738  28.549  27.341  1.00  0.00     0.029 A 
ATOM     57  C   UNL A   1      40.591  28.411  28.523  1.00  0.00     0.049 A 
ATOM     58  H   UNL A   1      40.329  29.323  30.377  1.00  0.00     0.167 HD
ATOM     59  C   UNL A   1      39.781  31.412  34.178  1.00  0.00     0.034 A 
ATOM     60  C   UNL A   1      41.698  27.647  28.613  1.00  0.00     0.034 A 
ATOM     61  C   UNL A   1      40.874  30.508  34.411  1.00  0.00     0.049 A 
ATOM     62  C   UNL A   1      42.439  27.566  29.925  1.00  0.00     0.074 A 
ATOM     63  C   UNL A   1      41.588  30.304  35.578  1.00  0.00     0.029 A 
ATOM     64  N   UNL A   1      41.421  29.668  33.454  1.00  0.00    -0.354 N 
ATOM     65  N   UNL A   1      42.159  28.140  31.070  1.00  0.00    -0.248 NA
ATOM     66  C   UNL A   1      43.627  26.700  29.967  1.00  0.00     0.031 C 
ATOM     67  C   UNL A   1      42.581  29.354  35.320  1.00  0.00     0.029 A 
ATOM     68  C   UNL A   1      42.470  28.950  34.001  1.00  0.00     0.049 A 
ATOM     69  H   UNL A   1      41.108  29.592  32.524  1.00  0.00     0.167 HD
ATOM     70  C   UNL A   1      43.110  27.676  31.974  1.00  0.00     0.074 A 
ATOM     71  C   UNL A   1      43.961  26.757  31.249  1.00  0.00     0.031 C 
ATOM     72  C   UNL A   1      43.273  27.994  33.284  1.00  0.00     0.034 A 
BRANCH  59  73
ATOM     73  C   UNL A   1      39.325  32.286  35.313  1.00  0.00     0.023 A 
ATOM     74  C   UNL A   1      38.369  31.795  36.226  1.00  0.00     0.012 A 
ATOM     75  C   UNL A   1      39.869  33.571  35.505  1.00  0.00     0.148 A 
ATOM     76  C   UNL A   1      37.941  32.580  37.296  1.00  0.00     0.002 A 
ATOM     77  C   UNL A   1      39.467  34.332  36.597  1.00  0.00     0.091 A 
ATOM     78  F   UNL A   1      40.755  34.030  34.609  1.00  0.00    -0.205 F 
ATOM     79  C   UNL A   1      38.496  33.842  37.487  1.00  0.00     0.022 A 
BRANCH  77  80
ATOM     80  S   UNL A   1      40.177  35.939  36.968  1.00  0.00     0.127 S 
ATOM     81  O   UNL A   1      39.665  36.748  35.863  1.00  0.00    -0.237 OA
ATOM     82  O   UNL A   1      39.586  36.243  38.271  1.00  0.00    -0.237 OA
ATOM     83  O   UNL A   1      41.620  35.743  36.986  1.00  0.00    -0.744 OA
ENDBRANCH  77  80
ENDBRANCH  59  73
BRANCH  60  84
ATOM     84  C   UNL A   1      42.152  26.852  27.436  1.00  0.00     0.023 A 
ATOM     85  C   UNL A   1      42.832  27.492  26.381  1.00  0.00     0.012 A 
ATOM     86  C   UNL A   1      41.924  25.464  27.362  1.00  0.00     0.148 A 
ATOM     87  C   UNL A   1      43.249  26.771  25.261  1.00  0.00     0.002 A 
ATOM     88  C   UNL A   1      42.393  24.742  26.271  1.00  0.00     0.091 A 
ATOM     89  F   UNL A   1      41.256  24.876  28.364  1.00  0.00    -0.205 F 
ATOM     90  C   UNL A   1      43.040  25.396  25.211  1.00  0.00     0.022 A 
BRANCH  88  91
ATOM     91  S   UNL A   1      42.291  22.950  26.194  1.00  0.00     0.127 S 
ATOM     92  O   UNL A   1      42.869  22.673  24.883  1.00  0.00    -0.237 OA
ATOM     93  O   UNL A   1      43.118  22.550  27.333  1.00  0.00    -0.237 OA
ATOM     94  O   UNL A   1      40.876  22.635  26.347  1.00  0.00    -0.744 OA
ENDBRANCH  88  91
ENDBRANCH  60  84
BRANCH  72  95
ATOM     95  C   UNL A   1      44.394  27.322  34.035  1.00  0.00     0.023 A 
ATOM     96  C   UNL A   1      45.657  27.941  34.109  1.00  0.00     0.012 A 
ATOM     97  C   UNL A   1      44.175  26.116  34.730  1.00  0.00     0.148 A 
ATOM     98  C   UNL A   1      46.694  27.355  34.835  1.00  0.00     0.002 A 
ATOM     99  C   UNL A   1      45.199  25.562  35.491  1.00  0.00     0.091 A 
ATOM    100  F   UNL A   1      42.973  25.530  34.634  1.00  0.00    -0.205 F 
ATOM    101  C   UNL A   1      46.462  26.173  35.535  1.00  0.00     0.022 A 
BRANCH  99 102
ATOM    102  S   UNL A   1      44.955  24.093  36.499  1.00  0.00     0.127 S 
ATOM    103  O   UNL A   1      46.319  23.800  36.933  1.00  0.00    -0.237 OA
ATOM    104  O   UNL A   1      44.070  24.582  37.557  1.00  0.00    -0.237 OA
ATOM    105  O   UNL A   1      44.349  23.105  35.618  1.00  0.00    -0.744 OA
ENDBRANCH  99 102
ENDBRANCH  72  95
ENDBRANCH  46  47
ENDBRANCH  39  41
ENDBRANCH  38  39
ENDBRANCH  37  38
ENDBRANCH  36  37
ENDBRANCH  35  36
ENDBRANCH  34  35
ENDBRANCH  33  34
ENDBRANCH   1  33
TORSDOF 27
ENDMDL
MODEL 2
REMARK VINA RESULT:     -10.6      1.769      7.589
REMARK SMILES C[C@@]1(C(=O)c2ccccc2N)[C@H](C(=O)OCCOCCOCCOCCOC(=O)c2ccc(-c3c4nc(c(-c5cccc(S(=O)(=O)[O-])c5F)c5ccc([nH]5)c(-c5cccc(S(=O)(=O)[O-])c5F)c5nc(c(-c6cccc(S(=O)(=O)[O-])c6F)c6ccc3[nH]6)C=C5)C=C4)cc2)[C@@H]1C(=O)N1CCOCC1
REMARK SMILES IDX 21 1 20 2 19 3 18 4 17 5 16 6 15 7 13 8 14 9 12 10 1 11 2 12
REMARK SMILES IDX 93 13 3 14 4 15 5 16 6 17 10 18 7 19 9 20 8 21 11 22 94 25
REMARK SMILES IDX 95 26 96 27 97 28 101 29 98 30 100 31 99 32 22 33 23 34
REMARK SMILES IDX 24 35 25 36 26 37 27 38 28 39 29 40 30 41 31 42 92 43 32 44
REMARK SMILES IDX 91 45 33 46 34 47 35 48 85 49 36 50 90 51 84 52 86 53 37 54
REMARK SMILES IDX 89 55 83 56 82 57 38 59 70 60 50 61 69 62 51 63 54 64 68 65
REMARK SMILES IDX 87 66 52 67 53 68 67 70 88 71 55 72 39 73 40 74 48 75 41 76
REMARK SMILES IDX 43 77 49 78 42 79 44 80 45 81 46 82 47 83 71 84 72 85 80 86
REMARK SMILES IDX 73 87 75 88 81 89 74 90 76 91 77 92 78 93 79 94 56 95 57 96
REMARK SMILES IDX 65 97 58 98 60 99 66 100 59 101 61 102 62 103 63 104 64 105
REMARK H PARENT 11 23 11 24 86 58 54 69
REMARK Flexibility Score: inf
ROOT
ATOM      1  O   UNL A   1      30.215  28.124  21.980  1.00  0.00    -0.377 OA
ENDROOT
BRANCH   1   2
ATOM      2  C   UNL A   1      30.726  27.074  22.768  1.00  0.00     0.188 C 
BRANCH   2   3
ATOM      3  C   UNL A   1      31.820  26.251  22.065  1.00  0.00     0.188 C 
BRANCH   3   4
ATOM      4  O   UNL A   1      32.653  25.322  22.757  1.00  0.00    -0.376 OA
BRANCH   4   5
ATOM      5  C   UNL A   1      32.729  23.957  22.375  1.00  0.00     0.202 C 
BRANCH   5   6
ATOM      6  C   UNL A   1      34.052  23.206  22.569  1.00  0.00     0.261 C 
BRANCH   6   7
ATOM      7  O   UNL A   1      34.752  23.453  23.803  1.00  0.00    -0.463 OA
BRANCH   7   8
ATOM      8  C   UNL A   1      35.272  22.341  24.374  1.00  0.00     0.310 C 
ATOM      9  O   UNL A   1      36.211  21.699  23.948  1.00  0.00    -0.252 OA
BRANCH   8  10
ATOM     10  C   UNL A   1      34.716  21.975  25.696  1.00  0.00     0.127 C 
ATOM     11  C   UNL A   1      33.501  21.909  27.928  1.00  0.00     0.022 C 
ATOM     12  C   UNL A   1      33.357  21.882  26.379  1.00  0.00     0.057 C 
ATOM     13  C   UNL A   1      33.997  20.649  25.790  1.00  0.00     0.108 C 
BRANCH  12  14
ATOM     14  C   UNL A   1      32.148  22.707  25.962  1.00  0.00     0.172 C 
ATOM     15  O   UNL A   1      31.171  22.047  25.582  1.00  0.00    -0.293 OA
BRANCH  14  16
ATOM     16  C   UNL A   1      31.889  24.164  25.991  1.00  0.00     0.041 A 
ATOM     17  C   UNL A   1      33.065  24.949  26.064  1.00  0.00     0.014 A 
ATOM     18  C   UNL A   1      30.664  24.793  26.237  1.00  0.00     0.042 A 
ATOM     19  C   UNL A   1      33.038  26.330  26.238  1.00  0.00     0.001 A 
ATOM     20  C   UNL A   1      30.651  26.199  26.388  1.00  0.00     0.026 A 
ATOM     21  C   UNL A   1      31.817  26.965  26.366  1.00  0.00     0.002 A 
BRANCH  18  22
ATOM     22  N   UNL A   1      29.511  24.123  26.637  1.00  0.00    -0.398 N 
ATOM     23  H   UNL A   1      28.859  23.819  25.964  1.00  0.00     0.156 HD
ATOM     24  H   UNL A   1      29.348  23.952  27.593  1.00  0.00     0.156 HD
ENDBRANCH  18  22
ENDBRANCH  14  16
ENDBRANCH  12  14
BRANCH  13  25
ATOM     25  C   UNL A   1      33.516  19.868  24.637  1.00  0.00     0.227 C 
ATOM     26  O   UNL A   1      32.827  20.429  23.795  1.00  0.00    -0.275 OA
ATOM     27  N   UNL A   1      33.603  18.498  24.759  1.00  0.00    -0.338 N 
ATOM     28  C   UNL A   1      32.483  17.849  25.430  1.00  0.00     0.148 C 
ATOM     29  C   UNL A   1      34.145  17.723  23.645  1.00  0.00     0.148 C 
ATOM     30  C   UNL A   1      32.803  16.402  25.795  1.00  0.00     0.181 C 
ATOM     31  C   UNL A   1      34.394  16.267  24.060  1.00  0.00     0.181 C 
ATOM     32  O   UNL A   1      33.218  15.668  24.632  1.00  0.00    -0.378 OA
ENDBRANCH  13  25
ENDBRANCH   8  10
ENDBRANCH   7   8
ENDBRANCH   6   7
ENDBRANCH   5   6
ENDBRANCH   4   5
ENDBRANCH   3   4
ENDBRANCH   2   3
ENDBRANCH   1   2
BRANCH   1  33
ATOM     33  C   UNL A   1      30.522  29.450  22.370  1.00  0.00     0.188 C 
BRANCH  33  34
ATOM     34  C   UNL A   1      29.645  30.053  23.470  1.00  0.00     0.188 C 
BRANCH  34  35
ATOM     35  O   UNL A   1      30.401  30.585  24.557  1.00  0.00    -0.376 OA
BRANCH  35  36
ATOM     36  C   UNL A   1      31.375  29.718  25.137  1.00  0.00     0.202 C 
BRANCH  36  37
ATOM     37  C   UNL A   1      32.626  30.406  25.713  1.00  0.00     0.261 C 
BRANCH  37  38
ATOM     38  O   UNL A   1      32.529  30.893  27.065  1.00  0.00    -0.460 OA
BRANCH  38  39
ATOM     39  C   UNL A   1      33.252  31.977  27.410  1.00  0.00     0.338 C 
ATOM     40  O   UNL A   1      32.844  33.116  27.547  1.00  0.00    -0.246 OA
BRANCH  39  41
ATOM     41  C   UNL A   1      34.607  31.534  27.809  1.00  0.00     0.060 A 
ATOM     42  C   UNL A   1      34.806  30.172  28.067  1.00  0.00     0.016 A 
ATOM     43  C   UNL A   1      35.655  32.444  27.969  1.00  0.00     0.016 A 
ATOM     44  C   UNL A   1      36.031  29.727  28.561  1.00  0.00     0.010 A 
ATOM     45  C   UNL A   1      36.881  31.999  28.478  1.00  0.00     0.010 A 
ATOM     46  C   UNL A   1      37.054  30.647  28.826  1.00  0.00    -0.014 A 
BRANCH  46  47
ATOM     47  C   UNL A   1      38.200  30.227  29.670  1.00  0.00     0.031 A 
ATOM     48  C   UNL A   1      39.164  29.211  29.113  1.00  0.00     0.074 A 
ATOM     49  C   UNL A   1      38.408  30.752  30.889  1.00  0.00     0.049 A 
ATOM     50  N   UNL A   1      40.263  28.735  29.636  1.00  0.00    -0.248 NA
ATOM     51  C   UNL A   1      38.844  28.659  27.784  1.00  0.00     0.031 C 
ATOM     52  C   UNL A   1      37.551  31.737  31.545  1.00  0.00     0.029 A 
ATOM     53  N   UNL A   1      39.407  30.514  31.800  1.00  0.00    -0.354 N 
ATOM     54  C   UNL A   1      40.757  27.821  28.714  1.00  0.00     0.074 A 
ATOM     55  C   UNL A   1      39.828  27.791  27.606  1.00  0.00     0.031 C 
ATOM     56  C   UNL A   1      38.050  32.003  32.766  1.00  0.00     0.029 A 
ATOM     57  C   UNL A   1      39.256  31.203  32.980  1.00  0.00     0.049 A 
ATOM     58  H   UNL A   1      40.162  29.906  31.624  1.00  0.00     0.167 HD
ATOM     59  C   UNL A   1      41.893  27.085  28.768  1.00  0.00     0.034 A 
ATOM     60  C   UNL A   1      40.002  31.183  34.102  1.00  0.00     0.034 A 
ATOM     61  C   UNL A   1      42.828  27.123  29.859  1.00  0.00     0.049 A 
ATOM     62  C   UNL A   1      41.256  30.345  34.145  1.00  0.00     0.074 A 
ATOM     63  C   UNL A   1      44.030  26.450  29.985  1.00  0.00     0.029 A 
ATOM     64  N   UNL A   1      42.660  27.863  31.017  1.00  0.00    -0.354 N 
ATOM     65  N   UNL A   1      41.783  29.597  33.206  1.00  0.00    -0.248 NA
ATOM     66  C   UNL A   1      42.040  30.381  35.390  1.00  0.00     0.031 C 
ATOM     67  C   UNL A   1      44.579  26.768  31.231  1.00  0.00     0.029 A 
ATOM     68  C   UNL A   1      43.731  27.657  31.870  1.00  0.00     0.049 A 
ATOM     69  H   UNL A   1      41.892  28.450  31.206  1.00  0.00     0.167 HD
ATOM     70  C   UNL A   1      42.975  29.105  33.732  1.00  0.00     0.074 A 
ATOM     71  C   UNL A   1      43.102  29.658  35.064  1.00  0.00     0.031 C 
ATOM     72  C   UNL A   1      43.875  28.259  33.170  1.00  0.00     0.034 A 
BRANCH  59  73
ATOM     73  C   UNL A   1      42.204  26.202  27.591  1.00  0.00     0.023 A 
ATOM     74  C   UNL A   1      42.895  26.738  26.485  1.00  0.00     0.012 A 
ATOM     75  C   UNL A   1      41.857  24.838  27.596  1.00  0.00     0.148 A 
ATOM     76  C   UNL A   1      43.209  25.935  25.388  1.00  0.00     0.002 A 
ATOM     77  C   UNL A   1      42.209  24.035  26.517  1.00  0.00     0.091 A 
ATOM     78  F   UNL A   1      41.175  24.355  28.645  1.00  0.00    -0.205 F 
ATOM     79  C   UNL A   1      42.876  24.585  25.409  1.00  0.00     0.022 A 
BRANCH  77  80
ATOM     80  S   UNL A   1      41.888  22.268  26.482  1.00  0.00     0.127 S 
ATOM     81  O   UNL A   1      40.435  22.237  26.320  1.00  0.00    -0.237 OA
ATOM     82  O   UNL A   1      42.642  21.842  25.303  1.00  0.00    -0.237 OA
ATOM     83  O   UNL A   1      42.390  21.746  27.745  1.00  0.00    -0.744 OA
ENDBRANCH  77  80
ENDBRANCH  59  73
BRANCH  60  84
ATOM     84  C   UNL A   1      39.613  32.024  35.270  1.00  0.00     0.023 A 
ATOM     85  C   UNL A   1      40.042  33.364  35.339  1.00  0.00     0.012 A 
ATOM     86  C   UNL A   1      38.810  31.508  36.305  1.00  0.00     0.148 A 
ATOM     87  C   UNL A   1      39.705  34.164  36.433  1.00  0.00     0.002 A 
ATOM     88  C   UNL A   1      38.430  32.326  37.362  1.00  0.00     0.091 A 
ATOM     89  F   UNL A   1      38.429  30.224  36.234  1.00  0.00    -0.205 F 
ATOM     90  C   UNL A   1      38.891  33.649  37.437  1.00  0.00     0.022 A 
BRANCH  88  91
ATOM     91  S   UNL A   1      37.269  31.785  38.622  1.00  0.00     0.127 S 
ATOM     92  O   UNL A   1      36.152  32.703  38.415  1.00  0.00    -0.237 OA
ATOM     93  O   UNL A   1      37.014  30.400  38.226  1.00  0.00    -0.237 OA
ATOM     94  O   UNL A   1      37.980  31.920  39.887  1.00  0.00    -0.744 OA
ENDBRANCH  88  91
ENDBRANCH  60  84
BRANCH  72  95
ATOM     95  C   UNL A   1      45.099  27.900  33.973  1.00  0.00     0.023 A 
ATOM     96  C   UNL A   1      46.251  28.707  33.892  1.00  0.00     0.012 A 
ATOM     97  C   UNL A   1      45.082  26.808  34.863  1.00  0.00     0.148 A 
ATOM     98  C   UNL A   1      47.378  28.414  34.660  1.00  0.00     0.002 A 
ATOM     99  C   UNL A   1      46.192  26.549  35.660  1.00  0.00     0.091 A 
ATOM    100  F   UNL A   1      43.985  26.038  34.913  1.00  0.00    -0.205 F 
ATOM    101  C   UNL A   1      47.345  27.343  35.551  1.00  0.00     0.022 A 
BRANCH  99 102
ATOM    102  S   UNL A   1      46.197  25.249  36.902  1.00  0.00     0.127 S 
ATOM    103  O   UNL A   1      45.579  24.142  36.176  1.00  0.00    -0.237 OA
ATOM    104  O   UNL A   1      47.626  25.079  37.172  1.00  0.00    -0.237 OA
ATOM    105  O   UNL A   1      45.431  25.772  38.025  1.00  0.00    -0.744 OA
ENDBRANCH  99 102
ENDBRANCH  72  95
ENDBRANCH  46  47
ENDBRANCH  39  41
ENDBRANCH  38  39
ENDBRANCH  37  38
ENDBRANCH  36  37
ENDBRANCH  35  36
ENDBRANCH  34  35
ENDBRANCH  33  34
ENDBRANCH   1  33
TORSDOF 27
ENDMDL
MODEL 3
REMARK VINA RESULT:     -10.5      1.401      2.798
REMARK SMILES C[C@@]1(C(=O)c2ccccc2N)[C@H](C(=O)OCCOCCOCCOCCOC(=O)c2ccc(-c3c4nc(c(-c5cccc(S(=O)(=O)[O-])c5F)c5ccc([nH]5)c(-c5cccc(S(=O)(=O)[O-])c5F)c5nc(c(-c6cccc(S(=O)(=O)[O-])c6F)c6ccc3[nH]6)C=C5)C=C4)cc2)[C@@H]1C(=O)N1CCOCC1
REMARK SMILES IDX 21 1 20 2 19 3 18 4 17 5 16 6 15 7 13 8 14 9 12 10 1 11 2 12
REMARK SMILES IDX 93 13 3 14 4 15 5 16 6 17 10 18 7 19 9 20 8 21 11 22 94 25
REMARK SMILES IDX 95 26 96 27 97 28 101 29 98 30 100 31 99 32 22 33 23 34
REMARK SMILES IDX 24 35 25 36 26 37 27 38 28 39 29 40 30 41 31 42 92 43 32 44
REMARK SMILES IDX 91 45 33 46 34 47 35 48 85 49 36 50 90 51 84 52 86 53 37 54
REMARK SMILES IDX 89 55 83 56 82 57 38 59 70 60 50 61 69 62 51 63 54 64 68 65
REMARK SMILES IDX 87 66 52 67 53 68 67 70 88 71 55 72 39 73 40 74 48 75 41 76
REMARK SMILES IDX 43 77 49 78 42 79 44 80 45 81 46 82 47 83 71 84 72 85 80 86
REMARK SMILES IDX 73 87 75 88 81 89 74 90 76 91 77 92 78 93 79 94 56 95 57 96
REMARK SMILES IDX 65 97 58 98 60 99 66 100 59 101 61 102 62 103 63 104 64 105
REMARK H PARENT 11 23 11 24 86 58 54 69
REMARK Flexibility Score: inf
ROOT
ATOM      1  O   UNL A   1      32.264  26.867  22.612  1.00  0.00    -0.377 OA
ENDROOT
BRANCH   1   2
ATOM      2  C   UNL A   1      30.988  27.432  22.417  1.00  0.00     0.188 C 
BRANCH   2   3
ATOM      3  C   UNL A   1      29.946  26.977  23.455  1.00  0.00     0.188 C 
BRANCH   3   4
ATOM      4  O   UNL A   1      30.267  26.769  24.830  1.00  0.00    -0.376 OA
BRANCH   4   5
ATOM      5  C   UNL A   1      30.051  25.519  25.466  1.00  0.00     0.202 C 
BRANCH   5   6
ATOM      6  C   UNL A   1      30.899  24.314  25.038  1.00  0.00     0.261 C 
BRANCH   6   7
ATOM      7  O   UNL A   1      32.267  24.588  24.684  1.00  0.00    -0.463 OA
BRANCH   7   8
ATOM      8  C   UNL A   1      33.110  24.640  25.743  1.00  0.00     0.310 C 
ATOM      9  O   UNL A   1      33.542  25.654  26.254  1.00  0.00    -0.252 OA
BRANCH   8  10
ATOM     10  C   UNL A   1      33.408  23.345  26.394  1.00  0.00     0.127 C 
ATOM     11  C   UNL A   1      33.512  20.905  27.098  1.00  0.00     0.022 C 
ATOM     12  C   UNL A   1      33.872  21.948  26.001  1.00  0.00     0.057 C 
ATOM     13  C   UNL A   1      34.865  22.963  26.515  1.00  0.00     0.108 C 
BRANCH  12  14
ATOM     14  C   UNL A   1      33.646  21.342  24.624  1.00  0.00     0.172 C 
ATOM     15  O   UNL A   1      33.737  22.140  23.681  1.00  0.00    -0.293 OA
BRANCH  14  16
ATOM     16  C   UNL A   1      33.403  19.950  24.186  1.00  0.00     0.041 A 
ATOM     17  C   UNL A   1      34.386  19.034  24.630  1.00  0.00     0.014 A 
ATOM     18  C   UNL A   1      32.515  19.528  23.190  1.00  0.00     0.042 A 
ATOM     19  C   UNL A   1      34.420  17.705  24.216  1.00  0.00     0.001 A 
ATOM     20  C   UNL A   1      32.545  18.170  22.798  1.00  0.00     0.026 A 
ATOM     21  C   UNL A   1      33.468  17.260  23.318  1.00  0.00     0.002 A 
BRANCH  18  22
ATOM     22  N   UNL A   1      31.815  20.392  22.353  1.00  0.00    -0.398 N 
ATOM     23  H   UNL A   1      31.270  21.117  22.738  1.00  0.00     0.156 HD
ATOM     24  H   UNL A   1      31.865  20.279  21.376  1.00  0.00     0.156 HD
ENDBRANCH  18  22
ENDBRANCH  14  16
ENDBRANCH  12  14
BRANCH  13  25
ATOM     25  C   UNL A   1      35.965  23.585  25.758  1.00  0.00     0.227 C 
ATOM     26  O   UNL A   1      35.699  24.187  24.726  1.00  0.00    -0.275 OA
ATOM     27  N   UNL A   1      37.235  23.167  26.089  1.00  0.00    -0.338 N 
ATOM     28  C   UNL A   1      37.703  21.960  25.415  1.00  0.00     0.148 C 
ATOM     29  C   UNL A   1      38.281  24.171  26.280  1.00  0.00     0.148 C 
ATOM     30  C   UNL A   1      38.968  21.404  26.063  1.00  0.00     0.181 C 
ATOM     31  C   UNL A   1      39.543  23.539  26.883  1.00  0.00     0.181 C 
ATOM     32  O   UNL A   1      39.992  22.410  26.114  1.00  0.00    -0.378 OA
ENDBRANCH  13  25
ENDBRANCH   8  10
ENDBRANCH   7   8
ENDBRANCH   6   7
ENDBRANCH   5   6
ENDBRANCH   4   5
ENDBRANCH   3   4
ENDBRANCH   2   3
ENDBRANCH   1   2
BRANCH   1  33
ATOM     33  C   UNL A   1      33.334  27.744  22.913  1.00  0.00     0.188 C 
BRANCH  33  34
ATOM     34  C   UNL A   1      33.348  28.334  24.326  1.00  0.00     0.188 C 
BRANCH  34  35
ATOM     35  O   UNL A   1      32.801  29.651  24.386  1.00  0.00    -0.376 OA
BRANCH  35  36
ATOM     36  C   UNL A   1      31.659  29.825  25.222  1.00  0.00     0.202 C 
BRANCH  36  37
ATOM     37  C   UNL A   1      31.784  30.907  26.311  1.00  0.00     0.261 C 
BRANCH  37  38
ATOM     38  O   UNL A   1      32.862  30.752  27.253  1.00  0.00    -0.460 OA
BRANCH  38  39
ATOM     39  C   UNL A   1      33.608  31.833  27.558  1.00  0.00     0.338 C 
ATOM     40  O   UNL A   1      33.210  32.971  27.732  1.00  0.00    -0.246 OA
BRANCH  39  41
ATOM     41  C   UNL A   1      34.985  31.386  27.861  1.00  0.00     0.060 A 
ATOM     42  C   UNL A   1      35.223  30.010  27.977  1.00  0.00     0.016 A 
ATOM     43  C   UNL A   1      36.021  32.301  28.071  1.00  0.00     0.016 A 
ATOM     44  C   UNL A   1      36.475  29.549  28.378  1.00  0.00     0.010 A 
ATOM     45  C   UNL A   1      37.274  31.838  28.488  1.00  0.00     0.010 A 
ATOM     46  C   UNL A   1      37.488  30.463  28.695  1.00  0.00    -0.014 A 
BRANCH  46  47
ATOM     47  C   UNL A   1      38.675  29.991  29.450  1.00  0.00     0.031 A 
ATOM     48  C   UNL A   1      38.833  30.431  30.883  1.00  0.00     0.074 A 
ATOM     49  C   UNL A   1      39.579  29.164  28.897  1.00  0.00     0.049 A 
ATOM     50  N   UNL A   1      39.750  30.104  31.755  1.00  0.00    -0.248 NA
ATOM     51  C   UNL A   1      37.818  31.363  31.402  1.00  0.00     0.031 C 
ATOM     52  C   UNL A   1      39.545  28.670  27.522  1.00  0.00     0.029 A 
ATOM     53  N   UNL A   1      40.715  28.607  29.430  1.00  0.00    -0.354 N 
ATOM     54  C   UNL A   1      39.435  30.799  32.916  1.00  0.00     0.074 A 
ATOM     55  C   UNL A   1      38.253  31.583  32.633  1.00  0.00     0.031 C 
ATOM     56  C   UNL A   1      40.627  27.898  27.312  1.00  0.00     0.029 A 
ATOM     57  C   UNL A   1      41.432  27.850  28.533  1.00  0.00     0.049 A 
ATOM     58  H   UNL A   1      40.991  28.737  30.366  1.00  0.00     0.167 HD
ATOM     59  C   UNL A   1      40.055  30.774  34.119  1.00  0.00     0.034 A 
ATOM     60  C   UNL A   1      42.604  27.200  28.682  1.00  0.00     0.034 A 
ATOM     61  C   UNL A   1      41.220  29.985  34.411  1.00  0.00     0.049 A 
ATOM     62  C   UNL A   1      43.285  27.198  30.029  1.00  0.00     0.074 A 
ATOM     63  C   UNL A   1      41.894  29.857  35.612  1.00  0.00     0.029 A 
ATOM     64  N   UNL A   1      41.893  29.200  33.489  1.00  0.00    -0.354 N 
ATOM     65  N   UNL A   1      42.893  27.745  31.155  1.00  0.00    -0.248 NA
ATOM     66  C   UNL A   1      44.549  26.455  30.135  1.00  0.00     0.031 C 
ATOM     67  C   UNL A   1      42.988  29.009  35.410  1.00  0.00     0.029 A 
ATOM     68  C   UNL A   1      42.981  28.592  34.090  1.00  0.00     0.049 A 
ATOM     69  H   UNL A   1      41.635  29.090  32.545  1.00  0.00     0.167 HD
ATOM     70  C   UNL A   1      43.842  27.382  32.107  1.00  0.00     0.074 A 
ATOM     71  C   UNL A   1      44.814  26.549  31.430  1.00  0.00     0.031 C 
ATOM     72  C   UNL A   1      43.909  27.718  33.420  1.00  0.00     0.034 A 
BRANCH  59  73
ATOM     73  C   UNL A   1      39.460  31.602  35.224  1.00  0.00     0.023 A 
ATOM     74  C   UNL A   1      38.495  31.029  36.078  1.00  0.00     0.012 A 
ATOM     75  C   UNL A   1      39.882  32.927  35.447  1.00  0.00     0.148 A 
ATOM     76  C   UNL A   1      37.939  31.771  37.120  1.00  0.00     0.002 A 
ATOM     77  C   UNL A   1      39.353  33.646  36.513  1.00  0.00     0.091 A 
ATOM     78  F   UNL A   1      40.779  33.462  34.607  1.00  0.00    -0.205 F 
ATOM     79  C   UNL A   1      38.375  33.074  37.343  1.00  0.00     0.022 A 
BRANCH  77  80
ATOM     80  S   UNL A   1      39.903  35.306  36.925  1.00  0.00     0.127 S 
ATOM     81  O   UNL A   1      39.395  36.074  35.789  1.00  0.00    -0.237 OA
ATOM     82  O   UNL A   1      39.210  35.555  38.189  1.00  0.00    -0.237 OA
ATOM     83  O   UNL A   1      41.353  35.231  37.033  1.00  0.00    -0.744 OA
ENDBRANCH  77  80
ENDBRANCH  59  73
BRANCH  60  84
ATOM     84  C   UNL A   1      43.190  26.450  27.535  1.00  0.00     0.023 A 
ATOM     85  C   UNL A   1      43.923  27.142  26.551  1.00  0.00     0.012 A 
ATOM     86  C   UNL A   1      43.037  25.055  27.421  1.00  0.00     0.148 A 
ATOM     87  C   UNL A   1      44.465  26.463  25.458  1.00  0.00     0.002 A 
ATOM     88  C   UNL A   1      43.628  24.377  26.362  1.00  0.00     0.091 A 
ATOM     89  F   UNL A   1      42.318  24.416  28.355  1.00  0.00    -0.205 F 
ATOM     90  C   UNL A   1      44.327  25.081  25.370  1.00  0.00     0.022 A 
BRANCH  88  91
ATOM     91  S   UNL A   1      43.619  22.584  26.249  1.00  0.00     0.127 S 
ATOM     92  O   UNL A   1      45.046  22.281  26.187  1.00  0.00    -0.237 OA
ATOM     93  O   UNL A   1      42.959  22.205  27.498  1.00  0.00    -0.237 OA
ATOM     94  O   UNL A   1      42.848  22.275  25.051  1.00  0.00    -0.744 OA
ENDBRANCH  88  91
ENDBRANCH  60  84
BRANCH  72  95
ATOM     95  C   UNL A   1      45.054  27.164  34.229  1.00  0.00     0.023 A 
ATOM     96  C   UNL A   1      46.286  27.846  34.257  1.00  0.00     0.012 A 
ATOM     97  C   UNL A   1      44.885  26.011  35.022  1.00  0.00     0.148 A 
ATOM     98  C   UNL A   1      47.343  27.371  35.034  1.00  0.00     0.002 A 
ATOM     99  C   UNL A   1      45.928  25.570  35.830  1.00  0.00     0.091 A 
ATOM    100  F   UNL A   1      43.712  25.363  34.970  1.00  0.00    -0.205 F 
ATOM    101  C   UNL A   1      47.160  26.241  35.828  1.00  0.00     0.022 A 
BRANCH  99 102
ATOM    102  S   UNL A   1      45.744  24.181  36.955  1.00  0.00     0.127 S 
ATOM    103  O   UNL A   1      47.097  24.050  37.492  1.00  0.00    -0.237 OA
ATOM    104  O   UNL A   1      44.754  24.679  37.912  1.00  0.00    -0.237 OA
ATOM    105  O   UNL A   1      45.281  23.068  36.137  1.00  0.00    -0.744 OA
ENDBRANCH  99 102
ENDBRANCH  72  95
ENDBRANCH  46  47
ENDBRANCH  39  41
ENDBRANCH  38  39
ENDBRANCH  37  38
ENDBRANCH  36  37
ENDBRANCH  35  36
ENDBRANCH  34  35
ENDBRANCH  33  34
ENDBRANCH   1  33
TORSDOF 27
ENDMDL
