MODEL 1
REMARK VINA RESULT:      -9.3      0.000      0.000
REMARK SMILES O=C(OCCOCCOCCOCCOC(=O)C1(Cc2ccncc2)Cc2ccccc2C1)c1ccc(-c2c3nc(c(-c4cccc(S(=O)(=O)[O-])c4F)c4ccc([nH]4)c(-c4cccc(S(=O)(=O)[O-])c4F)c4nc(c(-c5cccc(S(=O)(=O)[O-])c5F)c5ccc2[nH]5)C=C4)C=C3)cc1
REMARK SMILES IDX 8 1 7 2 6 3 5 4 4 5 3 6 2 7 1 8 34 9 35 10 96 11 36 12 95 13
REMARK SMILES IDX 37 14 38 15 39 16 89 17 40 18 94 19 88 20 90 21 41 22 93 23
REMARK SMILES IDX 87 24 86 25 42 27 74 28 54 29 73 30 55 31 58 32 72 33 91 34
REMARK SMILES IDX 56 35 57 36 71 38 92 39 59 40 43 41 44 42 52 43 45 44 47 45
REMARK SMILES IDX 53 46 46 47 48 48 49 49 50 50 51 51 75 52 76 53 84 54 77 55
REMARK SMILES IDX 79 56 85 57 78 58 80 59 81 60 82 61 83 62 60 63 61 64 69 65
REMARK SMILES IDX 62 66 64 67 70 68 63 69 65 70 66 71 67 72 68 73 9 74 10 75
REMARK SMILES IDX 11 76 12 77 13 78 14 79 15 80 16 81 17 82 18 83 26 84 33 85
REMARK SMILES IDX 27 86 32 87 28 88 31 89 29 90 30 91 19 92 20 93 21 94 25 95
REMARK SMILES IDX 22 96 24 97 23 98
REMARK H PARENT 90 26 58 37
REMARK Flexibility Score: inf
ROOT
ATOM      1  C   UNL A   1      34.630  31.283  27.951  1.00  0.00     0.188 C 
ENDROOT
BRANCH   1   2
ATOM      2  C   UNL A   1      35.318  32.615  28.192  1.00  0.00     0.188 C 
BRANCH   2   3
ATOM      3  O   UNL A   1      34.796  33.180  29.386  1.00  0.00    -0.376 OA
BRANCH   3   4
ATOM      4  C   UNL A   1      35.012  32.433  30.574  1.00  0.00     0.202 C 
BRANCH   4   5
ATOM      5  C   UNL A   1      36.420  32.589  31.140  1.00  0.00     0.261 C 
BRANCH   5   6
ATOM      6  O   UNL A   1      36.803  33.959  31.333  1.00  0.00    -0.460 OA
BRANCH   6   7
ATOM      7  C   UNL A   1      37.954  34.442  31.868  1.00  0.00     0.338 C 
ATOM      8  O   UNL A   1      37.929  34.807  33.044  1.00  0.00    -0.246 OA
BRANCH   7   9
ATOM      9  C   UNL A   1      39.250  34.574  31.128  1.00  0.00     0.060 A 
ATOM     10  C   UNL A   1      40.520  34.438  31.690  1.00  0.00     0.016 A 
ATOM     11  C   UNL A   1      39.176  34.736  29.735  1.00  0.00     0.016 A 
ATOM     12  C   UNL A   1      41.677  34.458  30.927  1.00  0.00     0.010 A 
ATOM     13  C   UNL A   1      40.335  34.769  28.951  1.00  0.00     0.010 A 
ATOM     14  C   UNL A   1      41.590  34.637  29.556  1.00  0.00    -0.014 A 
BRANCH  14  15
ATOM     15  C   UNL A   1      42.842  34.872  28.825  1.00  0.00     0.031 A 
ATOM     16  C   UNL A   1      43.699  33.681  28.540  1.00  0.00     0.074 A 
ATOM     17  C   UNL A   1      43.125  36.094  28.341  1.00  0.00     0.049 A 
ATOM     18  N   UNL A   1      44.894  33.628  28.029  1.00  0.00    -0.248 NA
ATOM     19  C   UNL A   1      43.120  32.362  28.863  1.00  0.00     0.031 C 
ATOM     20  C   UNL A   1      42.257  37.269  28.452  1.00  0.00     0.029 A 
ATOM     21  N   UNL A   1      44.222  36.551  27.662  1.00  0.00    -0.354 N 
ATOM     22  C   UNL A   1      45.247  32.286  28.055  1.00  0.00     0.074 A 
ATOM     23  C   UNL A   1      44.121  31.547  28.573  1.00  0.00     0.031 C 
ATOM     24  C   UNL A   1      42.871  38.323  27.892  1.00  0.00     0.029 A 
ATOM     25  C   UNL A   1      44.200  37.911  27.454  1.00  0.00     0.049 A 
ATOM     26  H   UNL A   1      44.952  35.967  27.355  1.00  0.00     0.167 HD
ATOM     27  C   UNL A   1      46.428  31.737  27.703  1.00  0.00     0.034 A 
ATOM     28  C   UNL A   1      45.183  38.728  27.027  1.00  0.00     0.034 A 
ATOM     29  C   UNL A   1      47.513  32.509  27.174  1.00  0.00     0.049 A 
ATOM     30  C   UNL A   1      46.512  38.097  26.699  1.00  0.00     0.074 A 
ATOM     31  C   UNL A   1      48.769  32.086  26.788  1.00  0.00     0.029 A 
ATOM     32  N   UNL A   1      47.464  33.883  26.975  1.00  0.00    -0.354 N 
ATOM     33  N   UNL A   1      46.842  36.826  26.699  1.00  0.00    -0.248 NA
ATOM     34  C   UNL A   1      47.604  39.002  26.321  1.00  0.00     0.031 C 
ATOM     35  C   UNL A   1      49.492  33.213  26.387  1.00  0.00     0.029 A 
ATOM     36  C   UNL A   1      48.677  34.333  26.497  1.00  0.00     0.049 A 
ATOM     37  H   UNL A   1      46.680  34.452  27.150  1.00  0.00     0.167 HD
ATOM     38  C   UNL A   1      48.174  36.774  26.314  1.00  0.00     0.074 A 
ATOM     39  C   UNL A   1      48.580  38.143  26.055  1.00  0.00     0.031 C 
ATOM     40  C   UNL A   1      49.004  35.707  26.210  1.00  0.00     0.034 A 
BRANCH  27  41
ATOM     41  C   UNL A   1      46.610  30.268  27.953  1.00  0.00     0.023 A 
ATOM     42  C   UNL A   1      46.949  29.794  29.235  1.00  0.00     0.012 A 
ATOM     43  C   UNL A   1      46.458  29.353  26.892  1.00  0.00     0.148 A 
ATOM     44  C   UNL A   1      47.160  28.431  29.451  1.00  0.00     0.002 A 
ATOM     45  C   UNL A   1      46.634  27.995  27.122  1.00  0.00     0.091 A 
ATOM     46  F   UNL A   1      46.169  29.833  25.674  1.00  0.00    -0.205 F 
ATOM     47  C   UNL A   1      46.996  27.533  28.399  1.00  0.00     0.022 A 
BRANCH  45  48
ATOM     48  S   UNL A   1      46.405  26.756  25.844  1.00  0.00     0.127 S 
ATOM     49  O   UNL A   1      47.686  26.817  25.141  1.00  0.00    -0.237 OA
ATOM     50  O   UNL A   1      46.199  25.542  26.634  1.00  0.00    -0.237 OA
ATOM     51  O   UNL A   1      45.252  27.185  25.066  1.00  0.00    -0.744 OA
ENDBRANCH  45  48
ENDBRANCH  27  41
BRANCH  28  52
ATOM     52  C   UNL A   1      44.972  40.203  26.952  1.00  0.00     0.023 A 
ATOM     53  C   UNL A   1      44.388  40.774  25.805  1.00  0.00     0.012 A 
ATOM     54  C   UNL A   1      45.342  41.050  28.018  1.00  0.00     0.148 A 
ATOM     55  C   UNL A   1      44.201  42.155  25.711  1.00  0.00     0.002 A 
ATOM     56  C   UNL A   1      45.098  42.418  27.942  1.00  0.00     0.091 A 
ATOM     57  F   UNL A   1      45.930  40.506  29.092  1.00  0.00    -0.205 F 
ATOM     58  C   UNL A   1      44.544  42.975  26.782  1.00  0.00     0.022 A 
BRANCH  56  59
ATOM     59  S   UNL A   1      45.387  43.513  29.339  1.00  0.00     0.127 S 
ATOM     60  O   UNL A   1      44.703  42.808  30.419  1.00  0.00    -0.237 OA
ATOM     61  O   UNL A   1      46.847  43.517  29.431  1.00  0.00    -0.237 OA
ATOM     62  O   UNL A   1      44.814  44.793  28.945  1.00  0.00    -0.744 OA
ENDBRANCH  56  59
ENDBRANCH  28  52
BRANCH  40  63
ATOM     63  C   UNL A   1      50.419  35.977  25.784  1.00  0.00     0.023 A 
ATOM     64  C   UNL A   1      50.733  36.016  24.413  1.00  0.00     0.012 A 
ATOM     65  C   UNL A   1      51.393  36.316  26.739  1.00  0.00     0.148 A 
ATOM     66  C   UNL A   1      52.011  36.379  23.997  1.00  0.00     0.002 A 
ATOM     67  C   UNL A   1      52.648  36.730  26.315  1.00  0.00     0.091 A 
ATOM     68  F   UNL A   1      51.065  36.253  28.038  1.00  0.00    -0.205 F 
ATOM     69  C   UNL A   1      52.961  36.752  24.947  1.00  0.00     0.022 A 
BRANCH  67  70
ATOM     70  S   UNL A   1      53.890  37.338  27.458  1.00  0.00     0.127 S 
ATOM     71  O   UNL A   1      53.092  37.597  28.655  1.00  0.00    -0.237 OA
ATOM     72  O   UNL A   1      54.799  36.198  27.563  1.00  0.00    -0.237 OA
ATOM     73  O   UNL A   1      54.471  38.518  26.831  1.00  0.00    -0.744 OA
ENDBRANCH  67  70
ENDBRANCH  40  63
ENDBRANCH  14  15
ENDBRANCH   7   9
ENDBRANCH   6   7
ENDBRANCH   5   6
ENDBRANCH   4   5
ENDBRANCH   3   4
ENDBRANCH   2   3
ENDBRANCH   1   2
BRANCH   1  74
ATOM     74  O   UNL A   1      33.274  31.414  27.533  1.00  0.00    -0.377 OA
BRANCH  74  75
ATOM     75  C   UNL A   1      32.592  30.243  27.083  1.00  0.00     0.188 C 
BRANCH  75  76
ATOM     76  C   UNL A   1      32.356  29.998  25.586  1.00  0.00     0.188 C 
BRANCH  76  77
ATOM     77  O   UNL A   1      31.245  29.179  25.254  1.00  0.00    -0.376 OA
BRANCH  77  78
ATOM     78  C   UNL A   1      30.829  29.252  23.890  1.00  0.00     0.202 C 
BRANCH  78  79
ATOM     79  C   UNL A   1      29.993  28.053  23.434  1.00  0.00     0.261 C 
BRANCH  79  80
ATOM     80  O   UNL A   1      30.697  27.300  22.425  1.00  0.00    -0.463 OA
BRANCH  80  81
ATOM     81  C   UNL A   1      32.030  27.142  22.547  1.00  0.00     0.313 C 
ATOM     82  O   UNL A   1      32.848  28.004  22.243  1.00  0.00    -0.252 OA
BRANCH  81  83
ATOM     83  C   UNL A   1      32.404  25.783  23.153  1.00  0.00     0.080 C 
ATOM     84  C   UNL A   1      33.511  25.026  22.352  1.00  0.00     0.055 C 
ATOM     85  C   UNL A   1      33.085  26.071  24.528  1.00  0.00     0.055 C 
ATOM     86  C   UNL A   1      34.360  24.401  23.411  1.00  0.00    -0.044 A 
ATOM     87  C   UNL A   1      34.150  25.024  24.633  1.00  0.00    -0.044 A 
ATOM     88  C   UNL A   1      35.298  23.392  23.258  1.00  0.00     0.004 A 
ATOM     89  C   UNL A   1      34.935  24.709  25.727  1.00  0.00     0.004 A 
ATOM     90  C   UNL A   1      36.069  23.039  24.364  1.00  0.00     0.000 A 
ATOM     91  C   UNL A   1      35.902  23.710  25.587  1.00  0.00     0.000 A 
BRANCH  83  92
ATOM     92  C   UNL A   1      31.158  24.858  23.243  1.00  0.00     0.055 C 
BRANCH  92  93
ATOM     93  C   UNL A   1      30.790  24.330  24.606  1.00  0.00    -0.044 A 
ATOM     94  C   UNL A   1      31.047  23.000  24.955  1.00  0.00     0.024 A 
ATOM     95  C   UNL A   1      30.194  25.161  25.552  1.00  0.00     0.024 A 
ATOM     96  C   UNL A   1      30.676  22.559  26.216  1.00  0.00     0.111 A 
ATOM     97  C   UNL A   1      29.860  24.628  26.786  1.00  0.00     0.111 A 
ATOM     98  N   UNL A   1      30.089  23.347  27.142  1.00  0.00    -0.265 NA
ENDBRANCH  92  93
ENDBRANCH  83  92
ENDBRANCH  81  83
ENDBRANCH  80  81
ENDBRANCH  79  80
ENDBRANCH  78  79
ENDBRANCH  77  78
ENDBRANCH  76  77
ENDBRANCH  75  76
ENDBRANCH  74  75
ENDBRANCH   1  74
TORSDOF 25
ENDMDL
MODEL 2
REMARK VINA RESULT:      -9.1      5.567     12.992
REMARK SMILES O=C(OCCOCCOCCOCCOC(=O)C1(Cc2ccncc2)Cc2ccccc2C1)c1ccc(-c2c3nc(c(-c4cccc(S(=O)(=O)[O-])c4F)c4ccc([nH]4)c(-c4cccc(S(=O)(=O)[O-])c4F)c4nc(c(-c5cccc(S(=O)(=O)[O-])c5F)c5ccc2[nH]5)C=C4)C=C3)cc1
REMARK SMILES IDX 8 1 7 2 6 3 5 4 4 5 3 6 2 7 1 8 34 9 35 10 96 11 36 12 95 13
REMARK SMILES IDX 37 14 38 15 39 16 89 17 40 18 94 19 88 20 90 21 41 22 93 23
REMARK SMILES IDX 87 24 86 25 42 27 74 28 54 29 73 30 55 31 58 32 72 33 91 34
REMARK SMILES IDX 56 35 57 36 71 38 92 39 59 40 43 41 44 42 52 43 45 44 47 45
REMARK SMILES IDX 53 46 46 47 48 48 49 49 50 50 51 51 75 52 76 53 84 54 77 55
REMARK SMILES IDX 79 56 85 57 78 58 80 59 81 60 82 61 83 62 60 63 61 64 69 65
REMARK SMILES IDX 62 66 64 67 70 68 63 69 65 70 66 71 67 72 68 73 9 74 10 75
REMARK SMILES IDX 11 76 12 77 13 78 14 79 15 80 16 81 17 82 18 83 26 84 33 85
REMARK SMILES IDX 27 86 32 87 28 88 31 89 29 90 30 91 19 92 20 93 21 94 25 95
REMARK SMILES IDX 22 96 24 97 23 98
REMARK H PARENT 90 26 58 37
REMARK Flexibility Score: inf
ROOT
ATOM      1  C   UNL A   1      44.190  22.955  25.451  1.00  0.00     0.188 C 
ENDROOT
BRANCH   1   2
ATOM      2  C   UNL A   1      42.677  23.090  25.484  1.00  0.00     0.188 C 
BRANCH   2   3
ATOM      3  O   UNL A   1      42.157  22.095  26.355  1.00  0.00    -0.376 OA
BRANCH   3   4
ATOM      4  C   UNL A   1      41.023  21.385  25.881  1.00  0.00     0.202 C 
BRANCH   4   5
ATOM      5  C   UNL A   1      39.775  21.599  26.733  1.00  0.00     0.261 C 
BRANCH   5   6
ATOM      6  O   UNL A   1      38.723  22.280  26.034  1.00  0.00    -0.460 OA
BRANCH   6   7
ATOM      7  C   UNL A   1      38.391  23.596  26.091  1.00  0.00     0.338 C 
ATOM      8  O   UNL A   1      37.439  23.975  25.409  1.00  0.00    -0.246 OA
BRANCH   7   9
ATOM      9  C   UNL A   1      39.106  24.622  26.915  1.00  0.00     0.060 A 
ATOM     10  C   UNL A   1      38.952  24.808  28.289  1.00  0.00     0.016 A 
ATOM     11  C   UNL A   1      40.096  25.381  26.270  1.00  0.00     0.016 A 
ATOM     12  C   UNL A   1      39.730  25.700  29.011  1.00  0.00     0.010 A 
ATOM     13  C   UNL A   1      40.883  26.294  26.982  1.00  0.00     0.010 A 
ATOM     14  C   UNL A   1      40.689  26.456  28.358  1.00  0.00    -0.014 A 
BRANCH  14  15
ATOM     15  C   UNL A   1      41.330  27.536  29.119  1.00  0.00     0.031 A 
ATOM     16  C   UNL A   1      40.495  28.735  29.436  1.00  0.00     0.074 A 
ATOM     17  C   UNL A   1      42.576  27.380  29.600  1.00  0.00     0.049 A 
ATOM     18  N   UNL A   1      40.846  29.865  29.978  1.00  0.00    -0.248 NA
ATOM     19  C   UNL A   1      39.059  28.641  29.110  1.00  0.00     0.031 C 
ATOM     20  C   UNL A   1      43.392  26.172  29.455  1.00  0.00     0.029 A 
ATOM     21  N   UNL A   1      43.374  28.242  30.302  1.00  0.00    -0.354 N 
ATOM     22  C   UNL A   1      39.700  30.647  29.974  1.00  0.00     0.074 A 
ATOM     23  C   UNL A   1      38.626  29.848  29.434  1.00  0.00     0.031 C 
ATOM     24  C   UNL A   1      44.591  26.383  30.022  1.00  0.00     0.029 A 
ATOM     25  C   UNL A   1      44.648  27.760  30.498  1.00  0.00     0.049 A 
ATOM     26  H   UNL A   1      43.069  29.117  30.633  1.00  0.00     0.167 HD
ATOM     27  C   UNL A   1      39.578  31.934  30.361  1.00  0.00     0.034 A 
ATOM     28  C   UNL A   1      45.748  28.400  30.943  1.00  0.00     0.034 A 
ATOM     29  C   UNL A   1      40.669  32.683  30.911  1.00  0.00     0.049 A 
ATOM     30  C   UNL A   1      45.598  29.855  31.311  1.00  0.00     0.074 A 
ATOM     31  C   UNL A   1      40.692  33.997  31.333  1.00  0.00     0.029 A 
ATOM     32  N   UNL A   1      41.948  32.171  31.096  1.00  0.00    -0.354 N 
ATOM     33  N   UNL A   1      44.512  30.591  31.330  1.00  0.00    -0.248 NA
ATOM     34  C   UNL A   1      46.817  30.569  31.708  1.00  0.00     0.031 C 
ATOM     35  C   UNL A   1      41.996  34.289  31.742  1.00  0.00     0.029 A 
ATOM     36  C   UNL A   1      42.778  33.149  31.602  1.00  0.00     0.049 A 
ATOM     37  H   UNL A   1      42.220  31.246  30.896  1.00  0.00     0.167 HD
ATOM     38  C   UNL A   1      44.910  31.853  31.749  1.00  0.00     0.074 A 
ATOM     39  C   UNL A   1      46.335  31.769  32.007  1.00  0.00     0.031 C 
ATOM     40  C   UNL A   1      44.182  32.988  31.885  1.00  0.00     0.034 A 
BRANCH  27  41
ATOM     41  C   UNL A   1      38.255  32.605  30.128  1.00  0.00     0.023 A 
ATOM     42  C   UNL A   1      37.884  33.033  28.840  1.00  0.00     0.012 A 
ATOM     43  C   UNL A   1      37.382  32.824  31.213  1.00  0.00     0.148 A 
ATOM     44  C   UNL A   1      36.672  33.696  28.638  1.00  0.00     0.002 A 
ATOM     45  C   UNL A   1      36.162  33.452  30.999  1.00  0.00     0.091 A 
ATOM     46  F   UNL A   1      37.775  32.438  32.435  1.00  0.00    -0.205 F 
ATOM     47  C   UNL A   1      35.810  33.898  29.714  1.00  0.00     0.022 A 
BRANCH  45  48
ATOM     48  S   UNL A   1      34.966  33.721  32.309  1.00  0.00     0.127 S 
ATOM     49  O   UNL A   1      34.298  34.940  31.854  1.00  0.00    -0.237 OA
ATOM     50  O   UNL A   1      34.148  32.510  32.226  1.00  0.00    -0.237 OA
ATOM     51  O   UNL A   1      35.735  33.859  33.538  1.00  0.00    -0.744 OA
ENDBRANCH  45  48
ENDBRANCH  27  41
BRANCH  28  52
ATOM     52  C   UNL A   1      47.066  27.704  30.998  1.00  0.00     0.023 A 
ATOM     53  C   UNL A   1      47.905  27.692  29.866  1.00  0.00     0.012 A 
ATOM     54  C   UNL A   1      47.502  27.055  32.172  1.00  0.00     0.148 A 
ATOM     55  C   UNL A   1      49.133  27.028  29.896  1.00  0.00     0.002 A 
ATOM     56  C   UNL A   1      48.752  26.447  32.213  1.00  0.00     0.091 A 
ATOM     57  F   UNL A   1      46.684  27.039  33.234  1.00  0.00    -0.205 F 
ATOM     58  C   UNL A   1      49.563  26.417  31.070  1.00  0.00     0.022 A 
BRANCH  56  59
ATOM     59  S   UNL A   1      49.427  25.762  33.733  1.00  0.00     0.127 S 
ATOM     60  O   UNL A   1      50.699  25.212  33.274  1.00  0.00    -0.237 OA
ATOM     61  O   UNL A   1      49.538  26.949  34.583  1.00  0.00    -0.237 OA
ATOM     62  O   UNL A   1      48.437  24.796  34.189  1.00  0.00    -0.744 OA
ENDBRANCH  56  59
ENDBRANCH  28  52
BRANCH  40  63
ATOM     63  C   UNL A   1      44.910  34.219  32.345  1.00  0.00     0.023 A 
ATOM     64  C   UNL A   1      45.541  35.044  31.396  1.00  0.00     0.012 A 
ATOM     65  C   UNL A   1      44.852  34.614  33.693  1.00  0.00     0.148 A 
ATOM     66  C   UNL A   1      46.119  36.249  31.790  1.00  0.00     0.002 A 
ATOM     67  C   UNL A   1      45.382  35.840  34.068  1.00  0.00     0.091 A 
ATOM     68  F   UNL A   1      44.257  33.796  34.574  1.00  0.00    -0.205 F 
ATOM     69  C   UNL A   1      46.024  36.653  33.120  1.00  0.00     0.022 A 
BRANCH  67  70
ATOM     70  S   UNL A   1      45.202  36.492  35.730  1.00  0.00     0.127 S 
ATOM     71  O   UNL A   1      45.789  37.824  35.591  1.00  0.00    -0.237 OA
ATOM     72  O   UNL A   1      43.751  36.478  35.912  1.00  0.00    -0.237 OA
ATOM     73  O   UNL A   1      45.929  35.580  36.602  1.00  0.00    -0.744 OA
ENDBRANCH  67  70
ENDBRANCH  40  63
ENDBRANCH  14  15
ENDBRANCH   7   9
ENDBRANCH   6   7
ENDBRANCH   5   6
ENDBRANCH   4   5
ENDBRANCH   3   4
ENDBRANCH   2   3
ENDBRANCH   1   2
BRANCH   1  74
ATOM     74  O   UNL A   1      44.867  24.021  26.111  1.00  0.00    -0.377 OA
BRANCH  74  75
ATOM     75  C   UNL A   1      44.407  25.353  25.883  1.00  0.00     0.188 C 
BRANCH  75  76
ATOM     76  C   UNL A   1      45.309  26.559  26.187  1.00  0.00     0.188 C 
BRANCH  76  77
ATOM     77  O   UNL A   1      44.983  27.767  25.517  1.00  0.00    -0.376 OA
BRANCH  77  78
ATOM     78  C   UNL A   1      43.803  28.418  25.988  1.00  0.00     0.202 C 
BRANCH  78  79
ATOM     79  C   UNL A   1      44.063  29.444  27.095  1.00  0.00     0.261 C 
BRANCH  79  80
ATOM     80  O   UNL A   1      44.267  30.757  26.530  1.00  0.00    -0.463 OA
BRANCH  80  81
ATOM     81  C   UNL A   1      45.524  31.238  26.449  1.00  0.00     0.313 C 
ATOM     82  O   UNL A   1      46.359  30.831  25.649  1.00  0.00    -0.252 OA
BRANCH  81  83
ATOM     83  C   UNL A   1      45.775  32.385  27.439  1.00  0.00     0.080 C 
ATOM     84  C   UNL A   1      46.839  32.045  28.530  1.00  0.00     0.055 C 
ATOM     85  C   UNL A   1      46.440  33.543  26.632  1.00  0.00     0.055 C 
ATOM     86  C   UNL A   1      47.608  33.315  28.693  1.00  0.00    -0.044 A 
ATOM     87  C   UNL A   1      47.416  34.143  27.595  1.00  0.00    -0.044 A 
ATOM     88  C   UNL A   1      48.467  33.659  29.724  1.00  0.00     0.004 A 
ATOM     89  C   UNL A   1      48.146  35.310  27.459  1.00  0.00     0.004 A 
ATOM     90  C   UNL A   1      49.180  34.852  29.615  1.00  0.00     0.000 A 
ATOM     91  C   UNL A   1      49.035  35.662  28.478  1.00  0.00     0.000 A 
BRANCH  83  92
ATOM     92  C   UNL A   1      44.457  32.788  28.159  1.00  0.00     0.055 C 
BRANCH  92  93
ATOM     93  C   UNL A   1      43.754  34.026  27.665  1.00  0.00    -0.044 A 
ATOM     94  C   UNL A   1      43.582  34.257  26.296  1.00  0.00     0.024 A 
ATOM     95  C   UNL A   1      43.252  34.964  28.565  1.00  0.00     0.024 A 
ATOM     96  C   UNL A   1      42.941  35.418  25.893  1.00  0.00     0.111 A 
ATOM     97  C   UNL A   1      42.626  36.094  28.064  1.00  0.00     0.111 A 
ATOM     98  N   UNL A   1      42.456  36.343  26.749  1.00  0.00    -0.265 NA
ENDBRANCH  92  93
ENDBRANCH  83  92
ENDBRANCH  81  83
ENDBRANCH  80  81
ENDBRANCH  79  80
ENDBRANCH  78  79
ENDBRANCH  77  78
ENDBRANCH  76  77
ENDBRANCH  75  76
ENDBRANCH  74  75
ENDBRANCH   1  74
TORSDOF 25
ENDMDL
MODEL 3
REMARK VINA RESULT:      -9.1      2.366      3.456
REMARK SMILES O=C(OCCOCCOCCOCCOC(=O)C1(Cc2ccncc2)Cc2ccccc2C1)c1ccc(-c2c3nc(c(-c4cccc(S(=O)(=O)[O-])c4F)c4ccc([nH]4)c(-c4cccc(S(=O)(=O)[O-])c4F)c4nc(c(-c5cccc(S(=O)(=O)[O-])c5F)c5ccc2[nH]5)C=C4)C=C3)cc1
REMARK SMILES IDX 8 1 7 2 6 3 5 4 4 5 3 6 2 7 1 8 34 9 35 10 96 11 36 12 95 13
REMARK SMILES IDX 37 14 38 15 39 16 89 17 40 18 94 19 88 20 90 21 41 22 93 23
REMARK SMILES IDX 87 24 86 25 42 27 74 28 54 29 73 30 55 31 58 32 72 33 91 34
REMARK SMILES IDX 56 35 57 36 71 38 92 39 59 40 43 41 44 42 52 43 45 44 47 45
REMARK SMILES IDX 53 46 46 47 48 48 49 49 50 50 51 51 75 52 76 53 84 54 77 55
REMARK SMILES IDX 79 56 85 57 78 58 80 59 81 60 82 61 83 62 60 63 61 64 69 65
REMARK SMILES IDX 62 66 64 67 70 68 63 69 65 70 66 71 67 72 68 73 9 74 10 75
REMARK SMILES IDX 11 76 12 77 13 78 14 79 15 80 16 81 17 82 18 83 26 84 33 85
REMARK SMILES IDX 27 86 32 87 28 88 31 89 29 90 30 91 19 92 20 93 21 94 25 95
REMARK SMILES IDX 22 96 24 97 23 98
REMARK H PARENT 90 26 58 37
REMARK Flexibility Score: inf
ROOT
ATOM      1  C   UNL A   1      38.491  29.205  29.593  1.00  0.00     0.188 C 
ENDROOT
BRANCH   1   2
ATOM      2  C   UNL A   1      38.166  30.436  28.765  1.00  0.00     0.188 C 
BRANCH   2   3
ATOM      3  O   UNL A   1      36.805  30.778  28.986  1.00  0.00    -0.376 OA
BRANCH   3   4
ATOM      4  C   UNL A   1      36.558  32.116  29.390  1.00  0.00     0.202 C 
BRANCH   4   5
ATOM      5  C   UNL A   1      36.807  32.355  30.877  1.00  0.00     0.261 C 
BRANCH   5   6
ATOM      6  O   UNL A   1      37.003  33.739  31.202  1.00  0.00    -0.460 OA
BRANCH   6   7
ATOM      7  C   UNL A   1      38.101  34.327  31.744  1.00  0.00     0.338 C 
ATOM      8  O   UNL A   1      38.015  34.742  32.900  1.00  0.00    -0.246 OA
BRANCH   7   9
ATOM      9  C   UNL A   1      39.406  34.517  31.034  1.00  0.00     0.060 A 
ATOM     10  C   UNL A   1      40.669  34.327  31.597  1.00  0.00     0.016 A 
ATOM     11  C   UNL A   1      39.350  34.799  29.659  1.00  0.00     0.016 A 
ATOM     12  C   UNL A   1      41.835  34.408  30.852  1.00  0.00     0.010 A 
ATOM     13  C   UNL A   1      40.519  34.895  28.895  1.00  0.00     0.010 A 
ATOM     14  C   UNL A   1      41.766  34.706  29.501  1.00  0.00    -0.014 A 
BRANCH  14  15
ATOM     15  C   UNL A   1      43.027  34.998  28.808  1.00  0.00     0.031 A 
ATOM     16  C   UNL A   1      43.871  33.831  28.407  1.00  0.00     0.074 A 
ATOM     17  C   UNL A   1      43.331  36.260  28.457  1.00  0.00     0.049 A 
ATOM     18  N   UNL A   1      45.070  33.815  27.903  1.00  0.00    -0.248 NA
ATOM     19  C   UNL A   1      43.271  32.494  28.586  1.00  0.00     0.031 C 
ATOM     20  C   UNL A   1      42.478  37.429  28.684  1.00  0.00     0.029 A 
ATOM     21  N   UNL A   1      44.441  36.769  27.838  1.00  0.00    -0.354 N 
ATOM     22  C   UNL A   1      45.404  32.472  27.790  1.00  0.00     0.074 A 
ATOM     23  C   UNL A   1      44.263  31.699  28.219  1.00  0.00     0.031 C 
ATOM     24  C   UNL A   1      43.112  38.526  28.242  1.00  0.00     0.029 A 
ATOM     25  C   UNL A   1      44.439  38.144  27.773  1.00  0.00     0.049 A 
ATOM     26  H   UNL A   1      45.165  36.210  27.478  1.00  0.00     0.167 HD
ATOM     27  C   UNL A   1      46.581  31.946  27.392  1.00  0.00     0.034 A 
ATOM     28  C   UNL A   1      45.437  38.987  27.442  1.00  0.00     0.034 A 
ATOM     29  C   UNL A   1      47.681  32.753  26.955  1.00  0.00     0.049 A 
ATOM     30  C   UNL A   1      46.760  38.374  27.059  1.00  0.00     0.074 A 
ATOM     31  C   UNL A   1      48.934  32.355  26.536  1.00  0.00     0.029 A 
ATOM     32  N   UNL A   1      47.653  34.141  26.900  1.00  0.00    -0.354 N 
ATOM     33  N   UNL A   1      47.073  37.106  26.929  1.00  0.00    -0.248 NA
ATOM     34  C   UNL A   1      47.868  39.298  26.787  1.00  0.00     0.031 C 
ATOM     35  C   UNL A   1      49.676  33.508  26.261  1.00  0.00     0.029 A 
ATOM     36  C   UNL A   1      48.875  34.621  26.481  1.00  0.00     0.049 A 
ATOM     37  H   UNL A   1      46.874  34.700  27.128  1.00  0.00     0.167 HD
ATOM     38  C   UNL A   1      48.408  37.075  26.551  1.00  0.00     0.074 A 
ATOM     39  C   UNL A   1      48.835  38.458  26.439  1.00  0.00     0.031 C 
ATOM     40  C   UNL A   1      49.224  36.013  26.342  1.00  0.00     0.034 A 
BRANCH  27  41
ATOM     41  C   UNL A   1      46.741  30.456  27.488  1.00  0.00     0.023 A 
ATOM     42  C   UNL A   1      47.186  29.857  28.682  1.00  0.00     0.012 A 
ATOM     43  C   UNL A   1      46.460  29.649  26.368  1.00  0.00     0.148 A 
ATOM     44  C   UNL A   1      47.374  28.476  28.752  1.00  0.00     0.002 A 
ATOM     45  C   UNL A   1      46.615  28.272  26.455  1.00  0.00     0.091 A 
ATOM     46  F   UNL A   1      46.071  30.246  25.233  1.00  0.00    -0.205 F 
ATOM     47  C   UNL A   1      47.083  27.684  27.643  1.00  0.00     0.022 A 
BRANCH  45  48
ATOM     48  S   UNL A   1      46.227  27.163  25.099  1.00  0.00     0.127 S 
ATOM     49  O   UNL A   1      47.202  26.092  25.304  1.00  0.00    -0.237 OA
ATOM     50  O   UNL A   1      44.843  26.793  25.396  1.00  0.00    -0.237 OA
ATOM     51  O   UNL A   1      46.406  27.937  23.878  1.00  0.00    -0.744 OA
ENDBRANCH  45  48
ENDBRANCH  27  41
BRANCH  28  52
ATOM     52  C   UNL A   1      45.246  40.465  27.521  1.00  0.00     0.023 A 
ATOM     53  C   UNL A   1      45.293  41.115  28.769  1.00  0.00     0.012 A 
ATOM     54  C   UNL A   1      45.022  41.236  26.361  1.00  0.00     0.148 A 
ATOM     55  C   UNL A   1      45.095  42.495  28.862  1.00  0.00     0.002 A 
ATOM     56  C   UNL A   1      44.887  42.618  26.455  1.00  0.00     0.091 A 
ATOM     57  F   UNL A   1      44.943  40.607  25.181  1.00  0.00    -0.205 F 
ATOM     58  C   UNL A   1      44.905  43.248  27.707  1.00  0.00     0.022 A 
BRANCH  56  59
ATOM     59  S   UNL A   1      44.778  43.663  24.996  1.00  0.00     0.127 S 
ATOM     60  O   UNL A   1      45.158  44.967  25.533  1.00  0.00    -0.237 OA
ATOM     61  O   UNL A   1      45.765  43.052  24.105  1.00  0.00    -0.237 OA
ATOM     62  O   UNL A   1      43.403  43.534  24.535  1.00  0.00    -0.744 OA
ENDBRANCH  56  59
ENDBRANCH  28  52
BRANCH  40  63
ATOM     63  C   UNL A   1      50.646  36.305  25.957  1.00  0.00     0.023 A 
ATOM     64  C   UNL A   1      50.979  36.449  24.598  1.00  0.00     0.012 A 
ATOM     65  C   UNL A   1      51.609  36.563  26.949  1.00  0.00     0.148 A 
ATOM     66  C   UNL A   1      52.266  36.835  24.229  1.00  0.00     0.002 A 
ATOM     67  C   UNL A   1      52.872  36.999  26.576  1.00  0.00     0.091 A 
ATOM     68  F   UNL A   1      51.263  36.400  28.234  1.00  0.00    -0.205 F 
ATOM     69  C   UNL A   1      53.205  37.126  25.217  1.00  0.00     0.022 A 
BRANCH  67  70
ATOM     70  S   UNL A   1      54.102  37.508  27.779  1.00  0.00     0.127 S 
ATOM     71  O   UNL A   1      54.335  36.263  28.510  1.00  0.00    -0.237 OA
ATOM     72  O   UNL A   1      55.211  37.933  26.926  1.00  0.00    -0.237 OA
ATOM     73  O   UNL A   1      53.490  38.579  28.553  1.00  0.00    -0.744 OA
ENDBRANCH  67  70
ENDBRANCH  40  63
ENDBRANCH  14  15
ENDBRANCH   7   9
ENDBRANCH   6   7
ENDBRANCH   5   6
ENDBRANCH   4   5
ENDBRANCH   3   4
ENDBRANCH   2   3
ENDBRANCH   1   2
BRANCH   1  74
ATOM     74  O   UNL A   1      39.621  28.482  29.110  1.00  0.00    -0.377 OA
BRANCH  74  75
ATOM     75  C   UNL A   1      39.393  27.418  28.185  1.00  0.00     0.188 C 
BRANCH  75  76
ATOM     76  C   UNL A   1      39.424  25.955  28.649  1.00  0.00     0.188 C 
BRANCH  76  77
ATOM     77  O   UNL A   1      40.049  25.033  27.768  1.00  0.00    -0.376 OA
BRANCH  77  78
ATOM     78  C   UNL A   1      39.377  24.839  26.523  1.00  0.00     0.202 C 
BRANCH  78  79
ATOM     79  C   UNL A   1      38.460  23.614  26.500  1.00  0.00     0.261 C 
BRANCH  79  80
ATOM     80  O   UNL A   1      37.143  23.976  26.036  1.00  0.00    -0.463 OA
BRANCH  80  81
ATOM     81  C   UNL A   1      36.649  23.361  24.942  1.00  0.00     0.313 C 
ATOM     82  O   UNL A   1      37.224  23.333  23.859  1.00  0.00    -0.252 OA
BRANCH  81  83
ATOM     83  C   UNL A   1      35.312  22.660  25.220  1.00  0.00     0.080 C 
ATOM     84  C   UNL A   1      34.318  22.716  24.017  1.00  0.00     0.055 C 
ATOM     85  C   UNL A   1      35.620  21.137  25.365  1.00  0.00     0.055 C 
ATOM     86  C   UNL A   1      33.671  21.370  24.020  1.00  0.00    -0.044 A 
ATOM     87  C   UNL A   1      34.433  20.465  24.747  1.00  0.00    -0.044 A 
ATOM     88  C   UNL A   1      32.517  20.983  23.357  1.00  0.00     0.004 A 
ATOM     89  C   UNL A   1      34.105  19.123  24.764  1.00  0.00     0.004 A 
ATOM     90  C   UNL A   1      32.155  19.637  23.399  1.00  0.00     0.000 A 
ATOM     91  C   UNL A   1      32.957  18.709  24.082  1.00  0.00     0.000 A 
BRANCH  83  92
ATOM     92  C   UNL A   1      34.609  23.286  26.456  1.00  0.00     0.055 C 
BRANCH  92  93
ATOM     93  C   UNL A   1      33.531  24.305  26.192  1.00  0.00    -0.044 A 
ATOM     94  C   UNL A   1      32.181  23.994  26.391  1.00  0.00     0.024 A 
ATOM     95  C   UNL A   1      33.858  25.586  25.750  1.00  0.00     0.024 A 
ATOM     96  C   UNL A   1      31.227  24.962  26.120  1.00  0.00     0.111 A 
ATOM     97  C   UNL A   1      32.832  26.485  25.505  1.00  0.00     0.111 A 
ATOM     98  N   UNL A   1      31.524  26.205  25.682  1.00  0.00    -0.265 NA
ENDBRANCH  92  93
ENDBRANCH  83  92
ENDBRANCH  81  83
ENDBRANCH  80  81
ENDBRANCH  79  80
ENDBRANCH  78  79
ENDBRANCH  77  78
ENDBRANCH  76  77
ENDBRANCH  75  76
ENDBRANCH  74  75
ENDBRANCH   1  74
TORSDOF 25
ENDMDL
