MODEL 1
REMARK VINA RESULT:      -9.0      0.000      0.000
REMARK SMILES C[C@@H](CNC(=O)Cc1ccc(F)cc1F)C(=O)OCCOCCOCCOCCOC(=O)c1ccc(-c2c3nc(c(-c4cccc(S(=O)(=O)[O-])c4F)c4ccc([nH]4)c(-c4cccc(S(=O)(=O)[O-])c4F)c4nc(c(-c5cccc(S(=O)(=O)[O-])c5F)c5ccc2[nH]5)C=C4)C=C3)cc1
REMARK SMILES IDX 23 1 22 2 21 3 20 4 19 5 18 6 16 7 17 8 2 9 1 10 3 11 4 12
REMARK SMILES IDX 5 13 6 15 7 16 8 17 9 18 14 19 10 20 13 21 15 22 11 23 12 24
REMARK SMILES IDX 24 25 25 26 26 27 27 28 28 29 29 30 30 31 31 32 32 33 33 34
REMARK SMILES IDX 34 35 95 36 35 37 94 38 36 39 37 40 38 41 88 42 39 43 93 44
REMARK SMILES IDX 87 45 89 46 40 47 92 48 86 49 85 50 41 52 73 53 53 54 72 55
REMARK SMILES IDX 54 56 57 57 71 58 90 59 55 60 56 61 70 63 91 64 58 65 42 66
REMARK SMILES IDX 43 67 51 68 44 69 46 70 52 71 45 72 47 73 48 74 49 75 50 76
REMARK SMILES IDX 74 77 75 78 83 79 76 80 78 81 84 82 77 83 79 84 80 85 81 86
REMARK SMILES IDX 82 87 59 88 60 89 68 90 61 91 63 92 69 93 62 94 64 95 65 96
REMARK SMILES IDX 66 97 67 98
REMARK H PARENT 4 14 89 51 57 62
REMARK Flexibility Score: inf
ROOT
ATOM      1  C   UNL A   1      32.948  36.388  31.007  1.00  0.00     0.188 C 
ENDROOT
BRANCH   1   2
ATOM      2  C   UNL A   1      33.292  36.964  29.627  1.00  0.00     0.188 C 
BRANCH   2   3
ATOM      3  O   UNL A   1      33.398  35.990  28.602  1.00  0.00    -0.376 OA
BRANCH   3   4
ATOM      4  C   UNL A   1      33.294  34.633  28.986  1.00  0.00     0.202 C 
BRANCH   4   5
ATOM      5  C   UNL A   1      34.425  33.662  28.618  1.00  0.00     0.261 C 
BRANCH   5   6
ATOM      6  O   UNL A   1      34.198  32.242  28.624  1.00  0.00    -0.463 OA
BRANCH   6   7
ATOM      7  C   UNL A   1      35.188  31.363  28.381  1.00  0.00     0.310 C 
ATOM      8  O   UNL A   1      36.254  31.314  28.978  1.00  0.00    -0.252 OA
BRANCH   7   9
ATOM      9  C   UNL A   1      34.884  30.455  27.209  1.00  0.00     0.115 C 
ATOM     10  C   UNL A   1      35.447  29.040  27.342  1.00  0.00     0.022 C 
BRANCH   9  11
ATOM     11  C   UNL A   1      33.371  30.475  26.963  1.00  0.00     0.130 C 
BRANCH  11  12
ATOM     12  N   UNL A   1      32.670  29.461  27.732  1.00  0.00    -0.355 N 
ATOM     13  C   UNL A   1      31.899  28.430  27.268  1.00  0.00     0.224 C 
ATOM     14  H   UNL A   1      32.761  29.523  28.710  1.00  0.00     0.163 HD
ATOM     15  O   UNL A   1      31.041  27.955  28.013  1.00  0.00    -0.275 OA
BRANCH  13  16
ATOM     16  C   UNL A   1      32.102  27.882  25.864  1.00  0.00     0.138 C 
BRANCH  16  17
ATOM     17  C   UNL A   1      31.030  28.270  24.874  1.00  0.00    -0.003 A 
ATOM     18  C   UNL A   1      30.836  29.611  24.504  1.00  0.00     0.010 A 
ATOM     19  C   UNL A   1      30.227  27.292  24.270  1.00  0.00     0.129 A 
ATOM     20  C   UNL A   1      29.913  29.941  23.506  1.00  0.00     0.040 A 
ATOM     21  C   UNL A   1      29.314  27.611  23.270  1.00  0.00     0.078 A 
ATOM     22  F   UNL A   1      30.379  26.003  24.610  1.00  0.00    -0.207 F 
ATOM     23  C   UNL A   1      29.182  28.935  22.881  1.00  0.00     0.126 A 
ATOM     24  F   UNL A   1      28.374  29.246  21.857  1.00  0.00    -0.207 F 
ENDBRANCH  16  17
ENDBRANCH  13  16
ENDBRANCH  11  12
ENDBRANCH   9  11
ENDBRANCH   7   9
ENDBRANCH   6   7
ENDBRANCH   5   6
ENDBRANCH   4   5
ENDBRANCH   3   4
ENDBRANCH   2   3
ENDBRANCH   1   2
BRANCH   1  25
ATOM     25  O   UNL A   1      33.644  36.885  32.140  1.00  0.00    -0.377 OA
BRANCH  25  26
ATOM     26  C   UNL A   1      34.336  35.987  33.008  1.00  0.00     0.188 C 
BRANCH  26  27
ATOM     27  C   UNL A   1      35.029  34.726  32.450  1.00  0.00     0.188 C 
BRANCH  27  28
ATOM     28  O   UNL A   1      34.276  33.533  32.579  1.00  0.00    -0.376 OA
BRANCH  28  29
ATOM     29  C   UNL A   1      34.849  32.335  32.085  1.00  0.00     0.202 C 
BRANCH  29  30
ATOM     30  C   UNL A   1      36.227  31.912  32.618  1.00  0.00     0.261 C 
BRANCH  30  31
ATOM     31  O   UNL A   1      36.792  30.697  32.094  1.00  0.00    -0.460 OA
BRANCH  31  32
ATOM     32  C   UNL A   1      37.840  30.132  32.739  1.00  0.00     0.338 C 
ATOM     33  O   UNL A   1      37.793  29.312  33.628  1.00  0.00    -0.246 OA
BRANCH  32  34
ATOM     34  C   UNL A   1      39.073  30.528  32.009  1.00  0.00     0.060 A 
ATOM     35  C   UNL A   1      40.130  31.116  32.721  1.00  0.00     0.016 A 
ATOM     36  C   UNL A   1      39.196  30.291  30.641  1.00  0.00     0.016 A 
ATOM     37  C   UNL A   1      41.301  31.491  32.059  1.00  0.00     0.010 A 
ATOM     38  C   UNL A   1      40.357  30.696  29.972  1.00  0.00     0.010 A 
ATOM     39  C   UNL A   1      41.402  31.326  30.672  1.00  0.00    -0.014 A 
BRANCH  39  40
ATOM     40  C   UNL A   1      42.507  31.980  29.929  1.00  0.00     0.031 A 
ATOM     41  C   UNL A   1      43.758  31.183  29.666  1.00  0.00     0.074 A 
ATOM     42  C   UNL A   1      42.413  33.252  29.498  1.00  0.00     0.049 A 
ATOM     43  N   UNL A   1      44.875  31.556  29.098  1.00  0.00    -0.248 NA
ATOM     44  C   UNL A   1      43.747  29.778  30.108  1.00  0.00     0.031 C 
ATOM     45  C   UNL A   1      41.251  34.121  29.671  1.00  0.00     0.029 A 
ATOM     46  N   UNL A   1      43.332  34.042  28.851  1.00  0.00    -0.354 N 
ATOM     47  C   UNL A   1      45.710  30.446  29.144  1.00  0.00     0.074 A 
ATOM     48  C   UNL A   1      44.974  29.386  29.796  1.00  0.00     0.031 C 
ATOM     49  C   UNL A   1      41.542  35.339  29.179  1.00  0.00     0.029 A 
ATOM     50  C   UNL A   1      42.918  35.343  28.685  1.00  0.00     0.049 A 
ATOM     51  H   UNL A   1      44.204  33.709  28.537  1.00  0.00     0.167 HD
ATOM     52  C   UNL A   1      46.975  30.319  28.682  1.00  0.00     0.034 A 
ATOM     53  C   UNL A   1      43.587  36.419  28.222  1.00  0.00     0.034 A 
ATOM     54  C   UNL A   1      47.702  31.369  28.022  1.00  0.00     0.049 A 
ATOM     55  C   UNL A   1      45.011  36.257  27.749  1.00  0.00     0.074 A 
ATOM     56  C   UNL A   1      48.972  31.318  27.474  1.00  0.00     0.029 A 
ATOM     57  N   UNL A   1      47.238  32.661  27.841  1.00  0.00    -0.354 N 
ATOM     58  N   UNL A   1      45.747  35.173  27.693  1.00  0.00    -0.248 NA
ATOM     59  C   UNL A   1      45.688  37.464  27.249  1.00  0.00     0.031 C 
ATOM     60  C   UNL A   1      49.293  32.594  27.000  1.00  0.00     0.029 A 
ATOM     61  C   UNL A   1      48.204  33.425  27.208  1.00  0.00     0.049 A 
ATOM     62  H   UNL A   1      46.352  32.988  28.120  1.00  0.00     0.167 HD
ATOM     63  C   UNL A   1      46.955  35.559  27.118  1.00  0.00     0.074 A 
ATOM     64  C   UNL A   1      46.843  36.972  26.822  1.00  0.00     0.031 C 
ATOM     65  C   UNL A   1      48.063  34.816  26.871  1.00  0.00     0.034 A 
BRANCH  52  66
ATOM     66  C   UNL A   1      47.664  28.993  28.866  1.00  0.00     0.023 A 
ATOM     67  C   UNL A   1      48.370  28.724  30.055  1.00  0.00     0.012 A 
ATOM     68  C   UNL A   1      47.538  27.983  27.891  1.00  0.00     0.148 A 
ATOM     69  C   UNL A   1      48.960  27.478  30.262  1.00  0.00     0.002 A 
ATOM     70  C   UNL A   1      48.089  26.730  28.124  1.00  0.00     0.091 A 
ATOM     71  F   UNL A   1      46.881  28.269  26.757  1.00  0.00    -0.205 F 
ATOM     72  C   UNL A   1      48.808  26.478  29.304  1.00  0.00     0.022 A 
BRANCH  70  73
ATOM     73  S   UNL A   1      47.879  25.352  26.991  1.00  0.00     0.127 S 
ATOM     74  O   UNL A   1      47.878  26.033  25.697  1.00  0.00    -0.237 OA
ATOM     75  O   UNL A   1      49.076  24.553  27.259  1.00  0.00    -0.237 OA
ATOM     76  O   UNL A   1      46.623  24.714  27.357  1.00  0.00    -0.744 OA
ENDBRANCH  70  73
ENDBRANCH  52  66
BRANCH  53  77
ATOM     77  C   UNL A   1      42.930  37.758  28.182  1.00  0.00     0.023 A 
ATOM     78  C   UNL A   1      42.187  38.140  27.046  1.00  0.00     0.012 A 
ATOM     79  C   UNL A   1      43.063  38.667  29.250  1.00  0.00     0.148 A 
ATOM     80  C   UNL A   1      41.627  39.416  26.958  1.00  0.00     0.002 A 
ATOM     81  C   UNL A   1      42.455  39.915  29.179  1.00  0.00     0.091 A 
ATOM     82  F   UNL A   1      43.792  38.296  30.311  1.00  0.00    -0.205 F 
ATOM     83  C   UNL A   1      41.753  40.299  28.027  1.00  0.00     0.022 A 
BRANCH  81  84
ATOM     84  S   UNL A   1      42.477  41.074  30.552  1.00  0.00     0.127 S 
ATOM     85  O   UNL A   1      41.108  41.581  30.536  1.00  0.00    -0.237 OA
ATOM     86  O   UNL A   1      42.796  40.200  31.681  1.00  0.00    -0.237 OA
ATOM     87  O   UNL A   1      43.514  42.045  30.230  1.00  0.00    -0.744 OA
ENDBRANCH  81  84
ENDBRANCH  53  77
BRANCH  65  88
ATOM     88  C   UNL A   1      49.233  35.496  26.204  1.00  0.00     0.023 A 
ATOM     89  C   UNL A   1      49.389  35.425  24.805  1.00  0.00     0.012 A 
ATOM     90  C   UNL A   1      50.139  36.266  26.961  1.00  0.00     0.148 A 
ATOM     91  C   UNL A   1      50.449  36.078  24.176  1.00  0.00     0.002 A 
ATOM     92  C   UNL A   1      51.160  36.959  26.322  1.00  0.00     0.091 A 
ATOM     93  F   UNL A   1      49.982  36.312  28.292  1.00  0.00    -0.205 F 
ATOM     94  C   UNL A   1      51.326  36.853  24.932  1.00  0.00     0.022 A 
BRANCH  92  95
ATOM     95  S   UNL A   1      52.276  38.060  27.197  1.00  0.00     0.127 S 
ATOM     96  O   UNL A   1      53.100  37.114  27.949  1.00  0.00    -0.237 OA
ATOM     97  O   UNL A   1      52.971  38.733  26.100  1.00  0.00    -0.237 OA
ATOM     98  O   UNL A   1      51.434  38.930  28.006  1.00  0.00    -0.744 OA
ENDBRANCH  92  95
ENDBRANCH  65  88
ENDBRANCH  39  40
ENDBRANCH  32  34
ENDBRANCH  31  32
ENDBRANCH  30  31
ENDBRANCH  29  30
ENDBRANCH  28  29
ENDBRANCH  27  28
ENDBRANCH  26  27
ENDBRANCH  25  26
ENDBRANCH   1  25
TORSDOF 27
ENDMDL
MODEL 2
REMARK VINA RESULT:      -8.5      4.843     10.335
REMARK SMILES C[C@@H](CNC(=O)Cc1ccc(F)cc1F)C(=O)OCCOCCOCCOCCOC(=O)c1ccc(-c2c3nc(c(-c4cccc(S(=O)(=O)[O-])c4F)c4ccc([nH]4)c(-c4cccc(S(=O)(=O)[O-])c4F)c4nc(c(-c5cccc(S(=O)(=O)[O-])c5F)c5ccc2[nH]5)C=C4)C=C3)cc1
REMARK SMILES IDX 23 1 22 2 21 3 20 4 19 5 18 6 16 7 17 8 2 9 1 10 3 11 4 12
REMARK SMILES IDX 5 13 6 15 7 16 8 17 9 18 14 19 10 20 13 21 15 22 11 23 12 24
REMARK SMILES IDX 24 25 25 26 26 27 27 28 28 29 29 30 30 31 31 32 32 33 33 34
REMARK SMILES IDX 34 35 95 36 35 37 94 38 36 39 37 40 38 41 88 42 39 43 93 44
REMARK SMILES IDX 87 45 89 46 40 47 92 48 86 49 85 50 41 52 73 53 53 54 72 55
REMARK SMILES IDX 54 56 57 57 71 58 90 59 55 60 56 61 70 63 91 64 58 65 42 66
REMARK SMILES IDX 43 67 51 68 44 69 46 70 52 71 45 72 47 73 48 74 49 75 50 76
REMARK SMILES IDX 74 77 75 78 83 79 76 80 78 81 84 82 77 83 79 84 80 85 81 86
REMARK SMILES IDX 82 87 59 88 60 89 68 90 61 91 63 92 69 93 62 94 64 95 65 96
REMARK SMILES IDX 66 97 67 98
REMARK H PARENT 4 14 89 51 57 62
REMARK Flexibility Score: inf
ROOT
ATOM      1  C   UNL A   1      35.963  21.475  24.558  1.00  0.00     0.188 C 
ENDROOT
BRANCH   1   2
ATOM      2  C   UNL A   1      34.492  21.884  24.711  1.00  0.00     0.188 C 
BRANCH   2   3
ATOM      3  O   UNL A   1      33.829  21.267  25.802  1.00  0.00    -0.376 OA
BRANCH   3   4
ATOM      4  C   UNL A   1      32.501  21.675  26.067  1.00  0.00     0.202 C 
BRANCH   4   5
ATOM      5  C   UNL A   1      31.721  22.433  24.984  1.00  0.00     0.261 C 
BRANCH   5   6
ATOM      6  O   UNL A   1      31.417  23.829  25.145  1.00  0.00    -0.463 OA
BRANCH   6   7
ATOM      7  C   UNL A   1      30.850  24.551  24.161  1.00  0.00     0.310 C 
ATOM      8  O   UNL A   1      31.083  24.428  22.967  1.00  0.00    -0.252 OA
BRANCH   7   9
ATOM      9  C   UNL A   1      29.919  25.622  24.689  1.00  0.00     0.115 C 
ATOM     10  C   UNL A   1      30.317  26.192  26.050  1.00  0.00     0.022 C 
BRANCH   9  11
ATOM     11  C   UNL A   1      29.765  26.701  23.611  1.00  0.00     0.130 C 
BRANCH  11  12
ATOM     12  N   UNL A   1      31.043  27.245  23.183  1.00  0.00    -0.355 N 
ATOM     13  C   UNL A   1      31.533  28.507  23.377  1.00  0.00     0.224 C 
ATOM     14  H   UNL A   1      31.630  26.627  22.691  1.00  0.00     0.163 HD
ATOM     15  O   UNL A   1      32.387  28.933  22.599  1.00  0.00    -0.275 OA
BRANCH  13  16
ATOM     16  C   UNL A   1      31.036  29.362  24.532  1.00  0.00     0.138 C 
BRANCH  16  17
ATOM     17  C   UNL A   1      32.067  29.640  25.601  1.00  0.00    -0.003 A 
ATOM     18  C   UNL A   1      33.116  28.740  25.848  1.00  0.00     0.010 A 
ATOM     19  C   UNL A   1      32.020  30.826  26.347  1.00  0.00     0.129 A 
ATOM     20  C   UNL A   1      34.121  29.062  26.764  1.00  0.00     0.040 A 
ATOM     21  C   UNL A   1      33.022  31.160  27.253  1.00  0.00     0.078 A 
ATOM     22  F   UNL A   1      31.025  31.702  26.144  1.00  0.00    -0.207 F 
ATOM     23  C   UNL A   1      34.078  30.281  27.436  1.00  0.00     0.126 A 
ATOM     24  F   UNL A   1      35.096  30.628  28.237  1.00  0.00    -0.207 F 
ENDBRANCH  16  17
ENDBRANCH  13  16
ENDBRANCH  11  12
ENDBRANCH   9  11
ENDBRANCH   7   9
ENDBRANCH   6   7
ENDBRANCH   5   6
ENDBRANCH   4   5
ENDBRANCH   3   4
ENDBRANCH   2   3
ENDBRANCH   1   2
BRANCH   1  25
ATOM     25  O   UNL A   1      36.900  22.460  24.150  1.00  0.00    -0.377 OA
BRANCH  25  26
ATOM     26  C   UNL A   1      37.621  23.212  25.127  1.00  0.00     0.188 C 
BRANCH  26  27
ATOM     27  C   UNL A   1      38.557  22.509  26.132  1.00  0.00     0.188 C 
BRANCH  27  28
ATOM     28  O   UNL A   1      38.770  21.132  25.877  1.00  0.00    -0.376 OA
BRANCH  28  29
ATOM     29  C   UNL A   1      40.109  20.685  25.747  1.00  0.00     0.202 C 
BRANCH  29  30
ATOM     30  C   UNL A   1      40.716  19.856  26.890  1.00  0.00     0.261 C 
BRANCH  30  31
ATOM     31  O   UNL A   1      41.953  19.173  26.625  1.00  0.00    -0.460 OA
BRANCH  31  32
ATOM     32  C   UNL A   1      42.814  19.704  25.724  1.00  0.00     0.338 C 
ATOM     33  O   UNL A   1      43.181  19.205  24.684  1.00  0.00    -0.246 OA
BRANCH  32  34
ATOM     34  C   UNL A   1      43.059  21.114  26.126  1.00  0.00     0.060 A 
ATOM     35  C   UNL A   1      43.082  22.113  25.140  1.00  0.00     0.016 A 
ATOM     36  C   UNL A   1      43.231  21.451  27.468  1.00  0.00     0.016 A 
ATOM     37  C   UNL A   1      43.305  23.445  25.494  1.00  0.00     0.010 A 
ATOM     38  C   UNL A   1      43.484  22.782  27.818  1.00  0.00     0.010 A 
ATOM     39  C   UNL A   1      43.553  23.780  26.830  1.00  0.00    -0.014 A 
BRANCH  39  40
ATOM     40  C   UNL A   1      44.073  25.128  27.169  1.00  0.00     0.031 A 
ATOM     41  C   UNL A   1      43.114  26.136  27.745  1.00  0.00     0.074 A 
ATOM     42  C   UNL A   1      45.362  25.460  26.968  1.00  0.00     0.049 A 
ATOM     43  N   UNL A   1      43.316  27.389  28.058  1.00  0.00    -0.248 NA
ATOM     44  C   UNL A   1      41.741  25.667  28.000  1.00  0.00     0.031 C 
ATOM     45  C   UNL A   1      46.392  24.570  26.436  1.00  0.00     0.029 A 
ATOM     46  N   UNL A   1      46.014  26.653  27.162  1.00  0.00    -0.354 N 
ATOM     47  C   UNL A   1      42.093  27.867  28.512  1.00  0.00     0.074 A 
ATOM     48  C   UNL A   1      41.152  26.771  28.435  1.00  0.00     0.031 C 
ATOM     49  C   UNL A   1      47.539  25.261  26.308  1.00  0.00     0.029 A 
ATOM     50  C   UNL A   1      47.316  26.647  26.719  1.00  0.00     0.049 A 
ATOM     51  H   UNL A   1      45.589  27.439  27.578  1.00  0.00     0.167 HD
ATOM     52  C   UNL A   1      41.780  29.106  28.957  1.00  0.00     0.034 A 
ATOM     53  C   UNL A   1      48.211  27.652  26.624  1.00  0.00     0.034 A 
ATOM     54  C   UNL A   1      42.718  30.191  29.047  1.00  0.00     0.049 A 
ATOM     55  C   UNL A   1      47.822  29.034  27.092  1.00  0.00     0.074 A 
ATOM     56  C   UNL A   1      42.507  31.469  29.534  1.00  0.00     0.029 A 
ATOM     57  N   UNL A   1      44.036  30.137  28.623  1.00  0.00    -0.354 N 
ATOM     58  N   UNL A   1      46.697  29.441  27.626  1.00  0.00    -0.248 NA
ATOM     59  C   UNL A   1      48.840  30.089  26.968  1.00  0.00     0.031 C 
ATOM     60  C   UNL A   1      43.685  32.202  29.363  1.00  0.00     0.029 A 
ATOM     61  C   UNL A   1      44.644  31.366  28.816  1.00  0.00     0.049 A 
ATOM     62  H   UNL A   1      44.475  29.342  28.241  1.00  0.00     0.167 HD
ATOM     63  C   UNL A   1      46.884  30.785  27.937  1.00  0.00     0.074 A 
ATOM     64  C   UNL A   1      48.239  31.117  27.553  1.00  0.00     0.031 C 
ATOM     65  C   UNL A   1      46.009  31.670  28.477  1.00  0.00     0.034 A 
BRANCH  52  66
ATOM     66  C   UNL A   1      40.362  29.363  29.391  1.00  0.00     0.023 A 
ATOM     67  C   UNL A   1      39.392  29.739  28.442  1.00  0.00     0.012 A 
ATOM     68  C   UNL A   1      39.976  29.149  30.730  1.00  0.00     0.148 A 
ATOM     69  C   UNL A   1      38.062  29.920  28.822  1.00  0.00     0.002 A 
ATOM     70  C   UNL A   1      38.642  29.286  31.091  1.00  0.00     0.091 A 
ATOM     71  F   UNL A   1      40.921  28.814  31.620  1.00  0.00    -0.205 F 
ATOM     72  C   UNL A   1      37.686  29.681  30.141  1.00  0.00     0.022 A 
BRANCH  70  73
ATOM     73  S   UNL A   1      38.042  28.922  32.744  1.00  0.00     0.127 S 
ATOM     74  O   UNL A   1      36.653  29.370  32.658  1.00  0.00    -0.237 OA
ATOM     75  O   UNL A   1      38.212  27.471  32.818  1.00  0.00    -0.237 OA
ATOM     76  O   UNL A   1      38.882  29.684  33.657  1.00  0.00    -0.744 OA
ENDBRANCH  70  73
ENDBRANCH  52  66
BRANCH  53  77
ATOM     77  C   UNL A   1      49.568  27.405  26.055  1.00  0.00     0.023 A 
ATOM     78  C   UNL A   1      50.627  27.032  26.908  1.00  0.00     0.012 A 
ATOM     79  C   UNL A   1      49.822  27.569  24.679  1.00  0.00     0.148 A 
ATOM     80  C   UNL A   1      51.920  26.869  26.408  1.00  0.00     0.002 A 
ATOM     81  C   UNL A   1      51.100  27.349  24.179  1.00  0.00     0.091 A 
ATOM     82  F   UNL A   1      48.809  27.946  23.888  1.00  0.00    -0.205 F 
ATOM     83  C   UNL A   1      52.154  27.019  25.044  1.00  0.00     0.022 A 
BRANCH  81  84
ATOM     84  S   UNL A   1      51.469  27.416  22.423  1.00  0.00     0.127 S 
ATOM     85  O   UNL A   1      52.743  26.704  22.358  1.00  0.00    -0.237 OA
ATOM     86  O   UNL A   1      50.333  26.696  21.846  1.00  0.00    -0.237 OA
ATOM     87  O   UNL A   1      51.519  28.832  22.084  1.00  0.00    -0.744 OA
ENDBRANCH  81  84
ENDBRANCH  53  77
BRANCH  65  88
ATOM     88  C   UNL A   1      46.496  33.075  28.736  1.00  0.00     0.023 A 
ATOM     89  C   UNL A   1      47.199  33.373  29.921  1.00  0.00     0.012 A 
ATOM     90  C   UNL A   1      46.319  34.082  27.766  1.00  0.00     0.148 A 
ATOM     91  C   UNL A   1      47.682  34.661  30.153  1.00  0.00     0.002 A 
ATOM     92  C   UNL A   1      46.851  35.348  27.980  1.00  0.00     0.091 A 
ATOM     93  F   UNL A   1      45.638  33.783  26.651  1.00  0.00    -0.205 F 
ATOM     94  C   UNL A   1      47.518  35.643  29.180  1.00  0.00     0.022 A 
BRANCH  92  95
ATOM     95  S   UNL A   1      46.778  36.648  26.743  1.00  0.00     0.127 S 
ATOM     96  O   UNL A   1      47.052  35.906  25.514  1.00  0.00    -0.237 OA
ATOM     97  O   UNL A   1      45.400  37.123  26.874  1.00  0.00    -0.237 OA
ATOM     98  O   UNL A   1      47.792  37.623  27.121  1.00  0.00    -0.744 OA
ENDBRANCH  92  95
ENDBRANCH  65  88
ENDBRANCH  39  40
ENDBRANCH  32  34
ENDBRANCH  31  32
ENDBRANCH  30  31
ENDBRANCH  29  30
ENDBRANCH  28  29
ENDBRANCH  27  28
ENDBRANCH  26  27
ENDBRANCH  25  26
ENDBRANCH   1  25
TORSDOF 27
ENDMDL
MODEL 3
REMARK VINA RESULT:      -8.3      4.327      7.840
REMARK SMILES C[C@@H](CNC(=O)Cc1ccc(F)cc1F)C(=O)OCCOCCOCCOCCOC(=O)c1ccc(-c2c3nc(c(-c4cccc(S(=O)(=O)[O-])c4F)c4ccc([nH]4)c(-c4cccc(S(=O)(=O)[O-])c4F)c4nc(c(-c5cccc(S(=O)(=O)[O-])c5F)c5ccc2[nH]5)C=C4)C=C3)cc1
REMARK SMILES IDX 23 1 22 2 21 3 20 4 19 5 18 6 16 7 17 8 2 9 1 10 3 11 4 12
REMARK SMILES IDX 5 13 6 15 7 16 8 17 9 18 14 19 10 20 13 21 15 22 11 23 12 24
REMARK SMILES IDX 24 25 25 26 26 27 27 28 28 29 29 30 30 31 31 32 32 33 33 34
REMARK SMILES IDX 34 35 95 36 35 37 94 38 36 39 37 40 38 41 88 42 39 43 93 44
REMARK SMILES IDX 87 45 89 46 40 47 92 48 86 49 85 50 41 52 73 53 53 54 72 55
REMARK SMILES IDX 54 56 57 57 71 58 90 59 55 60 56 61 70 63 91 64 58 65 42 66
REMARK SMILES IDX 43 67 51 68 44 69 46 70 52 71 45 72 47 73 48 74 49 75 50 76
REMARK SMILES IDX 74 77 75 78 83 79 76 80 78 81 84 82 77 83 79 84 80 85 81 86
REMARK SMILES IDX 82 87 59 88 60 89 68 90 61 91 63 92 69 93 62 94 64 95 65 96
REMARK SMILES IDX 66 97 67 98
REMARK H PARENT 4 14 89 51 57 62
REMARK Flexibility Score: inf
ROOT
ATOM      1  C   UNL A   1      34.087  35.906  27.963  1.00  0.00     0.188 C 
ENDROOT
BRANCH   1   2
ATOM      2  C   UNL A   1      35.185  34.870  28.239  1.00  0.00     0.188 C 
BRANCH   2   3
ATOM      3  O   UNL A   1      34.894  33.572  27.747  1.00  0.00    -0.376 OA
BRANCH   3   4
ATOM      4  C   UNL A   1      34.216  32.687  28.616  1.00  0.00     0.202 C 
BRANCH   4   5
ATOM      5  C   UNL A   1      34.926  32.195  29.886  1.00  0.00     0.261 C 
BRANCH   5   6
ATOM      6  O   UNL A   1      35.830  31.078  29.830  1.00  0.00    -0.463 OA
BRANCH   6   7
ATOM      7  C   UNL A   1      37.157  31.246  29.678  1.00  0.00     0.310 C 
ATOM      8  O   UNL A   1      37.721  32.317  29.510  1.00  0.00    -0.252 OA
BRANCH   7   9
ATOM      9  C   UNL A   1      37.909  29.932  29.657  1.00  0.00     0.115 C 
ATOM     10  C   UNL A   1      37.465  28.931  30.723  1.00  0.00     0.022 C 
BRANCH   9  11
ATOM     11  C   UNL A   1      37.841  29.360  28.236  1.00  0.00     0.130 C 
BRANCH  11  12
ATOM     12  N   UNL A   1      39.132  29.370  27.570  1.00  0.00    -0.355 N 
ATOM     13  C   UNL A   1      40.278  28.719  27.937  1.00  0.00     0.224 C 
ATOM     14  H   UNL A   1      39.190  29.913  26.751  1.00  0.00     0.163 HD
ATOM     15  O   UNL A   1      41.359  29.167  27.551  1.00  0.00    -0.275 OA
BRANCH  13  16
ATOM     16  C   UNL A   1      40.217  27.467  28.798  1.00  0.00     0.138 C 
BRANCH  16  17
ATOM     17  C   UNL A   1      41.432  26.575  28.702  1.00  0.00    -0.003 A 
ATOM     18  C   UNL A   1      41.527  25.582  27.714  1.00  0.00     0.010 A 
ATOM     19  C   UNL A   1      42.513  26.745  29.578  1.00  0.00     0.129 A 
ATOM     20  C   UNL A   1      42.702  24.838  27.571  1.00  0.00     0.040 A 
ATOM     21  C   UNL A   1      43.690  26.016  29.437  1.00  0.00     0.078 A 
ATOM     22  F   UNL A   1      42.451  27.677  30.541  1.00  0.00    -0.207 F 
ATOM     23  C   UNL A   1      43.781  25.083  28.417  1.00  0.00     0.126 A 
ATOM     24  F   UNL A   1      44.939  24.438  28.211  1.00  0.00    -0.207 F 
ENDBRANCH  16  17
ENDBRANCH  13  16
ENDBRANCH  11  12
ENDBRANCH   9  11
ENDBRANCH   7   9
ENDBRANCH   6   7
ENDBRANCH   5   6
ENDBRANCH   4   5
ENDBRANCH   3   4
ENDBRANCH   2   3
ENDBRANCH   1   2
BRANCH   1  25
ATOM     25  O   UNL A   1      33.956  37.006  28.852  1.00  0.00    -0.377 OA
BRANCH  25  26
ATOM     26  C   UNL A   1      33.188  36.875  30.048  1.00  0.00     0.188 C 
BRANCH  26  27
ATOM     27  C   UNL A   1      32.570  35.518  30.445  1.00  0.00     0.188 C 
BRANCH  27  28
ATOM     28  O   UNL A   1      33.195  34.885  31.548  1.00  0.00    -0.376 OA
BRANCH  28  29
ATOM     29  C   UNL A   1      34.514  35.284  31.876  1.00  0.00     0.202 C 
BRANCH  29  30
ATOM     30  C   UNL A   1      34.858  35.524  33.355  1.00  0.00     0.261 C 
BRANCH  30  31
ATOM     31  O   UNL A   1      36.178  35.157  33.793  1.00  0.00    -0.460 OA
BRANCH  31  32
ATOM     32  C   UNL A   1      36.319  34.102  34.630  1.00  0.00     0.338 C 
ATOM     33  O   UNL A   1      35.530  33.725  35.467  1.00  0.00    -0.246 OA
BRANCH  32  34
ATOM     34  C   UNL A   1      37.520  33.345  34.189  1.00  0.00     0.060 A 
ATOM     35  C   UNL A   1      38.790  33.774  34.605  1.00  0.00     0.016 A 
ATOM     36  C   UNL A   1      37.390  32.203  33.399  1.00  0.00     0.016 A 
ATOM     37  C   UNL A   1      39.932  33.077  34.207  1.00  0.00     0.010 A 
ATOM     38  C   UNL A   1      38.538  31.523  32.976  1.00  0.00     0.010 A 
ATOM     39  C   UNL A   1      39.815  31.975  33.352  1.00  0.00    -0.014 A 
BRANCH  39  40
ATOM     40  C   UNL A   1      41.024  31.414  32.699  1.00  0.00     0.031 A 
ATOM     41  C   UNL A   1      41.633  30.166  33.281  1.00  0.00     0.074 A 
ATOM     42  C   UNL A   1      41.578  31.997  31.619  1.00  0.00     0.049 A 
ATOM     43  N   UNL A   1      42.719  29.530  32.928  1.00  0.00    -0.248 NA
ATOM     44  C   UNL A   1      40.922  29.555  34.417  1.00  0.00     0.031 C 
ATOM     45  C   UNL A   1      41.074  33.194  30.951  1.00  0.00     0.029 A 
ATOM     46  N   UNL A   1      42.712  31.668  30.915  1.00  0.00    -0.354 N 
ATOM     47  C   UNL A   1      42.841  28.468  33.815  1.00  0.00     0.074 A 
ATOM     48  C   UNL A   1      41.720  28.543  34.725  1.00  0.00     0.031 C 
ATOM     49  C   UNL A   1      41.918  33.525  29.957  1.00  0.00     0.029 A 
ATOM     50  C   UNL A   1      43.035  32.582  29.939  1.00  0.00     0.049 A 
ATOM     51  H   UNL A   1      43.241  30.857  31.093  1.00  0.00     0.167 HD
ATOM     52  C   UNL A   1      43.798  27.513  33.867  1.00  0.00     0.034 A 
ATOM     53  C   UNL A   1      44.125  32.665  29.149  1.00  0.00     0.034 A 
ATOM     54  C   UNL A   1      44.905  27.431  32.954  1.00  0.00     0.049 A 
ATOM     55  C   UNL A   1      45.197  31.607  29.255  1.00  0.00     0.074 A 
ATOM     56  C   UNL A   1      45.899  26.468  32.896  1.00  0.00     0.029 A 
ATOM     57  N   UNL A   1      45.181  28.352  31.957  1.00  0.00    -0.354 N 
ATOM     58  N   UNL A   1      45.239  30.544  30.021  1.00  0.00    -0.248 NA
ATOM     59  C   UNL A   1      46.360  31.746  28.365  1.00  0.00     0.031 C 
ATOM     60  C   UNL A   1      46.800  26.833  31.891  1.00  0.00     0.029 A 
ATOM     61  C   UNL A   1      46.341  27.994  31.292  1.00  0.00     0.049 A 
ATOM     62  H   UNL A   1      44.632  29.144  31.752  1.00  0.00     0.167 HD
ATOM     63  C   UNL A   1      46.409  29.871  29.679  1.00  0.00     0.074 A 
ATOM     64  C   UNL A   1      47.034  30.633  28.620  1.00  0.00     0.031 C 
ATOM     65  C   UNL A   1      46.927  28.732  30.204  1.00  0.00     0.034 A 
BRANCH  52  66
ATOM     66  C   UNL A   1      43.694  26.467  34.945  1.00  0.00     0.023 A 
ATOM     67  C   UNL A   1      43.042  25.246  34.682  1.00  0.00     0.012 A 
ATOM     68  C   UNL A   1      44.318  26.665  36.193  1.00  0.00     0.148 A 
ATOM     69  C   UNL A   1      42.994  24.246  35.652  1.00  0.00     0.002 A 
ATOM     70  C   UNL A   1      44.306  25.647  37.137  1.00  0.00     0.091 A 
ATOM     71  F   UNL A   1      44.913  27.844  36.428  1.00  0.00    -0.205 F 
ATOM     72  C   UNL A   1      43.636  24.441  36.873  1.00  0.00     0.022 A 
BRANCH  70  73
ATOM     73  S   UNL A   1      45.172  25.768  38.706  1.00  0.00     0.127 S 
ATOM     74  O   UNL A   1      46.308  26.618  38.349  1.00  0.00    -0.237 OA
ATOM     75  O   UNL A   1      44.172  26.412  39.557  1.00  0.00    -0.237 OA
ATOM     76  O   UNL A   1      45.514  24.405  39.085  1.00  0.00    -0.744 OA
ENDBRANCH  70  73
ENDBRANCH  52  66
BRANCH  53  77
ATOM     77  C   UNL A   1      44.276  33.793  28.185  1.00  0.00     0.023 A 
ATOM     78  C   UNL A   1      43.953  33.601  26.826  1.00  0.00     0.012 A 
ATOM     79  C   UNL A   1      44.768  35.046  28.600  1.00  0.00     0.148 A 
ATOM     80  C   UNL A   1      44.156  34.621  25.894  1.00  0.00     0.002 A 
ATOM     81  C   UNL A   1      44.915  36.075  27.677  1.00  0.00     0.091 A 
ATOM     82  F   UNL A   1      45.092  35.204  29.891  1.00  0.00    -0.205 F 
ATOM     83  C   UNL A   1      44.629  35.859  26.321  1.00  0.00     0.022 A 
BRANCH  81  84
ATOM     84  S   UNL A   1      45.416  37.732  28.157  1.00  0.00     0.127 S 
ATOM     85  O   UNL A   1      44.350  38.110  29.081  1.00  0.00    -0.237 OA
ATOM     86  O   UNL A   1      46.715  37.487  28.785  1.00  0.00    -0.237 OA
ATOM     87  O   UNL A   1      45.480  38.498  26.919  1.00  0.00    -0.744 OA
ENDBRANCH  81  84
ENDBRANCH  53  77
BRANCH  65  88
ATOM     88  C   UNL A   1      48.212  28.205  29.615  1.00  0.00     0.023 A 
ATOM     89  C   UNL A   1      49.453  28.677  30.087  1.00  0.00     0.012 A 
ATOM     90  C   UNL A   1      48.186  27.187  28.640  1.00  0.00     0.148 A 
ATOM     91  C   UNL A   1      50.646  28.171  29.572  1.00  0.00     0.002 A 
ATOM     92  C   UNL A   1      49.378  26.649  28.171  1.00  0.00     0.091 A 
ATOM     93  F   UNL A   1      46.996  26.760  28.194  1.00  0.00    -0.205 F 
ATOM     94  C   UNL A   1      50.609  27.151  28.624  1.00  0.00     0.022 A 
BRANCH  92  95
ATOM     95  S   UNL A   1      49.430  25.267  27.026  1.00  0.00     0.127 S 
ATOM     96  O   UNL A   1      49.150  25.925  25.751  1.00  0.00    -0.237 OA
ATOM     97  O   UNL A   1      50.806  24.791  27.177  1.00  0.00    -0.237 OA
ATOM     98  O   UNL A   1      48.413  24.329  27.478  1.00  0.00    -0.744 OA
ENDBRANCH  92  95
ENDBRANCH  65  88
ENDBRANCH  39  40
ENDBRANCH  32  34
ENDBRANCH  31  32
ENDBRANCH  30  31
ENDBRANCH  29  30
ENDBRANCH  28  29
ENDBRANCH  27  28
ENDBRANCH  26  27
ENDBRANCH  25  26
ENDBRANCH   1  25
TORSDOF 27
ENDMDL
