MODEL 1
REMARK VINA RESULT:      -7.6      0.000      0.000
REMARK SMILES O=C(CN1C(=O)/C(=C2/Sc3ccccc3N2CCCS(=O)(=O)[O-])SC1=S)OCCOCCOCCOCCOC(=O)c1ccc(-c2c3nc(c(-c4cccc(S(=O)(=O)[O-])c4F)c4ccc([nH]4)c(-c4cccc(S(=O)(=O)[O-])c4F)c4nc(c(-c5cccc(S(=O)(=O)[O-])c5F)c5ccc2[nH]5)C=C4)C=C3)cc1
REMARK SMILES IDX 32 1 31 2 30 3 29 4 28 5 27 6 2 7 1 8 3 9 4 10 5 11 25 12
REMARK SMILES IDX 6 13 7 14 24 15 26 16 8 17 9 18 16 19 10 20 15 21 11 22
REMARK SMILES IDX 14 23 12 24 13 25 17 26 18 27 19 28 20 29 21 30 22 31 23 32
REMARK SMILES IDX 33 33 34 34 35 35 36 36 37 37 38 38 39 39 40 40 41 41 42 42
REMARK SMILES IDX 43 43 104 44 44 45 103 46 45 47 46 48 47 49 97 50 48 51
REMARK SMILES IDX 102 52 96 53 98 54 49 55 101 56 95 57 94 58 50 60 82 61
REMARK SMILES IDX 62 62 81 63 63 64 66 65 80 66 99 67 64 68 65 69 79 71 100 72
REMARK SMILES IDX 67 73 51 74 52 75 60 76 53 77 55 78 61 79 54 80 56 81 57 82
REMARK SMILES IDX 58 83 59 84 83 85 84 86 92 87 85 88 87 89 93 90 86 91 88 92
REMARK SMILES IDX 89 93 90 94 91 95 68 96 69 97 77 98 70 99 72 100 78 101
REMARK SMILES IDX 71 102 73 103 74 104 75 105 76 106
REMARK H PARENT 98 59 66 70
REMARK Flexibility Score: inf
ROOT
ATOM      1  C   UNL A   1      35.322  23.501  26.185  1.00  0.00     0.188 C 
ENDROOT
BRANCH   1   2
ATOM      2  C   UNL A   1      34.253  24.421  25.579  1.00  0.00     0.188 C 
BRANCH   2   3
ATOM      3  O   UNL A   1      32.911  24.388  26.048  1.00  0.00    -0.376 OA
BRANCH   3   4
ATOM      4  C   UNL A   1      32.039  25.505  26.017  1.00  0.00     0.202 C 
BRANCH   4   5
ATOM      5  C   UNL A   1      32.657  26.865  25.813  1.00  0.00     0.261 C 
BRANCH   5   6
ATOM      6  O   UNL A   1      33.138  27.548  26.999  1.00  0.00    -0.462 OA
BRANCH   6   7
ATOM      7  C   UNL A   1      33.560  28.779  27.331  1.00  0.00     0.326 C 
ATOM      8  O   UNL A   1      34.116  28.909  28.423  1.00  0.00    -0.250 OA
BRANCH   7   9
ATOM      9  C   UNL A   1      33.454  29.965  26.385  1.00  0.00     0.250 C 
BRANCH   9  10
ATOM     10  N   UNL A   1      33.529  31.213  27.189  1.00  0.00    -0.281 N 
ATOM     11  C   UNL A   1      34.690  31.564  27.841  1.00  0.00     0.269 C 
ATOM     12  C   UNL A   1      32.589  32.207  27.228  1.00  0.00     0.148 C 
ATOM     13  O   UNL A   1      35.813  31.399  27.383  1.00  0.00    -0.268 OA
ATOM     14  C   UNL A   1      34.442  32.456  29.002  1.00  0.00     0.111 C 
ATOM     15  S   UNL A   1      33.104  33.442  28.387  1.00  0.00    -0.052 SA
ATOM     16  S   UNL A   1      31.200  32.350  26.319  1.00  0.00    -0.052 S 
ATOM     17  C   UNL A   1      34.961  32.526  30.268  1.00  0.00     0.100 C 
ATOM     18  S   UNL A   1      34.697  34.191  31.044  1.00  0.00    -0.068 SA
ATOM     19  N   UNL A   1      35.722  31.693  31.171  1.00  0.00    -0.334 N 
ATOM     20  C   UNL A   1      35.700  33.726  32.419  1.00  0.00     0.037 A 
ATOM     21  C   UNL A   1      36.054  32.377  32.395  1.00  0.00     0.056 A 
ATOM     22  C   UNL A   1      36.100  34.570  33.450  1.00  0.00     0.017 A 
ATOM     23  C   UNL A   1      36.683  31.851  33.535  1.00  0.00     0.027 A 
ATOM     24  C   UNL A   1      36.814  34.043  34.525  1.00  0.00     0.001 A 
ATOM     25  C   UNL A   1      37.075  32.681  34.584  1.00  0.00     0.002 A 
BRANCH  19  26
ATOM     26  C   UNL A   1      36.439  30.419  31.085  1.00  0.00     0.124 C 
BRANCH  26  27
ATOM     27  C   UNL A   1      37.452  30.298  29.986  1.00  0.00     0.037 C 
BRANCH  27  28
ATOM     28  C   UNL A   1      38.048  28.936  29.904  1.00  0.00     0.124 C 
BRANCH  28  29
ATOM     29  S   UNL A   1      39.846  28.788  30.103  1.00  0.00     0.095 S 
ATOM     30  O   UNL A   1      40.436  30.053  29.798  1.00  0.00    -0.243 OA
ATOM     31  O   UNL A   1      40.131  28.076  31.342  1.00  0.00    -0.243 OA
ATOM     32  O   UNL A   1      40.259  27.708  28.991  1.00  0.00    -0.748 OA
ENDBRANCH  28  29
ENDBRANCH  27  28
ENDBRANCH  26  27
ENDBRANCH  19  26
ENDBRANCH   9  10
ENDBRANCH   7   9
ENDBRANCH   6   7
ENDBRANCH   5   6
ENDBRANCH   4   5
ENDBRANCH   3   4
ENDBRANCH   2   3
ENDBRANCH   1   2
BRANCH   1  33
ATOM     33  O   UNL A   1      35.825  22.469  25.359  1.00  0.00    -0.377 OA
BRANCH  33  34
ATOM     34  C   UNL A   1      37.181  22.522  24.952  1.00  0.00     0.188 C 
BRANCH  34  35
ATOM     35  C   UNL A   1      38.133  21.553  25.673  1.00  0.00     0.188 C 
BRANCH  35  36
ATOM     36  O   UNL A   1      39.350  22.018  26.217  1.00  0.00    -0.376 OA
BRANCH  36  37
ATOM     37  C   UNL A   1      39.513  23.370  26.587  1.00  0.00     0.202 C 
BRANCH  37  38
ATOM     38  C   UNL A   1      40.875  24.018  26.920  1.00  0.00     0.261 C 
BRANCH  38  39
ATOM     39  O   UNL A   1      41.921  23.229  27.498  1.00  0.00    -0.460 OA
BRANCH  39  40
ATOM     40  C   UNL A   1      43.072  23.062  26.801  1.00  0.00     0.338 C 
ATOM     41  O   UNL A   1      43.361  22.111  26.099  1.00  0.00    -0.246 OA
BRANCH  40  42
ATOM     42  C   UNL A   1      43.820  24.355  26.858  1.00  0.00     0.060 A 
ATOM     43  C   UNL A   1      44.272  24.857  28.082  1.00  0.00     0.016 A 
ATOM     44  C   UNL A   1      43.990  25.122  25.691  1.00  0.00     0.016 A 
ATOM     45  C   UNL A   1      44.950  26.080  28.125  1.00  0.00     0.010 A 
ATOM     46  C   UNL A   1      44.661  26.354  25.738  1.00  0.00     0.010 A 
ATOM     47  C   UNL A   1      45.195  26.816  26.947  1.00  0.00    -0.014 A 
BRANCH  47  48
ATOM     48  C   UNL A   1      46.273  27.842  26.967  1.00  0.00     0.031 A 
ATOM     49  C   UNL A   1      47.738  27.530  26.960  1.00  0.00     0.074 A 
ATOM     50  C   UNL A   1      45.867  29.129  26.973  1.00  0.00     0.049 A 
ATOM     51  N   UNL A   1      48.738  28.350  26.752  1.00  0.00    -0.248 NA
ATOM     52  C   UNL A   1      48.145  26.145  27.231  1.00  0.00     0.031 C 
ATOM     53  C   UNL A   1      44.469  29.559  27.068  1.00  0.00     0.029 A 
ATOM     54  N   UNL A   1      46.569  30.302  26.871  1.00  0.00    -0.354 N 
ATOM     55  C   UNL A   1      49.894  27.591  26.869  1.00  0.00     0.074 A 
ATOM     56  C   UNL A   1      49.471  26.240  27.182  1.00  0.00     0.031 C 
ATOM     57  C   UNL A   1      44.411  30.893  26.958  1.00  0.00     0.029 A 
ATOM     58  C   UNL A   1      45.764  31.415  26.806  1.00  0.00     0.049 A 
ATOM     59  H   UNL A   1      47.553  30.345  26.847  1.00  0.00     0.167 HD
ATOM     60  C   UNL A   1      51.182  27.986  26.712  1.00  0.00     0.034 A 
ATOM     61  C   UNL A   1      46.064  32.712  26.613  1.00  0.00     0.034 A 
ATOM     62  C   UNL A   1      51.591  29.333  26.397  1.00  0.00     0.049 A 
ATOM     63  C   UNL A   1      47.491  33.115  26.399  1.00  0.00     0.074 A 
ATOM     64  C   UNL A   1      52.867  29.798  26.128  1.00  0.00     0.029 A 
ATOM     65  N   UNL A   1      50.746  30.430  26.334  1.00  0.00    -0.354 N 
ATOM     66  N   UNL A   1      48.555  32.353  26.335  1.00  0.00    -0.248 NA
ATOM     67  C   UNL A   1      47.760  34.547  26.202  1.00  0.00     0.031 C 
ATOM     68  C   UNL A   1      52.799  31.181  25.935  1.00  0.00     0.029 A 
ATOM     69  C   UNL A   1      51.476  31.573  26.050  1.00  0.00     0.049 A 
ATOM     70  H   UNL A   1      49.772  30.401  26.471  1.00  0.00     0.167 HD
ATOM     71  C   UNL A   1      49.617  33.206  26.068  1.00  0.00     0.074 A 
ATOM     72  C   UNL A   1      49.069  34.544  25.975  1.00  0.00     0.031 C 
ATOM     73  C   UNL A   1      50.927  32.899  25.922  1.00  0.00     0.034 A 
BRANCH  60  74
ATOM     74  C   UNL A   1      52.271  26.950  26.820  1.00  0.00     0.023 A 
ATOM     75  C   UNL A   1      52.545  26.129  25.708  1.00  0.00     0.012 A 
ATOM     76  C   UNL A   1      53.112  26.892  27.948  1.00  0.00     0.148 A 
ATOM     77  C   UNL A   1      53.632  25.256  25.723  1.00  0.00     0.002 A 
ATOM     78  C   UNL A   1      54.209  26.037  27.946  1.00  0.00     0.091 A 
ATOM     79  F   UNL A   1      52.836  27.688  28.992  1.00  0.00    -0.205 F 
ATOM     80  C   UNL A   1      54.469  25.216  26.836  1.00  0.00     0.022 A 
BRANCH  78  81
ATOM     81  S   UNL A   1      55.381  25.944  29.306  1.00  0.00     0.127 S 
ATOM     82  O   UNL A   1      55.937  27.297  29.307  1.00  0.00    -0.237 OA
ATOM     83  O   UNL A   1      54.512  25.642  30.442  1.00  0.00    -0.237 OA
ATOM     84  O   UNL A   1      56.323  24.890  28.956  1.00  0.00    -0.744 OA
ENDBRANCH  78  81
ENDBRANCH  60  74
BRANCH  61  85
ATOM     85  C   UNL A   1      44.956  33.698  26.520  1.00  0.00     0.023 A 
ATOM     86  C   UNL A   1      44.331  33.914  25.277  1.00  0.00     0.012 A 
ATOM     87  C   UNL A   1      44.455  34.337  27.669  1.00  0.00     0.148 A 
ATOM     88  C   UNL A   1      43.224  34.757  25.180  1.00  0.00     0.002 A 
ATOM     89  C   UNL A   1      43.331  35.147  27.572  1.00  0.00     0.091 A 
ATOM     90  F   UNL A   1      45.064  34.100  28.840  1.00  0.00    -0.205 F 
ATOM     91  C   UNL A   1      42.719  35.365  26.328  1.00  0.00     0.022 A 
BRANCH  89  92
ATOM     92  S   UNL A   1      42.554  35.900  29.004  1.00  0.00     0.127 S 
ATOM     93  O   UNL A   1      43.626  36.755  29.509  1.00  0.00    -0.237 OA
ATOM     94  O   UNL A   1      41.433  36.615  28.391  1.00  0.00    -0.237 OA
ATOM     95  O   UNL A   1      42.173  34.800  29.877  1.00  0.00    -0.744 OA
ENDBRANCH  89  92
ENDBRANCH  61  85
BRANCH  73  96
ATOM     96  C   UNL A   1      51.893  34.012  25.627  1.00  0.00     0.023 A 
ATOM     97  C   UNL A   1      52.143  34.379  24.291  1.00  0.00     0.012 A 
ATOM     98  C   UNL A   1      52.433  34.785  26.674  1.00  0.00     0.148 A 
ATOM     99  C   UNL A   1      52.914  35.505  24.001  1.00  0.00     0.002 A 
ATOM    100  C   UNL A   1      53.170  35.924  26.378  1.00  0.00     0.091 A 
ATOM    101  F   UNL A   1      52.185  34.407  27.937  1.00  0.00    -0.205 F 
ATOM    102  C   UNL A   1      53.414  36.285  25.043  1.00  0.00     0.022 A 
BRANCH 100 103
ATOM    103  S   UNL A   1      53.795  37.031  27.648  1.00  0.00     0.127 S 
ATOM    104  O   UNL A   1      53.930  36.128  28.790  1.00  0.00    -0.237 OA
ATOM    105  O   UNL A   1      55.062  37.479  27.071  1.00  0.00    -0.237 OA
ATOM    106  O   UNL A   1      52.792  38.076  27.807  1.00  0.00    -0.744 OA
ENDBRANCH 100 103
ENDBRANCH  73  96
ENDBRANCH  47  48
ENDBRANCH  40  42
ENDBRANCH  39  40
ENDBRANCH  38  39
ENDBRANCH  37  38
ENDBRANCH  36  37
ENDBRANCH  35  36
ENDBRANCH  34  35
ENDBRANCH  33  34
ENDBRANCH   1  33
TORSDOF 28
ENDMDL
MODEL 2
REMARK VINA RESULT:      -7.6      4.868      6.822
REMARK SMILES O=C(CN1C(=O)/C(=C2/Sc3ccccc3N2CCCS(=O)(=O)[O-])SC1=S)OCCOCCOCCOCCOC(=O)c1ccc(-c2c3nc(c(-c4cccc(S(=O)(=O)[O-])c4F)c4ccc([nH]4)c(-c4cccc(S(=O)(=O)[O-])c4F)c4nc(c(-c5cccc(S(=O)(=O)[O-])c5F)c5ccc2[nH]5)C=C4)C=C3)cc1
REMARK SMILES IDX 32 1 31 2 30 3 29 4 28 5 27 6 2 7 1 8 3 9 4 10 5 11 25 12
REMARK SMILES IDX 6 13 7 14 24 15 26 16 8 17 9 18 16 19 10 20 15 21 11 22
REMARK SMILES IDX 14 23 12 24 13 25 17 26 18 27 19 28 20 29 21 30 22 31 23 32
REMARK SMILES IDX 33 33 34 34 35 35 36 36 37 37 38 38 39 39 40 40 41 41 42 42
REMARK SMILES IDX 43 43 104 44 44 45 103 46 45 47 46 48 47 49 97 50 48 51
REMARK SMILES IDX 102 52 96 53 98 54 49 55 101 56 95 57 94 58 50 60 82 61
REMARK SMILES IDX 62 62 81 63 63 64 66 65 80 66 99 67 64 68 65 69 79 71 100 72
REMARK SMILES IDX 67 73 51 74 52 75 60 76 53 77 55 78 61 79 54 80 56 81 57 82
REMARK SMILES IDX 58 83 59 84 83 85 84 86 92 87 85 88 87 89 93 90 86 91 88 92
REMARK SMILES IDX 89 93 90 94 91 95 68 96 69 97 77 98 70 99 72 100 78 101
REMARK SMILES IDX 71 102 73 103 74 104 75 105 76 106
REMARK H PARENT 98 59 66 70
REMARK Flexibility Score: inf
ROOT
ATOM      1  C   UNL A   1      33.963  23.316  24.501  1.00  0.00     0.188 C 
ENDROOT
BRANCH   1   2
ATOM      2  C   UNL A   1      33.520  24.408  23.517  1.00  0.00     0.188 C 
BRANCH   2   3
ATOM      3  O   UNL A   1      32.158  24.810  23.438  1.00  0.00    -0.376 OA
BRANCH   3   4
ATOM      4  C   UNL A   1      31.732  26.034  22.863  1.00  0.00     0.202 C 
BRANCH   4   5
ATOM      5  C   UNL A   1      32.613  27.241  23.062  1.00  0.00     0.261 C 
BRANCH   5   6
ATOM      6  O   UNL A   1      32.718  27.757  24.413  1.00  0.00    -0.462 OA
BRANCH   6   7
ATOM      7  C   UNL A   1      33.612  28.441  25.146  1.00  0.00     0.326 C 
ATOM      8  O   UNL A   1      34.399  29.171  24.539  1.00  0.00    -0.250 OA
BRANCH   7   9
ATOM      9  C   UNL A   1      33.622  28.411  26.667  1.00  0.00     0.250 C 
BRANCH   9  10
ATOM     10  N   UNL A   1      33.829  29.798  27.161  1.00  0.00    -0.281 N 
ATOM     11  C   UNL A   1      35.056  30.199  27.643  1.00  0.00     0.269 C 
ATOM     12  C   UNL A   1      32.953  30.842  27.031  1.00  0.00     0.148 C 
ATOM     13  O   UNL A   1      36.129  29.854  27.166  1.00  0.00    -0.268 OA
ATOM     14  C   UNL A   1      34.949  31.342  28.584  1.00  0.00     0.111 C 
ATOM     15  S   UNL A   1      33.626  32.262  27.846  1.00  0.00    -0.052 SA
ATOM     16  S   UNL A   1      31.510  30.880  26.201  1.00  0.00    -0.052 S 
ATOM     17  C   UNL A   1      35.567  31.653  29.768  1.00  0.00     0.100 C 
ATOM     18  S   UNL A   1      35.459  33.464  30.161  1.00  0.00    -0.068 SA
ATOM     19  N   UNL A   1      36.346  30.989  30.786  1.00  0.00    -0.334 N 
ATOM     20  C   UNL A   1      36.537  33.244  31.540  1.00  0.00     0.037 A 
ATOM     21  C   UNL A   1      36.809  31.901  31.801  1.00  0.00     0.056 A 
ATOM     22  C   UNL A   1      37.062  34.264  32.326  1.00  0.00     0.017 A 
ATOM     23  C   UNL A   1      37.493  31.597  32.989  1.00  0.00     0.027 A 
ATOM     24  C   UNL A   1      37.825  33.939  33.446  1.00  0.00     0.001 A 
ATOM     25  C   UNL A   1      38.012  32.608  33.796  1.00  0.00     0.002 A 
BRANCH  19  26
ATOM     26  C   UNL A   1      36.980  29.678  30.947  1.00  0.00     0.124 C 
BRANCH  26  27
ATOM     27  C   UNL A   1      38.195  29.419  30.107  1.00  0.00     0.037 C 
BRANCH  27  28
ATOM     28  C   UNL A   1      38.208  28.047  29.528  1.00  0.00     0.124 C 
BRANCH  28  29
ATOM     29  S   UNL A   1      39.655  27.559  28.547  1.00  0.00     0.095 S 
ATOM     30  O   UNL A   1      40.814  27.664  29.376  1.00  0.00    -0.243 OA
ATOM     31  O   UNL A   1      39.339  26.347  27.803  1.00  0.00    -0.243 OA
ATOM     32  O   UNL A   1      39.710  28.663  27.385  1.00  0.00    -0.748 OA
ENDBRANCH  28  29
ENDBRANCH  27  28
ENDBRANCH  26  27
ENDBRANCH  19  26
ENDBRANCH   9  10
ENDBRANCH   7   9
ENDBRANCH   6   7
ENDBRANCH   5   6
ENDBRANCH   4   5
ENDBRANCH   3   4
ENDBRANCH   2   3
ENDBRANCH   1   2
BRANCH   1  33
ATOM     33  O   UNL A   1      34.629  22.194  23.959  1.00  0.00    -0.377 OA
BRANCH  33  34
ATOM     34  C   UNL A   1      34.715  21.011  24.733  1.00  0.00     0.188 C 
BRANCH  34  35
ATOM     35  C   UNL A   1      36.137  20.510  25.034  1.00  0.00     0.188 C 
BRANCH  35  36
ATOM     36  O   UNL A   1      37.242  21.382  24.925  1.00  0.00    -0.376 OA
BRANCH  36  37
ATOM     37  C   UNL A   1      37.761  22.043  26.059  1.00  0.00     0.202 C 
BRANCH  37  38
ATOM     38  C   UNL A   1      38.920  23.064  26.009  1.00  0.00     0.261 C 
BRANCH  38  39
ATOM     39  O   UNL A   1      39.923  23.059  27.030  1.00  0.00    -0.460 OA
BRANCH  39  40
ATOM     40  C   UNL A   1      41.118  22.474  26.765  1.00  0.00     0.338 C 
ATOM     41  O   UNL A   1      41.358  21.696  25.861  1.00  0.00    -0.246 OA
BRANCH  40  42
ATOM     42  C   UNL A   1      42.141  23.135  27.633  1.00  0.00     0.060 A 
ATOM     43  C   UNL A   1      43.000  22.367  28.424  1.00  0.00     0.016 A 
ATOM     44  C   UNL A   1      42.180  24.538  27.731  1.00  0.00     0.016 A 
ATOM     45  C   UNL A   1      43.937  22.997  29.249  1.00  0.00     0.010 A 
ATOM     46  C   UNL A   1      43.114  25.169  28.568  1.00  0.00     0.010 A 
ATOM     47  C   UNL A   1      44.036  24.404  29.292  1.00  0.00    -0.014 A 
BRANCH  47  48
ATOM     48  C   UNL A   1      45.294  25.007  29.810  1.00  0.00     0.031 A 
ATOM     49  C   UNL A   1      46.466  25.385  28.955  1.00  0.00     0.074 A 
ATOM     50  C   UNL A   1      45.342  25.233  31.139  1.00  0.00     0.049 A 
ATOM     51  N   UNL A   1      47.504  26.114  29.282  1.00  0.00    -0.248 NA
ATOM     52  C   UNL A   1      46.497  24.881  27.575  1.00  0.00     0.031 C 
ATOM     53  C   UNL A   1      44.300  24.830  32.088  1.00  0.00     0.029 A 
ATOM     54  N   UNL A   1      46.272  25.871  31.918  1.00  0.00    -0.354 N 
ATOM     55  C   UNL A   1      48.318  26.157  28.158  1.00  0.00     0.074 A 
ATOM     56  C   UNL A   1      47.657  25.365  27.139  1.00  0.00     0.031 C 
ATOM     57  C   UNL A   1      44.617  25.282  33.308  1.00  0.00     0.029 A 
ATOM     58  C   UNL A   1      45.891  25.988  33.235  1.00  0.00     0.049 A 
ATOM     59  H   UNL A   1      47.128  26.212  31.571  1.00  0.00     0.167 HD
ATOM     60  C   UNL A   1      49.494  26.812  27.994  1.00  0.00     0.034 A 
ATOM     61  C   UNL A   1      46.476  26.617  34.270  1.00  0.00     0.034 A 
ATOM     62  C   UNL A   1      50.139  27.601  29.015  1.00  0.00     0.049 A 
ATOM     63  C   UNL A   1      47.753  27.369  34.051  1.00  0.00     0.074 A 
ATOM     64  C   UNL A   1      51.284  28.373  28.903  1.00  0.00     0.029 A 
ATOM     65  N   UNL A   1      49.721  27.699  30.332  1.00  0.00    -0.354 N 
ATOM     66  N   UNL A   1      48.414  27.547  32.935  1.00  0.00    -0.248 NA
ATOM     67  C   UNL A   1      48.349  28.030  35.221  1.00  0.00     0.031 C 
ATOM     68  C   UNL A   1      51.575  28.911  30.160  1.00  0.00     0.029 A 
ATOM     69  C   UNL A   1      50.594  28.502  31.047  1.00  0.00     0.049 A 
ATOM     70  H   UNL A   1      48.921  27.262  30.705  1.00  0.00     0.167 HD
ATOM     71  C   UNL A   1      49.493  28.359  33.259  1.00  0.00     0.074 A 
ATOM     72  C   UNL A   1      49.394  28.645  34.676  1.00  0.00     0.031 C 
ATOM     73  C   UNL A   1      50.476  28.815  32.449  1.00  0.00     0.034 A 
BRANCH  60  74
ATOM     74  C   UNL A   1      50.161  26.767  26.644  1.00  0.00     0.023 A 
ATOM     75  C   UNL A   1      49.715  27.640  25.632  1.00  0.00     0.012 A 
ATOM     76  C   UNL A   1      51.310  25.981  26.425  1.00  0.00     0.148 A 
ATOM     77  C   UNL A   1      50.395  27.723  24.417  1.00  0.00     0.002 A 
ATOM     78  C   UNL A   1      51.997  26.087  25.220  1.00  0.00     0.091 A 
ATOM     79  F   UNL A   1      51.720  25.162  27.405  1.00  0.00    -0.205 F 
ATOM     80  C   UNL A   1      51.539  26.955  24.214  1.00  0.00     0.022 A 
BRANCH  78  81
ATOM     81  S   UNL A   1      53.512  25.184  24.874  1.00  0.00     0.127 S 
ATOM     82  O   UNL A   1      53.127  23.818  25.229  1.00  0.00    -0.237 OA
ATOM     83  O   UNL A   1      53.686  25.414  23.440  1.00  0.00    -0.237 OA
ATOM     84  O   UNL A   1      54.538  25.776  25.720  1.00  0.00    -0.744 OA
ENDBRANCH  78  81
ENDBRANCH  60  74
BRANCH  61  85
ATOM     85  C   UNL A   1      45.782  26.629  35.585  1.00  0.00     0.023 A 
ATOM     86  C   UNL A   1      44.655  27.455  35.759  1.00  0.00     0.012 A 
ATOM     87  C   UNL A   1      46.169  25.755  36.617  1.00  0.00     0.148 A 
ATOM     88  C   UNL A   1      43.925  27.412  36.947  1.00  0.00     0.002 A 
ATOM     89  C   UNL A   1      45.417  25.692  37.784  1.00  0.00     0.091 A 
ATOM     90  F   UNL A   1      47.238  24.972  36.414  1.00  0.00    -0.205 F 
ATOM     91  C   UNL A   1      44.300  26.524  37.954  1.00  0.00     0.022 A 
BRANCH  89  92
ATOM     92  S   UNL A   1      45.766  24.519  39.098  1.00  0.00     0.127 S 
ATOM     93  O   UNL A   1      44.806  24.927  40.121  1.00  0.00    -0.237 OA
ATOM     94  O   UNL A   1      45.466  23.244  38.445  1.00  0.00    -0.237 OA
ATOM     95  O   UNL A   1      47.166  24.714  39.445  1.00  0.00    -0.744 OA
ENDBRANCH  89  92
ENDBRANCH  61  85
BRANCH  73  96
ATOM     96  C   UNL A   1      51.541  29.695  33.043  1.00  0.00     0.023 A 
ATOM     97  C   UNL A   1      51.336  31.086  33.112  1.00  0.00     0.012 A 
ATOM     98  C   UNL A   1      52.671  29.126  33.665  1.00  0.00     0.148 A 
ATOM     99  C   UNL A   1      52.239  31.899  33.795  1.00  0.00     0.002 A 
ATOM    100  C   UNL A   1      53.547  29.939  34.373  1.00  0.00     0.091 A 
ATOM    101  F   UNL A   1      52.846  27.800  33.577  1.00  0.00    -0.205 F 
ATOM    102  C   UNL A   1      53.334  31.325  34.438  1.00  0.00     0.022 A 
BRANCH 100 103
ATOM    103  S   UNL A   1      54.945  29.285  35.293  1.00  0.00     0.127 S 
ATOM    104  O   UNL A   1      54.285  28.379  36.233  1.00  0.00    -0.237 OA
ATOM    105  O   UNL A   1      55.719  28.620  34.245  1.00  0.00    -0.237 OA
ATOM    106  O   UNL A   1      55.603  30.432  35.905  1.00  0.00    -0.744 OA
ENDBRANCH 100 103
ENDBRANCH  73  96
ENDBRANCH  47  48
ENDBRANCH  40  42
ENDBRANCH  39  40
ENDBRANCH  38  39
ENDBRANCH  37  38
ENDBRANCH  36  37
ENDBRANCH  35  36
ENDBRANCH  34  35
ENDBRANCH  33  34
ENDBRANCH   1  33
TORSDOF 28
ENDMDL
MODEL 3
REMARK VINA RESULT:      -7.5      4.436      5.985
REMARK SMILES O=C(CN1C(=O)/C(=C2/Sc3ccccc3N2CCCS(=O)(=O)[O-])SC1=S)OCCOCCOCCOCCOC(=O)c1ccc(-c2c3nc(c(-c4cccc(S(=O)(=O)[O-])c4F)c4ccc([nH]4)c(-c4cccc(S(=O)(=O)[O-])c4F)c4nc(c(-c5cccc(S(=O)(=O)[O-])c5F)c5ccc2[nH]5)C=C4)C=C3)cc1
REMARK SMILES IDX 32 1 31 2 30 3 29 4 28 5 27 6 2 7 1 8 3 9 4 10 5 11 25 12
REMARK SMILES IDX 6 13 7 14 24 15 26 16 8 17 9 18 16 19 10 20 15 21 11 22
REMARK SMILES IDX 14 23 12 24 13 25 17 26 18 27 19 28 20 29 21 30 22 31 23 32
REMARK SMILES IDX 33 33 34 34 35 35 36 36 37 37 38 38 39 39 40 40 41 41 42 42
REMARK SMILES IDX 43 43 104 44 44 45 103 46 45 47 46 48 47 49 97 50 48 51
REMARK SMILES IDX 102 52 96 53 98 54 49 55 101 56 95 57 94 58 50 60 82 61
REMARK SMILES IDX 62 62 81 63 63 64 66 65 80 66 99 67 64 68 65 69 79 71 100 72
REMARK SMILES IDX 67 73 51 74 52 75 60 76 53 77 55 78 61 79 54 80 56 81 57 82
REMARK SMILES IDX 58 83 59 84 83 85 84 86 92 87 85 88 87 89 93 90 86 91 88 92
REMARK SMILES IDX 89 93 90 94 91 95 68 96 69 97 77 98 70 99 72 100 78 101
REMARK SMILES IDX 71 102 73 103 74 104 75 105 76 106
REMARK H PARENT 98 59 66 70
REMARK Flexibility Score: inf
ROOT
ATOM      1  C   UNL A   1      35.043  23.412  25.698  1.00  0.00     0.188 C 
ENDROOT
BRANCH   1   2
ATOM      2  C   UNL A   1      33.911  24.301  25.161  1.00  0.00     0.188 C 
BRANCH   2   3
ATOM      3  O   UNL A   1      32.555  23.878  25.233  1.00  0.00    -0.376 OA
BRANCH   3   4
ATOM      4  C   UNL A   1      31.469  24.756  25.476  1.00  0.00     0.202 C 
BRANCH   4   5
ATOM      5  C   UNL A   1      31.656  26.209  25.119  1.00  0.00     0.261 C 
BRANCH   5   6
ATOM      6  O   UNL A   1      31.522  27.168  26.199  1.00  0.00    -0.462 OA
BRANCH   6   7
ATOM      7  C   UNL A   1      32.331  27.826  27.045  1.00  0.00     0.326 C 
ATOM      8  O   UNL A   1      31.952  27.943  28.212  1.00  0.00    -0.250 OA
BRANCH   7   9
ATOM      9  C   UNL A   1      33.705  28.337  26.638  1.00  0.00     0.250 C 
BRANCH   9  10
ATOM     10  N   UNL A   1      33.842  29.740  27.111  1.00  0.00    -0.281 N 
ATOM     11  C   UNL A   1      35.006  30.174  27.705  1.00  0.00     0.269 C 
ATOM     12  C   UNL A   1      32.970  30.766  26.863  1.00  0.00     0.148 C 
ATOM     13  O   UNL A   1      36.128  29.834  27.351  1.00  0.00    -0.268 OA
ATOM     14  C   UNL A   1      34.788  31.340  28.598  1.00  0.00     0.111 C 
ATOM     15  S   UNL A   1      33.536  32.218  27.702  1.00  0.00    -0.052 SA
ATOM     16  S   UNL A   1      31.619  30.758  25.888  1.00  0.00    -0.052 S 
ATOM     17  C   UNL A   1      35.277  31.692  29.829  1.00  0.00     0.100 C 
ATOM     18  S   UNL A   1      35.105  33.511  30.157  1.00  0.00    -0.068 SA
ATOM     19  N   UNL A   1      35.955  31.068  30.941  1.00  0.00    -0.334 N 
ATOM     20  C   UNL A   1      36.037  33.346  31.646  1.00  0.00     0.037 A 
ATOM     21  C   UNL A   1      36.299  32.015  31.971  1.00  0.00     0.056 A 
ATOM     22  C   UNL A   1      36.465  34.395  32.452  1.00  0.00     0.017 A 
ATOM     23  C   UNL A   1      36.861  31.754  33.231  1.00  0.00     0.027 A 
ATOM     24  C   UNL A   1      37.113  34.112  33.653  1.00  0.00     0.001 A 
ATOM     25  C   UNL A   1      37.280  32.794  34.058  1.00  0.00     0.002 A 
BRANCH  19  26
ATOM     26  C   UNL A   1      36.586  29.773  31.203  1.00  0.00     0.124 C 
BRANCH  26  27
ATOM     27  C   UNL A   1      37.757  29.415  30.336  1.00  0.00     0.037 C 
BRANCH  27  28
ATOM     28  C   UNL A   1      38.596  30.596  29.991  1.00  0.00     0.124 C 
BRANCH  28  29
ATOM     29  S   UNL A   1      39.965  31.013  31.107  1.00  0.00     0.095 S 
ATOM     30  O   UNL A   1      39.888  32.407  31.409  1.00  0.00    -0.243 OA
ATOM     31  O   UNL A   1      40.058  29.997  32.147  1.00  0.00    -0.243 OA
ATOM     32  O   UNL A   1      41.272  30.714  30.227  1.00  0.00    -0.748 OA
ENDBRANCH  28  29
ENDBRANCH  27  28
ENDBRANCH  26  27
ENDBRANCH  19  26
ENDBRANCH   9  10
ENDBRANCH   7   9
ENDBRANCH   6   7
ENDBRANCH   5   6
ENDBRANCH   4   5
ENDBRANCH   3   4
ENDBRANCH   2   3
ENDBRANCH   1   2
BRANCH   1  33
ATOM     33  O   UNL A   1      35.233  22.162  25.066  1.00  0.00    -0.377 OA
BRANCH  33  34
ATOM     34  C   UNL A   1      36.404  21.957  24.297  1.00  0.00     0.188 C 
BRANCH  34  35
ATOM     35  C   UNL A   1      37.375  20.889  24.829  1.00  0.00     0.188 C 
BRANCH  35  36
ATOM     36  O   UNL A   1      38.552  21.267  25.511  1.00  0.00    -0.376 OA
BRANCH  36  37
ATOM     37  C   UNL A   1      38.621  22.481  26.229  1.00  0.00     0.202 C 
BRANCH  37  38
ATOM     38  C   UNL A   1      39.860  22.945  27.026  1.00  0.00     0.261 C 
BRANCH  38  39
ATOM     39  O   UNL A   1      40.985  22.072  27.174  1.00  0.00    -0.460 OA
BRANCH  39  40
ATOM     40  C   UNL A   1      42.097  22.312  26.437  1.00  0.00     0.338 C 
ATOM     41  O   UNL A   1      42.242  22.083  25.250  1.00  0.00    -0.246 OA
BRANCH  40  42
ATOM     42  C   UNL A   1      43.025  23.125  27.282  1.00  0.00     0.060 A 
ATOM     43  C   UNL A   1      43.658  22.551  28.389  1.00  0.00     0.016 A 
ATOM     44  C   UNL A   1      43.193  24.497  27.024  1.00  0.00     0.016 A 
ATOM     45  C   UNL A   1      44.506  23.327  29.186  1.00  0.00     0.010 A 
ATOM     46  C   UNL A   1      44.036  25.277  27.831  1.00  0.00     0.010 A 
ATOM     47  C   UNL A   1      44.742  24.685  28.885  1.00  0.00    -0.014 A 
BRANCH  47  48
ATOM     48  C   UNL A   1      45.953  25.334  29.458  1.00  0.00     0.031 A 
ATOM     49  C   UNL A   1      47.231  25.552  28.706  1.00  0.00     0.074 A 
ATOM     50  C   UNL A   1      45.853  25.760  30.734  1.00  0.00     0.049 A 
ATOM     51  N   UNL A   1      48.252  26.300  29.045  1.00  0.00    -0.248 NA
ATOM     52  C   UNL A   1      47.405  24.842  27.431  1.00  0.00     0.031 C 
ATOM     53  C   UNL A   1      44.691  25.528  31.597  1.00  0.00     0.029 A 
ATOM     54  N   UNL A   1      46.709  26.489  31.517  1.00  0.00    -0.354 N 
ATOM     55  C   UNL A   1      49.193  26.154  28.035  1.00  0.00     0.074 A 
ATOM     56  C   UNL A   1      48.627  25.230  27.072  1.00  0.00     0.031 C 
ATOM     57  C   UNL A   1      44.880  26.155  32.766  1.00  0.00     0.029 A 
ATOM     58  C   UNL A   1      46.180  26.814  32.745  1.00  0.00     0.049 A 
ATOM     59  H   UNL A   1      47.613  26.755  31.230  1.00  0.00     0.167 HD
ATOM     60  C   UNL A   1      50.406  26.752  27.921  1.00  0.00     0.034 A 
ATOM     61  C   UNL A   1      46.663  27.582  33.739  1.00  0.00     0.034 A 
ATOM     62  C   UNL A   1      50.956  27.673  28.883  1.00  0.00     0.049 A 
ATOM     63  C   UNL A   1      47.986  28.265  33.568  1.00  0.00     0.074 A 
ATOM     64  C   UNL A   1      52.135  28.395  28.799  1.00  0.00     0.029 A 
ATOM     65  N   UNL A   1      50.390  27.980  30.110  1.00  0.00    -0.354 N 
ATOM     66  N   UNL A   1      48.781  28.256  32.527  1.00  0.00    -0.248 NA
ATOM     67  C   UNL A   1      48.466  29.084  34.690  1.00  0.00     0.031 C 
ATOM     68  C   UNL A   1      52.298  29.113  29.987  1.00  0.00     0.029 A 
ATOM     69  C   UNL A   1      51.203  28.865  30.799  1.00  0.00     0.049 A 
ATOM     70  H   UNL A   1      49.535  27.623  30.443  1.00  0.00     0.167 HD
ATOM     71  C   UNL A   1      49.845  29.085  32.856  1.00  0.00     0.074 A 
ATOM     72  C   UNL A   1      49.591  29.586  34.191  1.00  0.00     0.031 C 
ATOM     73  C   UNL A   1      50.934  29.392  32.113  1.00  0.00     0.034 A 
BRANCH  60  74
ATOM     74  C   UNL A   1      51.225  26.486  26.684  1.00  0.00     0.023 A 
ATOM     75  C   UNL A   1      52.118  25.396  26.677  1.00  0.00     0.012 A 
ATOM     76  C   UNL A   1      51.004  27.210  25.496  1.00  0.00     0.148 A 
ATOM     77  C   UNL A   1      52.789  25.039  25.508  1.00  0.00     0.002 A 
ATOM     78  C   UNL A   1      51.658  26.832  24.328  1.00  0.00     0.091 A 
ATOM     79  F   UNL A   1      50.144  28.239  25.525  1.00  0.00    -0.205 F 
ATOM     80  C   UNL A   1      52.553  25.749  24.333  1.00  0.00     0.022 A 
BRANCH  78  81
ATOM     81  S   UNL A   1      51.388  27.643  22.747  1.00  0.00     0.127 S 
ATOM     82  O   UNL A   1      51.265  29.044  23.153  1.00  0.00    -0.237 OA
ATOM     83  O   UNL A   1      52.619  27.325  22.024  1.00  0.00    -0.237 OA
ATOM     84  O   UNL A   1      50.178  27.053  22.191  1.00  0.00    -0.744 OA
ENDBRANCH  78  81
ENDBRANCH  60  74
BRANCH  61  85
ATOM     85  C   UNL A   1      45.820  27.810  34.942  1.00  0.00     0.023 A 
ATOM     86  C   UNL A   1      44.845  28.824  34.915  1.00  0.00     0.012 A 
ATOM     87  C   UNL A   1      45.912  26.963  36.062  1.00  0.00     0.148 A 
ATOM     88  C   UNL A   1      43.973  28.994  35.991  1.00  0.00     0.002 A 
ATOM     89  C   UNL A   1      45.018  27.115  37.114  1.00  0.00     0.091 A 
ATOM     90  F   UNL A   1      46.842  25.998  36.050  1.00  0.00    -0.205 F 
ATOM     91  C   UNL A   1      44.054  28.134  37.084  1.00  0.00     0.022 A 
BRANCH  89  92
ATOM     92  S   UNL A   1      44.983  26.003  38.523  1.00  0.00     0.127 S 
ATOM     93  O   UNL A   1      44.715  24.718  37.880  1.00  0.00    -0.237 OA
ATOM     94  O   UNL A   1      46.338  26.155  39.055  1.00  0.00    -0.237 OA
ATOM     95  O   UNL A   1      43.925  26.495  39.393  1.00  0.00    -0.744 OA
ENDBRANCH  89  92
ENDBRANCH  61  85
BRANCH  73  96
ATOM     96  C   UNL A   1      51.955  30.329  32.695  1.00  0.00     0.023 A 
ATOM     97  C   UNL A   1      52.939  29.829  33.569  1.00  0.00     0.012 A 
ATOM     98  C   UNL A   1      52.027  31.667  32.257  1.00  0.00     0.148 A 
ATOM     99  C   UNL A   1      53.984  30.647  33.996  1.00  0.00     0.002 A 
ATOM    100  C   UNL A   1      53.090  32.466  32.660  1.00  0.00     0.091 A 
ATOM    101  F   UNL A   1      51.072  32.118  31.432  1.00  0.00    -0.205 F 
ATOM    102  C   UNL A   1      54.069  31.959  33.531  1.00  0.00     0.022 A 
BRANCH 100 103
ATOM    103  S   UNL A   1      53.324  34.142  32.059  1.00  0.00     0.127 S 
ATOM    104  O   UNL A   1      51.971  34.687  32.164  1.00  0.00    -0.237 OA
ATOM    105  O   UNL A   1      54.278  34.686  33.026  1.00  0.00    -0.237 OA
ATOM    106  O   UNL A   1      53.834  34.020  30.699  1.00  0.00    -0.744 OA
ENDBRANCH 100 103
ENDBRANCH  73  96
ENDBRANCH  47  48
ENDBRANCH  40  42
ENDBRANCH  39  40
ENDBRANCH  38  39
ENDBRANCH  37  38
ENDBRANCH  36  37
ENDBRANCH  35  36
ENDBRANCH  34  35
ENDBRANCH  33  34
ENDBRANCH   1  33
TORSDOF 28
ENDMDL
