MODEL 1
REMARK VINA RESULT:      -9.9      0.000      0.000
REMARK SMILES O=C(OCCOCCOCCOCCOC(=O)[C@@]1([NH2+]C2CC2)CC[C@H](SC2CCCC2)C1)c1ccc(-c2c3nc(c(-c4cccc(S(=O)(=O)[O-])c4F)c4ccc([nH]4)c(-c4cccc(S(=O)(=O)[O-])c4F)c4nc(c(-c5cccc(S(=O)(=O)[O-])c5F)c5ccc2[nH]5)C=C4)C=C3)cc1
REMARK SMILES IDX 8 1 7 2 6 3 5 4 4 5 3 6 2 7 1 8 33 9 34 10 95 11 35 12 94 13
REMARK SMILES IDX 36 14 37 15 38 16 88 17 39 18 93 19 87 20 89 21 40 22 92 23
REMARK SMILES IDX 86 24 85 25 41 27 73 28 53 29 72 30 54 31 57 32 71 33 90 34
REMARK SMILES IDX 55 35 56 36 70 38 91 39 58 40 42 41 43 42 51 43 44 44 46 45
REMARK SMILES IDX 52 46 45 47 47 48 48 49 49 50 50 51 74 52 75 53 83 54 76 55
REMARK SMILES IDX 78 56 84 57 77 58 79 59 80 60 81 61 82 62 59 63 60 64 68 65
REMARK SMILES IDX 61 66 63 67 69 68 62 69 64 70 65 71 66 72 67 73 9 74 10 75
REMARK SMILES IDX 11 76 12 77 13 78 14 79 15 80 16 81 17 82 18 83 23 84 32 85
REMARK SMILES IDX 24 86 25 87 19 88 20 91 21 92 22 93 26 94 27 95 28 96 31 97
REMARK SMILES IDX 29 98 30 99
REMARK H PARENT 89 26 57 37 19 89 19 90
REMARK Flexibility Score: inf
ROOT
ATOM      1  C   UNL A   1      34.043  24.477  23.197  1.00  0.00     0.188 C 
ENDROOT
BRANCH   1   2
ATOM      2  C   UNL A   1      35.256  23.876  23.902  1.00  0.00     0.188 C 
BRANCH   2   3
ATOM      3  O   UNL A   1      35.988  23.006  23.039  1.00  0.00    -0.376 OA
BRANCH   3   4
ATOM      4  C   UNL A   1      37.152  22.363  23.556  1.00  0.00     0.202 C 
BRANCH   4   5
ATOM      5  C   UNL A   1      36.895  21.291  24.610  1.00  0.00     0.261 C 
BRANCH   5   6
ATOM      6  O   UNL A   1      37.541  21.531  25.868  1.00  0.00    -0.460 OA
BRANCH   6   7
ATOM      7  C   UNL A   1      38.852  21.756  26.136  1.00  0.00     0.338 C 
ATOM      8  O   UNL A   1      39.635  20.823  25.954  1.00  0.00    -0.246 OA
BRANCH   7   9
ATOM      9  C   UNL A   1      39.410  23.037  26.671  1.00  0.00     0.060 A 
ATOM     10  C   UNL A   1      38.950  24.316  26.362  1.00  0.00     0.016 A 
ATOM     11  C   UNL A   1      40.443  22.938  27.619  1.00  0.00     0.016 A 
ATOM     12  C   UNL A   1      39.486  25.455  26.921  1.00  0.00     0.010 A 
ATOM     13  C   UNL A   1      41.012  24.082  28.187  1.00  0.00     0.010 A 
ATOM     14  C   UNL A   1      40.542  25.342  27.806  1.00  0.00    -0.014 A 
BRANCH  14  15
ATOM     15  C   UNL A   1      41.257  26.588  28.092  1.00  0.00     0.031 A 
ATOM     16  C   UNL A   1      40.523  27.619  28.889  1.00  0.00     0.074 A 
ATOM     17  C   UNL A   1      42.572  26.674  27.829  1.00  0.00     0.049 A 
ATOM     18  N   UNL A   1      40.903  28.812  29.239  1.00  0.00    -0.248 NA
ATOM     19  C   UNL A   1      39.183  27.242  29.384  1.00  0.00     0.031 C 
ATOM     20  C   UNL A   1      43.387  25.611  27.231  1.00  0.00     0.029 A 
ATOM     21  N   UNL A   1      43.457  27.690  28.049  1.00  0.00    -0.354 N 
ATOM     22  C   UNL A   1      39.823  29.356  29.922  1.00  0.00     0.074 A 
ATOM     23  C   UNL A   1      38.789  28.353  29.984  1.00  0.00     0.031 C 
ATOM     24  C   UNL A   1      44.651  26.044  27.108  1.00  0.00     0.029 A 
ATOM     25  C   UNL A   1      44.709  27.434  27.542  1.00  0.00     0.049 A 
ATOM     26  H   UNL A   1      43.224  28.521  28.523  1.00  0.00     0.167 HD
ATOM     27  C   UNL A   1      39.714  30.604  30.423  1.00  0.00     0.034 A 
ATOM     28  C   UNL A   1      45.751  28.270  27.388  1.00  0.00     0.034 A 
ATOM     29  C   UNL A   1      40.777  31.561  30.338  1.00  0.00     0.049 A 
ATOM     30  C   UNL A   1      45.566  29.684  27.869  1.00  0.00     0.074 A 
ATOM     31  C   UNL A   1      40.789  32.877  30.750  1.00  0.00     0.029 A 
ATOM     32  N   UNL A   1      42.021  31.292  29.783  1.00  0.00    -0.354 N 
ATOM     33  N   UNL A   1      44.537  30.215  28.492  1.00  0.00    -0.248 NA
ATOM     34  C   UNL A   1      46.675  30.615  27.637  1.00  0.00     0.031 C 
ATOM     35  C   UNL A   1      42.032  33.417  30.402  1.00  0.00     0.029 A 
ATOM     36  C   UNL A   1      42.809  32.422  29.823  1.00  0.00     0.049 A 
ATOM     37  H   UNL A   1      42.299  30.422  29.415  1.00  0.00     0.167 HD
ATOM     38  C   UNL A   1      44.886  31.531  28.754  1.00  0.00     0.074 A 
ATOM     39  C   UNL A   1      46.233  31.708  28.245  1.00  0.00     0.031 C 
ATOM     40  C   UNL A   1      44.165  32.517  29.344  1.00  0.00     0.034 A 
BRANCH  27  41
ATOM     41  C   UNL A   1      38.390  31.003  31.004  1.00  0.00     0.023 A 
ATOM     42  C   UNL A   1      38.054  30.677  32.333  1.00  0.00     0.012 A 
ATOM     43  C   UNL A   1      37.464  31.706  30.207  1.00  0.00     0.148 A 
ATOM     44  C   UNL A   1      36.805  31.024  32.852  1.00  0.00     0.002 A 
ATOM     45  C   UNL A   1      36.243  32.088  30.744  1.00  0.00     0.091 A 
ATOM     46  F   UNL A   1      37.791  31.967  28.934  1.00  0.00    -0.205 F 
ATOM     47  C   UNL A   1      35.906  31.737  32.061  1.00  0.00     0.022 A 
BRANCH  45  48
ATOM     48  S   UNL A   1      35.048  33.061  29.824  1.00  0.00     0.127 S 
ATOM     49  O   UNL A   1      34.116  33.462  30.883  1.00  0.00    -0.237 OA
ATOM     50  O   UNL A   1      35.883  34.148  29.306  1.00  0.00    -0.237 OA
ATOM     51  O   UNL A   1      34.492  32.179  28.816  1.00  0.00    -0.744 OA
ENDBRANCH  45  48
ENDBRANCH  27  41
BRANCH  28  52
ATOM     52  C   UNL A   1      47.002  27.827  26.708  1.00  0.00     0.023 A 
ATOM     53  C   UNL A   1      48.086  27.352  27.467  1.00  0.00     0.012 A 
ATOM     54  C   UNL A   1      47.131  27.897  25.304  1.00  0.00     0.148 A 
ATOM     55  C   UNL A   1      49.289  27.001  26.849  1.00  0.00     0.002 A 
ATOM     56  C   UNL A   1      48.310  27.491  24.690  1.00  0.00     0.091 A 
ATOM     57  F   UNL A   1      46.097  28.368  24.591  1.00  0.00    -0.205 F 
ATOM     58  C   UNL A   1      49.399  27.064  25.462  1.00  0.00     0.022 A 
BRANCH  56  59
ATOM     59  S   UNL A   1      48.488  27.430  22.904  1.00  0.00     0.127 S 
ATOM     60  O   UNL A   1      48.340  25.998  22.640  1.00  0.00    -0.237 OA
ATOM     61  O   UNL A   1      47.362  28.254  22.458  1.00  0.00    -0.237 OA
ATOM     62  O   UNL A   1      49.795  27.997  22.618  1.00  0.00    -0.744 OA
ENDBRANCH  56  59
ENDBRANCH  28  52
BRANCH  40  63
ATOM     63  C   UNL A   1      44.842  33.845  29.516  1.00  0.00     0.023 A 
ATOM     64  C   UNL A   1      45.599  34.106  30.674  1.00  0.00     0.012 A 
ATOM     65  C   UNL A   1      44.799  34.792  28.477  1.00  0.00     0.148 A 
ATOM     66  C   UNL A   1      46.281  35.312  30.807  1.00  0.00     0.002 A 
ATOM     67  C   UNL A   1      45.531  35.963  28.590  1.00  0.00     0.091 A 
ATOM     68  F   UNL A   1      44.055  34.521  27.394  1.00  0.00    -0.205 F 
ATOM     69  C   UNL A   1      46.260  36.232  29.760  1.00  0.00     0.022 A 
BRANCH  67  70
ATOM     70  S   UNL A   1      45.659  37.142  27.244  1.00  0.00     0.127 S 
ATOM     71  O   UNL A   1      46.646  38.085  27.769  1.00  0.00    -0.237 OA
ATOM     72  O   UNL A   1      46.137  36.305  26.144  1.00  0.00    -0.237 OA
ATOM     73  O   UNL A   1      44.320  37.684  27.053  1.00  0.00    -0.744 OA
ENDBRANCH  67  70
ENDBRANCH  40  63
ENDBRANCH  14  15
ENDBRANCH   7   9
ENDBRANCH   6   7
ENDBRANCH   5   6
ENDBRANCH   4   5
ENDBRANCH   3   4
ENDBRANCH   2   3
ENDBRANCH   1   2
BRANCH   1  74
ATOM     74  O   UNL A   1      33.555  23.687  22.124  1.00  0.00    -0.377 OA
BRANCH  74  75
ATOM     75  C   UNL A   1      32.951  22.461  22.505  1.00  0.00     0.188 C 
BRANCH  75  76
ATOM     76  C   UNL A   1      31.416  22.394  22.764  1.00  0.00     0.188 C 
BRANCH  76  77
ATOM     77  O   UNL A   1      30.995  23.137  23.888  1.00  0.00    -0.376 OA
BRANCH  77  78
ATOM     78  C   UNL A   1      31.446  22.636  25.145  1.00  0.00     0.202 C 
BRANCH  78  79
ATOM     79  C   UNL A   1      31.876  23.664  26.213  1.00  0.00     0.261 C 
BRANCH  79  80
ATOM     80  O   UNL A   1      31.984  25.038  25.746  1.00  0.00    -0.459 OA
BRANCH  80  81
ATOM     81  C   UNL A   1      30.896  25.845  25.802  1.00  0.00     0.368 C 
ATOM     82  O   UNL A   1      29.866  25.476  26.352  1.00  0.00    -0.245 OA
BRANCH  81  83
ATOM     83  C   UNL A   1      31.147  27.289  25.138  1.00  0.00     0.195 C 
ATOM     84  C   UNL A   1      32.173  27.434  23.983  1.00  0.00     0.082 C 
ATOM     85  C   UNL A   1      29.867  27.860  24.450  1.00  0.00     0.095 C 
ATOM     86  C   UNL A   1      31.836  28.746  23.293  1.00  0.00     0.022 C 
ATOM     87  C   UNL A   1      30.324  28.904  23.388  1.00  0.00     0.054 C 
BRANCH  83  88
ATOM     88  N   UNL A   1      31.542  28.239  26.207  1.00  0.00    -0.330 N 
ATOM     89  H   UNL A   1      30.791  28.240  26.899  1.00  0.00     0.347 HD
ATOM     90  H   UNL A   1      31.701  29.116  25.711  1.00  0.00     0.347 HD
BRANCH  88  91
ATOM     91  C   UNL A   1      32.796  28.010  26.934  1.00  0.00     0.183 C 
ATOM     92  C   UNL A   1      34.185  28.339  26.444  1.00  0.00     0.071 C 
ATOM     93  C   UNL A   1      33.549  29.184  27.502  1.00  0.00     0.071 C 
ENDBRANCH  88  91
ENDBRANCH  83  88
BRANCH  87  94
ATOM     94  S   UNL A   1      29.788  30.578  23.909  1.00  0.00    -0.155 SA
BRANCH  94  95
ATOM     95  C   UNL A   1      28.701  31.216  22.588  1.00  0.00     0.047 C 
ATOM     96  C   UNL A   1      28.840  32.678  22.184  1.00  0.00     0.014 C 
ATOM     97  C   UNL A   1      28.669  30.504  21.241  1.00  0.00     0.014 C 
ATOM     98  C   UNL A   1      27.816  32.807  21.065  1.00  0.00     0.001 C 
ATOM     99  C   UNL A   1      27.827  31.445  20.362  1.00  0.00     0.001 C 
ENDBRANCH  94  95
ENDBRANCH  87  94
ENDBRANCH  81  83
ENDBRANCH  80  81
ENDBRANCH  79  80
ENDBRANCH  78  79
ENDBRANCH  77  78
ENDBRANCH  76  77
ENDBRANCH  75  76
ENDBRANCH  74  75
ENDBRANCH   1  74
TORSDOF 27
ENDMDL
MODEL 2
REMARK VINA RESULT:      -9.1      5.122     10.696
REMARK SMILES O=C(OCCOCCOCCOCCOC(=O)[C@@]1([NH2+]C2CC2)CC[C@H](SC2CCCC2)C1)c1ccc(-c2c3nc(c(-c4cccc(S(=O)(=O)[O-])c4F)c4ccc([nH]4)c(-c4cccc(S(=O)(=O)[O-])c4F)c4nc(c(-c5cccc(S(=O)(=O)[O-])c5F)c5ccc2[nH]5)C=C4)C=C3)cc1
REMARK SMILES IDX 8 1 7 2 6 3 5 4 4 5 3 6 2 7 1 8 33 9 34 10 95 11 35 12 94 13
REMARK SMILES IDX 36 14 37 15 38 16 88 17 39 18 93 19 87 20 89 21 40 22 92 23
REMARK SMILES IDX 86 24 85 25 41 27 73 28 53 29 72 30 54 31 57 32 71 33 90 34
REMARK SMILES IDX 55 35 56 36 70 38 91 39 58 40 42 41 43 42 51 43 44 44 46 45
REMARK SMILES IDX 52 46 45 47 47 48 48 49 49 50 50 51 74 52 75 53 83 54 76 55
REMARK SMILES IDX 78 56 84 57 77 58 79 59 80 60 81 61 82 62 59 63 60 64 68 65
REMARK SMILES IDX 61 66 63 67 69 68 62 69 64 70 65 71 66 72 67 73 9 74 10 75
REMARK SMILES IDX 11 76 12 77 13 78 14 79 15 80 16 81 17 82 18 83 23 84 32 85
REMARK SMILES IDX 24 86 25 87 19 88 20 91 21 92 22 93 26 94 27 95 28 96 31 97
REMARK SMILES IDX 29 98 30 99
REMARK H PARENT 89 26 57 37 19 89 19 90
REMARK Flexibility Score: inf
ROOT
ATOM      1  C   UNL A   1      32.680  36.027  32.298  1.00  0.00     0.188 C 
ENDROOT
BRANCH   1   2
ATOM      2  C   UNL A   1      33.798  36.834  32.953  1.00  0.00     0.188 C 
BRANCH   2   3
ATOM      3  O   UNL A   1      34.431  36.100  34.001  1.00  0.00    -0.376 OA
BRANCH   3   4
ATOM      4  C   UNL A   1      35.317  35.039  33.645  1.00  0.00     0.202 C 
BRANCH   4   5
ATOM      5  C   UNL A   1      35.201  33.777  34.494  1.00  0.00     0.261 C 
BRANCH   5   6
ATOM      6  O   UNL A   1      35.951  33.814  35.715  1.00  0.00    -0.460 OA
BRANCH   6   7
ATOM      7  C   UNL A   1      37.027  33.078  36.090  1.00  0.00     0.338 C 
ATOM      8  O   UNL A   1      37.103  32.748  37.274  1.00  0.00    -0.246 OA
BRANCH   7   9
ATOM      9  C   UNL A   1      38.145  32.670  35.183  1.00  0.00     0.060 A 
ATOM     10  C   UNL A   1      38.002  32.025  33.956  1.00  0.00     0.016 A 
ATOM     11  C   UNL A   1      39.447  33.029  35.571  1.00  0.00     0.016 A 
ATOM     12  C   UNL A   1      39.074  31.710  33.151  1.00  0.00     0.010 A 
ATOM     13  C   UNL A   1      40.551  32.706  34.777  1.00  0.00     0.010 A 
ATOM     14  C   UNL A   1      40.354  32.017  33.576  1.00  0.00    -0.014 A 
BRANCH  14  15
ATOM     15  C   UNL A   1      41.435  31.365  32.834  1.00  0.00     0.031 A 
ATOM     16  C   UNL A   1      42.050  32.145  31.716  1.00  0.00     0.074 A 
ATOM     17  C   UNL A   1      41.967  30.224  33.302  1.00  0.00     0.049 A 
ATOM     18  N   UNL A   1      42.982  31.790  30.882  1.00  0.00    -0.248 NA
ATOM     19  C   UNL A   1      41.566  33.528  31.528  1.00  0.00     0.031 C 
ATOM     20  C   UNL A   1      41.531  29.522  34.515  1.00  0.00     0.029 A 
ATOM     21  N   UNL A   1      42.999  29.465  32.830  1.00  0.00    -0.354 N 
ATOM     22  C   UNL A   1      43.138  32.870  30.023  1.00  0.00     0.074 A 
ATOM     23  C   UNL A   1      42.244  33.914  30.460  1.00  0.00     0.031 C 
ATOM     24  C   UNL A   1      42.278  28.418  34.674  1.00  0.00     0.029 A 
ATOM     25  C   UNL A   1      43.180  28.300  33.536  1.00  0.00     0.049 A 
ATOM     26  H   UNL A   1      43.558  29.726  32.062  1.00  0.00     0.167 HD
ATOM     27  C   UNL A   1      43.947  32.952  28.947  1.00  0.00     0.034 A 
ATOM     28  C   UNL A   1      43.943  27.234  33.237  1.00  0.00     0.034 A 
ATOM     29  C   UNL A   1      44.820  31.884  28.559  1.00  0.00     0.049 A 
ATOM     30  C   UNL A   1      44.761  27.316  31.975  1.00  0.00     0.074 A 
ATOM     31  C   UNL A   1      45.653  31.804  27.462  1.00  0.00     0.029 A 
ATOM     32  N   UNL A   1      44.955  30.697  29.266  1.00  0.00    -0.354 N 
ATOM     33  N   UNL A   1      44.893  28.324  31.143  1.00  0.00    -0.248 NA
ATOM     34  C   UNL A   1      45.538  26.127  31.611  1.00  0.00     0.031 C 
ATOM     35  C   UNL A   1      46.260  30.544  27.484  1.00  0.00     0.029 A 
ATOM     36  C   UNL A   1      45.845  29.865  28.623  1.00  0.00     0.049 A 
ATOM     37  H   UNL A   1      44.485  30.482  30.104  1.00  0.00     0.167 HD
ATOM     38  C   UNL A   1      45.791  27.903  30.173  1.00  0.00     0.074 A 
ATOM     39  C   UNL A   1      46.190  26.558  30.539  1.00  0.00     0.031 C 
ATOM     40  C   UNL A   1      46.240  28.552  29.069  1.00  0.00     0.034 A 
BRANCH  27  41
ATOM     41  C   UNL A   1      43.840  34.181  28.092  1.00  0.00     0.023 A 
ATOM     42  C   UNL A   1      43.028  34.194  26.941  1.00  0.00     0.012 A 
ATOM     43  C   UNL A   1      44.570  35.335  28.440  1.00  0.00     0.148 A 
ATOM     44  C   UNL A   1      42.964  35.332  26.134  1.00  0.00     0.002 A 
ATOM     45  C   UNL A   1      44.464  36.478  27.659  1.00  0.00     0.091 A 
ATOM     46  F   UNL A   1      45.366  35.284  29.516  1.00  0.00    -0.205 F 
ATOM     47  C   UNL A   1      43.673  36.475  26.500  1.00  0.00     0.022 A 
BRANCH  45  48
ATOM     48  S   UNL A   1      45.290  38.014  28.083  1.00  0.00     0.127 S 
ATOM     49  O   UNL A   1      46.666  37.558  28.304  1.00  0.00    -0.237 OA
ATOM     50  O   UNL A   1      45.100  38.802  26.862  1.00  0.00    -0.237 OA
ATOM     51  O   UNL A   1      44.616  38.529  29.259  1.00  0.00    -0.744 OA
ENDBRANCH  45  48
ENDBRANCH  27  41
BRANCH  28  52
ATOM     52  C   UNL A   1      43.919  26.006  34.082  1.00  0.00     0.023 A 
ATOM     53  C   UNL A   1      43.024  24.962  33.783  1.00  0.00     0.012 A 
ATOM     54  C   UNL A   1      44.768  25.876  35.202  1.00  0.00     0.148 A 
ATOM     55  C   UNL A   1      42.940  23.838  34.608  1.00  0.00     0.002 A 
ATOM     56  C   UNL A   1      44.720  24.729  35.985  1.00  0.00     0.091 A 
ATOM     57  F   UNL A   1      45.604  26.885  35.488  1.00  0.00    -0.205 F 
ATOM     58  C   UNL A   1      43.792  23.718  35.703  1.00  0.00     0.022 A 
BRANCH  56  59
ATOM     59  S   UNL A   1      45.865  24.447  37.340  1.00  0.00     0.127 S 
ATOM     60  O   UNL A   1      45.373  25.390  38.345  1.00  0.00    -0.237 OA
ATOM     61  O   UNL A   1      45.621  23.036  37.654  1.00  0.00    -0.237 OA
ATOM     62  O   UNL A   1      47.187  24.720  36.804  1.00  0.00    -0.744 OA
ENDBRANCH  56  59
ENDBRANCH  28  52
BRANCH  40  63
ATOM     63  C   UNL A   1      47.248  27.834  28.221  1.00  0.00     0.023 A 
ATOM     64  C   UNL A   1      48.607  27.833  28.590  1.00  0.00     0.012 A 
ATOM     65  C   UNL A   1      46.821  27.083  27.111  1.00  0.00     0.148 A 
ATOM     66  C   UNL A   1      49.534  27.114  27.841  1.00  0.00     0.002 A 
ATOM     67  C   UNL A   1      47.739  26.320  26.409  1.00  0.00     0.091 A 
ATOM     68  F   UNL A   1      45.522  27.119  26.776  1.00  0.00    -0.205 F 
ATOM     69  C   UNL A   1      49.099  26.346  26.763  1.00  0.00     0.022 A 
BRANCH  67  70
ATOM     70  S   UNL A   1      47.247  25.210  25.088  1.00  0.00     0.127 S 
ATOM     71  O   UNL A   1      46.002  25.826  24.632  1.00  0.00    -0.237 OA
ATOM     72  O   UNL A   1      48.367  25.328  24.153  1.00  0.00    -0.237 OA
ATOM     73  O   UNL A   1      47.106  23.895  25.698  1.00  0.00    -0.744 OA
ENDBRANCH  67  70
ENDBRANCH  40  63
ENDBRANCH  14  15
ENDBRANCH   7   9
ENDBRANCH   6   7
ENDBRANCH   5   6
ENDBRANCH   4   5
ENDBRANCH   3   4
ENDBRANCH   2   3
ENDBRANCH   1   2
BRANCH   1  74
ATOM     74  O   UNL A   1      32.232  36.565  31.064  1.00  0.00    -0.377 OA
BRANCH  74  75
ATOM     75  C   UNL A   1      33.253  37.093  30.232  1.00  0.00     0.188 C 
BRANCH  75  76
ATOM     76  C   UNL A   1      33.286  36.739  28.715  1.00  0.00     0.188 C 
BRANCH  76  77
ATOM     77  O   UNL A   1      34.206  35.719  28.387  1.00  0.00    -0.376 OA
BRANCH  77  78
ATOM     78  C   UNL A   1      33.706  34.391  28.522  1.00  0.00     0.202 C 
BRANCH  78  79
ATOM     79  C   UNL A   1      34.591  33.236  28.007  1.00  0.00     0.261 C 
BRANCH  79  80
ATOM     80  O   UNL A   1      34.509  32.001  28.772  1.00  0.00    -0.459 OA
BRANCH  80  81
ATOM     81  C   UNL A   1      35.147  31.916  29.965  1.00  0.00     0.368 C 
ATOM     82  O   UNL A   1      34.676  32.437  30.969  1.00  0.00    -0.245 OA
BRANCH  81  83
ATOM     83  C   UNL A   1      36.495  31.041  29.901  1.00  0.00     0.195 C 
ATOM     84  C   UNL A   1      36.711  29.889  30.919  1.00  0.00     0.082 C 
ATOM     85  C   UNL A   1      36.635  30.258  28.557  1.00  0.00     0.095 C 
ATOM     86  C   UNL A   1      37.788  29.001  30.315  1.00  0.00     0.022 C 
ATOM     87  C   UNL A   1      37.589  29.053  28.806  1.00  0.00     0.054 C 
BRANCH  83  88
ATOM     88  N   UNL A   1      37.658  31.955  30.008  1.00  0.00    -0.330 N 
ATOM     89  H   UNL A   1      38.289  31.730  29.238  1.00  0.00     0.347 HD
ATOM     90  H   UNL A   1      38.015  31.789  30.950  1.00  0.00     0.347 HD
BRANCH  88  91
ATOM     91  C   UNL A   1      37.428  33.404  29.967  1.00  0.00     0.183 C 
ATOM     92  C   UNL A   1      38.019  34.430  30.902  1.00  0.00     0.071 C 
ATOM     93  C   UNL A   1      38.533  34.317  29.502  1.00  0.00     0.071 C 
ENDBRANCH  88  91
ENDBRANCH  83  88
BRANCH  87  94
ATOM     94  S   UNL A   1      39.143  29.304  27.866  1.00  0.00    -0.155 SA
BRANCH  94  95
ATOM     95  C   UNL A   1      40.035  27.710  27.891  1.00  0.00     0.047 C 
ATOM     96  C   UNL A   1      41.292  27.601  28.744  1.00  0.00     0.014 C 
ATOM     97  C   UNL A   1      39.278  26.439  28.255  1.00  0.00     0.014 C 
ATOM     98  C   UNL A   1      41.708  26.152  28.529  1.00  0.00     0.001 C 
ATOM     99  C   UNL A   1      40.392  25.384  28.370  1.00  0.00     0.001 C 
ENDBRANCH  94  95
ENDBRANCH  87  94
ENDBRANCH  81  83
ENDBRANCH  80  81
ENDBRANCH  79  80
ENDBRANCH  78  79
ENDBRANCH  77  78
ENDBRANCH  76  77
ENDBRANCH  75  76
ENDBRANCH  74  75
ENDBRANCH   1  74
TORSDOF 27
ENDMDL
MODEL 3
REMARK VINA RESULT:      -8.2      6.119     10.896
REMARK SMILES O=C(OCCOCCOCCOCCOC(=O)[C@@]1([NH2+]C2CC2)CC[C@H](SC2CCCC2)C1)c1ccc(-c2c3nc(c(-c4cccc(S(=O)(=O)[O-])c4F)c4ccc([nH]4)c(-c4cccc(S(=O)(=O)[O-])c4F)c4nc(c(-c5cccc(S(=O)(=O)[O-])c5F)c5ccc2[nH]5)C=C4)C=C3)cc1
REMARK SMILES IDX 8 1 7 2 6 3 5 4 4 5 3 6 2 7 1 8 33 9 34 10 95 11 35 12 94 13
REMARK SMILES IDX 36 14 37 15 38 16 88 17 39 18 93 19 87 20 89 21 40 22 92 23
REMARK SMILES IDX 86 24 85 25 41 27 73 28 53 29 72 30 54 31 57 32 71 33 90 34
REMARK SMILES IDX 55 35 56 36 70 38 91 39 58 40 42 41 43 42 51 43 44 44 46 45
REMARK SMILES IDX 52 46 45 47 47 48 48 49 49 50 50 51 74 52 75 53 83 54 76 55
REMARK SMILES IDX 78 56 84 57 77 58 79 59 80 60 81 61 82 62 59 63 60 64 68 65
REMARK SMILES IDX 61 66 63 67 69 68 62 69 64 70 65 71 66 72 67 73 9 74 10 75
REMARK SMILES IDX 11 76 12 77 13 78 14 79 15 80 16 81 17 82 18 83 23 84 32 85
REMARK SMILES IDX 24 86 25 87 19 88 20 91 21 92 22 93 26 94 27 95 28 96 31 97
REMARK SMILES IDX 29 98 30 99
REMARK H PARENT 89 26 57 37 19 89 19 90
REMARK Flexibility Score: inf
ROOT
ATOM      1  C   UNL A   1      36.224  32.764  31.837  1.00  0.00     0.188 C 
ENDROOT
BRANCH   1   2
ATOM      2  C   UNL A   1      37.013  31.576  32.380  1.00  0.00     0.188 C 
BRANCH   2   3
ATOM      3  O   UNL A   1      36.312  30.347  32.186  1.00  0.00    -0.376 OA
BRANCH   3   4
ATOM      4  C   UNL A   1      36.909  29.351  31.357  1.00  0.00     0.202 C 
BRANCH   4   5
ATOM      5  C   UNL A   1      36.679  29.523  29.859  1.00  0.00     0.261 C 
BRANCH   5   6
ATOM      6  O   UNL A   1      37.602  28.801  29.032  1.00  0.00    -0.460 OA
BRANCH   6   7
ATOM      7  C   UNL A   1      38.803  29.190  28.534  1.00  0.00     0.338 C 
ATOM      8  O   UNL A   1      38.799  29.825  27.479  1.00  0.00    -0.246 OA
BRANCH   7   9
ATOM      9  C   UNL A   1      40.129  28.873  29.151  1.00  0.00     0.060 A 
ATOM     10  C   UNL A   1      41.216  29.741  29.230  1.00  0.00     0.016 A 
ATOM     11  C   UNL A   1      40.265  27.615  29.763  1.00  0.00     0.016 A 
ATOM     12  C   UNL A   1      42.400  29.397  29.845  1.00  0.00     0.010 A 
ATOM     13  C   UNL A   1      41.462  27.240  30.380  1.00  0.00     0.010 A 
ATOM     14  C   UNL A   1      42.538  28.133  30.390  1.00  0.00    -0.014 A 
BRANCH  14  15
ATOM     15  C   UNL A   1      43.908  27.739  30.723  1.00  0.00     0.031 A 
ATOM     16  C   UNL A   1      44.771  27.282  29.590  1.00  0.00     0.074 A 
ATOM     17  C   UNL A   1      44.395  27.999  31.947  1.00  0.00     0.049 A 
ATOM     18  N   UNL A   1      45.995  26.842  29.614  1.00  0.00    -0.248 NA
ATOM     19  C   UNL A   1      44.183  27.358  28.237  1.00  0.00     0.031 C 
ATOM     20  C   UNL A   1      43.648  28.634  33.038  1.00  0.00     0.029 A 
ATOM     21  N   UNL A   1      45.635  27.781  32.475  1.00  0.00    -0.354 N 
ATOM     22  C   UNL A   1      46.292  26.512  28.299  1.00  0.00     0.074 A 
ATOM     23  C   UNL A   1      45.147  26.846  27.489  1.00  0.00     0.031 C 
ATOM     24  C   UNL A   1      44.442  28.731  34.116  1.00  0.00     0.029 A 
ATOM     25  C   UNL A   1      45.715  28.092  33.812  1.00  0.00     0.049 A 
ATOM     26  H   UNL A   1      46.396  27.437  31.952  1.00  0.00     0.167 HD
ATOM     27  C   UNL A   1      47.426  25.951  27.830  1.00  0.00     0.034 A 
ATOM     28  C   UNL A   1      46.693  27.814  34.693  1.00  0.00     0.034 A 
ATOM     29  C   UNL A   1      48.538  25.643  28.680  1.00  0.00     0.049 A 
ATOM     30  C   UNL A   1      47.906  27.099  34.159  1.00  0.00     0.074 A 
ATOM     31  C   UNL A   1      49.727  25.023  28.356  1.00  0.00     0.029 A 
ATOM     32  N   UNL A   1      48.580  25.928  30.038  1.00  0.00    -0.354 N 
ATOM     33  N   UNL A   1      48.184  26.759  32.920  1.00  0.00    -0.248 NA
ATOM     34  C   UNL A   1      48.941  26.733  35.131  1.00  0.00     0.031 C 
ATOM     35  C   UNL A   1      50.471  24.895  29.533  1.00  0.00     0.029 A 
ATOM     36  C   UNL A   1      49.767  25.483  30.577  1.00  0.00     0.049 A 
ATOM     37  H   UNL A   1      47.866  26.383  30.541  1.00  0.00     0.167 HD
ATOM     38  C   UNL A   1      49.438  26.167  32.959  1.00  0.00     0.074 A 
ATOM     39  C   UNL A   1      49.874  26.220  34.341  1.00  0.00     0.031 C 
ATOM     40  C   UNL A   1      50.164  25.613  31.956  1.00  0.00     0.034 A 
BRANCH  27  41
ATOM     41  C   UNL A   1      47.460  25.564  26.381  1.00  0.00     0.023 A 
ATOM     42  C   UNL A   1      46.927  24.334  25.947  1.00  0.00     0.012 A 
ATOM     43  C   UNL A   1      48.043  26.437  25.441  1.00  0.00     0.148 A 
ATOM     44  C   UNL A   1      46.995  23.969  24.601  1.00  0.00     0.002 A 
ATOM     45  C   UNL A   1      48.066  26.088  24.098  1.00  0.00     0.091 A 
ATOM     46  F   UNL A   1      48.581  27.582  25.885  1.00  0.00    -0.205 F 
ATOM     47  C   UNL A   1      47.554  24.851  23.678  1.00  0.00     0.022 A 
BRANCH  45  48
ATOM     48  S   UNL A   1      48.709  27.183  22.829  1.00  0.00     0.127 S 
ATOM     49  O   UNL A   1      47.828  28.347  22.970  1.00  0.00    -0.237 OA
ATOM     50  O   UNL A   1      50.083  27.402  23.292  1.00  0.00    -0.237 OA
ATOM     51  O   UNL A   1      48.589  26.468  21.573  1.00  0.00    -0.744 OA
ENDBRANCH  45  48
ENDBRANCH  27  41
BRANCH  28  52
ATOM     52  C   UNL A   1      46.543  28.140  36.140  1.00  0.00     0.023 A 
ATOM     53  C   UNL A   1      47.041  29.355  36.644  1.00  0.00     0.012 A 
ATOM     54  C   UNL A   1      45.928  27.234  37.030  1.00  0.00     0.148 A 
ATOM     55  C   UNL A   1      46.972  29.642  38.009  1.00  0.00     0.002 A 
ATOM     56  C   UNL A   1      45.810  27.551  38.378  1.00  0.00     0.091 A 
ATOM     57  F   UNL A   1      45.473  26.070  36.542  1.00  0.00    -0.205 F 
ATOM     58  C   UNL A   1      46.351  28.745  38.874  1.00  0.00     0.022 A 
BRANCH  56  59
ATOM     59  S   UNL A   1      44.921  26.503  39.534  1.00  0.00     0.127 S 
ATOM     60  O   UNL A   1      43.574  26.506  38.962  1.00  0.00    -0.237 OA
ATOM     61  O   UNL A   1      45.638  25.232  39.406  1.00  0.00    -0.237 OA
ATOM     62  O   UNL A   1      45.061  27.141  40.833  1.00  0.00    -0.744 OA
ENDBRANCH  56  59
ENDBRANCH  28  52
BRANCH  40  63
ATOM     63  C   UNL A   1      51.519  25.077  32.314  1.00  0.00     0.023 A 
ATOM     64  C   UNL A   1      52.643  25.924  32.283  1.00  0.00     0.012 A 
ATOM     65  C   UNL A   1      51.649  23.754  32.773  1.00  0.00     0.148 A 
ATOM     66  C   UNL A   1      53.890  25.447  32.676  1.00  0.00     0.002 A 
ATOM     67  C   UNL A   1      52.881  23.305  33.222  1.00  0.00     0.091 A 
ATOM     68  F   UNL A   1      50.563  22.967  32.774  1.00  0.00    -0.205 F 
ATOM     69  C   UNL A   1      54.005  24.145  33.161  1.00  0.00     0.022 A 
BRANCH  67  70
ATOM     70  S   UNL A   1      53.092  21.690  33.973  1.00  0.00     0.127 S 
ATOM     71  O   UNL A   1      54.528  21.677  34.249  1.00  0.00    -0.237 OA
ATOM     72  O   UNL A   1      52.241  21.787  35.160  1.00  0.00    -0.237 OA
ATOM     73  O   UNL A   1      52.639  20.722  32.983  1.00  0.00    -0.744 OA
ENDBRANCH  67  70
ENDBRANCH  40  63
ENDBRANCH  14  15
ENDBRANCH   7   9
ENDBRANCH   6   7
ENDBRANCH   5   6
ENDBRANCH   4   5
ENDBRANCH   3   4
ENDBRANCH   2   3
ENDBRANCH   1   2
BRANCH   1  74
ATOM     74  O   UNL A   1      36.219  32.849  30.421  1.00  0.00    -0.377 OA
BRANCH  74  75
ATOM     75  C   UNL A   1      34.936  32.784  29.819  1.00  0.00     0.188 C 
BRANCH  75  76
ATOM     76  C   UNL A   1      34.731  31.975  28.503  1.00  0.00     0.188 C 
BRANCH  76  77
ATOM     77  O   UNL A   1      33.590  32.362  27.767  1.00  0.00    -0.376 OA
BRANCH  77  78
ATOM     78  C   UNL A   1      32.709  31.296  27.419  1.00  0.00     0.202 C 
BRANCH  78  79
ATOM     79  C   UNL A   1      33.298  30.109  26.627  1.00  0.00     0.261 C 
BRANCH  79  80
ATOM     80  O   UNL A   1      32.343  29.364  25.821  1.00  0.00    -0.459 OA
BRANCH  80  81
ATOM     81  C   UNL A   1      31.869  28.179  26.279  1.00  0.00     0.368 C 
ATOM     82  O   UNL A   1      31.473  28.064  27.432  1.00  0.00    -0.245 OA
BRANCH  81  83
ATOM     83  C   UNL A   1      31.845  27.031  25.153  1.00  0.00     0.195 C 
ATOM     84  C   UNL A   1      30.493  26.604  24.522  1.00  0.00     0.082 C 
ATOM     85  C   UNL A   1      32.638  27.436  23.870  1.00  0.00     0.095 C 
ATOM     86  C   UNL A   1      30.848  25.893  23.226  1.00  0.00     0.022 C 
ATOM     87  C   UNL A   1      32.093  26.584  22.686  1.00  0.00     0.054 C 
BRANCH  83  88
ATOM     88  N   UNL A   1      32.484  25.812  25.707  1.00  0.00    -0.330 N 
ATOM     89  H   UNL A   1      33.282  26.119  26.264  1.00  0.00     0.347 HD
ATOM     90  H   UNL A   1      32.697  25.250  24.882  1.00  0.00     0.347 HD
BRANCH  88  91
ATOM     91  C   UNL A   1      31.688  24.914  26.552  1.00  0.00     0.183 C 
ATOM     92  C   UNL A   1      31.076  23.600  26.132  1.00  0.00     0.071 C 
ATOM     93  C   UNL A   1      32.283  23.611  27.017  1.00  0.00     0.071 C 
ENDBRANCH  88  91
ENDBRANCH  83  88
BRANCH  87  94
ATOM     94  S   UNL A   1      33.396  25.422  22.123  1.00  0.00    -0.155 SA
BRANCH  94  95
ATOM     95  C   UNL A   1      33.158  23.873  23.061  1.00  0.00     0.047 C 
ATOM     96  C   UNL A   1      32.592  22.665  22.325  1.00  0.00     0.014 C 
ATOM     97  C   UNL A   1      34.335  23.274  23.820  1.00  0.00     0.014 C 
ATOM     98  C   UNL A   1      32.579  21.598  23.410  1.00  0.00     0.001 C 
ATOM     99  C   UNL A   1      33.800  21.907  24.282  1.00  0.00     0.001 C 
ENDBRANCH  94  95
ENDBRANCH  87  94
ENDBRANCH  81  83
ENDBRANCH  80  81
ENDBRANCH  79  80
ENDBRANCH  78  79
ENDBRANCH  77  78
ENDBRANCH  76  77
ENDBRANCH  75  76
ENDBRANCH  74  75
ENDBRANCH   1  74
TORSDOF 27
ENDMDL
