MODEL 1
REMARK VINA RESULT:      -7.4      0.000      0.000
REMARK SMILES CC(C)C[C@H](NC(=O)[C@H](Cc1ccccc1)NC(=O)CNC(=O)C[NH3+])C(=O)OCCOCCOCCOCCOC(=O)c1ccc(-c2c3nc(c(-c4cccc(S(=O)(=O)[O-])c4F)c4ccc([nH]4)c(-c4cccc(S(=O)(=O)[O-])c4F)c4nc(c(-c5cccc(S(=O)(=O)[O-])c5F)c5ccc2[nH]5)C=C4)C=C3)cc1
REMARK SMILES IDX 32 1 31 2 30 3 29 4 28 5 26 6 27 7 5 8 4 9 2 10 1 11 3 12
REMARK SMILES IDX 6 13 7 14 8 16 9 17 17 18 18 19 19 21 20 22 21 23 22 24
REMARK SMILES IDX 23 26 24 27 25 28 10 32 11 33 12 34 16 35 13 36 15 37 14 38
REMARK SMILES IDX 33 39 34 40 35 41 36 42 37 43 38 44 39 45 40 46 41 47 42 48
REMARK SMILES IDX 43 49 44 50 105 51 45 52 104 53 46 54 47 55 48 56 98 57
REMARK SMILES IDX 49 58 103 59 97 60 99 61 50 62 102 63 96 64 95 65 51 67
REMARK SMILES IDX 83 68 63 69 82 70 64 71 67 72 81 73 100 74 65 75 66 76 80 78
REMARK SMILES IDX 101 79 68 80 52 81 53 82 61 83 54 84 56 85 62 86 55 87 57 88
REMARK SMILES IDX 58 89 59 90 60 91 84 92 85 93 93 94 86 95 88 96 94 97 87 98
REMARK SMILES IDX 89 99 90 100 91 101 92 102 69 103 70 104 78 105 71 106
REMARK SMILES IDX 73 107 79 108 72 109 74 110 75 111 76 112 77 113
REMARK H PARENT 6 15 17 20 21 25 25 29 25 30 25 31 99 66 67 77
REMARK Flexibility Score: inf
ROOT
ATOM      1  C   UNL A   1      38.088  32.069  36.527  1.00  0.00     0.188 C 
ENDROOT
BRANCH   1   2
ATOM      2  O   UNL A   1      38.301  33.294  37.199  1.00  0.00    -0.376 OA
BRANCH   2   3
ATOM      3  C   UNL A   1      37.648  33.395  38.455  1.00  0.00     0.202 C 
BRANCH   3   4
ATOM      4  C   UNL A   1      38.093  32.418  39.564  1.00  0.00     0.261 C 
BRANCH   4   5
ATOM      5  O   UNL A   1      37.245  31.264  39.831  1.00  0.00    -0.462 OA
BRANCH   5   6
ATOM      6  C   UNL A   1      36.324  31.334  40.955  1.00  0.00     0.328 C 
ATOM      7  O   UNL A   1      35.188  31.389  40.382  1.00  0.00    -0.250 OA
BRANCH   6   8
ATOM      8  C   UNL A   1      36.887  31.449  43.073  1.00  0.00     0.192 C 
BRANCH   8   9
ATOM      9  C   UNL A   1      36.367  30.528  44.481  1.00  0.00     0.040 C 
BRANCH   9  10
ATOM     10  C   UNL A   1      34.935  30.873  45.021  1.00  0.00    -0.015 C 
ATOM     11  C   UNL A   1      34.949  31.780  46.249  1.00  0.00     0.007 C 
ATOM     12  C   UNL A   1      34.081  31.428  43.888  1.00  0.00     0.007 C 
ENDBRANCH   9  10
ENDBRANCH   8   9
BRANCH   8  13
ATOM     13  N   UNL A   1      37.407  32.775  44.021  1.00  0.00    -0.341 N 
ATOM     14  C   UNL A   1      38.668  33.194  44.380  1.00  0.00     0.243 C 
ATOM     15  H   UNL A   1      36.678  33.337  44.370  1.00  0.00     0.164 HD
ATOM     16  O   UNL A   1      38.733  34.066  45.257  1.00  0.00    -0.273 OA
BRANCH  14  17
ATOM     17  C   UNL A   1      40.003  32.717  43.665  1.00  0.00     0.175 C 
BRANCH  17  18
ATOM     18  N   UNL A   1      41.019  33.768  43.915  1.00  0.00    -0.342 N 
ATOM     19  C   UNL A   1      41.438  34.839  43.186  1.00  0.00     0.240 C 
ATOM     20  H   UNL A   1      41.482  33.672  44.779  1.00  0.00     0.164 HD
ATOM     21  O   UNL A   1      42.161  35.665  43.754  1.00  0.00    -0.273 OA
BRANCH  19  22
ATOM     22  C   UNL A   1      40.962  35.107  41.761  1.00  0.00     0.216 C 
BRANCH  22  23
ATOM     23  N   UNL A   1      42.030  35.178  40.784  1.00  0.00    -0.342 N 
ATOM     24  C   UNL A   1      42.575  34.142  40.086  1.00  0.00     0.275 C 
ATOM     25  H   UNL A   1      42.403  36.072  40.606  1.00  0.00     0.164 HD
ATOM     26  O   UNL A   1      43.486  34.374  39.292  1.00  0.00    -0.268 OA
BRANCH  24  27
ATOM     27  C   UNL A   1      42.039  32.729  40.322  1.00  0.00     0.360 C 
BRANCH  27  28
ATOM     28  N   UNL A   1      43.085  31.728  40.086  1.00  0.00    -0.350 N 
ATOM     29  H   UNL A   1      43.883  31.918  40.694  1.00  0.00     0.344 HD
ATOM     30  H   UNL A   1      43.383  31.770  39.112  1.00  0.00     0.344 HD
ATOM     31  H   UNL A   1      42.718  30.798  40.289  1.00  0.00     0.344 HD
ENDBRANCH  27  28
ENDBRANCH  24  27
ENDBRANCH  22  23
ENDBRANCH  19  22
ENDBRANCH  17  18
BRANCH  17  32
ATOM     32  C   UNL A   1      40.578  31.318  43.965  1.00  0.00     0.070 C 
BRANCH  32  33
ATOM     33  C   UNL A   1      40.915  31.106  45.433  1.00  0.00    -0.045 A 
ATOM     34  C   UNL A   1      42.670  31.080  45.862  1.00  0.00     0.004 A 
ATOM     35  C   UNL A   1      39.741  30.075  46.352  1.00  0.00     0.004 A 
ATOM     36  C   UNL A   1      43.272  29.961  47.145  1.00  0.00     0.000 A 
ATOM     37  C   UNL A   1      40.368  29.029  47.694  1.00  0.00     0.000 A 
ATOM     38  C   UNL A   1      42.117  29.011  48.095  1.00  0.00     0.000 A 
ENDBRANCH  32  33
ENDBRANCH  17  32
ENDBRANCH  14  17
ENDBRANCH   8  13
ENDBRANCH   6   8
ENDBRANCH   5   6
ENDBRANCH   4   5
ENDBRANCH   3   4
ENDBRANCH   2   3
ENDBRANCH   1   2
BRANCH   1  39
ATOM     39  C   UNL A   1      37.494  32.298  35.151  1.00  0.00     0.188 C 
BRANCH  39  40
ATOM     40  O   UNL A   1      36.340  33.118  35.012  1.00  0.00    -0.377 OA
BRANCH  40  41
ATOM     41  C   UNL A   1      35.539  33.026  33.841  1.00  0.00     0.188 C 
BRANCH  41  42
ATOM     42  C   UNL A   1      35.496  34.209  32.869  1.00  0.00     0.188 C 
BRANCH  42  43
ATOM     43  O   UNL A   1      34.314  34.549  32.151  1.00  0.00    -0.376 OA
BRANCH  43  44
ATOM     44  C   UNL A   1      34.244  34.348  30.753  1.00  0.00     0.202 C 
BRANCH  44  45
ATOM     45  C   UNL A   1      35.264  33.400  30.154  1.00  0.00     0.261 C 
BRANCH  45  46
ATOM     46  O   UNL A   1      34.765  32.068  30.173  1.00  0.00    -0.460 OA
BRANCH  46  47
ATOM     47  C   UNL A   1      34.822  31.498  28.948  1.00  0.00     0.338 C 
ATOM     48  O   UNL A   1      34.119  31.742  27.982  1.00  0.00    -0.246 OA
BRANCH  47  49
ATOM     49  C   UNL A   1      35.986  30.618  28.883  1.00  0.00     0.060 A 
ATOM     50  C   UNL A   1      36.116  29.689  29.920  1.00  0.00     0.016 A 
ATOM     51  C   UNL A   1      36.963  30.760  27.893  1.00  0.00     0.016 A 
ATOM     52  C   UNL A   1      37.265  28.941  30.016  1.00  0.00     0.010 A 
ATOM     53  C   UNL A   1      38.147  30.043  28.019  1.00  0.00     0.010 A 
ATOM     54  C   UNL A   1      38.309  29.188  29.119  1.00  0.00    -0.014 A 
BRANCH  54  55
ATOM     55  C   UNL A   1      39.631  28.725  29.555  1.00  0.00     0.031 A 
ATOM     56  C   UNL A   1      40.215  29.336  30.793  1.00  0.00     0.074 A 
ATOM     57  C   UNL A   1      40.163  27.649  28.962  1.00  0.00     0.049 A 
ATOM     58  N   UNL A   1      41.298  29.005  31.440  1.00  0.00    -0.248 NA
ATOM     59  C   UNL A   1      39.471  30.457  31.399  1.00  0.00     0.031 C 
ATOM     60  C   UNL A   1      39.597  26.964  27.799  1.00  0.00     0.029 A 
ATOM     61  N   UNL A   1      41.281  26.933  29.273  1.00  0.00    -0.354 N 
ATOM     62  C   UNL A   1      41.377  29.883  32.513  1.00  0.00     0.074 A 
ATOM     63  C   UNL A   1      40.243  30.774  32.427  1.00  0.00     0.031 C 
ATOM     64  C   UNL A   1      40.387  25.927  27.482  1.00  0.00     0.029 A 
ATOM     65  C   UNL A   1      41.526  25.911  28.393  1.00  0.00     0.049 A 
ATOM     66  H   UNL A   1      41.854  27.130  30.050  1.00  0.00     0.167 HD
ATOM     67  C   UNL A   1      42.312  29.926  33.487  1.00  0.00     0.034 A 
ATOM     68  C   UNL A   1      42.584  25.086  28.320  1.00  0.00     0.034 A 
ATOM     69  C   UNL A   1      43.427  29.022  33.543  1.00  0.00     0.049 A 
ATOM     70  C   UNL A   1      43.646  25.205  29.376  1.00  0.00     0.074 A 
ATOM     71  C   UNL A   1      44.450  28.971  34.471  1.00  0.00     0.029 A 
ATOM     72  N   UNL A   1      43.672  28.016  32.618  1.00  0.00    -0.354 N 
ATOM     73  N   UNL A   1      43.696  26.011  30.411  1.00  0.00    -0.248 NA
ATOM     74  C   UNL A   1      44.777  24.277  29.277  1.00  0.00     0.031 C 
ATOM     75  C   UNL A   1      45.339  27.965  34.079  1.00  0.00     0.029 A 
ATOM     76  C   UNL A   1      44.838  27.348  32.942  1.00  0.00     0.049 A 
ATOM     77  H   UNL A   1      43.099  27.810  31.844  1.00  0.00     0.167 HD
ATOM     78  C   UNL A   1      44.850  25.670  31.102  1.00  0.00     0.074 A 
ATOM     79  C   UNL A   1      45.443  24.557  30.387  1.00  0.00     0.031 C 
ATOM     80  C   UNL A   1      45.386  26.229  32.217  1.00  0.00     0.034 A 
BRANCH  67  81
ATOM     81  C   UNL A   1      42.179  30.988  34.545  1.00  0.00     0.023 A 
ATOM     82  C   UNL A   1      41.707  30.656  35.832  1.00  0.00     0.012 A 
ATOM     83  C   UNL A   1      42.567  32.314  34.274  1.00  0.00     0.148 A 
ATOM     84  C   UNL A   1      41.602  31.632  36.823  1.00  0.00     0.002 A 
ATOM     85  C   UNL A   1      42.507  33.270  35.279  1.00  0.00     0.091 A 
ATOM     86  F   UNL A   1      42.986  32.615  33.036  1.00  0.00    -0.205 F 
ATOM     87  C   UNL A   1      42.014  32.935  36.551  1.00  0.00     0.022 A 
BRANCH  85  88
ATOM     88  S   UNL A   1      43.083  34.955  35.051  1.00  0.00     0.127 S 
ATOM     89  O   UNL A   1      44.509  34.748  34.794  1.00  0.00    -0.237 OA
ATOM     90  O   UNL A   1      42.310  35.384  33.885  1.00  0.00    -0.237 OA
ATOM     91  O   UNL A   1      42.775  35.660  36.286  1.00  0.00    -0.744 OA
ENDBRANCH  85  88
ENDBRANCH  67  81
BRANCH  68  92
ATOM     92  C   UNL A   1      42.700  24.125  27.192  1.00  0.00     0.023 A 
ATOM     93  C   UNL A   1      43.380  24.482  26.015  1.00  0.00     0.012 A 
ATOM     94  C   UNL A   1      42.127  22.841  27.296  1.00  0.00     0.148 A 
ATOM     95  C   UNL A   1      43.446  23.593  24.941  1.00  0.00     0.002 A 
ATOM     96  C   UNL A   1      42.254  21.939  26.252  1.00  0.00     0.091 A 
ATOM     97  F   UNL A   1      41.476  22.526  28.425  1.00  0.00    -0.205 F 
ATOM     98  C   UNL A   1      42.892  22.320  25.062  1.00  0.00     0.022 A 
BRANCH  96  99
ATOM     99  S   UNL A   1      41.691  20.240  26.382  1.00  0.00     0.127 S 
ATOM    100  O   UNL A   1      42.300  19.818  27.640  1.00  0.00    -0.237 OA
ATOM    101  O   UNL A   1      40.238  20.409  26.423  1.00  0.00    -0.237 OA
ATOM    102  O   UNL A   1      42.179  19.567  25.185  1.00  0.00    -0.744 OA
ENDBRANCH  96  99
ENDBRANCH  68  92
BRANCH  80 103
ATOM    103  C   UNL A   1      46.654  25.608  32.741  1.00  0.00     0.023 A 
ATOM    104  C   UNL A   1      46.614  24.739  33.849  1.00  0.00     0.012 A 
ATOM    105  C   UNL A   1      47.888  25.883  32.121  1.00  0.00     0.148 A 
ATOM    106  C   UNL A   1      47.790  24.210  34.376  1.00  0.00     0.002 A 
ATOM    107  C   UNL A   1      49.048  25.299  32.609  1.00  0.00     0.091 A 
ATOM    108  F   UNL A   1      47.906  26.720  31.073  1.00  0.00    -0.205 F 
ATOM    109  C   UNL A   1      49.004  24.483  33.751  1.00  0.00     0.022 A 
BRANCH 107 110
ATOM    110  S   UNL A   1      50.640  25.509  31.810  1.00  0.00     0.127 S 
ATOM    111  O   UNL A   1      50.369  24.996  30.468  1.00  0.00    -0.237 OA
ATOM    112  O   UNL A   1      50.831  26.957  31.883  1.00  0.00    -0.237 OA
ATOM    113  O   UNL A   1      51.591  24.733  32.595  1.00  0.00    -0.744 OA
ENDBRANCH 107 110
ENDBRANCH  80 103
ENDBRANCH  54  55
ENDBRANCH  47  49
ENDBRANCH  46  47
ENDBRANCH  45  46
ENDBRANCH  44  45
ENDBRANCH  43  44
ENDBRANCH  42  43
ENDBRANCH  41  42
ENDBRANCH  40  41
ENDBRANCH  39  40
ENDBRANCH   1  39
TORSDOF 34
ENDMDL
MODEL 2
REMARK VINA RESULT:      -6.7      1.470      1.857
REMARK SMILES CC(C)C[C@H](NC(=O)[C@H](Cc1ccccc1)NC(=O)CNC(=O)C[NH3+])C(=O)OCCOCCOCCOCCOC(=O)c1ccc(-c2c3nc(c(-c4cccc(S(=O)(=O)[O-])c4F)c4ccc([nH]4)c(-c4cccc(S(=O)(=O)[O-])c4F)c4nc(c(-c5cccc(S(=O)(=O)[O-])c5F)c5ccc2[nH]5)C=C4)C=C3)cc1
REMARK SMILES IDX 32 1 31 2 30 3 29 4 28 5 26 6 27 7 5 8 4 9 2 10 1 11 3 12
REMARK SMILES IDX 6 13 7 14 8 16 9 17 17 18 18 19 19 21 20 22 21 23 22 24
REMARK SMILES IDX 23 26 24 27 25 28 10 32 11 33 12 34 16 35 13 36 15 37 14 38
REMARK SMILES IDX 33 39 34 40 35 41 36 42 37 43 38 44 39 45 40 46 41 47 42 48
REMARK SMILES IDX 43 49 44 50 105 51 45 52 104 53 46 54 47 55 48 56 98 57
REMARK SMILES IDX 49 58 103 59 97 60 99 61 50 62 102 63 96 64 95 65 51 67
REMARK SMILES IDX 83 68 63 69 82 70 64 71 67 72 81 73 100 74 65 75 66 76 80 78
REMARK SMILES IDX 101 79 68 80 52 81 53 82 61 83 54 84 56 85 62 86 55 87 57 88
REMARK SMILES IDX 58 89 59 90 60 91 84 92 85 93 93 94 86 95 88 96 94 97 87 98
REMARK SMILES IDX 89 99 90 100 91 101 92 102 69 103 70 104 78 105 71 106
REMARK SMILES IDX 73 107 79 108 72 109 74 110 75 111 76 112 77 113
REMARK H PARENT 6 15 17 20 21 25 25 29 25 30 25 31 99 66 67 77
REMARK Flexibility Score: inf
ROOT
ATOM      1  C   UNL A   1      38.522  32.476  37.126  1.00  0.00     0.188 C 
ENDROOT
BRANCH   1   2
ATOM      2  O   UNL A   1      39.096  33.665  37.631  1.00  0.00    -0.376 OA
BRANCH   2   3
ATOM      3  C   UNL A   1      38.370  34.261  38.694  1.00  0.00     0.202 C 
BRANCH   3   4
ATOM      4  C   UNL A   1      38.656  33.747  40.121  1.00  0.00     0.261 C 
BRANCH   4   5
ATOM      5  O   UNL A   1      37.898  32.595  40.590  1.00  0.00    -0.462 OA
BRANCH   5   6
ATOM      6  C   UNL A   1      37.114  32.738  41.808  1.00  0.00     0.328 C 
ATOM      7  O   UNL A   1      35.939  32.939  41.362  1.00  0.00    -0.250 OA
BRANCH   6   8
ATOM      8  C   UNL A   1      37.906  32.729  43.855  1.00  0.00     0.192 C 
BRANCH   8   9
ATOM      9  C   UNL A   1      37.553  31.714  45.249  1.00  0.00     0.040 C 
BRANCH   9  10
ATOM     10  C   UNL A   1      36.047  31.308  45.423  1.00  0.00    -0.015 C 
ATOM     11  C   UNL A   1      35.824  29.798  45.471  1.00  0.00     0.007 C 
ATOM     12  C   UNL A   1      35.459  32.028  46.630  1.00  0.00     0.007 C 
ENDBRANCH   9  10
ENDBRANCH   8   9
BRANCH   8  13
ATOM     13  N   UNL A   1      38.516  34.001  44.823  1.00  0.00    -0.341 N 
ATOM     14  C   UNL A   1      39.688  34.719  44.744  1.00  0.00     0.243 C 
ATOM     15  H   UNL A   1      37.927  34.266  45.565  1.00  0.00     0.164 HD
ATOM     16  O   UNL A   1      39.964  35.437  45.715  1.00  0.00    -0.273 OA
BRANCH  14  17
ATOM     17  C   UNL A   1      40.620  34.766  43.459  1.00  0.00     0.175 C 
BRANCH  17  18
ATOM     18  N   UNL A   1      41.293  36.088  43.469  1.00  0.00    -0.342 N 
ATOM     19  C   UNL A   1      41.431  37.059  42.526  1.00  0.00     0.240 C 
ATOM     20  H   UNL A   1      41.725  36.304  44.327  1.00  0.00     0.164 HD
ATOM     21  O   UNL A   1      41.871  38.153  42.897  1.00  0.00    -0.273 OA
BRANCH  19  22
ATOM     22  C   UNL A   1      40.963  36.885  41.083  1.00  0.00     0.216 C 
BRANCH  22  23
ATOM     23  N   UNL A   1      41.817  36.028  40.284  1.00  0.00    -0.342 N 
ATOM     24  C   UNL A   1      41.834  35.923  38.925  1.00  0.00     0.275 C 
ATOM     25  H   UNL A   1      42.451  35.459  40.777  1.00  0.00     0.164 HD
ATOM     26  O   UNL A   1      42.623  35.137  38.400  1.00  0.00    -0.268 OA
BRANCH  24  27
ATOM     27  C   UNL A   1      40.868  36.780  38.105  1.00  0.00     0.360 C 
BRANCH  27  28
ATOM     28  N   UNL A   1      40.782  36.293  36.724  1.00  0.00    -0.350 N 
ATOM     29  H   UNL A   1      41.380  35.473  36.614  1.00  0.00     0.344 HD
ATOM     30  H   UNL A   1      41.090  37.026  36.086  1.00  0.00     0.344 HD
ATOM     31  H   UNL A   1      39.817  36.040  36.512  1.00  0.00     0.344 HD
ENDBRANCH  27  28
ENDBRANCH  24  27
ENDBRANCH  22  23
ENDBRANCH  19  22
ENDBRANCH  17  18
BRANCH  17  32
ATOM     32  C   UNL A   1      41.638  33.636  43.207  1.00  0.00     0.070 C 
BRANCH  32  33
ATOM     33  C   UNL A   1      41.921  32.792  44.441  1.00  0.00    -0.045 A 
ATOM     34  C   UNL A   1      43.441  33.167  45.344  1.00  0.00     0.004 A 
ATOM     35  C   UNL A   1      41.308  31.088  44.367  1.00  0.00     0.004 A 
ATOM     36  C   UNL A   1      44.399  31.835  46.097  1.00  0.00     0.000 A 
ATOM     37  C   UNL A   1      42.249  29.787  45.210  1.00  0.00     0.000 A 
ATOM     38  C   UNL A   1      43.762  30.182  46.091  1.00  0.00     0.000 A 
ENDBRANCH  32  33
ENDBRANCH  17  32
ENDBRANCH  14  17
ENDBRANCH   8  13
ENDBRANCH   6   8
ENDBRANCH   5   6
ENDBRANCH   4   5
ENDBRANCH   3   4
ENDBRANCH   2   3
ENDBRANCH   1   2
BRANCH   1  39
ATOM     39  C   UNL A   1      37.992  32.681  35.721  1.00  0.00     0.188 C 
BRANCH  39  40
ATOM     40  O   UNL A   1      37.106  33.763  35.455  1.00  0.00    -0.377 OA
BRANCH  40  41
ATOM     41  C   UNL A   1      35.945  33.553  34.662  1.00  0.00     0.188 C 
BRANCH  41  42
ATOM     42  C   UNL A   1      35.859  34.198  33.275  1.00  0.00     0.188 C 
BRANCH  42  43
ATOM     43  O   UNL A   1      34.609  34.505  32.666  1.00  0.00    -0.376 OA
BRANCH  43  44
ATOM     44  C   UNL A   1      34.402  34.251  31.290  1.00  0.00     0.202 C 
BRANCH  44  45
ATOM     45  C   UNL A   1      35.452  33.407  30.594  1.00  0.00     0.261 C 
BRANCH  45  46
ATOM     46  O   UNL A   1      35.086  32.032  30.641  1.00  0.00    -0.460 OA
BRANCH  46  47
ATOM     47  C   UNL A   1      35.037  31.488  29.405  1.00  0.00     0.338 C 
ATOM     48  O   UNL A   1      34.225  31.716  28.524  1.00  0.00    -0.246 OA
BRANCH  47  49
ATOM     49  C   UNL A   1      36.227  30.666  29.196  1.00  0.00     0.060 A 
ATOM     50  C   UNL A   1      36.564  29.794  30.235  1.00  0.00     0.016 A 
ATOM     51  C   UNL A   1      37.033  30.810  28.063  1.00  0.00     0.016 A 
ATOM     52  C   UNL A   1      37.755  29.110  30.183  1.00  0.00     0.010 A 
ATOM     53  C   UNL A   1      38.262  30.160  28.034  1.00  0.00     0.010 A 
ATOM     54  C   UNL A   1      38.636  29.367  29.128  1.00  0.00    -0.014 A 
BRANCH  54  55
ATOM     55  C   UNL A   1      40.033  28.993  29.373  1.00  0.00     0.031 A 
ATOM     56  C   UNL A   1      40.791  29.758  30.416  1.00  0.00     0.074 A 
ATOM     57  C   UNL A   1      40.504  27.869  28.818  1.00  0.00     0.049 A 
ATOM     58  N   UNL A   1      41.983  29.532  30.895  1.00  0.00    -0.248 NA
ATOM     59  C   UNL A   1      40.112  30.922  31.016  1.00  0.00     0.031 C 
ATOM     60  C   UNL A   1      39.780  27.040  27.854  1.00  0.00     0.029 A 
ATOM     61  N   UNL A   1      41.690  27.223  29.005  1.00  0.00    -0.354 N 
ATOM     62  C   UNL A   1      42.204  30.530  31.835  1.00  0.00     0.074 A 
ATOM     63  C   UNL A   1      41.033  31.376  31.852  1.00  0.00     0.031 C 
ATOM     64  C   UNL A   1      40.551  25.994  27.519  1.00  0.00     0.029 A 
ATOM     65  C   UNL A   1      41.828  26.113  28.213  1.00  0.00     0.049 A 
ATOM     66  H   UNL A   1      42.378  27.524  29.643  1.00  0.00     0.167 HD
ATOM     67  C   UNL A   1      43.289  30.709  32.620  1.00  0.00     0.034 A 
ATOM     68  C   UNL A   1      42.895  25.313  28.047  1.00  0.00     0.034 A 
ATOM     69  C   UNL A   1      44.438  29.848  32.579  1.00  0.00     0.049 A 
ATOM     70  C   UNL A   1      44.114  25.581  28.881  1.00  0.00     0.074 A 
ATOM     71  C   UNL A   1      45.605  29.932  33.313  1.00  0.00     0.029 A 
ATOM     72  N   UNL A   1      44.566  28.749  31.741  1.00  0.00    -0.354 N 
ATOM     73  N   UNL A   1      44.303  26.502  29.797  1.00  0.00    -0.248 NA
ATOM     74  C   UNL A   1      45.253  24.678  28.688  1.00  0.00     0.031 C 
ATOM     75  C   UNL A   1      46.459  28.910  32.884  1.00  0.00     0.029 A 
ATOM     76  C   UNL A   1      45.800  28.152  31.927  1.00  0.00     0.049 A 
ATOM     77  H   UNL A   1      43.879  28.439  31.107  1.00  0.00     0.167 HD
ATOM     78  C   UNL A   1      45.574  26.274  30.309  1.00  0.00     0.074 A 
ATOM     79  C   UNL A   1      46.086  25.101  29.627  1.00  0.00     0.031 C 
ATOM     80  C   UNL A   1      46.266  26.972  31.244  1.00  0.00     0.034 A 
BRANCH  67  81
ATOM     81  C   UNL A   1      43.290  31.884  33.562  1.00  0.00     0.023 A 
ATOM     82  C   UNL A   1      42.865  31.725  34.898  1.00  0.00     0.012 A 
ATOM     83  C   UNL A   1      43.758  33.140  33.132  1.00  0.00     0.148 A 
ATOM     84  C   UNL A   1      42.884  32.804  35.781  1.00  0.00     0.002 A 
ATOM     85  C   UNL A   1      43.822  34.197  34.030  1.00  0.00     0.091 A 
ATOM     86  F   UNL A   1      44.130  33.277  31.851  1.00  0.00    -0.205 F 
ATOM     87  C   UNL A   1      43.374  34.036  35.352  1.00  0.00     0.022 A 
BRANCH  85  88
ATOM     88  S   UNL A   1      44.506  35.799  33.595  1.00  0.00     0.127 S 
ATOM     89  O   UNL A   1      43.579  36.242  32.553  1.00  0.00    -0.237 OA
ATOM     90  O   UNL A   1      44.397  36.529  34.858  1.00  0.00    -0.237 OA
ATOM     91  O   UNL A   1      45.867  35.551  33.144  1.00  0.00    -0.744 OA
ENDBRANCH  85  88
ENDBRANCH  67  81
BRANCH  68  92
ATOM     92  C   UNL A   1      42.859  24.231  27.029  1.00  0.00     0.023 A 
ATOM     93  C   UNL A   1      43.452  24.417  25.767  1.00  0.00     0.012 A 
ATOM     94  C   UNL A   1      42.231  23.004  27.322  1.00  0.00     0.148 A 
ATOM     95  C   UNL A   1      43.376  23.415  24.798  1.00  0.00     0.002 A 
ATOM     96  C   UNL A   1      42.218  21.989  26.379  1.00  0.00     0.091 A 
ATOM     97  F   UNL A   1      41.665  22.853  28.528  1.00  0.00    -0.205 F 
ATOM     98  C   UNL A   1      42.767  22.200  25.106  1.00  0.00     0.022 A 
BRANCH  96  99
ATOM     99  S   UNL A   1      41.578  20.352  26.744  1.00  0.00     0.127 S 
ATOM    100  O   UNL A   1      42.429  19.939  27.856  1.00  0.00    -0.237 OA
ATOM    101  O   UNL A   1      40.190  20.646  27.103  1.00  0.00    -0.237 OA
ATOM    102  O   UNL A   1      41.727  19.585  25.514  1.00  0.00    -0.744 OA
ENDBRANCH  96  99
ENDBRANCH  68  92
BRANCH  80 103
ATOM    103  C   UNL A   1      47.632  26.449  31.603  1.00  0.00     0.023 A 
ATOM    104  C   UNL A   1      47.776  25.464  32.600  1.00  0.00     0.012 A 
ATOM    105  C   UNL A   1      48.774  26.933  30.937  1.00  0.00     0.148 A 
ATOM    106  C   UNL A   1      49.042  25.021  32.978  1.00  0.00     0.002 A 
ATOM    107  C   UNL A   1      50.027  26.438  31.273  1.00  0.00     0.091 A 
ATOM    108  F   UNL A   1      48.618  27.877  29.997  1.00  0.00    -0.205 F 
ATOM    109  C   UNL A   1      50.164  25.501  32.310  1.00  0.00     0.022 A 
BRANCH 107 110
ATOM    110  S   UNL A   1      51.517  26.919  30.398  1.00  0.00     0.127 S 
ATOM    111  O   UNL A   1      52.545  26.688  31.412  1.00  0.00    -0.237 OA
ATOM    112  O   UNL A   1      51.536  25.974  29.282  1.00  0.00    -0.237 OA
ATOM    113  O   UNL A   1      51.326  28.311  30.010  1.00  0.00    -0.744 OA
ENDBRANCH 107 110
ENDBRANCH  80 103
ENDBRANCH  54  55
ENDBRANCH  47  49
ENDBRANCH  46  47
ENDBRANCH  45  46
ENDBRANCH  44  45
ENDBRANCH  43  44
ENDBRANCH  42  43
ENDBRANCH  41  42
ENDBRANCH  40  41
ENDBRANCH  39  40
ENDBRANCH   1  39
TORSDOF 34
ENDMDL
MODEL 3
REMARK VINA RESULT:      -6.4      5.954     13.157
REMARK SMILES CC(C)C[C@H](NC(=O)[C@H](Cc1ccccc1)NC(=O)CNC(=O)C[NH3+])C(=O)OCCOCCOCCOCCOC(=O)c1ccc(-c2c3nc(c(-c4cccc(S(=O)(=O)[O-])c4F)c4ccc([nH]4)c(-c4cccc(S(=O)(=O)[O-])c4F)c4nc(c(-c5cccc(S(=O)(=O)[O-])c5F)c5ccc2[nH]5)C=C4)C=C3)cc1
REMARK SMILES IDX 32 1 31 2 30 3 29 4 28 5 26 6 27 7 5 8 4 9 2 10 1 11 3 12
REMARK SMILES IDX 6 13 7 14 8 16 9 17 17 18 18 19 19 21 20 22 21 23 22 24
REMARK SMILES IDX 23 26 24 27 25 28 10 32 11 33 12 34 16 35 13 36 15 37 14 38
REMARK SMILES IDX 33 39 34 40 35 41 36 42 37 43 38 44 39 45 40 46 41 47 42 48
REMARK SMILES IDX 43 49 44 50 105 51 45 52 104 53 46 54 47 55 48 56 98 57
REMARK SMILES IDX 49 58 103 59 97 60 99 61 50 62 102 63 96 64 95 65 51 67
REMARK SMILES IDX 83 68 63 69 82 70 64 71 67 72 81 73 100 74 65 75 66 76 80 78
REMARK SMILES IDX 101 79 68 80 52 81 53 82 61 83 54 84 56 85 62 86 55 87 57 88
REMARK SMILES IDX 58 89 59 90 60 91 84 92 85 93 93 94 86 95 88 96 94 97 87 98
REMARK SMILES IDX 89 99 90 100 91 101 92 102 69 103 70 104 78 105 71 106
REMARK SMILES IDX 73 107 79 108 72 109 74 110 75 111 76 112 77 113
REMARK H PARENT 6 15 17 20 21 25 25 29 25 30 25 31 99 66 67 77
REMARK Flexibility Score: inf
ROOT
ATOM      1  C   UNL A   1      42.593  27.545  33.952  1.00  0.00     0.188 C 
ENDROOT
BRANCH   1   2
ATOM      2  O   UNL A   1      41.765  28.005  32.904  1.00  0.00    -0.376 OA
BRANCH   2   3
ATOM      3  C   UNL A   1      42.137  29.267  32.372  1.00  0.00     0.202 C 
BRANCH   3   4
ATOM      4  C   UNL A   1      43.646  29.546  32.206  1.00  0.00     0.261 C 
BRANCH   4   5
ATOM      5  O   UNL A   1      44.037  30.695  31.400  1.00  0.00    -0.462 OA
BRANCH   5   6
ATOM      6  C   UNL A   1      44.556  31.869  32.085  1.00  0.00     0.328 C 
ATOM      7  O   UNL A   1      45.628  32.115  31.443  1.00  0.00    -0.250 OA
BRANCH   6   8
ATOM      8  C   UNL A   1      43.685  32.810  33.866  1.00  0.00     0.192 C 
BRANCH   8   9
ATOM      9  C   UNL A   1      43.821  32.436  35.581  1.00  0.00     0.040 C 
BRANCH   9  10
ATOM     10  C   UNL A   1      43.330  31.006  36.001  1.00  0.00    -0.015 C 
ATOM     11  C   UNL A   1      44.364  30.216  36.799  1.00  0.00     0.007 C 
ATOM     12  C   UNL A   1      41.990  31.115  36.718  1.00  0.00     0.007 C 
ENDBRANCH   9  10
ENDBRANCH   8   9
BRANCH   8  13
ATOM     13  N   UNL A   1      42.212  33.656  34.075  1.00  0.00    -0.341 N 
ATOM     14  C   UNL A   1      41.139  33.833  33.232  1.00  0.00     0.243 C 
ATOM     15  H   UNL A   1      42.116  34.093  34.952  1.00  0.00     0.164 HD
ATOM     16  O   UNL A   1      40.301  34.679  33.571  1.00  0.00    -0.273 OA
BRANCH  14  17
ATOM     17  C   UNL A   1      40.865  32.948  31.942  1.00  0.00     0.175 C 
BRANCH  17  18
ATOM     18  N   UNL A   1      39.400  32.974  31.711  1.00  0.00    -0.342 N 
ATOM     19  C   UNL A   1      38.511  32.020  31.321  1.00  0.00     0.240 C 
ATOM     20  H   UNL A   1      38.991  33.854  31.872  1.00  0.00     0.164 HD
ATOM     21  O   UNL A   1      37.308  32.289  31.420  1.00  0.00    -0.273 OA
BRANCH  19  22
ATOM     22  C   UNL A   1      38.937  30.620  30.885  1.00  0.00     0.216 C 
BRANCH  22  23
ATOM     23  N   UNL A   1      38.140  29.554  31.458  1.00  0.00    -0.342 N 
ATOM     24  C   UNL A   1      38.076  29.191  32.770  1.00  0.00     0.275 C 
ATOM     25  H   UNL A   1      37.585  29.035  30.831  1.00  0.00     0.164 HD
ATOM     26  O   UNL A   1      37.347  28.252  33.092  1.00  0.00    -0.268 OA
BRANCH  24  27
ATOM     27  C   UNL A   1      38.917  29.958  33.791  1.00  0.00     0.360 C 
BRANCH  27  28
ATOM     28  N   UNL A   1      38.102  30.363  34.941  1.00  0.00    -0.350 N 
ATOM     29  H   UNL A   1      37.504  31.147  34.676  1.00  0.00     0.344 HD
ATOM     30  H   UNL A   1      38.712  30.647  35.708  1.00  0.00     0.344 HD
ATOM     31  H   UNL A   1      37.522  29.580  35.240  1.00  0.00     0.344 HD
ENDBRANCH  27  28
ENDBRANCH  24  27
ENDBRANCH  22  23
ENDBRANCH  19  22
ENDBRANCH  17  18
BRANCH  17  32
ATOM     32  C   UNL A   1      41.629  33.239  30.634  1.00  0.00     0.070 C 
BRANCH  32  33
ATOM     33  C   UNL A   1      41.854  34.722  30.383  1.00  0.00    -0.045 A 
ATOM     34  C   UNL A   1      41.119  35.407  28.882  1.00  0.00     0.004 A 
ATOM     35  C   UNL A   1      43.425  35.380  31.005  1.00  0.00     0.004 A 
ATOM     36  C   UNL A   1      41.989  36.684  27.948  1.00  0.00     0.000 A 
ATOM     37  C   UNL A   1      44.228  36.724  30.091  1.00  0.00     0.000 A 
ATOM     38  C   UNL A   1      43.484  37.380  28.596  1.00  0.00     0.000 A 
ENDBRANCH  32  33
ENDBRANCH  17  32
ENDBRANCH  14  17
ENDBRANCH   8  13
ENDBRANCH   6   8
ENDBRANCH   5   6
ENDBRANCH   4   5
ENDBRANCH   3   4
ENDBRANCH   2   3
ENDBRANCH   1   2
BRANCH   1  39
ATOM     39  C   UNL A   1      41.884  27.638  35.289  1.00  0.00     0.188 C 
BRANCH  39  40
ATOM     40  O   UNL A   1      41.111  26.536  35.751  1.00  0.00    -0.377 OA
BRANCH  40  41
ATOM     41  C   UNL A   1      41.758  25.387  36.283  1.00  0.00     0.188 C 
BRANCH  41  42
ATOM     42  C   UNL A   1      41.840  24.114  35.435  1.00  0.00     0.188 C 
BRANCH  42  43
ATOM     43  O   UNL A   1      42.998  23.794  34.671  1.00  0.00    -0.376 OA
BRANCH  43  44
ATOM     44  C   UNL A   1      43.937  22.853  35.154  1.00  0.00     0.202 C 
BRANCH  44  45
ATOM     45  C   UNL A   1      45.293  22.844  34.477  1.00  0.00     0.261 C 
BRANCH  45  46
ATOM     46  O   UNL A   1      45.722  24.176  34.220  1.00  0.00    -0.460 OA
BRANCH  46  47
ATOM     47  C   UNL A   1      46.926  24.427  34.781  1.00  0.00     0.338 C 
ATOM     48  O   UNL A   1      47.723  23.618  35.224  1.00  0.00    -0.246 OA
BRANCH  47  49
ATOM     49  C   UNL A   1      47.230  25.850  34.645  1.00  0.00     0.060 A 
ATOM     50  C   UNL A   1      46.216  26.649  34.109  1.00  0.00     0.016 A 
ATOM     51  C   UNL A   1      48.494  26.367  34.945  1.00  0.00     0.016 A 
ATOM     52  C   UNL A   1      46.482  27.961  33.800  1.00  0.00     0.010 A 
ATOM     53  C   UNL A   1      48.780  27.678  34.584  1.00  0.00     0.010 A 
ATOM     54  C   UNL A   1      47.786  28.441  33.955  1.00  0.00    -0.014 A 
BRANCH  54  55
ATOM     55  C   UNL A   1      48.105  29.648  33.184  1.00  0.00     0.031 A 
ATOM     56  C   UNL A   1      48.419  29.486  31.726  1.00  0.00     0.074 A 
ATOM     57  C   UNL A   1      47.903  30.844  33.750  1.00  0.00     0.049 A 
ATOM     58  N   UNL A   1      48.605  30.405  30.820  1.00  0.00    -0.248 NA
ATOM     59  C   UNL A   1      48.518  28.107  31.214  1.00  0.00     0.031 C 
ATOM     60  C   UNL A   1      47.520  31.059  35.146  1.00  0.00     0.029 A 
ATOM     61  N   UNL A   1      47.968  32.096  33.214  1.00  0.00    -0.354 N 
ATOM     62  C   UNL A   1      48.859  29.721  29.639  1.00  0.00     0.074 A 
ATOM     63  C   UNL A   1      48.821  28.309  29.941  1.00  0.00     0.031 C 
ATOM     64  C   UNL A   1      47.399  32.378  35.362  1.00  0.00     0.029 A 
ATOM     65  C   UNL A   1      47.738  33.087  34.133  1.00  0.00     0.049 A 
ATOM     66  H   UNL A   1      48.162  32.270  32.264  1.00  0.00     0.167 HD
ATOM     67  C   UNL A   1      49.091  30.236  28.412  1.00  0.00     0.034 A 
ATOM     68  C   UNL A   1      47.836  34.419  33.991  1.00  0.00     0.034 A 
ATOM     69  C   UNL A   1      49.120  31.647  28.146  1.00  0.00     0.049 A 
ATOM     70  C   UNL A   1      48.167  34.961  32.629  1.00  0.00     0.074 A 
ATOM     71  C   UNL A   1      49.357  32.294  26.949  1.00  0.00     0.029 A 
ATOM     72  N   UNL A   1      48.918  32.632  29.103  1.00  0.00    -0.354 N 
ATOM     73  N   UNL A   1      48.368  34.310  31.507  1.00  0.00    -0.248 NA
ATOM     74  C   UNL A   1      48.248  36.420  32.505  1.00  0.00     0.031 C 
ATOM     75  C   UNL A   1      49.346  33.672  27.193  1.00  0.00     0.029 A 
ATOM     76  C   UNL A   1      49.040  33.884  28.529  1.00  0.00     0.049 A 
ATOM     77  H   UNL A   1      48.717  32.464  30.053  1.00  0.00     0.167 HD
ATOM     78  C   UNL A   1      48.573  35.281  30.536  1.00  0.00     0.074 A 
ATOM     79  C   UNL A   1      48.429  36.562  31.201  1.00  0.00     0.031 C 
ATOM     80  C   UNL A   1      48.868  35.137  29.219  1.00  0.00     0.034 A 
BRANCH  67  81
ATOM     81  C   UNL A   1      49.350  29.275  27.283  1.00  0.00     0.023 A 
ATOM     82  C   UNL A   1      50.645  28.756  27.072  1.00  0.00     0.012 A 
ATOM     83  C   UNL A   1      48.295  28.850  26.454  1.00  0.00     0.148 A 
ATOM     84  C   UNL A   1      50.887  27.849  26.041  1.00  0.00     0.002 A 
ATOM     85  C   UNL A   1      48.533  27.908  25.462  1.00  0.00     0.091 A 
ATOM     86  F   UNL A   1      47.077  29.377  26.652  1.00  0.00    -0.205 F 
ATOM     87  C   UNL A   1      49.829  27.416  25.245  1.00  0.00     0.022 A 
BRANCH  85  88
ATOM     88  S   UNL A   1      47.225  27.232  24.433  1.00  0.00     0.127 S 
ATOM     89  O   UNL A   1      47.967  26.293  23.592  1.00  0.00    -0.237 OA
ATOM     90  O   UNL A   1      46.353  26.604  25.426  1.00  0.00    -0.237 OA
ATOM     91  O   UNL A   1      46.639  28.362  23.727  1.00  0.00    -0.744 OA
ENDBRANCH  85  88
ENDBRANCH  67  81
BRANCH  68  92
ATOM     92  C   UNL A   1      47.662  35.306  35.170  1.00  0.00     0.023 A 
ATOM     93  C   UNL A   1      48.749  35.594  36.014  1.00  0.00     0.012 A 
ATOM     94  C   UNL A   1      46.402  35.870  35.451  1.00  0.00     0.148 A 
ATOM     95  C   UNL A   1      48.571  36.390  37.147  1.00  0.00     0.002 A 
ATOM     96  C   UNL A   1      46.247  36.714  36.540  1.00  0.00     0.091 A 
ATOM     97  F   UNL A   1      45.378  35.575  34.637  1.00  0.00    -0.205 F 
ATOM     98  C   UNL A   1      47.324  36.956  37.405  1.00  0.00     0.022 A 
BRANCH  96  99
ATOM     99  S   UNL A   1      44.713  37.590  36.860  1.00  0.00     0.127 S 
ATOM    100  O   UNL A   1      44.944  38.114  38.204  1.00  0.00    -0.237 OA
ATOM    101  O   UNL A   1      44.713  38.594  35.795  1.00  0.00    -0.237 OA
ATOM    102  O   UNL A   1      43.656  36.594  36.742  1.00  0.00    -0.744 OA
ENDBRANCH  96  99
ENDBRANCH  68  92
BRANCH  80 103
ATOM    103  C   UNL A   1      49.011  36.404  28.417  1.00  0.00     0.023 A 
ATOM    104  C   UNL A   1      50.264  37.037  28.306  1.00  0.00     0.012 A 
ATOM    105  C   UNL A   1      47.894  36.958  27.762  1.00  0.00     0.148 A 
ATOM    106  C   UNL A   1      50.389  38.241  27.616  1.00  0.00     0.002 A 
ATOM    107  C   UNL A   1      48.040  38.122  27.021  1.00  0.00     0.091 A 
ATOM    108  F   UNL A   1      46.707  36.344  27.886  1.00  0.00    -0.205 F 
ATOM    109  C   UNL A   1      49.280  38.778  26.967  1.00  0.00     0.022 A 
BRANCH 107 110
ATOM    110  S   UNL A   1      46.695  38.830  26.068  1.00  0.00     0.127 S 
ATOM    111  O   UNL A   1      45.696  37.763  26.126  1.00  0.00    -0.237 OA
ATOM    112  O   UNL A   1      46.361  40.022  26.847  1.00  0.00    -0.237 OA
ATOM    113  O   UNL A   1      47.238  39.103  24.744  1.00  0.00    -0.744 OA
ENDBRANCH 107 110
ENDBRANCH  80 103
ENDBRANCH  54  55
ENDBRANCH  47  49
ENDBRANCH  46  47
ENDBRANCH  45  46
ENDBRANCH  44  45
ENDBRANCH  43  44
ENDBRANCH  42  43
ENDBRANCH  41  42
ENDBRANCH  40  41
ENDBRANCH  39  40
ENDBRANCH   1  39
TORSDOF 34
ENDMDL
