MODEL 1
REMARK VINA RESULT:      -9.7      0.000      0.000
REMARK SMILES CCC[C@H](NC(=O)c1cc2ccccc2[nH]1)C(=O)OCCOCCOCCOCCOC(=O)c1ccc(-c2c3nc(c(-c4cccc(S(=O)(=O)[O-])c4F)c4ccc([nH]4)c(-c4cccc(S(=O)(=O)[O-])c4F)c4nc(c(-c5cccc(S(=O)(=O)[O-])c5F)c5ccc2[nH]5)C=C4)C=C3)cc1
REMARK SMILES IDX 26 1 25 2 24 3 23 4 22 5 21 6 20 7 19 8 17 9 18 10 4 11 3 12
REMARK SMILES IDX 2 13 1 14 5 15 6 16 7 18 8 19 9 20 16 21 10 22 15 23 11 25
REMARK SMILES IDX 14 26 12 27 13 28 27 29 28 30 29 31 30 32 31 33 32 34 33 35
REMARK SMILES IDX 34 36 35 37 96 38 36 39 95 40 37 41 38 42 39 43 89 44 40 45
REMARK SMILES IDX 94 46 88 47 90 48 41 49 93 50 87 51 86 52 42 54 74 55 54 56
REMARK SMILES IDX 73 57 55 58 58 59 72 60 91 61 56 62 57 63 71 65 92 66 59 67
REMARK SMILES IDX 43 68 44 69 52 70 45 71 47 72 53 73 46 74 48 75 49 76 50 77
REMARK SMILES IDX 51 78 75 79 76 80 84 81 77 82 79 83 85 84 78 85 80 86 81 87
REMARK SMILES IDX 82 88 83 89 60 90 61 91 69 92 62 93 64 94 70 95 63 96 65 97
REMARK SMILES IDX 66 98 67 99 68 100
REMARK H PARENT 5 17 16 24 90 53 58 64
REMARK Flexibility Score: inf
ROOT
ATOM      1  C   UNL A   1      42.457  21.717  26.345  1.00  0.00     0.188 C 
ENDROOT
BRANCH   1   2
ATOM      2  O   UNL A   1      41.053  21.934  26.213  1.00  0.00    -0.377 OA
BRANCH   2   3
ATOM      3  C   UNL A   1      40.377  22.597  27.256  1.00  0.00     0.188 C 
BRANCH   3   4
ATOM      4  C   UNL A   1      39.681  23.906  26.852  1.00  0.00     0.188 C 
BRANCH   4   5
ATOM      5  O   UNL A   1      38.272  24.021  26.846  1.00  0.00    -0.376 OA
BRANCH   5   6
ATOM      6  C   UNL A   1      37.427  23.675  25.758  1.00  0.00     0.202 C 
BRANCH   6   7
ATOM      7  C   UNL A   1      35.917  23.933  25.627  1.00  0.00     0.261 C 
BRANCH   7   8
ATOM      8  O   UNL A   1      35.150  22.973  24.912  1.00  0.00    -0.462 OA
BRANCH   8   9
ATOM      9  C   UNL A   1      34.822  23.355  23.659  1.00  0.00     0.328 C 
ATOM     10  O   UNL A   1      35.592  23.283  22.706  1.00  0.00    -0.250 OA
BRANCH   9  11
ATOM     11  C   UNL A   1      33.347  23.785  23.525  1.00  0.00     0.192 C 
BRANCH  11  12
ATOM     12  C   UNL A   1      32.516  22.653  24.120  1.00  0.00     0.037 C 
BRANCH  12  13
ATOM     13  C   UNL A   1      32.728  21.265  23.496  1.00  0.00    -0.001 C 
ATOM     14  C   UNL A   1      31.868  21.065  22.253  1.00  0.00     0.004 C 
ENDBRANCH  12  13
ENDBRANCH  11  12
BRANCH  11  15
ATOM     15  N   UNL A   1      32.984  24.331  22.185  1.00  0.00    -0.337 N 
ATOM     16  C   UNL A   1      32.730  25.581  21.675  1.00  0.00     0.268 C 
ATOM     17  H   UNL A   1      32.905  23.625  21.503  1.00  0.00     0.164 HD
ATOM     18  O   UNL A   1      33.089  25.840  20.529  1.00  0.00    -0.268 OA
BRANCH  16  19
ATOM     19  C   UNL A   1      31.916  26.469  22.451  1.00  0.00     0.105 A 
ATOM     20  C   UNL A   1      32.104  27.823  22.672  1.00  0.00     0.042 A 
ATOM     21  N   UNL A   1      30.777  26.144  23.153  1.00  0.00    -0.351 N 
ATOM     22  C   UNL A   1      30.826  28.353  22.997  1.00  0.00     0.000 A 
ATOM     23  C   UNL A   1      29.971  27.267  23.169  1.00  0.00     0.046 A 
ATOM     24  H   UNL A   1      30.575  25.273  23.567  1.00  0.00     0.167 HD
ATOM     25  C   UNL A   1      30.294  29.651  23.030  1.00  0.00     0.010 A 
ATOM     26  C   UNL A   1      28.580  27.396  23.242  1.00  0.00     0.026 A 
ATOM     27  C   UNL A   1      28.904  29.803  23.083  1.00  0.00     0.001 A 
ATOM     28  C   UNL A   1      28.062  28.692  23.151  1.00  0.00     0.002 A 
ENDBRANCH  16  19
ENDBRANCH  11  15
ENDBRANCH   9  11
ENDBRANCH   8   9
ENDBRANCH   7   8
ENDBRANCH   6   7
ENDBRANCH   5   6
ENDBRANCH   4   5
ENDBRANCH   3   4
ENDBRANCH   2   3
ENDBRANCH   1   2
BRANCH   1  29
ATOM     29  C   UNL A   1      43.305  21.269  25.132  1.00  0.00     0.188 C 
BRANCH  29  30
ATOM     30  O   UNL A   1      44.569  20.709  25.456  1.00  0.00    -0.376 OA
BRANCH  30  31
ATOM     31  C   UNL A   1      45.737  21.344  24.956  1.00  0.00     0.202 C 
BRANCH  31  32
ATOM     32  C   UNL A   1      46.025  22.780  25.424  1.00  0.00     0.261 C 
BRANCH  32  33
ATOM     33  O   UNL A   1      45.084  23.784  25.015  1.00  0.00    -0.460 OA
BRANCH  33  34
ATOM     34  C   UNL A   1      45.482  25.075  25.056  1.00  0.00     0.338 C 
ATOM     35  O   UNL A   1      46.349  25.593  24.387  1.00  0.00    -0.246 OA
BRANCH  34  36
ATOM     36  C   UNL A   1      44.528  25.814  25.913  1.00  0.00     0.060 A 
ATOM     37  C   UNL A   1      44.556  27.214  25.895  1.00  0.00     0.016 A 
ATOM     38  C   UNL A   1      43.630  25.134  26.739  1.00  0.00     0.016 A 
ATOM     39  C   UNL A   1      43.728  27.940  26.750  1.00  0.00     0.010 A 
ATOM     40  C   UNL A   1      42.815  25.862  27.611  1.00  0.00     0.010 A 
ATOM     41  C   UNL A   1      42.898  27.265  27.655  1.00  0.00    -0.014 A 
BRANCH  41  42
ATOM     42  C   UNL A   1      42.301  28.017  28.785  1.00  0.00     0.031 A 
ATOM     43  C   UNL A   1      43.097  28.138  30.058  1.00  0.00     0.074 A 
ATOM     44  C   UNL A   1      41.097  28.607  28.681  1.00  0.00     0.049 A 
ATOM     45  N   UNL A   1      42.789  28.739  31.176  1.00  0.00    -0.248 NA
ATOM     46  C   UNL A   1      44.420  27.489  30.069  1.00  0.00     0.031 C 
ATOM     47  C   UNL A   1      40.239  28.577  27.499  1.00  0.00     0.029 A 
ATOM     48  N   UNL A   1      40.383  29.335  29.601  1.00  0.00    -0.354 N 
ATOM     49  C   UNL A   1      43.861  28.518  32.032  1.00  0.00     0.074 A 
ATOM     50  C   UNL A   1      44.822  27.715  31.310  1.00  0.00     0.031 C 
ATOM     51  C   UNL A   1      39.098  29.235  27.774  1.00  0.00     0.029 A 
ATOM     52  C   UNL A   1      39.138  29.710  29.156  1.00  0.00     0.049 A 
ATOM     53  H   UNL A   1      40.730  29.565  30.493  1.00  0.00     0.167 HD
ATOM     54  C   UNL A   1      44.040  28.956  33.301  1.00  0.00     0.034 A 
ATOM     55  C   UNL A   1      38.137  30.343  29.801  1.00  0.00     0.034 A 
ATOM     56  C   UNL A   1      43.089  29.763  34.014  1.00  0.00     0.049 A 
ATOM     57  C   UNL A   1      38.346  30.790  31.227  1.00  0.00     0.074 A 
ATOM     58  C   UNL A   1      43.193  30.290  35.289  1.00  0.00     0.029 A 
ATOM     59  N   UNL A   1      41.850  30.145  33.523  1.00  0.00    -0.354 N 
ATOM     60  N   UNL A   1      39.408  30.666  31.987  1.00  0.00    -0.248 NA
ATOM     61  C   UNL A   1      37.228  31.495  31.873  1.00  0.00     0.031 C 
ATOM     62  C   UNL A   1      42.000  30.957  35.584  1.00  0.00     0.029 A 
ATOM     63  C   UNL A   1      41.172  30.887  34.474  1.00  0.00     0.049 A 
ATOM     64  H   UNL A   1      41.503  29.920  32.630  1.00  0.00     0.167 HD
ATOM     65  C   UNL A   1      39.103  31.314  33.181  1.00  0.00     0.074 A 
ATOM     66  C   UNL A   1      37.763  31.844  33.035  1.00  0.00     0.031 C 
ATOM     67  C   UNL A   1      39.859  31.452  34.299  1.00  0.00     0.034 A 
BRANCH  54  68
ATOM     68  C   UNL A   1      45.319  28.571  33.998  1.00  0.00     0.023 A 
ATOM     69  C   UNL A   1      46.446  29.415  33.920  1.00  0.00     0.012 A 
ATOM     70  C   UNL A   1      45.391  27.393  34.768  1.00  0.00     0.148 A 
ATOM     71  C   UNL A   1      47.634  29.075  34.565  1.00  0.00     0.002 A 
ATOM     72  C   UNL A   1      46.562  27.086  35.448  1.00  0.00     0.091 A 
ATOM     73  F   UNL A   1      44.316  26.592  34.810  1.00  0.00    -0.205 F 
ATOM     74  C   UNL A   1      47.688  27.918  35.338  1.00  0.00     0.022 A 
BRANCH  72  75
ATOM     75  S   UNL A   1      46.706  25.663  36.534  1.00  0.00     0.127 S 
ATOM     76  O   UNL A   1      45.700  25.965  37.551  1.00  0.00    -0.237 OA
ATOM     77  O   UNL A   1      46.355  24.559  35.640  1.00  0.00    -0.237 OA
ATOM     78  O   UNL A   1      48.083  25.652  37.005  1.00  0.00    -0.744 OA
ENDBRANCH  72  75
ENDBRANCH  54  68
BRANCH  55  79
ATOM     79  C   UNL A   1      36.850  30.619  29.102  1.00  0.00     0.023 A 
ATOM     80  C   UNL A   1      36.090  29.551  28.587  1.00  0.00     0.012 A 
ATOM     81  C   UNL A   1      36.376  31.936  28.943  1.00  0.00     0.148 A 
ATOM     82  C   UNL A   1      34.903  29.791  27.895  1.00  0.00     0.002 A 
ATOM     83  C   UNL A   1      35.164  32.165  28.303  1.00  0.00     0.091 A 
ATOM     84  F   UNL A   1      37.121  32.941  29.426  1.00  0.00    -0.205 F 
ATOM     85  C   UNL A   1      34.436  31.095  27.761  1.00  0.00     0.022 A 
BRANCH  83  86
ATOM     86  S   UNL A   1      34.423  33.796  28.190  1.00  0.00     0.127 S 
ATOM     87  O   UNL A   1      35.271  34.443  27.193  1.00  0.00    -0.237 OA
ATOM     88  O   UNL A   1      33.069  33.478  27.736  1.00  0.00    -0.237 OA
ATOM     89  O   UNL A   1      34.491  34.355  29.534  1.00  0.00    -0.744 OA
ENDBRANCH  83  86
ENDBRANCH  55  79
BRANCH  67  90
ATOM     90  C   UNL A   1      39.285  32.254  35.441  1.00  0.00     0.023 A 
ATOM     91  C   UNL A   1      38.332  31.680  36.304  1.00  0.00     0.012 A 
ATOM     92  C   UNL A   1      39.746  33.561  35.694  1.00  0.00     0.148 A 
ATOM     93  C   UNL A   1      37.815  32.409  37.375  1.00  0.00     0.002 A 
ATOM     94  C   UNL A   1      39.268  34.262  36.795  1.00  0.00     0.091 A 
ATOM     95  F   UNL A   1      40.644  34.098  34.854  1.00  0.00    -0.205 F 
ATOM     96  C   UNL A   1      38.291  33.694  37.628  1.00  0.00     0.022 A 
BRANCH  94  97
ATOM     97  S   UNL A   1      39.898  35.880  37.256  1.00  0.00     0.127 S 
ATOM     98  O   UNL A   1      39.055  36.211  38.404  1.00  0.00    -0.237 OA
ATOM     99  O   UNL A   1      41.292  35.587  37.589  1.00  0.00    -0.237 OA
ATOM    100  O   UNL A   1      39.721  36.730  36.087  1.00  0.00    -0.744 OA
ENDBRANCH  94  97
ENDBRANCH  67  90
ENDBRANCH  41  42
ENDBRANCH  34  36
ENDBRANCH  33  34
ENDBRANCH  32  33
ENDBRANCH  31  32
ENDBRANCH  30  31
ENDBRANCH  29  30
ENDBRANCH   1  29
TORSDOF 27
ENDMDL
MODEL 2
REMARK VINA RESULT:      -9.4      3.078      9.807
REMARK SMILES CCC[C@H](NC(=O)c1cc2ccccc2[nH]1)C(=O)OCCOCCOCCOCCOC(=O)c1ccc(-c2c3nc(c(-c4cccc(S(=O)(=O)[O-])c4F)c4ccc([nH]4)c(-c4cccc(S(=O)(=O)[O-])c4F)c4nc(c(-c5cccc(S(=O)(=O)[O-])c5F)c5ccc2[nH]5)C=C4)C=C3)cc1
REMARK SMILES IDX 26 1 25 2 24 3 23 4 22 5 21 6 20 7 19 8 17 9 18 10 4 11 3 12
REMARK SMILES IDX 2 13 1 14 5 15 6 16 7 18 8 19 9 20 16 21 10 22 15 23 11 25
REMARK SMILES IDX 14 26 12 27 13 28 27 29 28 30 29 31 30 32 31 33 32 34 33 35
REMARK SMILES IDX 34 36 35 37 96 38 36 39 95 40 37 41 38 42 39 43 89 44 40 45
REMARK SMILES IDX 94 46 88 47 90 48 41 49 93 50 87 51 86 52 42 54 74 55 54 56
REMARK SMILES IDX 73 57 55 58 58 59 72 60 91 61 56 62 57 63 71 65 92 66 59 67
REMARK SMILES IDX 43 68 44 69 52 70 45 71 47 72 53 73 46 74 48 75 49 76 50 77
REMARK SMILES IDX 51 78 75 79 76 80 84 81 77 82 79 83 85 84 78 85 80 86 81 87
REMARK SMILES IDX 82 88 83 89 60 90 61 91 69 92 62 93 64 94 70 95 63 96 65 97
REMARK SMILES IDX 66 98 67 99 68 100
REMARK H PARENT 5 17 16 24 90 53 58 64
REMARK Flexibility Score: inf
ROOT
ATOM      1  C   UNL A   1      34.305  35.025  28.820  1.00  0.00     0.188 C 
ENDROOT
BRANCH   1   2
ATOM      2  O   UNL A   1      33.973  33.673  29.136  1.00  0.00    -0.377 OA
BRANCH   2   3
ATOM      3  C   UNL A   1      33.563  32.823  28.090  1.00  0.00     0.188 C 
BRANCH   3   4
ATOM      4  C   UNL A   1      34.355  31.513  27.967  1.00  0.00     0.188 C 
BRANCH   4   5
ATOM      5  O   UNL A   1      33.802  30.371  27.343  1.00  0.00    -0.376 OA
BRANCH   5   6
ATOM      6  C   UNL A   1      32.959  30.391  26.200  1.00  0.00     0.202 C 
BRANCH   6   7
ATOM      7  C   UNL A   1      32.751  29.267  25.172  1.00  0.00     0.261 C 
BRANCH   7   8
ATOM      8  O   UNL A   1      31.413  28.958  24.804  1.00  0.00    -0.462 OA
BRANCH   8   9
ATOM      9  C   UNL A   1      31.222  28.846  23.472  1.00  0.00     0.328 C 
ATOM     10  O   UNL A   1      32.059  28.377  22.706  1.00  0.00    -0.250 OA
BRANCH   9  11
ATOM     11  C   UNL A   1      29.805  29.260  23.026  1.00  0.00     0.192 C 
BRANCH  11  12
ATOM     12  C   UNL A   1      29.525  30.605  23.688  1.00  0.00     0.037 C 
BRANCH  12  13
ATOM     13  C   UNL A   1      28.203  31.283  23.295  1.00  0.00    -0.001 C 
ATOM     14  C   UNL A   1      28.407  32.337  22.213  1.00  0.00     0.004 C 
ENDBRANCH  12  13
ENDBRANCH  11  12
BRANCH  11  15
ATOM     15  N   UNL A   1      28.787  28.174  23.120  1.00  0.00    -0.337 N 
ATOM     16  C   UNL A   1      28.634  27.040  23.881  1.00  0.00     0.268 C 
ATOM     17  H   UNL A   1      28.047  28.299  22.482  1.00  0.00     0.164 HD
ATOM     18  O   UNL A   1      27.504  26.706  24.229  1.00  0.00    -0.268 OA
BRANCH  16  19
ATOM     19  C   UNL A   1      29.786  26.216  24.095  1.00  0.00     0.105 A 
ATOM     20  C   UNL A   1      30.578  25.595  23.144  1.00  0.00     0.042 A 
ATOM     21  N   UNL A   1      30.333  25.860  25.308  1.00  0.00    -0.351 N 
ATOM     22  C   UNL A   1      31.842  25.383  23.758  1.00  0.00     0.000 A 
ATOM     23  C   UNL A   1      31.690  25.685  25.109  1.00  0.00     0.046 A 
ATOM     24  H   UNL A   1      29.848  25.752  26.158  1.00  0.00     0.167 HD
ATOM     25  C   UNL A   1      33.123  25.090  23.265  1.00  0.00     0.010 A 
ATOM     26  C   UNL A   1      32.772  25.843  25.981  1.00  0.00     0.026 A 
ATOM     27  C   UNL A   1      34.222  25.260  24.115  1.00  0.00     0.001 A 
ATOM     28  C   UNL A   1      34.050  25.665  25.440  1.00  0.00     0.002 A 
ENDBRANCH  16  19
ENDBRANCH  11  15
ENDBRANCH   9  11
ENDBRANCH   8   9
ENDBRANCH   7   8
ENDBRANCH   6   7
ENDBRANCH   5   6
ENDBRANCH   4   5
ENDBRANCH   3   4
ENDBRANCH   2   3
ENDBRANCH   1   2
BRANCH   1  29
ATOM     29  C   UNL A   1      33.196  36.069  28.553  1.00  0.00     0.188 C 
BRANCH  29  30
ATOM     30  O   UNL A   1      32.665  36.691  29.714  1.00  0.00    -0.376 OA
BRANCH  30  31
ATOM     31  C   UNL A   1      33.529  37.494  30.505  1.00  0.00     0.202 C 
BRANCH  31  32
ATOM     32  C   UNL A   1      33.214  37.620  32.004  1.00  0.00     0.261 C 
BRANCH  32  33
ATOM     33  O   UNL A   1      33.762  36.604  32.858  1.00  0.00    -0.460 OA
BRANCH  33  34
ATOM     34  C   UNL A   1      33.328  35.335  32.686  1.00  0.00     0.338 C 
ATOM     35  O   UNL A   1      32.189  34.973  32.489  1.00  0.00    -0.246 OA
BRANCH  34  36
ATOM     36  C   UNL A   1      34.520  34.465  32.565  1.00  0.00     0.060 A 
ATOM     37  C   UNL A   1      34.393  33.107  32.886  1.00  0.00     0.016 A 
ATOM     38  C   UNL A   1      35.750  34.985  32.159  1.00  0.00     0.016 A 
ATOM     39  C   UNL A   1      35.513  32.278  32.863  1.00  0.00     0.010 A 
ATOM     40  C   UNL A   1      36.876  34.157  32.155  1.00  0.00     0.010 A 
ATOM     41  C   UNL A   1      36.771  32.814  32.555  1.00  0.00    -0.014 A 
BRANCH  41  42
ATOM     42  C   UNL A   1      37.987  32.028  32.875  1.00  0.00     0.031 A 
ATOM     43  C   UNL A   1      38.707  32.326  34.164  1.00  0.00     0.074 A 
ATOM     44  C   UNL A   1      38.429  31.053  32.063  1.00  0.00     0.049 A 
ATOM     45  N   UNL A   1      39.786  31.779  34.659  1.00  0.00    -0.248 NA
ATOM     46  C   UNL A   1      38.131  33.388  35.008  1.00  0.00     0.031 C 
ATOM     47  C   UNL A   1      37.812  30.658  30.799  1.00  0.00     0.029 A 
ATOM     48  N   UNL A   1      39.520  30.227  32.180  1.00  0.00    -0.354 N 
ATOM     49  C   UNL A   1      40.035  32.447  35.852  1.00  0.00     0.074 A 
ATOM     50  C   UNL A   1      39.004  33.449  36.001  1.00  0.00     0.031 C 
ATOM     51  C   UNL A   1      38.550  29.682  30.241  1.00  0.00     0.029 A 
ATOM     52  C   UNL A   1      39.702  29.400  31.097  1.00  0.00     0.049 A 
ATOM     53  H   UNL A   1      40.115  30.227  32.965  1.00  0.00     0.167 HD
ATOM     54  C   UNL A   1      41.024  32.236  36.753  1.00  0.00     0.034 A 
ATOM     55  C   UNL A   1      40.698  28.535  30.820  1.00  0.00     0.034 A 
ATOM     56  C   UNL A   1      42.042  31.232  36.609  1.00  0.00     0.049 A 
ATOM     57  C   UNL A   1      41.809  28.343  31.822  1.00  0.00     0.074 A 
ATOM     58  C   UNL A   1      43.065  30.914  37.484  1.00  0.00     0.029 A 
ATOM     59  N   UNL A   1      42.179  30.398  35.512  1.00  0.00    -0.354 N 
ATOM     60  N   UNL A   1      41.972  28.906  32.996  1.00  0.00    -0.248 NA
ATOM     61  C   UNL A   1      42.856  27.370  31.476  1.00  0.00     0.031 C 
ATOM     62  C   UNL A   1      43.845  29.913  36.897  1.00  0.00     0.029 A 
ATOM     63  C   UNL A   1      43.279  29.574  35.678  1.00  0.00     0.049 A 
ATOM     64  H   UNL A   1      41.583  30.392  34.728  1.00  0.00     0.167 HD
ATOM     65  C   UNL A   1      43.111  28.324  33.545  1.00  0.00     0.074 A 
ATOM     66  C   UNL A   1      43.587  27.353  32.582  1.00  0.00     0.031 C 
ATOM     67  C   UNL A   1      43.714  28.576  34.734  1.00  0.00     0.034 A 
BRANCH  54  68
ATOM     68  C   UNL A   1      41.047  33.110  37.981  1.00  0.00     0.023 A 
ATOM     69  C   UNL A   1      40.297  32.749  39.118  1.00  0.00     0.012 A 
ATOM     70  C   UNL A   1      41.848  34.268  38.021  1.00  0.00     0.148 A 
ATOM     71  C   UNL A   1      40.314  33.544  40.263  1.00  0.00     0.002 A 
ATOM     72  C   UNL A   1      41.899  35.029  39.182  1.00  0.00     0.091 A 
ATOM     73  F   UNL A   1      42.536  34.609  36.921  1.00  0.00    -0.205 F 
ATOM     74  C   UNL A   1      41.123  34.677  40.299  1.00  0.00     0.022 A 
BRANCH  72  75
ATOM     75  S   UNL A   1      42.973  36.458  39.357  1.00  0.00     0.127 S 
ATOM     76  O   UNL A   1      44.270  35.901  38.976  1.00  0.00    -0.237 OA
ATOM     77  O   UNL A   1      42.401  37.391  38.385  1.00  0.00    -0.237 OA
ATOM     78  O   UNL A   1      42.860  36.880  40.746  1.00  0.00    -0.744 OA
ENDBRANCH  72  75
ENDBRANCH  54  68
BRANCH  55  79
ATOM     79  C   UNL A   1      40.685  27.759  29.546  1.00  0.00     0.023 A 
ATOM     80  C   UNL A   1      39.820  26.656  29.408  1.00  0.00     0.012 A 
ATOM     81  C   UNL A   1      41.527  28.110  28.473  1.00  0.00     0.148 A 
ATOM     82  C   UNL A   1      39.821  25.894  28.239  1.00  0.00     0.002 A 
ATOM     83  C   UNL A   1      41.481  27.382  27.290  1.00  0.00     0.091 A 
ATOM     84  F   UNL A   1      42.353  29.153  28.630  1.00  0.00    -0.205 F 
ATOM     85  C   UNL A   1      40.644  26.261  27.178  1.00  0.00     0.022 A 
BRANCH  83  86
ATOM     86  S   UNL A   1      42.413  27.852  25.829  1.00  0.00     0.127 S 
ATOM     87  O   UNL A   1      43.790  27.731  26.299  1.00  0.00    -0.237 OA
ATOM     88  O   UNL A   1      41.996  26.831  24.868  1.00  0.00    -0.237 OA
ATOM     89  O   UNL A   1      41.975  29.202  25.499  1.00  0.00    -0.744 OA
ENDBRANCH  83  86
ENDBRANCH  55  79
BRANCH  67  90
ATOM     90  C   UNL A   1      44.925  27.753  35.096  1.00  0.00     0.023 A 
ATOM     91  C   UNL A   1      46.221  28.257  34.867  1.00  0.00     0.012 A 
ATOM     92  C   UNL A   1      44.773  26.503  35.728  1.00  0.00     0.148 A 
ATOM     93  C   UNL A   1      47.345  27.510  35.221  1.00  0.00     0.002 A 
ATOM     94  C   UNL A   1      45.896  25.789  36.128  1.00  0.00     0.091 A 
ATOM     95  F   UNL A   1      43.532  26.033  35.927  1.00  0.00    -0.205 F 
ATOM     96  C   UNL A   1      47.183  26.283  35.862  1.00  0.00     0.022 A 
BRANCH  94  97
ATOM     97  S   UNL A   1      45.783  24.251  37.050  1.00  0.00     0.127 S 
ATOM     98  O   UNL A   1      47.194  23.923  37.254  1.00  0.00    -0.237 OA
ATOM     99  O   UNL A   1      45.074  24.666  38.260  1.00  0.00    -0.237 OA
ATOM    100  O   UNL A   1      45.045  23.326  36.202  1.00  0.00    -0.744 OA
ENDBRANCH  94  97
ENDBRANCH  67  90
ENDBRANCH  41  42
ENDBRANCH  34  36
ENDBRANCH  33  34
ENDBRANCH  32  33
ENDBRANCH  31  32
ENDBRANCH  30  31
ENDBRANCH  29  30
ENDBRANCH   1  29
TORSDOF 27
ENDMDL
MODEL 3
REMARK VINA RESULT:      -9.3      3.311     10.312
REMARK SMILES CCC[C@H](NC(=O)c1cc2ccccc2[nH]1)C(=O)OCCOCCOCCOCCOC(=O)c1ccc(-c2c3nc(c(-c4cccc(S(=O)(=O)[O-])c4F)c4ccc([nH]4)c(-c4cccc(S(=O)(=O)[O-])c4F)c4nc(c(-c5cccc(S(=O)(=O)[O-])c5F)c5ccc2[nH]5)C=C4)C=C3)cc1
REMARK SMILES IDX 26 1 25 2 24 3 23 4 22 5 21 6 20 7 19 8 17 9 18 10 4 11 3 12
REMARK SMILES IDX 2 13 1 14 5 15 6 16 7 18 8 19 9 20 16 21 10 22 15 23 11 25
REMARK SMILES IDX 14 26 12 27 13 28 27 29 28 30 29 31 30 32 31 33 32 34 33 35
REMARK SMILES IDX 34 36 35 37 96 38 36 39 95 40 37 41 38 42 39 43 89 44 40 45
REMARK SMILES IDX 94 46 88 47 90 48 41 49 93 50 87 51 86 52 42 54 74 55 54 56
REMARK SMILES IDX 73 57 55 58 58 59 72 60 91 61 56 62 57 63 71 65 92 66 59 67
REMARK SMILES IDX 43 68 44 69 52 70 45 71 47 72 53 73 46 74 48 75 49 76 50 77
REMARK SMILES IDX 51 78 75 79 76 80 84 81 77 82 79 83 85 84 78 85 80 86 81 87
REMARK SMILES IDX 82 88 83 89 60 90 61 91 69 92 62 93 64 94 70 95 63 96 65 97
REMARK SMILES IDX 66 98 67 99 68 100
REMARK H PARENT 5 17 16 24 90 53 58 64
REMARK Flexibility Score: inf
ROOT
ATOM      1  C   UNL A   1      35.361  32.831  29.142  1.00  0.00     0.188 C 
ENDROOT
BRANCH   1   2
ATOM      2  O   UNL A   1      35.896  31.983  28.127  1.00  0.00    -0.377 OA
BRANCH   2   3
ATOM      3  C   UNL A   1      35.240  30.766  27.857  1.00  0.00     0.188 C 
BRANCH   3   4
ATOM      4  C   UNL A   1      33.804  30.903  27.330  1.00  0.00     0.188 C 
BRANCH   4   5
ATOM      5  O   UNL A   1      33.133  29.816  26.723  1.00  0.00    -0.376 OA
BRANCH   5   6
ATOM      6  C   UNL A   1      33.084  28.494  27.240  1.00  0.00     0.202 C 
BRANCH   6   7
ATOM      7  C   UNL A   1      31.894  27.521  27.206  1.00  0.00     0.261 C 
BRANCH   7   8
ATOM      8  O   UNL A   1      32.000  26.389  26.352  1.00  0.00    -0.462 OA
BRANCH   8   9
ATOM      9  C   UNL A   1      30.814  25.829  26.033  1.00  0.00     0.328 C 
ATOM     10  O   UNL A   1      29.810  25.925  26.734  1.00  0.00    -0.250 OA
BRANCH   9  11
ATOM     11  C   UNL A   1      30.817  25.152  24.648  1.00  0.00     0.192 C 
BRANCH  11  12
ATOM     12  C   UNL A   1      29.884  25.977  23.767  1.00  0.00     0.037 C 
BRANCH  12  13
ATOM     13  C   UNL A   1      30.174  27.485  23.711  1.00  0.00    -0.001 C 
ATOM     14  C   UNL A   1      29.171  28.222  22.830  1.00  0.00     0.004 C 
ENDBRANCH  12  13
ENDBRANCH  11  12
BRANCH  11  15
ATOM     15  N   UNL A   1      30.663  23.669  24.685  1.00  0.00    -0.337 N 
ATOM     16  C   UNL A   1      31.280  22.639  25.353  1.00  0.00     0.268 C 
ATOM     17  H   UNL A   1      29.948  23.352  24.086  1.00  0.00     0.164 HD
ATOM     18  O   UNL A   1      30.607  21.675  25.711  1.00  0.00    -0.268 OA
BRANCH  16  19
ATOM     19  C   UNL A   1      32.708  22.667  25.456  1.00  0.00     0.105 A 
ATOM     20  C   UNL A   1      33.546  21.684  25.954  1.00  0.00     0.042 A 
ATOM     21  N   UNL A   1      33.543  23.700  25.088  1.00  0.00    -0.351 N 
ATOM     22  C   UNL A   1      34.818  21.910  25.362  1.00  0.00     0.000 A 
ATOM     23  C   UNL A   1      34.747  23.137  24.708  1.00  0.00     0.046 A 
ATOM     24  H   UNL A   1      33.321  24.659  25.095  1.00  0.00     0.167 HD
ATOM     25  C   UNL A   1      35.973  21.125  25.215  1.00  0.00     0.010 A 
ATOM     26  C   UNL A   1      35.716  23.574  23.799  1.00  0.00     0.026 A 
ATOM     27  C   UNL A   1      36.946  21.533  24.296  1.00  0.00     0.001 A 
ATOM     28  C   UNL A   1      36.801  22.720  23.575  1.00  0.00     0.002 A 
ENDBRANCH  16  19
ENDBRANCH  11  15
ENDBRANCH   9  11
ENDBRANCH   8   9
ENDBRANCH   7   8
ENDBRANCH   6   7
ENDBRANCH   5   6
ENDBRANCH   4   5
ENDBRANCH   3   4
ENDBRANCH   2   3
ENDBRANCH   1   2
BRANCH   1  29
ATOM     29  C   UNL A   1      34.127  33.720  28.859  1.00  0.00     0.188 C 
BRANCH  29  30
ATOM     30  O   UNL A   1      34.383  35.116  28.846  1.00  0.00    -0.376 OA
BRANCH  30  31
ATOM     31  C   UNL A   1      33.277  36.006  28.832  1.00  0.00     0.202 C 
BRANCH  31  32
ATOM     32  C   UNL A   1      32.662  36.400  30.185  1.00  0.00     0.261 C 
BRANCH  32  33
ATOM     33  O   UNL A   1      32.587  35.366  31.177  1.00  0.00    -0.460 OA
BRANCH  33  34
ATOM     34  C   UNL A   1      33.154  35.605  32.382  1.00  0.00     0.338 C 
ATOM     35  O   UNL A   1      32.676  36.234  33.301  1.00  0.00    -0.246 OA
BRANCH  34  36
ATOM     36  C   UNL A   1      34.380  34.782  32.474  1.00  0.00     0.060 A 
ATOM     37  C   UNL A   1      34.293  33.515  33.066  1.00  0.00     0.016 A 
ATOM     38  C   UNL A   1      35.603  35.260  32.000  1.00  0.00     0.016 A 
ATOM     39  C   UNL A   1      35.443  32.748  33.243  1.00  0.00     0.010 A 
ATOM     40  C   UNL A   1      36.759  34.499  32.197  1.00  0.00     0.010 A 
ATOM     41  C   UNL A   1      36.690  33.263  32.864  1.00  0.00    -0.014 A 
BRANCH  41  42
ATOM     42  C   UNL A   1      37.923  32.614  33.371  1.00  0.00     0.031 A 
ATOM     43  C   UNL A   1      38.519  31.491  32.562  1.00  0.00     0.074 A 
ATOM     44  C   UNL A   1      38.522  33.025  34.501  1.00  0.00     0.049 A 
ATOM     45  N   UNL A   1      39.585  30.773  32.798  1.00  0.00    -0.248 NA
ATOM     46  C   UNL A   1      37.815  31.131  31.319  1.00  0.00     0.031 C 
ATOM     47  C   UNL A   1      38.053  34.109  35.362  1.00  0.00     0.029 A 
ATOM     48  N   UNL A   1      39.651  32.559  35.128  1.00  0.00    -0.354 N 
ATOM     49  C   UNL A   1      39.663  29.858  31.754  1.00  0.00     0.074 A 
ATOM     50  C   UNL A   1      38.529  30.102  30.890  1.00  0.00     0.031 C 
ATOM     51  C   UNL A   1      38.875  34.209  36.422  1.00  0.00     0.029 A 
ATOM     52  C   UNL A   1      39.912  33.182  36.326  1.00  0.00     0.049 A 
ATOM     53  H   UNL A   1      40.220  31.847  34.755  1.00  0.00     0.167 HD
ATOM     54  C   UNL A   1      40.601  28.909  31.524  1.00  0.00     0.034 A 
ATOM     55  C   UNL A   1      40.863  32.933  37.247  1.00  0.00     0.034 A 
ATOM     56  C   UNL A   1      41.733  28.675  32.377  1.00  0.00     0.049 A 
ATOM     57  C   UNL A   1      41.877  31.846  36.986  1.00  0.00     0.074 A 
ATOM     58  C   UNL A   1      42.760  27.764  32.212  1.00  0.00     0.029 A 
ATOM     59  N   UNL A   1      41.977  29.342  33.568  1.00  0.00    -0.354 N 
ATOM     60  N   UNL A   1      42.000  31.061  35.942  1.00  0.00    -0.248 NA
ATOM     61  C   UNL A   1      42.904  31.634  38.017  1.00  0.00     0.031 C 
ATOM     62  C   UNL A   1      43.604  27.852  33.323  1.00  0.00     0.029 A 
ATOM     63  C   UNL A   1      43.130  28.852  34.156  1.00  0.00     0.049 A 
ATOM     64  H   UNL A   1      41.413  30.057  33.941  1.00  0.00     0.167 HD
ATOM     65  C   UNL A   1      43.140  30.296  36.170  1.00  0.00     0.074 A 
ATOM     66  C   UNL A   1      43.680  30.724  37.443  1.00  0.00     0.031 C 
ATOM     67  C   UNL A   1      43.686  29.321  35.400  1.00  0.00     0.034 A 
BRANCH  54  68
ATOM     68  C   UNL A   1      40.442  28.055  30.293  1.00  0.00     0.023 A 
ATOM     69  C   UNL A   1      39.451  27.053  30.252  1.00  0.00     0.012 A 
ATOM     70  C   UNL A   1      41.248  28.276  29.158  1.00  0.00     0.148 A 
ATOM     71  C   UNL A   1      39.289  26.260  29.117  1.00  0.00     0.002 A 
ATOM     72  C   UNL A   1      41.048  27.515  28.014  1.00  0.00     0.091 A 
ATOM     73  F   UNL A   1      42.201  29.217  29.225  1.00  0.00    -0.205 F 
ATOM     74  C   UNL A   1      40.078  26.499  27.995  1.00  0.00     0.022 A 
BRANCH  72  75
ATOM     75  S   UNL A   1      41.955  27.800  26.490  1.00  0.00     0.127 S 
ATOM     76  O   UNL A   1      41.239  26.934  25.555  1.00  0.00    -0.237 OA
ATOM     77  O   UNL A   1      41.749  29.232  26.275  1.00  0.00    -0.237 OA
ATOM     78  O   UNL A   1      43.333  27.417  26.764  1.00  0.00    -0.744 OA
ENDBRANCH  72  75
ENDBRANCH  54  68
BRANCH  55  79
ATOM     79  C   UNL A   1      40.925  33.742  38.499  1.00  0.00     0.023 A 
ATOM     80  C   UNL A   1      41.817  34.829  38.586  1.00  0.00     0.012 A 
ATOM     81  C   UNL A   1      40.106  33.436  39.603  1.00  0.00     0.148 A 
ATOM     82  C   UNL A   1      41.918  35.573  39.762  1.00  0.00     0.002 A 
ATOM     83  C   UNL A   1      40.170  34.217  40.750  1.00  0.00     0.091 A 
ATOM     84  F   UNL A   1      39.275  32.388  39.506  1.00  0.00    -0.205 F 
ATOM     85  C   UNL A   1      41.089  35.274  40.840  1.00  0.00     0.022 A 
BRANCH  83  86
ATOM     86  S   UNL A   1      39.058  33.985  42.141  1.00  0.00     0.127 S 
ATOM     87  O   UNL A   1      39.491  35.042  43.051  1.00  0.00    -0.237 OA
ATOM     88  O   UNL A   1      37.752  34.202  41.519  1.00  0.00    -0.237 OA
ATOM     89  O   UNL A   1      39.285  32.623  42.605  1.00  0.00    -0.744 OA
ENDBRANCH  83  86
ENDBRANCH  55  79
BRANCH  67  90
ATOM     90  C   UNL A   1      44.967  28.684  35.878  1.00  0.00     0.023 A 
ATOM     91  C   UNL A   1      46.211  29.257  35.550  1.00  0.00     0.012 A 
ATOM     92  C   UNL A   1      44.929  27.548  36.711  1.00  0.00     0.148 A 
ATOM     93  C   UNL A   1      47.398  28.685  36.008  1.00  0.00     0.002 A 
ATOM     94  C   UNL A   1      46.112  27.016  37.209  1.00  0.00     0.091 A 
ATOM     95  F   UNL A   1      43.736  27.007  37.002  1.00  0.00    -0.205 F 
ATOM     96  C   UNL A   1      47.348  27.573  36.847  1.00  0.00     0.022 A 
BRANCH  94  97
ATOM     97  S   UNL A   1      46.140  25.650  38.376  1.00  0.00     0.127 S 
ATOM     98  O   UNL A   1      47.514  25.712  38.873  1.00  0.00    -0.237 OA
ATOM     99  O   UNL A   1      45.122  26.051  39.347  1.00  0.00    -0.237 OA
ATOM    100  O   UNL A   1      45.808  24.458  37.609  1.00  0.00    -0.744 OA
ENDBRANCH  94  97
ENDBRANCH  67  90
ENDBRANCH  41  42
ENDBRANCH  34  36
ENDBRANCH  33  34
ENDBRANCH  32  33
ENDBRANCH  31  32
ENDBRANCH  30  31
ENDBRANCH  29  30
ENDBRANCH   1  29
TORSDOF 27
ENDMDL
