MODEL 1
REMARK VINA RESULT:      -8.0      0.000      0.000
REMARK SMILES COCCCC(=O)N1CCC[C@]1(C)C(=O)OCCOCCOCCOCCOC(=O)c1ccc(-c2c3nc(c(-c4cccc(S(=O)(=O)[O-])c4F)c4ccc([nH]4)c(-c4cccc(S(=O)(=O)[O-])c4F)c4nc(c(-c5cccc(S(=O)(=O)[O-])c5F)c5ccc2[nH]5)C=C4)C=C3)cc1
REMARK SMILES IDX 21 1 20 2 19 3 18 4 17 5 16 6 14 7 15 8 12 9 8 10 9 11 10 12
REMARK SMILES IDX 11 13 13 14 6 15 7 16 5 17 4 18 3 19 2 20 1 21 22 22 23 23
REMARK SMILES IDX 24 24 25 25 26 26 27 27 28 28 29 29 30 30 31 31 32 32 93 33
REMARK SMILES IDX 33 34 92 35 34 36 35 37 36 38 86 39 37 40 91 41 85 42 87 43
REMARK SMILES IDX 38 44 90 45 84 46 83 47 39 49 71 50 51 51 70 52 52 53 55 54
REMARK SMILES IDX 69 55 88 56 53 57 54 58 68 60 89 61 56 62 40 63 41 64 49 65
REMARK SMILES IDX 42 66 44 67 50 68 43 69 45 70 46 71 47 72 48 73 72 74 73 75
REMARK SMILES IDX 81 76 74 77 76 78 82 79 75 80 77 81 78 82 79 83 80 84 57 85
REMARK SMILES IDX 58 86 66 87 59 88 61 89 67 90 60 91 62 92 63 93 64 94 65 95
REMARK H PARENT 87 48 55 59
REMARK Flexibility Score: inf
ROOT
ATOM      1  C   UNL A   1      33.244  30.525  27.274  1.00  0.00     0.188 C 
ENDROOT
BRANCH   1   2
ATOM      2  C   UNL A   1      32.934  29.361  26.314  1.00  0.00     0.188 C 
BRANCH   2   3
ATOM      3  O   UNL A   1      31.611  29.142  25.838  1.00  0.00    -0.376 OA
BRANCH   3   4
ATOM      4  C   UNL A   1      31.316  29.322  24.456  1.00  0.00     0.202 C 
BRANCH   4   5
ATOM      5  C   UNL A   1      30.346  28.365  23.742  1.00  0.00     0.261 C 
BRANCH   5   6
ATOM      6  O   UNL A   1      30.978  27.293  23.012  1.00  0.00    -0.461 OA
BRANCH   6   7
ATOM      7  C   UNL A   1      31.249  26.164  23.696  1.00  0.00     0.331 C 
ATOM      8  O   UNL A   1      30.481  25.671  24.521  1.00  0.00    -0.249 OA
BRANCH   7   9
ATOM      9  C   UNL A   1      32.603  25.485  23.327  1.00  0.00     0.137 C 
ATOM     10  N   UNL A   1      33.021  24.049  23.594  1.00  0.00    -0.326 N 
ATOM     11  C   UNL A   1      34.424  24.064  24.014  1.00  0.00     0.121 C 
ATOM     12  C   UNL A   1      34.589  25.304  24.843  1.00  0.00     0.025 C 
ATOM     13  C   UNL A   1      33.642  26.299  24.206  1.00  0.00     0.042 C 
ATOM     14  C   UNL A   1      32.926  25.884  21.867  1.00  0.00     0.047 C 
BRANCH  10  15
ATOM     15  C   UNL A   1      32.584  22.782  23.256  1.00  0.00     0.223 C 
ATOM     16  O   UNL A   1      32.810  22.405  22.084  1.00  0.00    -0.275 OA
BRANCH  15  17
ATOM     17  C   UNL A   1      32.026  21.659  24.128  1.00  0.00     0.102 C 
BRANCH  17  18
ATOM     18  C   UNL A   1      32.600  20.325  24.546  1.00  0.00     0.038 C 
BRANCH  18  19
ATOM     19  C   UNL A   1      33.963  20.271  25.197  1.00  0.00     0.160 C 
BRANCH  19  20
ATOM     20  O   UNL A   1      34.337  21.358  26.023  1.00  0.00    -0.385 OA
ATOM     21  C   UNL A   1      33.748  21.441  27.305  1.00  0.00     0.194 C 
ENDBRANCH  19  20
ENDBRANCH  18  19
ENDBRANCH  17  18
ENDBRANCH  15  17
ENDBRANCH  10  15
ENDBRANCH   7   9
ENDBRANCH   6   7
ENDBRANCH   5   6
ENDBRANCH   4   5
ENDBRANCH   3   4
ENDBRANCH   2   3
ENDBRANCH   1   2
BRANCH   1  22
ATOM     22  O   UNL A   1      34.590  30.952  27.268  1.00  0.00    -0.377 OA
BRANCH  22  23
ATOM     23  C   UNL A   1      35.001  31.780  28.345  1.00  0.00     0.188 C 
BRANCH  23  24
ATOM     24  C   UNL A   1      35.532  33.181  27.989  1.00  0.00     0.188 C 
BRANCH  24  25
ATOM     25  O   UNL A   1      35.524  34.101  29.077  1.00  0.00    -0.376 OA
BRANCH  25  26
ATOM     26  C   UNL A   1      34.277  34.424  29.680  1.00  0.00     0.202 C 
BRANCH  26  27
ATOM     27  C   UNL A   1      34.096  34.096  31.174  1.00  0.00     0.261 C 
BRANCH  27  28
ATOM     28  O   UNL A   1      34.519  32.793  31.603  1.00  0.00    -0.460 OA
BRANCH  28  29
ATOM     29  C   UNL A   1      35.301  32.711  32.701  1.00  0.00     0.338 C 
ATOM     30  O   UNL A   1      35.014  33.045  33.832  1.00  0.00    -0.246 OA
BRANCH  29  31
ATOM     31  C   UNL A   1      36.511  31.944  32.336  1.00  0.00     0.060 A 
ATOM     32  C   UNL A   1      36.667  30.651  32.851  1.00  0.00     0.016 A 
ATOM     33  C   UNL A   1      37.487  32.502  31.509  1.00  0.00     0.016 A 
ATOM     34  C   UNL A   1      37.829  29.929  32.582  1.00  0.00     0.010 A 
ATOM     35  C   UNL A   1      38.661  31.787  31.260  1.00  0.00     0.010 A 
ATOM     36  C   UNL A   1      38.854  30.517  31.832  1.00  0.00    -0.014 A 
BRANCH  36  37
ATOM     37  C   UNL A   1      40.197  29.894  31.828  1.00  0.00     0.031 A 
ATOM     38  C   UNL A   1      41.195  30.335  32.863  1.00  0.00     0.074 A 
ATOM     39  C   UNL A   1      40.529  28.954  30.926  1.00  0.00     0.049 A 
ATOM     40  N   UNL A   1      42.430  29.950  33.043  1.00  0.00    -0.248 NA
ATOM     41  C   UNL A   1      40.735  31.354  33.821  1.00  0.00     0.031 C 
ATOM     42  C   UNL A   1      39.654  28.448  29.873  1.00  0.00     0.029 A 
ATOM     43  N   UNL A   1      41.713  28.286  30.737  1.00  0.00    -0.354 N 
ATOM     44  C   UNL A   1      42.909  30.706  34.105  1.00  0.00     0.074 A 
ATOM     45  C   UNL A   1      41.833  31.576  34.528  1.00  0.00     0.031 C 
ATOM     46  C   UNL A   1      40.344  27.577  29.118  1.00  0.00     0.029 A 
ATOM     47  C   UNL A   1      41.715  27.485  29.622  1.00  0.00     0.049 A 
ATOM     48  H   UNL A   1      42.485  28.372  31.342  1.00  0.00     0.167 HD
ATOM     49  C   UNL A   1      44.133  30.678  34.683  1.00  0.00     0.034 A 
ATOM     50  C   UNL A   1      42.717  26.786  29.051  1.00  0.00     0.034 A 
ATOM     51  C   UNL A   1      45.197  29.806  34.267  1.00  0.00     0.049 A 
ATOM     52  C   UNL A   1      44.075  26.774  29.702  1.00  0.00     0.074 A 
ATOM     53  C   UNL A   1      46.449  29.646  34.834  1.00  0.00     0.029 A 
ATOM     54  N   UNL A   1      45.149  28.969  33.163  1.00  0.00    -0.354 N 
ATOM     55  N   UNL A   1      44.475  27.386  30.791  1.00  0.00    -0.248 NA
ATOM     56  C   UNL A   1      45.111  25.946  29.067  1.00  0.00     0.031 C 
ATOM     57  C   UNL A   1      47.175  28.749  34.044  1.00  0.00     0.029 A 
ATOM     58  C   UNL A   1      46.358  28.311  33.013  1.00  0.00     0.049 A 
ATOM     59  H   UNL A   1      44.369  28.859  32.572  1.00  0.00     0.167 HD
ATOM     60  C   UNL A   1      45.796  26.997  30.988  1.00  0.00     0.074 A 
ATOM     61  C   UNL A   1      46.122  26.079  29.916  1.00  0.00     0.031 C 
ATOM     62  C   UNL A   1      46.663  27.372  31.962  1.00  0.00     0.034 A 
BRANCH  49  63
ATOM     63  C   UNL A   1      44.384  31.630  35.822  1.00  0.00     0.023 A 
ATOM     64  C   UNL A   1      45.050  32.852  35.592  1.00  0.00     0.012 A 
ATOM     65  C   UNL A   1      43.940  31.320  37.122  1.00  0.00     0.148 A 
ATOM     66  C   UNL A   1      45.309  33.728  36.645  1.00  0.00     0.002 A 
ATOM     67  C   UNL A   1      44.157  32.221  38.157  1.00  0.00     0.091 A 
ATOM     68  F   UNL A   1      43.333  30.143  37.327  1.00  0.00    -0.205 F 
ATOM     69  C   UNL A   1      44.854  33.417  37.925  1.00  0.00     0.022 A 
BRANCH  67  70
ATOM     70  S   UNL A   1      43.536  31.948  39.819  1.00  0.00     0.127 S 
ATOM     71  O   UNL A   1      43.950  33.176  40.495  1.00  0.00    -0.237 OA
ATOM     72  O   UNL A   1      42.094  31.831  39.594  1.00  0.00    -0.237 OA
ATOM     73  O   UNL A   1      44.174  30.727  40.289  1.00  0.00    -0.744 OA
ENDBRANCH  67  70
ENDBRANCH  49  63
BRANCH  50  74
ATOM     74  C   UNL A   1      42.460  26.035  27.792  1.00  0.00     0.023 A 
ATOM     75  C   UNL A   1      42.587  26.680  26.548  1.00  0.00     0.012 A 
ATOM     76  C   UNL A   1      42.136  24.664  27.829  1.00  0.00     0.148 A 
ATOM     77  C   UNL A   1      42.378  25.977  25.361  1.00  0.00     0.002 A 
ATOM     78  C   UNL A   1      41.985  23.958  26.643  1.00  0.00     0.091 A 
ATOM     79  F   UNL A   1      42.006  24.077  29.026  1.00  0.00    -0.205 F 
ATOM     80  C   UNL A   1      42.089  24.615  25.407  1.00  0.00     0.022 A 
BRANCH  78  81
ATOM     81  S   UNL A   1      41.746  22.179  26.603  1.00  0.00     0.127 S 
ATOM     82  O   UNL A   1      40.290  22.072  26.671  1.00  0.00    -0.237 OA
ATOM     83  O   UNL A   1      42.330  21.832  25.308  1.00  0.00    -0.237 OA
ATOM     84  O   UNL A   1      42.468  21.657  27.755  1.00  0.00    -0.744 OA
ENDBRANCH  78  81
ENDBRANCH  50  74
BRANCH  62  85
ATOM     85  C   UNL A   1      48.044  26.767  31.946  1.00  0.00     0.023 A 
ATOM     86  C   UNL A   1      49.094  27.419  31.268  1.00  0.00     0.012 A 
ATOM     87  C   UNL A   1      48.318  25.588  32.669  1.00  0.00     0.148 A 
ATOM     88  C   UNL A   1      50.384  26.889  31.280  1.00  0.00     0.002 A 
ATOM     89  C   UNL A   1      49.616  25.095  32.721  1.00  0.00     0.091 A 
ATOM     90  F   UNL A   1      47.304  24.973  33.294  1.00  0.00    -0.205 F 
ATOM     91  C   UNL A   1      50.647  25.736  32.017  1.00  0.00     0.022 A 
BRANCH  89  92
ATOM     92  S   UNL A   1      50.066  23.674  33.724  1.00  0.00     0.127 S 
ATOM     93  O   UNL A   1      50.931  24.283  34.734  1.00  0.00    -0.237 OA
ATOM     94  O   UNL A   1      48.766  23.224  34.225  1.00  0.00    -0.237 OA
ATOM     95  O   UNL A   1      50.722  22.737  32.823  1.00  0.00    -0.744 OA
ENDBRANCH  89  92
ENDBRANCH  62  85
ENDBRANCH  36  37
ENDBRANCH  29  31
ENDBRANCH  28  29
ENDBRANCH  27  28
ENDBRANCH  26  27
ENDBRANCH  25  26
ENDBRANCH  24  25
ENDBRANCH  23  24
ENDBRANCH  22  23
ENDBRANCH   1  22
TORSDOF 28
ENDMDL
MODEL 2
REMARK VINA RESULT:      -8.0      4.546      6.447
REMARK SMILES COCCCC(=O)N1CCC[C@]1(C)C(=O)OCCOCCOCCOCCOC(=O)c1ccc(-c2c3nc(c(-c4cccc(S(=O)(=O)[O-])c4F)c4ccc([nH]4)c(-c4cccc(S(=O)(=O)[O-])c4F)c4nc(c(-c5cccc(S(=O)(=O)[O-])c5F)c5ccc2[nH]5)C=C4)C=C3)cc1
REMARK SMILES IDX 21 1 20 2 19 3 18 4 17 5 16 6 14 7 15 8 12 9 8 10 9 11 10 12
REMARK SMILES IDX 11 13 13 14 6 15 7 16 5 17 4 18 3 19 2 20 1 21 22 22 23 23
REMARK SMILES IDX 24 24 25 25 26 26 27 27 28 28 29 29 30 30 31 31 32 32 93 33
REMARK SMILES IDX 33 34 92 35 34 36 35 37 36 38 86 39 37 40 91 41 85 42 87 43
REMARK SMILES IDX 38 44 90 45 84 46 83 47 39 49 71 50 51 51 70 52 52 53 55 54
REMARK SMILES IDX 69 55 88 56 53 57 54 58 68 60 89 61 56 62 40 63 41 64 49 65
REMARK SMILES IDX 42 66 44 67 50 68 43 69 45 70 46 71 47 72 48 73 72 74 73 75
REMARK SMILES IDX 81 76 74 77 76 78 82 79 75 80 77 81 78 82 79 83 80 84 57 85
REMARK SMILES IDX 58 86 66 87 59 88 61 89 67 90 60 91 62 92 63 93 64 94 65 95
REMARK H PARENT 87 48 55 59
REMARK Flexibility Score: inf
ROOT
ATOM      1  C   UNL A   1      33.075  30.487  27.064  1.00  0.00     0.188 C 
ENDROOT
BRANCH   1   2
ATOM      2  C   UNL A   1      32.770  29.360  26.060  1.00  0.00     0.188 C 
BRANCH   2   3
ATOM      3  O   UNL A   1      31.435  29.098  25.641  1.00  0.00    -0.376 OA
BRANCH   3   4
ATOM      4  C   UNL A   1      31.118  29.077  24.253  1.00  0.00     0.202 C 
BRANCH   4   5
ATOM      5  C   UNL A   1      29.975  28.189  23.734  1.00  0.00     0.261 C 
BRANCH   5   6
ATOM      6  O   UNL A   1      30.355  26.831  23.425  1.00  0.00    -0.461 OA
BRANCH   6   7
ATOM      7  C   UNL A   1      30.436  25.969  24.458  1.00  0.00     0.331 C 
ATOM      8  O   UNL A   1      29.663  25.983  25.414  1.00  0.00    -0.249 OA
BRANCH   7   9
ATOM      9  C   UNL A   1      31.566  24.902  24.333  1.00  0.00     0.137 C 
ATOM     10  N   UNL A   1      32.465  24.370  25.436  1.00  0.00    -0.326 N 
ATOM     11  C   UNL A   1      33.816  24.241  24.886  1.00  0.00     0.121 C 
ATOM     12  C   UNL A   1      33.991  25.403  23.953  1.00  0.00     0.025 C 
ATOM     13  C   UNL A   1      32.607  25.621  23.377  1.00  0.00     0.042 C 
ATOM     14  C   UNL A   1      30.996  23.738  23.486  1.00  0.00     0.047 C 
BRANCH  10  15
ATOM     15  C   UNL A   1      32.316  23.703  26.637  1.00  0.00     0.223 C 
ATOM     16  O   UNL A   1      31.249  23.902  27.260  1.00  0.00    -0.275 OA
BRANCH  15  17
ATOM     17  C   UNL A   1      33.156  22.595  27.269  1.00  0.00     0.102 C 
BRANCH  17  18
ATOM     18  C   UNL A   1      33.427  21.170  26.849  1.00  0.00     0.038 C 
BRANCH  18  19
ATOM     19  C   UNL A   1      32.864  20.656  25.543  1.00  0.00     0.160 C 
BRANCH  19  20
ATOM     20  O   UNL A   1      32.575  19.273  25.455  1.00  0.00    -0.385 OA
ATOM     21  C   UNL A   1      32.420  18.717  24.164  1.00  0.00     0.194 C 
ENDBRANCH  19  20
ENDBRANCH  18  19
ENDBRANCH  17  18
ENDBRANCH  15  17
ENDBRANCH  10  15
ENDBRANCH   7   9
ENDBRANCH   6   7
ENDBRANCH   5   6
ENDBRANCH   4   5
ENDBRANCH   3   4
ENDBRANCH   2   3
ENDBRANCH   1   2
BRANCH   1  22
ATOM     22  O   UNL A   1      34.448  30.760  27.245  1.00  0.00    -0.377 OA
BRANCH  22  23
ATOM     23  C   UNL A   1      34.790  31.638  28.306  1.00  0.00     0.188 C 
BRANCH  23  24
ATOM     24  C   UNL A   1      35.747  32.799  27.975  1.00  0.00     0.188 C 
BRANCH  24  25
ATOM     25  O   UNL A   1      35.899  33.747  29.028  1.00  0.00    -0.376 OA
BRANCH  25  26
ATOM     26  C   UNL A   1      34.807  34.608  29.324  1.00  0.00     0.202 C 
BRANCH  26  27
ATOM     27  C   UNL A   1      34.151  34.484  30.711  1.00  0.00     0.261 C 
BRANCH  27  28
ATOM     28  O   UNL A   1      34.143  33.177  31.306  1.00  0.00    -0.460 OA
BRANCH  28  29
ATOM     29  C   UNL A   1      34.545  33.063  32.590  1.00  0.00     0.338 C 
ATOM     30  O   UNL A   1      33.854  33.149  33.584  1.00  0.00    -0.246 OA
BRANCH  29  31
ATOM     31  C   UNL A   1      35.950  32.604  32.584  1.00  0.00     0.060 A 
ATOM     32  C   UNL A   1      36.842  33.162  33.509  1.00  0.00     0.016 A 
ATOM     33  C   UNL A   1      36.385  31.648  31.665  1.00  0.00     0.016 A 
ATOM     34  C   UNL A   1      38.188  32.803  33.483  1.00  0.00     0.010 A 
ATOM     35  C   UNL A   1      37.739  31.307  31.624  1.00  0.00     0.010 A 
ATOM     36  C   UNL A   1      38.652  31.916  32.503  1.00  0.00    -0.014 A 
BRANCH  36  37
ATOM     37  C   UNL A   1      40.109  31.795  32.268  1.00  0.00     0.031 A 
ATOM     38  C   UNL A   1      40.778  32.810  31.384  1.00  0.00     0.074 A 
ATOM     39  C   UNL A   1      40.827  30.805  32.826  1.00  0.00     0.049 A 
ATOM     40  N   UNL A   1      42.030  32.896  31.019  1.00  0.00    -0.248 NA
ATOM     41  C   UNL A   1      39.915  33.868  30.834  1.00  0.00     0.031 C 
ATOM     42  C   UNL A   1      40.292  29.760  33.695  1.00  0.00     0.029 A 
ATOM     43  N   UNL A   1      42.161  30.503  32.710  1.00  0.00    -0.354 N 
ATOM     44  C   UNL A   1      42.098  33.990  30.165  1.00  0.00     0.074 A 
ATOM     45  C   UNL A   1      40.761  34.534  30.063  1.00  0.00     0.031 C 
ATOM     46  C   UNL A   1      41.282  28.904  34.001  1.00  0.00     0.029 A 
ATOM     47  C   UNL A   1      42.511  29.329  33.329  1.00  0.00     0.049 A 
ATOM     48  H   UNL A   1      42.804  31.074  32.230  1.00  0.00     0.167 HD
ATOM     49  C   UNL A   1      43.176  34.501  29.525  1.00  0.00     0.034 A 
ATOM     50  C   UNL A   1      43.678  28.655  33.325  1.00  0.00     0.034 A 
ATOM     51  C   UNL A   1      44.505  33.964  29.636  1.00  0.00     0.049 A 
ATOM     52  C   UNL A   1      44.864  29.234  32.600  1.00  0.00     0.074 A 
ATOM     53  C   UNL A   1      45.678  34.452  29.089  1.00  0.00     0.029 A 
ATOM     54  N   UNL A   1      44.834  32.800  30.314  1.00  0.00    -0.354 N 
ATOM     55  N   UNL A   1      44.950  30.346  31.911  1.00  0.00    -0.248 NA
ATOM     56  C   UNL A   1      46.126  28.483  32.683  1.00  0.00     0.031 C 
ATOM     57  C   UNL A   1      46.708  33.557  29.396  1.00  0.00     0.029 A 
ATOM     58  C   UNL A   1      46.186  32.537  30.177  1.00  0.00     0.049 A 
ATOM     59  H   UNL A   1      44.199  32.242  30.819  1.00  0.00     0.167 HD
ATOM     60  C   UNL A   1      46.276  30.445  31.502  1.00  0.00     0.074 A 
ATOM     61  C   UNL A   1      46.963  29.287  32.039  1.00  0.00     0.031 C 
ATOM     62  C   UNL A   1      46.869  31.401  30.744  1.00  0.00     0.034 A 
BRANCH  49  63
ATOM     63  C   UNL A   1      42.954  35.698  28.640  1.00  0.00     0.023 A 
ATOM     64  C   UNL A   1      42.564  35.525  27.296  1.00  0.00     0.012 A 
ATOM     65  C   UNL A   1      43.113  37.001  29.149  1.00  0.00     0.148 A 
ATOM     66  C   UNL A   1      42.380  36.627  26.462  1.00  0.00     0.002 A 
ATOM     67  C   UNL A   1      42.879  38.096  28.326  1.00  0.00     0.091 A 
ATOM     68  F   UNL A   1      43.510  37.148  30.421  1.00  0.00    -0.205 F 
ATOM     69  C   UNL A   1      42.528  37.911  26.979  1.00  0.00     0.022 A 
BRANCH  67  70
ATOM     70  S   UNL A   1      42.962  39.787  28.924  1.00  0.00     0.127 S 
ATOM     71  O   UNL A   1      41.546  40.133  29.030  1.00  0.00    -0.237 OA
ATOM     72  O   UNL A   1      43.649  39.627  30.206  1.00  0.00    -0.237 OA
ATOM     73  O   UNL A   1      43.716  40.529  27.923  1.00  0.00    -0.744 OA
ENDBRANCH  67  70
ENDBRANCH  49  63
BRANCH  50  74
ATOM     74  C   UNL A   1      43.774  27.354  34.043  1.00  0.00     0.023 A 
ATOM     75  C   UNL A   1      43.697  26.146  33.326  1.00  0.00     0.012 A 
ATOM     76  C   UNL A   1      43.989  27.318  35.435  1.00  0.00     0.148 A 
ATOM     77  C   UNL A   1      43.817  24.922  33.986  1.00  0.00     0.002 A 
ATOM     78  C   UNL A   1      44.163  26.099  36.076  1.00  0.00     0.091 A 
ATOM     79  F   UNL A   1      44.044  28.482  36.097  1.00  0.00    -0.205 F 
ATOM     80  C   UNL A   1      44.061  24.898  35.356  1.00  0.00     0.022 A 
BRANCH  78  81
ATOM     81  S   UNL A   1      44.615  25.975  37.809  1.00  0.00     0.127 S 
ATOM     82  O   UNL A   1      43.489  26.641  38.459  1.00  0.00    -0.237 OA
ATOM     83  O   UNL A   1      44.667  24.526  37.998  1.00  0.00    -0.237 OA
ATOM     84  O   UNL A   1      45.899  26.650  37.932  1.00  0.00    -0.744 OA
ENDBRANCH  78  81
ENDBRANCH  50  74
BRANCH  62  85
ATOM     85  C   UNL A   1      48.346  31.266  30.470  1.00  0.00     0.023 A 
ATOM     86  C   UNL A   1      49.285  31.653  31.447  1.00  0.00     0.012 A 
ATOM     87  C   UNL A   1      48.801  30.684  29.269  1.00  0.00     0.148 A 
ATOM     88  C   UNL A   1      50.652  31.496  31.219  1.00  0.00     0.002 A 
ATOM     89  C   UNL A   1      50.161  30.481  29.072  1.00  0.00     0.091 A 
ATOM     90  F   UNL A   1      47.895  30.337  28.344  1.00  0.00    -0.205 F 
ATOM     91  C   UNL A   1      51.089  30.898  30.038  1.00  0.00     0.022 A 
BRANCH  89  92
ATOM     92  S   UNL A   1      50.808  29.631  27.627  1.00  0.00     0.127 S 
ATOM     93  O   UNL A   1      52.247  29.847  27.773  1.00  0.00    -0.237 OA
ATOM     94  O   UNL A   1      50.372  28.252  27.858  1.00  0.00    -0.237 OA
ATOM     95  O   UNL A   1      50.194  30.272  26.473  1.00  0.00    -0.744 OA
ENDBRANCH  89  92
ENDBRANCH  62  85
ENDBRANCH  36  37
ENDBRANCH  29  31
ENDBRANCH  28  29
ENDBRANCH  27  28
ENDBRANCH  26  27
ENDBRANCH  25  26
ENDBRANCH  24  25
ENDBRANCH  23  24
ENDBRANCH  22  23
ENDBRANCH   1  22
TORSDOF 28
ENDMDL
MODEL 3
REMARK VINA RESULT:      -7.8      4.551      5.540
REMARK SMILES COCCCC(=O)N1CCC[C@]1(C)C(=O)OCCOCCOCCOCCOC(=O)c1ccc(-c2c3nc(c(-c4cccc(S(=O)(=O)[O-])c4F)c4ccc([nH]4)c(-c4cccc(S(=O)(=O)[O-])c4F)c4nc(c(-c5cccc(S(=O)(=O)[O-])c5F)c5ccc2[nH]5)C=C4)C=C3)cc1
REMARK SMILES IDX 21 1 20 2 19 3 18 4 17 5 16 6 14 7 15 8 12 9 8 10 9 11 10 12
REMARK SMILES IDX 11 13 13 14 6 15 7 16 5 17 4 18 3 19 2 20 1 21 22 22 23 23
REMARK SMILES IDX 24 24 25 25 26 26 27 27 28 28 29 29 30 30 31 31 32 32 93 33
REMARK SMILES IDX 33 34 92 35 34 36 35 37 36 38 86 39 37 40 91 41 85 42 87 43
REMARK SMILES IDX 38 44 90 45 84 46 83 47 39 49 71 50 51 51 70 52 52 53 55 54
REMARK SMILES IDX 69 55 88 56 53 57 54 58 68 60 89 61 56 62 40 63 41 64 49 65
REMARK SMILES IDX 42 66 44 67 50 68 43 69 45 70 46 71 47 72 48 73 72 74 73 75
REMARK SMILES IDX 81 76 74 77 76 78 82 79 75 80 77 81 78 82 79 83 80 84 57 85
REMARK SMILES IDX 58 86 66 87 59 88 61 89 67 90 60 91 62 92 63 93 64 94 65 95
REMARK H PARENT 87 48 55 59
REMARK Flexibility Score: inf
ROOT
ATOM      1  C   UNL A   1      31.851  29.233  27.296  1.00  0.00     0.188 C 
ENDROOT
BRANCH   1   2
ATOM      2  C   UNL A   1      32.207  27.810  26.828  1.00  0.00     0.188 C 
BRANCH   2   3
ATOM      3  O   UNL A   1      31.299  26.731  27.018  1.00  0.00    -0.376 OA
BRANCH   3   4
ATOM      4  C   UNL A   1      30.473  26.301  25.940  1.00  0.00     0.202 C 
BRANCH   4   5
ATOM      5  C   UNL A   1      30.309  24.801  25.642  1.00  0.00     0.261 C 
BRANCH   5   6
ATOM      6  O   UNL A   1      31.341  24.231  24.810  1.00  0.00    -0.461 OA
BRANCH   6   7
ATOM      7  C   UNL A   1      31.932  23.105  25.255  1.00  0.00     0.331 C 
ATOM      8  O   UNL A   1      31.353  22.259  25.934  1.00  0.00    -0.249 OA
BRANCH   7   9
ATOM      9  C   UNL A   1      33.412  22.920  24.801  1.00  0.00     0.137 C 
ATOM     10  N   UNL A   1      34.281  21.684  24.957  1.00  0.00    -0.326 N 
ATOM     11  C   UNL A   1      35.624  22.129  25.334  1.00  0.00     0.121 C 
ATOM     12  C   UNL A   1      35.425  23.309  26.239  1.00  0.00     0.025 C 
ATOM     13  C   UNL A   1      34.178  23.978  25.699  1.00  0.00     0.042 C 
ATOM     14  C   UNL A   1      33.515  23.479  23.360  1.00  0.00     0.047 C 
BRANCH  10  15
ATOM     15  C   UNL A   1      34.256  20.363  24.550  1.00  0.00     0.223 C 
ATOM     16  O   UNL A   1      35.257  19.669  24.837  1.00  0.00    -0.275 OA
BRANCH  15  17
ATOM     17  C   UNL A   1      33.120  19.527  23.962  1.00  0.00     0.102 C 
BRANCH  17  18
ATOM     18  C   UNL A   1      32.412  18.292  24.464  1.00  0.00     0.038 C 
BRANCH  18  19
ATOM     19  C   UNL A   1      32.709  17.774  25.854  1.00  0.00     0.160 C 
BRANCH  19  20
ATOM     20  O   UNL A   1      33.320  16.501  25.960  1.00  0.00    -0.385 OA
ATOM     21  C   UNL A   1      32.835  15.469  25.125  1.00  0.00     0.194 C 
ENDBRANCH  19  20
ENDBRANCH  18  19
ENDBRANCH  17  18
ENDBRANCH  15  17
ENDBRANCH  10  15
ENDBRANCH   7   9
ENDBRANCH   6   7
ENDBRANCH   5   6
ENDBRANCH   4   5
ENDBRANCH   3   4
ENDBRANCH   2   3
ENDBRANCH   1   2
BRANCH   1  22
ATOM     22  O   UNL A   1      32.465  30.268  26.560  1.00  0.00    -0.377 OA
BRANCH  22  23
ATOM     23  C   UNL A   1      33.157  31.258  27.304  1.00  0.00     0.188 C 
BRANCH  23  24
ATOM     24  C   UNL A   1      32.506  32.652  27.392  1.00  0.00     0.188 C 
BRANCH  24  25
ATOM     25  O   UNL A   1      33.430  33.714  27.611  1.00  0.00    -0.376 OA
BRANCH  25  26
ATOM     26  C   UNL A   1      33.224  34.569  28.730  1.00  0.00     0.202 C 
BRANCH  26  27
ATOM     27  C   UNL A   1      33.990  34.251  30.026  1.00  0.00     0.261 C 
BRANCH  27  28
ATOM     28  O   UNL A   1      34.331  32.876  30.253  1.00  0.00    -0.460 OA
BRANCH  28  29
ATOM     29  C   UNL A   1      34.902  32.550  31.432  1.00  0.00     0.338 C 
ATOM     30  O   UNL A   1      34.365  32.507  32.520  1.00  0.00    -0.246 OA
BRANCH  29  31
ATOM     31  C   UNL A   1      36.264  32.046  31.150  1.00  0.00     0.060 A 
ATOM     32  C   UNL A   1      37.130  31.815  32.226  1.00  0.00     0.016 A 
ATOM     33  C   UNL A   1      36.684  31.822  29.838  1.00  0.00     0.016 A 
ATOM     34  C   UNL A   1      38.441  31.408  31.990  1.00  0.00     0.010 A 
ATOM     35  C   UNL A   1      38.006  31.437  29.601  1.00  0.00     0.010 A 
ATOM     36  C   UNL A   1      38.900  31.272  30.674  1.00  0.00    -0.014 A 
BRANCH  36  37
ATOM     37  C   UNL A   1      40.356  31.167  30.421  1.00  0.00     0.031 A 
ATOM     38  C   UNL A   1      41.160  32.434  30.336  1.00  0.00     0.074 A 
ATOM     39  C   UNL A   1      40.955  29.974  30.271  1.00  0.00     0.049 A 
ATOM     40  N   UNL A   1      42.436  32.593  30.104  1.00  0.00    -0.248 NA
ATOM     41  C   UNL A   1      40.421  33.692  30.533  1.00  0.00     0.031 C 
ATOM     42  C   UNL A   1      40.283  28.678  30.328  1.00  0.00     0.029 A 
ATOM     43  N   UNL A   1      42.266  29.667  30.005  1.00  0.00    -0.354 N 
ATOM     44  C   UNL A   1      42.647  33.966  30.086  1.00  0.00     0.074 A 
ATOM     45  C   UNL A   1      41.367  34.596  30.327  1.00  0.00     0.031 C 
ATOM     46  C   UNL A   1      41.180  27.713  30.060  1.00  0.00     0.029 A 
ATOM     47  C   UNL A   1      42.480  28.328  29.789  1.00  0.00     0.049 A 
ATOM     48  H   UNL A   1      42.982  30.341  29.971  1.00  0.00     0.167 HD
ATOM     49  C   UNL A   1      43.802  34.645  29.893  1.00  0.00     0.034 A 
ATOM     50  C   UNL A   1      43.589  27.676  29.385  1.00  0.00     0.034 A 
ATOM     51  C   UNL A   1      45.074  34.016  29.664  1.00  0.00     0.049 A 
ATOM     52  C   UNL A   1      44.863  28.449  29.165  1.00  0.00     0.074 A 
ATOM     53  C   UNL A   1      46.317  34.611  29.531  1.00  0.00     0.029 A 
ATOM     54  N   UNL A   1      45.265  32.653  29.502  1.00  0.00    -0.354 N 
ATOM     55  N   UNL A   1      45.081  29.735  29.290  1.00  0.00    -0.248 NA
ATOM     56  C   UNL A   1      46.054  27.675  28.785  1.00  0.00     0.031 C 
ATOM     57  C   UNL A   1      47.250  33.611  29.240  1.00  0.00     0.029 A 
ATOM     58  C   UNL A   1      46.599  32.387  29.241  1.00  0.00     0.049 A 
ATOM     59  H   UNL A   1      44.556  31.972  29.563  1.00  0.00     0.167 HD
ATOM     60  C   UNL A   1      46.435  29.923  29.032  1.00  0.00     0.074 A 
ATOM     61  C   UNL A   1      46.992  28.613  28.763  1.00  0.00     0.031 C 
ATOM     62  C   UNL A   1      47.151  31.075  29.010  1.00  0.00     0.034 A 
BRANCH  49  63
ATOM     63  C   UNL A   1      43.734  36.149  29.911  1.00  0.00     0.023 A 
ATOM     64  C   UNL A   1      44.001  36.858  31.100  1.00  0.00     0.012 A 
ATOM     65  C   UNL A   1      43.425  36.863  28.737  1.00  0.00     0.148 A 
ATOM     66  C   UNL A   1      43.916  38.249  31.132  1.00  0.00     0.002 A 
ATOM     67  C   UNL A   1      43.391  38.251  28.764  1.00  0.00     0.091 A 
ATOM     68  F   UNL A   1      43.147  36.172  27.622  1.00  0.00    -0.205 F 
ATOM     69  C   UNL A   1      43.621  38.946  29.962  1.00  0.00     0.022 A 
BRANCH  67  70
ATOM     70  S   UNL A   1      43.103  39.237  27.291  1.00  0.00     0.127 S 
ATOM     71  O   UNL A   1      41.822  38.707  26.827  1.00  0.00    -0.237 OA
ATOM     72  O   UNL A   1      43.040  40.594  27.836  1.00  0.00    -0.237 OA
ATOM     73  O   UNL A   1      44.240  38.991  26.415  1.00  0.00    -0.744 OA
ENDBRANCH  67  70
ENDBRANCH  49  63
BRANCH  50  74
ATOM     74  C   UNL A   1      43.535  26.204  29.171  1.00  0.00     0.023 A 
ATOM     75  C   UNL A   1      43.934  25.327  30.196  1.00  0.00     0.012 A 
ATOM     76  C   UNL A   1      43.040  25.674  27.962  1.00  0.00     0.148 A 
ATOM     77  C   UNL A   1      43.858  23.945  30.015  1.00  0.00     0.002 A 
ATOM     78  C   UNL A   1      42.915  24.300  27.811  1.00  0.00     0.091 A 
ATOM     79  F   UNL A   1      42.681  26.530  26.996  1.00  0.00    -0.205 F 
ATOM     80  C   UNL A   1      43.338  23.432  28.830  1.00  0.00     0.022 A 
BRANCH  78  81
ATOM     81  S   UNL A   1      42.133  23.554  26.377  1.00  0.00     0.127 S 
ATOM     82  O   UNL A   1      42.567  22.164  26.489  1.00  0.00    -0.237 OA
ATOM     83  O   UNL A   1      40.717  23.782  26.661  1.00  0.00    -0.237 OA
ATOM     84  O   UNL A   1      42.646  24.281  25.224  1.00  0.00    -0.744 OA
ENDBRANCH  78  81
ENDBRANCH  50  74
BRANCH  62  85
ATOM     85  C   UNL A   1      48.628  30.981  28.720  1.00  0.00     0.023 A 
ATOM     86  C   UNL A   1      49.099  31.110  27.398  1.00  0.00     0.012 A 
ATOM     87  C   UNL A   1      49.556  30.842  29.772  1.00  0.00     0.148 A 
ATOM     88  C   UNL A   1      50.466  31.063  27.125  1.00  0.00     0.002 A 
ATOM     89  C   UNL A   1      50.918  30.851  29.498  1.00  0.00     0.091 A 
ATOM     90  F   UNL A   1      49.089  30.705  31.022  1.00  0.00    -0.205 F 
ATOM     91  C   UNL A   1      51.375  30.948  28.174  1.00  0.00     0.022 A 
BRANCH  89  92
ATOM     92  S   UNL A   1      52.162  30.806  30.794  1.00  0.00     0.127 S 
ATOM     93  O   UNL A   1      51.335  30.715  31.997  1.00  0.00    -0.237 OA
ATOM     94  O   UNL A   1      52.903  29.585  30.470  1.00  0.00    -0.237 OA
ATOM     95  O   UNL A   1      52.932  32.033  30.657  1.00  0.00    -0.744 OA
ENDBRANCH  89  92
ENDBRANCH  62  85
ENDBRANCH  36  37
ENDBRANCH  29  31
ENDBRANCH  28  29
ENDBRANCH  27  28
ENDBRANCH  26  27
ENDBRANCH  25  26
ENDBRANCH  24  25
ENDBRANCH  23  24
ENDBRANCH  22  23
ENDBRANCH   1  22
TORSDOF 28
ENDMDL
