MODEL 1
REMARK VINA RESULT:      -9.5      0.000      0.000
REMARK SMILES C[C@H]1C[NH+](CC[C@@H]2CCC[C@]2([NH3+])C(=O)OCCOCCOCCOCCOC(=O)c2ccc(-c3c4nc(c(-c5cccc(S(=O)(=O)[O-])c5F)c5ccc([nH]5)c(-c5cccc(S(=O)(=O)[O-])c5F)c5nc(c(-c6cccc(S(=O)(=O)[O-])c6F)c6ccc3[nH]6)C=C5)C=C4)cc2)C[C@H](C)O1
REMARK SMILES IDX 21 1 20 2 19 3 18 4 17 5 16 6 15 7 13 8 14 9 11 10 7 11 8 12
REMARK SMILES IDX 9 13 10 14 6 15 5 16 4 17 1 18 2 19 3 20 96 21 94 22 93 23
REMARK SMILES IDX 95 25 12 26 22 30 23 31 24 32 25 33 26 34 27 35 28 36 29 37
REMARK SMILES IDX 30 38 31 39 92 40 32 41 91 42 33 43 34 44 35 45 85 46 36 47
REMARK SMILES IDX 90 48 84 49 86 50 37 51 89 52 83 53 82 54 38 56 70 57 50 58
REMARK SMILES IDX 69 59 51 60 54 61 68 62 87 63 52 64 53 65 67 67 88 68 55 69
REMARK SMILES IDX 39 70 40 71 48 72 41 73 43 74 49 75 42 76 44 77 45 78 46 79
REMARK SMILES IDX 47 80 71 81 72 82 80 83 73 84 75 85 81 86 74 87 76 88 77 89
REMARK SMILES IDX 78 90 79 91 56 92 57 93 65 94 58 95 60 96 66 97 59 98 61 99
REMARK SMILES IDX 62 100 63 101 64 102
REMARK H PARENT 4 24 12 27 12 28 12 29 86 55 54 66
REMARK Flexibility Score: inf
ROOT
ATOM      1  O   UNL A   1      30.600  30.042  24.125  1.00  0.00    -0.377 OA
ENDROOT
BRANCH   1   2
ATOM      2  C   UNL A   1      30.093  29.201  23.110  1.00  0.00     0.188 C 
BRANCH   2   3
ATOM      3  C   UNL A   1      31.130  28.372  22.343  1.00  0.00     0.188 C 
BRANCH   3   4
ATOM      4  O   UNL A   1      30.896  27.013  22.005  1.00  0.00    -0.376 OA
BRANCH   4   5
ATOM      5  C   UNL A   1      31.844  26.312  21.216  1.00  0.00     0.202 C 
BRANCH   5   6
ATOM      6  C   UNL A   1      33.029  25.598  21.912  1.00  0.00     0.261 C 
BRANCH   6   7
ATOM      7  O   UNL A   1      33.272  25.873  23.318  1.00  0.00    -0.459 OA
BRANCH   7   8
ATOM      8  C   UNL A   1      32.984  24.861  24.170  1.00  0.00     0.368 C 
ATOM      9  O   UNL A   1      33.077  23.677  23.837  1.00  0.00    -0.245 OA
BRANCH   8  10
ATOM     10  C   UNL A   1      32.371  25.271  25.579  1.00  0.00     0.195 C 
ATOM     11  C   UNL A   1      31.818  24.295  26.712  1.00  0.00     0.068 C 
ATOM     12  C   UNL A   1      30.363  24.022  26.300  1.00  0.00     0.011 C 
ATOM     13  C   UNL A   1      29.962  25.018  25.232  1.00  0.00     0.008 C 
ATOM     14  C   UNL A   1      31.063  26.058  25.233  1.00  0.00     0.081 C 
BRANCH  11  15
ATOM     15  C   UNL A   1      32.637  23.067  27.247  1.00  0.00     0.072 C 
BRANCH  15  16
ATOM     16  C   UNL A   1      34.225  23.033  27.190  1.00  0.00     0.262 C 
BRANCH  16  17
ATOM     17  N   UNL A   1      35.106  22.576  26.079  1.00  0.00    -0.331 N 
ATOM     18  C   UNL A   1      37.230  19.514  24.859  1.00  0.00     0.045 C 
ATOM     19  C   UNL A   1      36.567  20.881  24.946  1.00  0.00     0.170 C 
ATOM     20  C   UNL A   1      35.701  21.220  26.208  1.00  0.00     0.294 C 
ATOM     21  O   UNL A   1      37.635  21.837  24.804  1.00  0.00    -0.364 OA
ATOM     22  C   UNL A   1      37.110  23.150  24.566  1.00  0.00     0.170 C 
ATOM     23  C   UNL A   1      36.124  23.542  25.684  1.00  0.00     0.294 C 
ATOM     24  H   UNL A   1      34.424  22.499  25.324  1.00  0.00     0.348 HD
ATOM     25  C   UNL A   1      36.589  23.270  23.142  1.00  0.00     0.045 C 
ENDBRANCH  16  17
ENDBRANCH  15  16
ENDBRANCH  11  15
BRANCH  10  26
ATOM     26  N   UNL A   1      33.337  26.233  26.163  1.00  0.00    -0.343 N 
ATOM     27  H   UNL A   1      34.274  25.832  26.138  1.00  0.00     0.345 HD
ATOM     28  H   UNL A   1      33.077  26.431  27.129  1.00  0.00     0.345 HD
ATOM     29  H   UNL A   1      33.323  27.098  25.623  1.00  0.00     0.345 HD
ENDBRANCH  10  26
ENDBRANCH   8  10
ENDBRANCH   7   8
ENDBRANCH   6   7
ENDBRANCH   5   6
ENDBRANCH   4   5
ENDBRANCH   3   4
ENDBRANCH   2   3
ENDBRANCH   1   2
BRANCH   1  30
ATOM     30  C   UNL A   1      31.654  29.529  24.909  1.00  0.00     0.188 C 
BRANCH  30  31
ATOM     31  C   UNL A   1      31.955  30.316  26.195  1.00  0.00     0.188 C 
BRANCH  31  32
ATOM     32  O   UNL A   1      30.969  31.291  26.515  1.00  0.00    -0.376 OA
BRANCH  32  33
ATOM     33  C   UNL A   1      31.356  32.655  26.505  1.00  0.00     0.202 C 
BRANCH  33  34
ATOM     34  C   UNL A   1      32.598  33.055  27.302  1.00  0.00     0.261 C 
BRANCH  34  35
ATOM     35  O   UNL A   1      32.369  33.818  28.509  1.00  0.00    -0.460 OA
BRANCH  35  36
ATOM     36  C   UNL A   1      33.317  34.647  28.987  1.00  0.00     0.338 C 
ATOM     37  O   UNL A   1      33.163  35.831  29.254  1.00  0.00    -0.246 OA
BRANCH  36  38
ATOM     38  C   UNL A   1      34.542  33.856  29.301  1.00  0.00     0.060 A 
ATOM     39  C   UNL A   1      34.424  32.778  30.186  1.00  0.00     0.016 A 
ATOM     40  C   UNL A   1      35.798  34.156  28.760  1.00  0.00     0.016 A 
ATOM     41  C   UNL A   1      35.547  32.022  30.548  1.00  0.00     0.010 A 
ATOM     42  C   UNL A   1      36.930  33.404  29.140  1.00  0.00     0.010 A 
ATOM     43  C   UNL A   1      36.821  32.346  30.061  1.00  0.00    -0.014 A 
BRANCH  43  44
ATOM     44  C   UNL A   1      38.016  31.643  30.626  1.00  0.00     0.031 A 
ATOM     45  C   UNL A   1      38.428  31.898  32.057  1.00  0.00     0.074 A 
ATOM     46  C   UNL A   1      38.702  30.730  29.909  1.00  0.00     0.049 A 
ATOM     47  N   UNL A   1      39.370  31.324  32.764  1.00  0.00    -0.248 NA
ATOM     48  C   UNL A   1      37.676  32.929  32.788  1.00  0.00     0.031 C 
ATOM     49  C   UNL A   1      38.434  30.371  28.518  1.00  0.00     0.029 A 
ATOM     50  N   UNL A   1      39.777  29.940  30.255  1.00  0.00    -0.354 N 
ATOM     51  C   UNL A   1      39.340  31.934  34.014  1.00  0.00     0.074 A 
ATOM     52  C   UNL A   1      38.291  32.931  33.964  1.00  0.00     0.031 C 
ATOM     53  C   UNL A   1      39.329  29.448  28.124  1.00  0.00     0.029 A 
ATOM     54  C   UNL A   1      40.250  29.159  29.225  1.00  0.00     0.049 A 
ATOM     55  H   UNL A   1      40.172  29.935  31.158  1.00  0.00     0.167 HD
ATOM     56  C   UNL A   1      40.098  31.685  35.109  1.00  0.00     0.034 A 
ATOM     57  C   UNL A   1      41.308  28.323  29.161  1.00  0.00     0.034 A 
ATOM     58  C   UNL A   1      41.135  30.687  35.181  1.00  0.00     0.049 A 
ATOM     59  C   UNL A   1      42.155  28.082  30.386  1.00  0.00     0.074 A 
ATOM     60  C   UNL A   1      41.906  30.330  36.276  1.00  0.00     0.029 A 
ATOM     61  N   UNL A   1      41.570  29.911  34.121  1.00  0.00    -0.354 N 
ATOM     62  N   UNL A   1      42.014  28.564  31.597  1.00  0.00    -0.248 NA
ATOM     63  C   UNL A   1      43.291  27.154  30.245  1.00  0.00     0.031 C 
ATOM     64  C   UNL A   1      42.839  29.373  35.864  1.00  0.00     0.029 A 
ATOM     65  C   UNL A   1      42.616  29.097  34.526  1.00  0.00     0.049 A 
ATOM     66  H   UNL A   1      41.192  29.933  33.212  1.00  0.00     0.167 HD
ATOM     67  C   UNL A   1      43.017  27.975  32.364  1.00  0.00     0.074 A 
ATOM     68  C   UNL A   1      43.744  27.082  31.489  1.00  0.00     0.031 C 
ATOM     69  C   UNL A   1      43.315  28.170  33.672  1.00  0.00     0.034 A 
BRANCH  56  70
ATOM     70  C   UNL A   1      39.836  32.502  36.349  1.00  0.00     0.023 A 
ATOM     71  C   UNL A   1      40.526  33.714  36.551  1.00  0.00     0.012 A 
ATOM     72  C   UNL A   1      38.845  32.108  37.270  1.00  0.00     0.148 A 
ATOM     73  C   UNL A   1      40.254  34.507  37.667  1.00  0.00     0.002 A 
ATOM     74  C   UNL A   1      38.547  32.926  38.354  1.00  0.00     0.091 A 
ATOM     75  F   UNL A   1      38.211  30.944  37.067  1.00  0.00    -0.205 F 
ATOM     76  C   UNL A   1      39.260  34.119  38.560  1.00  0.00     0.022 A 
BRANCH  74  77
ATOM     77  S   UNL A   1      37.228  32.555  39.516  1.00  0.00     0.127 S 
ATOM     78  O   UNL A   1      36.049  32.994  38.771  1.00  0.00    -0.237 OA
ATOM     79  O   UNL A   1      37.350  31.104  39.663  1.00  0.00    -0.237 OA
ATOM     80  O   UNL A   1      37.524  33.317  40.720  1.00  0.00    -0.744 OA
ENDBRANCH  74  77
ENDBRANCH  56  70
BRANCH  57  81
ATOM     81  C   UNL A   1      41.640  27.632  27.879  1.00  0.00     0.023 A 
ATOM     82  C   UNL A   1      42.047  28.379  26.755  1.00  0.00     0.012 A 
ATOM     83  C   UNL A   1      41.533  26.232  27.766  1.00  0.00     0.148 A 
ATOM     84  C   UNL A   1      42.306  27.749  25.537  1.00  0.00     0.002 A 
ATOM     85  C   UNL A   1      41.850  25.605  26.568  1.00  0.00     0.091 A 
ATOM     86  F   UNL A   1      41.118  25.541  28.838  1.00  0.00    -0.205 F 
ATOM     87  C   UNL A   1      42.218  26.363  25.446  1.00  0.00     0.022 A 
BRANCH  85  88
ATOM     88  S   UNL A   1      41.885  23.818  26.397  1.00  0.00     0.127 S 
ATOM     89  O   UNL A   1      40.462  23.495  26.341  1.00  0.00    -0.237 OA
ATOM     90  O   UNL A   1      42.605  23.653  25.135  1.00  0.00    -0.237 OA
ATOM     91  O   UNL A   1      42.599  23.325  27.568  1.00  0.00    -0.744 OA
ENDBRANCH  85  88
ENDBRANCH  57  81
BRANCH  69  92
ATOM     92  C   UNL A   1      44.455  27.380  34.270  1.00  0.00     0.023 A 
ATOM     93  C   UNL A   1      45.774  27.869  34.188  1.00  0.00     0.012 A 
ATOM     94  C   UNL A   1      44.208  26.185  34.975  1.00  0.00     0.148 A 
ATOM     95  C   UNL A   1      46.832  27.162  34.764  1.00  0.00     0.002 A 
ATOM     96  C   UNL A   1      45.260  25.513  35.591  1.00  0.00     0.091 A 
ATOM     97  F   UNL A   1      42.950  25.725  35.033  1.00  0.00    -0.205 F 
ATOM     98  C   UNL A   1      46.573  25.993  35.474  1.00  0.00     0.022 A 
BRANCH  96  99
ATOM     99  S   UNL A   1      45.012  24.052  36.606  1.00  0.00     0.127 S 
ATOM    100  O   UNL A   1      46.387  23.697  36.959  1.00  0.00    -0.237 OA
ATOM    101  O   UNL A   1      44.215  24.577  37.715  1.00  0.00    -0.237 OA
ATOM    102  O   UNL A   1      44.317  23.087  35.764  1.00  0.00    -0.744 OA
ENDBRANCH  96  99
ENDBRANCH  69  92
ENDBRANCH  43  44
ENDBRANCH  36  38
ENDBRANCH  35  36
ENDBRANCH  34  35
ENDBRANCH  33  34
ENDBRANCH  32  33
ENDBRANCH  31  32
ENDBRANCH  30  31
ENDBRANCH   1  30
TORSDOF 27
ENDMDL
MODEL 2
REMARK VINA RESULT:      -9.4      1.151      7.354
REMARK SMILES C[C@H]1C[NH+](CC[C@@H]2CCC[C@]2([NH3+])C(=O)OCCOCCOCCOCCOC(=O)c2ccc(-c3c4nc(c(-c5cccc(S(=O)(=O)[O-])c5F)c5ccc([nH]5)c(-c5cccc(S(=O)(=O)[O-])c5F)c5nc(c(-c6cccc(S(=O)(=O)[O-])c6F)c6ccc3[nH]6)C=C5)C=C4)cc2)C[C@H](C)O1
REMARK SMILES IDX 21 1 20 2 19 3 18 4 17 5 16 6 15 7 13 8 14 9 11 10 7 11 8 12
REMARK SMILES IDX 9 13 10 14 6 15 5 16 4 17 1 18 2 19 3 20 96 21 94 22 93 23
REMARK SMILES IDX 95 25 12 26 22 30 23 31 24 32 25 33 26 34 27 35 28 36 29 37
REMARK SMILES IDX 30 38 31 39 92 40 32 41 91 42 33 43 34 44 35 45 85 46 36 47
REMARK SMILES IDX 90 48 84 49 86 50 37 51 89 52 83 53 82 54 38 56 70 57 50 58
REMARK SMILES IDX 69 59 51 60 54 61 68 62 87 63 52 64 53 65 67 67 88 68 55 69
REMARK SMILES IDX 39 70 40 71 48 72 41 73 43 74 49 75 42 76 44 77 45 78 46 79
REMARK SMILES IDX 47 80 71 81 72 82 80 83 73 84 75 85 81 86 74 87 76 88 77 89
REMARK SMILES IDX 78 90 79 91 56 92 57 93 65 94 58 95 60 96 66 97 59 98 61 99
REMARK SMILES IDX 62 100 63 101 64 102
REMARK H PARENT 4 24 12 27 12 28 12 29 86 55 54 66
REMARK Flexibility Score: inf
ROOT
ATOM      1  O   UNL A   1      30.782  29.864  24.393  1.00  0.00    -0.377 OA
ENDROOT
BRANCH   1   2
ATOM      2  C   UNL A   1      30.809  29.221  23.136  1.00  0.00     0.188 C 
BRANCH   2   3
ATOM      3  C   UNL A   1      32.166  28.659  22.696  1.00  0.00     0.188 C 
BRANCH   3   4
ATOM      4  O   UNL A   1      32.303  27.327  22.224  1.00  0.00    -0.376 OA
BRANCH   4   5
ATOM      5  C   UNL A   1      33.499  26.609  22.482  1.00  0.00     0.202 C 
BRANCH   5   6
ATOM      6  C   UNL A   1      33.978  26.438  23.945  1.00  0.00     0.261 C 
BRANCH   6   7
ATOM      7  O   UNL A   1      32.983  26.444  25.003  1.00  0.00    -0.459 OA
BRANCH   7   8
ATOM      8  C   UNL A   1      32.811  25.269  25.652  1.00  0.00     0.368 C 
ATOM      9  O   UNL A   1      33.745  24.682  26.204  1.00  0.00    -0.245 OA
BRANCH   8  10
ATOM     10  C   UNL A   1      31.374  24.599  25.539  1.00  0.00     0.195 C 
ATOM     11  C   UNL A   1      30.610  24.168  24.208  1.00  0.00     0.068 C 
ATOM     12  C   UNL A   1      29.908  25.453  23.742  1.00  0.00     0.011 C 
ATOM     13  C   UNL A   1      29.940  26.464  24.868  1.00  0.00     0.008 C 
ATOM     14  C   UNL A   1      30.383  25.680  26.086  1.00  0.00     0.081 C 
BRANCH  11  15
ATOM     15  C   UNL A   1      31.281  23.291  23.092  1.00  0.00     0.072 C 
BRANCH  15  16
ATOM     16  C   UNL A   1      32.858  23.128  22.993  1.00  0.00     0.262 C 
BRANCH  16  17
ATOM     17  N   UNL A   1      33.810  22.644  24.032  1.00  0.00    -0.331 N 
ATOM     18  C   UNL A   1      37.605  21.877  24.652  1.00  0.00     0.045 C 
ATOM     19  C   UNL A   1      36.104  22.030  24.842  1.00  0.00     0.170 C 
ATOM     20  C   UNL A   1      35.235  22.514  23.630  1.00  0.00     0.294 C 
ATOM     21  O   UNL A   1      35.641  20.748  25.306  1.00  0.00    -0.364 OA
ATOM     22  C   UNL A   1      34.302  20.846  25.810  1.00  0.00     0.170 C 
ATOM     23  C   UNL A   1      33.370  21.446  24.739  1.00  0.00     0.294 C 
ATOM     24  H   UNL A   1      33.786  23.429  24.683  1.00  0.00     0.348 HD
ATOM     25  C   UNL A   1      34.288  21.529  27.169  1.00  0.00     0.045 C 
ENDBRANCH  16  17
ENDBRANCH  15  16
ENDBRANCH  11  15
BRANCH  10  26
ATOM     26  N   UNL A   1      31.390  23.472  26.504  1.00  0.00    -0.343 N 
ATOM     27  H   UNL A   1      31.757  22.638  26.047  1.00  0.00     0.345 HD
ATOM     28  H   UNL A   1      30.441  23.291  26.832  1.00  0.00     0.345 HD
ATOM     29  H   UNL A   1      31.983  23.713  27.298  1.00  0.00     0.345 HD
ENDBRANCH  10  26
ENDBRANCH   8  10
ENDBRANCH   7   8
ENDBRANCH   6   7
ENDBRANCH   5   6
ENDBRANCH   4   5
ENDBRANCH   3   4
ENDBRANCH   2   3
ENDBRANCH   1   2
BRANCH   1  30
ATOM     30  C   UNL A   1      31.905  29.678  25.226  1.00  0.00     0.188 C 
BRANCH  30  31
ATOM     31  C   UNL A   1      31.973  30.608  26.449  1.00  0.00     0.188 C 
BRANCH  31  32
ATOM     32  O   UNL A   1      31.036  31.678  26.408  1.00  0.00    -0.376 OA
BRANCH  32  33
ATOM     33  C   UNL A   1      31.541  33.003  26.384  1.00  0.00     0.202 C 
BRANCH  33  34
ATOM     34  C   UNL A   1      32.634  33.373  27.387  1.00  0.00     0.261 C 
BRANCH  34  35
ATOM     35  O   UNL A   1      32.338  34.467  28.285  1.00  0.00    -0.460 OA
BRANCH  35  36
ATOM     36  C   UNL A   1      33.322  35.268  28.737  1.00  0.00     0.338 C 
ATOM     37  O   UNL A   1      33.252  36.483  28.864  1.00  0.00    -0.246 OA
BRANCH  36  38
ATOM     38  C   UNL A   1      34.452  34.425  29.221  1.00  0.00     0.060 A 
ATOM     39  C   UNL A   1      34.183  33.446  30.184  1.00  0.00     0.016 A 
ATOM     40  C   UNL A   1      35.766  34.583  28.763  1.00  0.00     0.016 A 
ATOM     41  C   UNL A   1      35.212  32.649  30.703  1.00  0.00     0.010 A 
ATOM     42  C   UNL A   1      36.803  33.791  29.301  1.00  0.00     0.010 A 
ATOM     43  C   UNL A   1      36.541  32.834  30.299  1.00  0.00    -0.014 A 
BRANCH  43  44
ATOM     44  C   UNL A   1      37.630  32.104  31.021  1.00  0.00     0.031 A 
ATOM     45  C   UNL A   1      38.456  31.074  30.287  1.00  0.00     0.074 A 
ATOM     46  C   UNL A   1      37.943  32.389  32.302  1.00  0.00     0.049 A 
ATOM     47  N   UNL A   1      39.502  30.402  30.700  1.00  0.00    -0.248 NA
ATOM     48  C   UNL A   1      38.056  30.768  28.905  1.00  0.00     0.031 C 
ATOM     49  C   UNL A   1      37.243  33.353  33.148  1.00  0.00     0.029 A 
ATOM     50  N   UNL A   1      38.931  31.885  33.119  1.00  0.00    -0.354 N 
ATOM     51  C   UNL A   1      39.874  29.579  29.642  1.00  0.00     0.074 A 
ATOM     52  C   UNL A   1      38.933  29.831  28.569  1.00  0.00     0.031 C 
ATOM     53  C   UNL A   1      37.811  33.357  34.368  1.00  0.00     0.029 A 
ATOM     54  C   UNL A   1      38.903  32.384  34.401  1.00  0.00     0.049 A 
ATOM     55  H   UNL A   1      39.597  31.226  32.813  1.00  0.00     0.167 HD
ATOM     56  C   UNL A   1      40.907  28.705  29.555  1.00  0.00     0.034 A 
ATOM     57  C   UNL A   1      39.653  32.085  35.484  1.00  0.00     0.034 A 
ATOM     58  C   UNL A   1      41.860  28.454  30.605  1.00  0.00     0.049 A 
ATOM     59  C   UNL A   1      40.780  31.088  35.370  1.00  0.00     0.074 A 
ATOM     60  C   UNL A   1      42.974  27.629  30.572  1.00  0.00     0.029 A 
ATOM     61  N   UNL A   1      41.803  28.991  31.880  1.00  0.00    -0.354 N 
ATOM     62  N   UNL A   1      41.202  30.433  34.317  1.00  0.00    -0.248 NA
ATOM     63  C   UNL A   1      41.558  30.815  36.591  1.00  0.00     0.031 C 
ATOM     64  C   UNL A   1      43.561  27.632  31.841  1.00  0.00     0.029 A 
ATOM     65  C   UNL A   1      42.843  28.496  32.650  1.00  0.00     0.049 A 
ATOM     66  H   UNL A   1      41.124  29.631  32.193  1.00  0.00     0.167 HD
ATOM     67  C   UNL A   1      42.307  29.698  34.739  1.00  0.00     0.074 A 
ATOM     68  C   UNL A   1      42.508  30.009  36.137  1.00  0.00     0.031 C 
ATOM     69  C   UNL A   1      43.078  28.835  34.031  1.00  0.00     0.034 A 
BRANCH  56  70
ATOM     70  C   UNL A   1      41.081  27.945  28.264  1.00  0.00     0.023 A 
ATOM     71  C   UNL A   1      41.690  28.570  27.157  1.00  0.00     0.012 A 
ATOM     72  C   UNL A   1      40.719  26.586  28.179  1.00  0.00     0.148 A 
ATOM     73  C   UNL A   1      41.907  27.862  25.974  1.00  0.00     0.002 A 
ATOM     74  C   UNL A   1      40.981  25.875  27.013  1.00  0.00     0.091 A 
ATOM     75  F   UNL A   1      40.129  26.014  29.238  1.00  0.00    -0.205 F 
ATOM     76  C   UNL A   1      41.562  26.515  25.907  1.00  0.00     0.022 A 
BRANCH  74  77
ATOM     77  S   UNL A   1      40.651  24.117  26.855  1.00  0.00     0.127 S 
ATOM     78  O   UNL A   1      41.078  23.618  28.162  1.00  0.00    -0.237 OA
ATOM     79  O   UNL A   1      39.204  24.096  26.640  1.00  0.00    -0.237 OA
ATOM     80  O   UNL A   1      41.443  23.657  25.724  1.00  0.00    -0.744 OA
ENDBRANCH  74  77
ENDBRANCH  56  70
BRANCH  57  81
ATOM     81  C   UNL A   1      39.370  32.743  36.795  1.00  0.00     0.023 A 
ATOM     82  C   UNL A   1      40.040  33.929  37.154  1.00  0.00     0.012 A 
ATOM     83  C   UNL A   1      38.449  32.179  37.699  1.00  0.00     0.148 A 
ATOM     84  C   UNL A   1      39.824  34.521  38.399  1.00  0.00     0.002 A 
ATOM     85  C   UNL A   1      38.193  32.805  38.912  1.00  0.00     0.091 A 
ATOM     86  F   UNL A   1      37.841  31.035  37.352  1.00  0.00    -0.205 F 
ATOM     87  C   UNL A   1      38.893  33.965  39.273  1.00  0.00     0.022 A 
BRANCH  85  88
ATOM     88  S   UNL A   1      36.922  32.229  40.043  1.00  0.00     0.127 S 
ATOM     89  O   UNL A   1      35.700  32.588  39.328  1.00  0.00    -0.237 OA
ATOM     90  O   UNL A   1      37.203  30.795  40.103  1.00  0.00    -0.237 OA
ATOM     91  O   UNL A   1      37.155  32.943  41.292  1.00  0.00    -0.744 OA
ENDBRANCH  85  88
ENDBRANCH  57  81
BRANCH  69  92
ATOM     92  C   UNL A   1      44.243  28.179  34.733  1.00  0.00     0.023 A 
ATOM     93  C   UNL A   1      45.498  28.821  34.770  1.00  0.00     0.012 A 
ATOM     94  C   UNL A   1      44.075  26.958  35.417  1.00  0.00     0.148 A 
ATOM     95  C   UNL A   1      46.574  28.239  35.443  1.00  0.00     0.002 A 
ATOM     96  C   UNL A   1      45.138  26.410  36.128  1.00  0.00     0.091 A 
ATOM     97  F   UNL A   1      42.880  26.353  35.360  1.00  0.00    -0.205 F 
ATOM     98  C   UNL A   1      46.391  27.042  36.131  1.00  0.00     0.022 A 
BRANCH  96  99
ATOM     99  S   UNL A   1      44.973  24.922  37.122  1.00  0.00     0.127 S 
ATOM    100  O   UNL A   1      44.770  23.900  36.096  1.00  0.00    -0.237 OA
ATOM    101  O   UNL A   1      46.267  24.857  37.800  1.00  0.00    -0.237 OA
ATOM    102  O   UNL A   1      43.837  25.150  38.006  1.00  0.00    -0.744 OA
ENDBRANCH  96  99
ENDBRANCH  69  92
ENDBRANCH  43  44
ENDBRANCH  36  38
ENDBRANCH  35  36
ENDBRANCH  34  35
ENDBRANCH  33  34
ENDBRANCH  32  33
ENDBRANCH  31  32
ENDBRANCH  30  31
ENDBRANCH   1  30
TORSDOF 27
ENDMDL
MODEL 3
REMARK VINA RESULT:      -9.1      1.861      2.357
REMARK SMILES C[C@H]1C[NH+](CC[C@@H]2CCC[C@]2([NH3+])C(=O)OCCOCCOCCOCCOC(=O)c2ccc(-c3c4nc(c(-c5cccc(S(=O)(=O)[O-])c5F)c5ccc([nH]5)c(-c5cccc(S(=O)(=O)[O-])c5F)c5nc(c(-c6cccc(S(=O)(=O)[O-])c6F)c6ccc3[nH]6)C=C5)C=C4)cc2)C[C@H](C)O1
REMARK SMILES IDX 21 1 20 2 19 3 18 4 17 5 16 6 15 7 13 8 14 9 11 10 7 11 8 12
REMARK SMILES IDX 9 13 10 14 6 15 5 16 4 17 1 18 2 19 3 20 96 21 94 22 93 23
REMARK SMILES IDX 95 25 12 26 22 30 23 31 24 32 25 33 26 34 27 35 28 36 29 37
REMARK SMILES IDX 30 38 31 39 92 40 32 41 91 42 33 43 34 44 35 45 85 46 36 47
REMARK SMILES IDX 90 48 84 49 86 50 37 51 89 52 83 53 82 54 38 56 70 57 50 58
REMARK SMILES IDX 69 59 51 60 54 61 68 62 87 63 52 64 53 65 67 67 88 68 55 69
REMARK SMILES IDX 39 70 40 71 48 72 41 73 43 74 49 75 42 76 44 77 45 78 46 79
REMARK SMILES IDX 47 80 71 81 72 82 80 83 73 84 75 85 81 86 74 87 76 88 77 89
REMARK SMILES IDX 78 90 79 91 56 92 57 93 65 94 58 95 60 96 66 97 59 98 61 99
REMARK SMILES IDX 62 100 63 101 64 102
REMARK H PARENT 4 24 12 27 12 28 12 29 86 55 54 66
REMARK Flexibility Score: inf
ROOT
ATOM      1  O   UNL A   1      30.883  29.536  24.484  1.00  0.00    -0.377 OA
ENDROOT
BRANCH   1   2
ATOM      2  C   UNL A   1      31.139  29.029  23.191  1.00  0.00     0.188 C 
BRANCH   2   3
ATOM      3  C   UNL A   1      32.580  28.579  22.919  1.00  0.00     0.188 C 
BRANCH   3   4
ATOM      4  O   UNL A   1      32.877  27.272  22.451  1.00  0.00    -0.376 OA
BRANCH   4   5
ATOM      5  C   UNL A   1      33.655  26.398  23.253  1.00  0.00     0.202 C 
BRANCH   5   6
ATOM      6  C   UNL A   1      33.774  26.671  24.773  1.00  0.00     0.261 C 
BRANCH   6   7
ATOM      7  O   UNL A   1      32.656  26.314  25.629  1.00  0.00    -0.459 OA
BRANCH   7   8
ATOM      8  C   UNL A   1      32.480  24.988  25.839  1.00  0.00     0.368 C 
ATOM      9  O   UNL A   1      33.393  24.260  26.237  1.00  0.00    -0.245 OA
BRANCH   8  10
ATOM     10  C   UNL A   1      31.078  24.379  25.402  1.00  0.00     0.195 C 
ATOM     11  C   UNL A   1      30.550  24.137  23.918  1.00  0.00     0.068 C 
ATOM     12  C   UNL A   1      29.948  25.490  23.505  1.00  0.00     0.011 C 
ATOM     13  C   UNL A   1      29.795  26.353  24.739  1.00  0.00     0.008 C 
ATOM     14  C   UNL A   1      30.017  25.414  25.905  1.00  0.00     0.081 C 
BRANCH  11  15
ATOM     15  C   UNL A   1      31.395  23.384  22.829  1.00  0.00     0.072 C 
BRANCH  15  16
ATOM     16  C   UNL A   1      32.956  23.147  23.001  1.00  0.00     0.262 C 
BRANCH  16  17
ATOM     17  N   UNL A   1      33.662  22.258  23.966  1.00  0.00    -0.331 N 
ATOM     18  C   UNL A   1      37.239  21.108  25.086  1.00  0.00     0.045 C 
ATOM     19  C   UNL A   1      35.730  21.261  24.978  1.00  0.00     0.170 C 
ATOM     20  C   UNL A   1      35.144  22.210  23.876  1.00  0.00     0.294 C 
ATOM     21  O   UNL A   1      35.217  19.926  24.808  1.00  0.00    -0.364 OA
ATOM     22  C   UNL A   1      33.796  19.902  24.997  1.00  0.00     0.170 C 
ATOM     23  C   UNL A   1      33.114  20.910  24.052  1.00  0.00     0.294 C 
ATOM     24  H   UNL A   1      33.462  22.743  24.842  1.00  0.00     0.348 HD
ATOM     25  C   UNL A   1      33.448  20.026  26.473  1.00  0.00     0.045 C 
ENDBRANCH  16  17
ENDBRANCH  15  16
ENDBRANCH  11  15
BRANCH  10  26
ATOM     26  N   UNL A   1      30.920  23.142  26.206  1.00  0.00    -0.343 N 
ATOM     27  H   UNL A   1      30.259  22.518  25.744  1.00  0.00     0.345 HD
ATOM     28  H   UNL A   1      30.570  23.383  27.134  1.00  0.00     0.345 HD
ATOM     29  H   UNL A   1      31.823  22.677  26.295  1.00  0.00     0.345 HD
ENDBRANCH  10  26
ENDBRANCH   8  10
ENDBRANCH   7   8
ENDBRANCH   6   7
ENDBRANCH   5   6
ENDBRANCH   4   5
ENDBRANCH   3   4
ENDBRANCH   2   3
ENDBRANCH   1   2
BRANCH   1  30
ATOM     30  C   UNL A   1      31.998  29.720  25.328  1.00  0.00     0.188 C 
BRANCH  30  31
ATOM     31  C   UNL A   1      31.789  30.715  26.481  1.00  0.00     0.188 C 
BRANCH  31  32
ATOM     32  O   UNL A   1      30.957  31.819  26.141  1.00  0.00    -0.376 OA
BRANCH  32  33
ATOM     33  C   UNL A   1      31.400  33.118  26.497  1.00  0.00     0.202 C 
BRANCH  33  34
ATOM     34  C   UNL A   1      32.669  33.239  27.342  1.00  0.00     0.261 C 
BRANCH  34  35
ATOM     35  O   UNL A   1      32.525  33.883  28.628  1.00  0.00    -0.460 OA
BRANCH  35  36
ATOM     36  C   UNL A   1      33.488  34.701  29.097  1.00  0.00     0.338 C 
ATOM     37  O   UNL A   1      33.350  35.886  29.365  1.00  0.00    -0.246 OA
BRANCH  36  38
ATOM     38  C   UNL A   1      34.705  33.895  29.400  1.00  0.00     0.060 A 
ATOM     39  C   UNL A   1      34.579  32.807  30.271  1.00  0.00     0.016 A 
ATOM     40  C   UNL A   1      35.964  34.192  28.862  1.00  0.00     0.016 A 
ATOM     41  C   UNL A   1      35.696  32.037  30.622  1.00  0.00     0.010 A 
ATOM     42  C   UNL A   1      37.090  33.425  29.232  1.00  0.00     0.010 A 
ATOM     43  C   UNL A   1      36.972  32.356  30.139  1.00  0.00    -0.014 A 
BRANCH  43  44
ATOM     44  C   UNL A   1      38.161  31.636  30.694  1.00  0.00     0.031 A 
ATOM     45  C   UNL A   1      38.676  31.988  32.070  1.00  0.00     0.074 A 
ATOM     46  C   UNL A   1      38.751  30.625  30.023  1.00  0.00     0.049 A 
ATOM     47  N   UNL A   1      39.629  31.423  32.769  1.00  0.00    -0.248 NA
ATOM     48  C   UNL A   1      38.028  33.120  32.748  1.00  0.00     0.031 C 
ATOM     49  C   UNL A   1      38.376  30.164  28.688  1.00  0.00     0.029 A 
ATOM     50  N   UNL A   1      39.802  29.806  30.376  1.00  0.00    -0.354 N 
ATOM     51  C   UNL A   1      39.710  32.139  33.959  1.00  0.00     0.074 A 
ATOM     52  C   UNL A   1      38.715  33.189  33.881  1.00  0.00     0.031 C 
ATOM     53  C   UNL A   1      39.194  29.159  28.327  1.00  0.00     0.029 A 
ATOM     54  C   UNL A   1      40.166  28.913  29.393  1.00  0.00     0.049 A 
ATOM     55  H   UNL A   1      40.252  29.856  31.250  1.00  0.00     0.167 HD
ATOM     56  C   UNL A   1      40.522  31.941  35.026  1.00  0.00     0.034 A 
ATOM     57  C   UNL A   1      41.172  28.013  29.343  1.00  0.00     0.034 A 
ATOM     58  C   UNL A   1      41.507  30.895  35.127  1.00  0.00     0.049 A 
ATOM     59  C   UNL A   1      42.081  27.830  30.534  1.00  0.00     0.074 A 
ATOM     60  C   UNL A   1      42.325  30.589  36.202  1.00  0.00     0.029 A 
ATOM     61  N   UNL A   1      41.832  30.006  34.117  1.00  0.00    -0.354 N 
ATOM     62  N   UNL A   1      42.043  28.422  31.703  1.00  0.00    -0.248 NA
ATOM     63  C   UNL A   1      43.154  26.829  30.410  1.00  0.00     0.031 C 
ATOM     64  C   UNL A   1      43.178  29.547  35.824  1.00  0.00     0.029 A 
ATOM     65  C   UNL A   1      42.856  29.170  34.532  1.00  0.00     0.049 A 
ATOM     66  H   UNL A   1      41.398  29.971  33.233  1.00  0.00     0.167 HD
ATOM     67  C   UNL A   1      43.060  27.844  32.459  1.00  0.00     0.074 A 
ATOM     68  C   UNL A   1      43.680  26.837  31.627  1.00  0.00     0.031 C 
ATOM     69  C   UNL A   1      43.450  28.133  33.725  1.00  0.00     0.034 A 
BRANCH  56  70
ATOM     70  C   UNL A   1      40.383  32.876  36.201  1.00  0.00     0.023 A 
ATOM     71  C   UNL A   1      39.410  32.624  37.189  1.00  0.00     0.012 A 
ATOM     72  C   UNL A   1      41.274  33.955  36.368  1.00  0.00     0.148 A 
ATOM     73  C   UNL A   1      39.306  33.451  38.309  1.00  0.00     0.002 A 
ATOM     74  C   UNL A   1      41.195  34.745  37.508  1.00  0.00     0.091 A 
ATOM     75  F   UNL A   1      42.184  34.186  35.410  1.00  0.00    -0.205 F 
ATOM     76  C   UNL A   1      40.203  34.502  38.473  1.00  0.00     0.022 A 
BRANCH  74  77
ATOM     77  S   UNL A   1      42.356  36.072  37.853  1.00  0.00     0.127 S 
ATOM     78  O   UNL A   1      43.602  35.329  38.046  1.00  0.00    -0.237 OA
ATOM     79  O   UNL A   1      42.300  36.855  36.619  1.00  0.00    -0.237 OA
ATOM     80  O   UNL A   1      41.850  36.756  39.034  1.00  0.00    -0.744 OA
ENDBRANCH  74  77
ENDBRANCH  56  70
BRANCH  57  81
ATOM     81  C   UNL A   1      41.385  27.197  28.111  1.00  0.00     0.023 A 
ATOM     82  C   UNL A   1      41.996  27.769  26.977  1.00  0.00     0.012 A 
ATOM     83  C   UNL A   1      40.962  25.854  28.055  1.00  0.00     0.148 A 
ATOM     84  C   UNL A   1      42.150  27.030  25.803  1.00  0.00     0.002 A 
ATOM     85  C   UNL A   1      41.171  25.107  26.903  1.00  0.00     0.091 A 
ATOM     86  F   UNL A   1      40.358  25.335  29.134  1.00  0.00    -0.205 F 
ATOM     87  C   UNL A   1      41.747  25.698  25.769  1.00  0.00     0.022 A 
BRANCH  85  88
ATOM     88  S   UNL A   1      40.799  23.352  26.813  1.00  0.00     0.127 S 
ATOM     89  O   UNL A   1      41.212  22.891  28.135  1.00  0.00    -0.237 OA
ATOM     90  O   UNL A   1      39.354  23.366  26.587  1.00  0.00    -0.237 OA
ATOM     91  O   UNL A   1      41.580  22.842  25.694  1.00  0.00    -0.744 OA
ENDBRANCH  85  88
ENDBRANCH  57  81
BRANCH  69  92
ATOM     92  C   UNL A   1      44.581  27.332  34.323  1.00  0.00     0.023 A 
ATOM     93  C   UNL A   1      45.911  27.783  34.199  1.00  0.00     0.012 A 
ATOM     94  C   UNL A   1      44.319  26.166  35.071  1.00  0.00     0.148 A 
ATOM     95  C   UNL A   1      46.962  27.067  34.775  1.00  0.00     0.002 A 
ATOM     96  C   UNL A   1      45.366  25.487  35.686  1.00  0.00     0.091 A 
ATOM     97  F   UNL A   1      43.051  25.742  35.170  1.00  0.00    -0.205 F 
ATOM     98  C   UNL A   1      46.688  25.927  35.527  1.00  0.00     0.022 A 
BRANCH  96  99
ATOM     99  S   UNL A   1      45.102  24.064  36.753  1.00  0.00     0.127 S 
ATOM    100  O   UNL A   1      44.208  24.616  37.770  1.00  0.00    -0.237 OA
ATOM    101  O   UNL A   1      44.473  23.108  35.843  1.00  0.00    -0.237 OA
ATOM    102  O   UNL A   1      46.421  23.668  37.231  1.00  0.00    -0.744 OA
ENDBRANCH  96  99
ENDBRANCH  69  92
ENDBRANCH  43  44
ENDBRANCH  36  38
ENDBRANCH  35  36
ENDBRANCH  34  35
ENDBRANCH  33  34
ENDBRANCH  32  33
ENDBRANCH  31  32
ENDBRANCH  30  31
ENDBRANCH   1  30
TORSDOF 27
ENDMDL
