MODEL 1
REMARK VINA RESULT:      -8.2      0.000      0.000
REMARK SMILES O=C(OCCOCCOCCOCCOC(=O)[C@@H]1CC=CC[C@H]1C(=O)N1CC[NH+](Cc2ccc3c(c2)OCO3)CC1)c1ccc(-c2c3nc(c(-c4cccc(S(=O)(=O)[O-])c4F)c4ccc([nH]4)c(-c4cccc(S(=O)(=O)[O-])c4F)c4nc(c(-c5cccc(S(=O)(=O)[O-])c5F)c5ccc2[nH]5)C=C4)C=C3)cc1
REMARK SMILES IDX 9 1 8 2 7 3 6 4 5 5 4 6 3 7 2 8 1 9 42 10 43 11 104 12 44 13
REMARK SMILES IDX 103 14 45 15 46 16 47 17 97 18 48 19 102 20 96 21 98 22
REMARK SMILES IDX 49 23 101 24 95 25 94 26 50 28 82 29 62 30 81 31 63 32 66 33
REMARK SMILES IDX 80 34 99 35 64 36 65 37 79 39 100 40 67 41 51 42 52 43 60 44
REMARK SMILES IDX 53 45 55 46 61 47 54 48 56 49 57 50 58 51 59 52 83 53 84 54
REMARK SMILES IDX 92 55 85 56 87 57 93 58 86 59 88 60 89 61 90 62 91 63 68 64
REMARK SMILES IDX 69 65 77 66 70 67 72 68 78 69 71 70 73 71 74 72 75 73 76 74
REMARK SMILES IDX 10 75 11 76 12 77 13 78 14 79 15 80 16 81 17 82 18 83 19 84
REMARK SMILES IDX 23 85 20 86 22 87 21 88 24 89 25 90 26 91 27 92 41 93 28 94
REMARK SMILES IDX 40 95 29 96 30 98 31 99 32 100 36 101 33 102 35 103 34 104
REMARK SMILES IDX 37 105 39 106 38 107
REMARK H PARENT 98 27 66 38 29 97
REMARK Flexibility Score: inf
ROOT
ATOM      1  O   UNL A   1      42.517  21.791  26.560  1.00  0.00    -0.377 OA
ENDROOT
BRANCH   1   2
ATOM      2  C   UNL A   1      43.153  22.901  25.937  1.00  0.00     0.188 C 
BRANCH   2   3
ATOM      3  C   UNL A   1      43.798  22.736  24.589  1.00  0.00     0.188 C 
BRANCH   3   4
ATOM      4  O   UNL A   1      44.829  23.669  24.307  1.00  0.00    -0.376 OA
BRANCH   4   5
ATOM      5  C   UNL A   1      44.744  24.876  25.039  1.00  0.00     0.202 C 
BRANCH   5   6
ATOM      6  C   UNL A   1      46.103  25.364  25.529  1.00  0.00     0.261 C 
BRANCH   6   7
ATOM      7  O   UNL A   1      46.989  25.767  24.453  1.00  0.00    -0.460 OA
BRANCH   7   8
ATOM      8  C   UNL A   1      47.185  27.090  24.158  1.00  0.00     0.338 C 
ATOM      9  O   UNL A   1      47.774  27.459  23.152  1.00  0.00    -0.246 OA
BRANCH   8  10
ATOM     10  C   UNL A   1      46.725  28.045  25.188  1.00  0.00     0.060 A 
ATOM     11  C   UNL A   1      47.696  28.600  25.986  1.00  0.00     0.016 A 
ATOM     12  C   UNL A   1      45.398  28.313  25.475  1.00  0.00     0.016 A 
ATOM     13  C   UNL A   1      47.378  29.021  27.261  1.00  0.00     0.010 A 
ATOM     14  C   UNL A   1      45.093  29.067  26.628  1.00  0.00     0.010 A 
ATOM     15  C   UNL A   1      46.079  29.376  27.593  1.00  0.00    -0.014 A 
BRANCH  15  16
ATOM     16  C   UNL A   1      45.797  30.058  28.907  1.00  0.00     0.031 A 
ATOM     17  C   UNL A   1      45.917  29.281  30.197  1.00  0.00     0.074 A 
ATOM     18  C   UNL A   1      45.432  31.366  28.986  1.00  0.00     0.049 A 
ATOM     19  N   UNL A   1      45.400  29.543  31.369  1.00  0.00    -0.248 NA
ATOM     20  C   UNL A   1      46.716  28.043  30.172  1.00  0.00     0.031 C 
ATOM     21  C   UNL A   1      45.353  32.323  27.874  1.00  0.00     0.029 A 
ATOM     22  N   UNL A   1      45.032  32.130  30.067  1.00  0.00    -0.354 N 
ATOM     23  C   UNL A   1      45.697  28.447  32.171  1.00  0.00     0.074 A 
ATOM     24  C   UNL A   1      46.505  27.547  31.382  1.00  0.00     0.031 C 
ATOM     25  C   UNL A   1      45.008  33.533  28.326  1.00  0.00     0.029 A 
ATOM     26  C   UNL A   1      44.603  33.394  29.709  1.00  0.00     0.049 A 
ATOM     27  H   UNL A   1      45.051  31.805  30.997  1.00  0.00     0.167 HD
ATOM     28  C   UNL A   1      45.297  28.198  33.439  1.00  0.00     0.034 A 
ATOM     29  C   UNL A   1      43.831  34.301  30.341  1.00  0.00     0.034 A 
ATOM     30  C   UNL A   1      44.539  29.121  34.233  1.00  0.00     0.049 A 
ATOM     31  C   UNL A   1      43.311  33.965  31.703  1.00  0.00     0.074 A 
ATOM     32  C   UNL A   1      44.091  28.970  35.534  1.00  0.00     0.029 A 
ATOM     33  N   UNL A   1      44.102  30.361  33.798  1.00  0.00    -0.354 N 
ATOM     34  N   UNL A   1      43.571  32.916  32.444  1.00  0.00    -0.248 NA
ATOM     35  C   UNL A   1      42.375  34.920  32.310  1.00  0.00     0.031 C 
ATOM     36  C   UNL A   1      43.341  30.102  35.867  1.00  0.00     0.029 A 
ATOM     37  C   UNL A   1      43.358  30.973  34.790  1.00  0.00     0.049 A 
ATOM     38  H   UNL A   1      44.292  30.750  32.914  1.00  0.00     0.167 HD
ATOM     39  C   UNL A   1      42.835  33.086  33.607  1.00  0.00     0.074 A 
ATOM     40  C   UNL A   1      42.148  34.356  33.489  1.00  0.00     0.031 C 
ATOM     41  C   UNL A   1      42.717  32.253  34.667  1.00  0.00     0.034 A 
BRANCH  28  42
ATOM     42  C   UNL A   1      45.600  26.846  34.024  1.00  0.00     0.023 A 
ATOM     43  C   UNL A   1      46.785  26.618  34.747  1.00  0.00     0.012 A 
ATOM     44  C   UNL A   1      44.648  25.812  33.904  1.00  0.00     0.148 A 
ATOM     45  C   UNL A   1      47.027  25.373  35.328  1.00  0.00     0.002 A 
ATOM     46  C   UNL A   1      44.876  24.590  34.521  1.00  0.00     0.091 A 
ATOM     47  F   UNL A   1      43.540  26.047  33.188  1.00  0.00    -0.205 F 
ATOM     48  C   UNL A   1      46.068  24.365  35.226  1.00  0.00     0.022 A 
BRANCH  46  49
ATOM     49  S   UNL A   1      43.672  23.257  34.504  1.00  0.00     0.127 S 
ATOM     50  O   UNL A   1      43.665  22.886  33.090  1.00  0.00    -0.237 OA
ATOM     51  O   UNL A   1      44.296  22.274  35.390  1.00  0.00    -0.237 OA
ATOM     52  O   UNL A   1      42.428  23.827  35.001  1.00  0.00    -0.744 OA
ENDBRANCH  46  49
ENDBRANCH  28  42
BRANCH  29  53
ATOM     53  C   UNL A   1      43.391  35.546  29.631  1.00  0.00     0.023 A 
ATOM     54  C   UNL A   1      42.303  35.504  28.741  1.00  0.00     0.012 A 
ATOM     55  C   UNL A   1      44.037  36.783  29.857  1.00  0.00     0.148 A 
ATOM     56  C   UNL A   1      41.879  36.660  28.080  1.00  0.00     0.002 A 
ATOM     57  C   UNL A   1      43.556  37.943  29.261  1.00  0.00     0.091 A 
ATOM     58  F   UNL A   1      45.102  36.809  30.671  1.00  0.00    -0.205 F 
ATOM     59  C   UNL A   1      42.491  37.882  28.354  1.00  0.00     0.022 A 
BRANCH  57  60
ATOM     60  S   UNL A   1      44.177  39.568  29.713  1.00  0.00     0.127 S 
ATOM     61  O   UNL A   1      43.566  40.418  28.696  1.00  0.00    -0.237 OA
ATOM     62  O   UNL A   1      43.639  39.740  31.064  1.00  0.00    -0.237 OA
ATOM     63  O   UNL A   1      45.630  39.454  29.667  1.00  0.00    -0.744 OA
ENDBRANCH  57  60
ENDBRANCH  29  53
BRANCH  41  64
ATOM     64  C   UNL A   1      41.838  32.699  35.798  1.00  0.00     0.023 A 
ATOM     65  C   UNL A   1      42.380  33.469  36.845  1.00  0.00     0.012 A 
ATOM     66  C   UNL A   1      40.459  32.419  35.775  1.00  0.00     0.148 A 
ATOM     67  C   UNL A   1      41.560  33.939  37.868  1.00  0.00     0.002 A 
ATOM     68  C   UNL A   1      39.641  32.935  36.770  1.00  0.00     0.091 A 
ATOM     69  F   UNL A   1      39.976  31.666  34.776  1.00  0.00    -0.205 F 
ATOM     70  C   UNL A   1      40.191  33.684  37.823  1.00  0.00     0.022 A 
BRANCH  68  71
ATOM     71  S   UNL A   1      37.857  32.743  36.740  1.00  0.00     0.127 S 
ATOM     72  O   UNL A   1      37.707  31.315  37.019  1.00  0.00    -0.237 OA
ATOM     73  O   UNL A   1      37.435  33.626  37.827  1.00  0.00    -0.237 OA
ATOM     74  O   UNL A   1      37.426  33.164  35.414  1.00  0.00    -0.744 OA
ENDBRANCH  68  71
ENDBRANCH  41  64
ENDBRANCH  15  16
ENDBRANCH   8  10
ENDBRANCH   7   8
ENDBRANCH   6   7
ENDBRANCH   5   6
ENDBRANCH   4   5
ENDBRANCH   3   4
ENDBRANCH   2   3
ENDBRANCH   1   2
BRANCH   1  75
ATOM     75  C   UNL A   1      41.146  21.492  26.341  1.00  0.00     0.188 C 
BRANCH  75  76
ATOM     76  C   UNL A   1      40.103  22.543  26.706  1.00  0.00     0.188 C 
BRANCH  76  77
ATOM     77  O   UNL A   1      40.520  23.546  27.604  1.00  0.00    -0.376 OA
BRANCH  77  78
ATOM     78  C   UNL A   1      39.606  24.552  28.024  1.00  0.00     0.202 C 
BRANCH  78  79
ATOM     79  C   UNL A   1      39.880  26.054  27.775  1.00  0.00     0.261 C 
BRANCH  79  80
ATOM     80  O   UNL A   1      40.294  26.836  28.943  1.00  0.00    -0.463 OA
BRANCH  80  81
ATOM     81  C   UNL A   1      39.407  27.742  29.412  1.00  0.00     0.310 C 
ATOM     82  O   UNL A   1      38.363  27.394  29.973  1.00  0.00    -0.252 OA
BRANCH  81  83
ATOM     83  C   UNL A   1      39.688  29.263  29.222  1.00  0.00     0.115 C 
ATOM     84  C   UNL A   1      41.243  29.180  29.093  1.00  0.00     0.043 C 
ATOM     85  C   UNL A   1      39.211  30.377  30.205  1.00  0.00     0.097 C 
ATOM     86  C   UNL A   1      42.063  30.390  29.328  1.00  0.00    -0.030 C 
ATOM     87  C   UNL A   1      40.166  31.607  30.332  1.00  0.00     0.041 C 
ATOM     88  C   UNL A   1      41.579  31.481  29.908  1.00  0.00    -0.030 C 
BRANCH  85  89
ATOM     89  C   UNL A   1      37.857  31.179  30.176  1.00  0.00     0.227 C 
ATOM     90  O   UNL A   1      37.870  32.247  30.821  1.00  0.00    -0.275 OA
ATOM     91  N   UNL A   1      36.804  30.983  29.277  1.00  0.00    -0.331 N 
ATOM     92  C   UNL A   1      35.848  32.102  29.120  1.00  0.00     0.181 C 
ATOM     93  C   UNL A   1      36.264  29.687  28.862  1.00  0.00     0.181 C 
ATOM     94  C   UNL A   1      35.060  32.119  27.799  1.00  0.00     0.284 C 
ATOM     95  C   UNL A   1      35.449  29.710  27.546  1.00  0.00     0.284 C 
ATOM     96  N   UNL A   1      34.534  30.827  27.412  1.00  0.00    -0.328 N 
ATOM     97  H   UNL A   1      34.480  30.893  26.395  1.00  0.00     0.348 HD
BRANCH  96  98
ATOM     98  C   UNL A   1      33.109  30.627  27.233  1.00  0.00     0.299 C 
BRANCH  98  99
ATOM     99  C   UNL A   1      32.706  29.452  26.371  1.00  0.00     0.010 A 
ATOM    100  C   UNL A   1      32.118  28.300  26.947  1.00  0.00     0.013 A 
ATOM    101  C   UNL A   1      32.872  29.509  24.976  1.00  0.00     0.060 A 
ATOM    102  C   UNL A   1      31.711  27.220  26.151  1.00  0.00     0.051 A 
ATOM    103  C   UNL A   1      32.504  28.413  24.224  1.00  0.00     0.166 A 
ATOM    104  C   UNL A   1      31.945  27.298  24.796  1.00  0.00     0.165 A 
ATOM    105  O   UNL A   1      32.684  28.275  22.884  1.00  0.00    -0.454 OA
ATOM    106  O   UNL A   1      31.729  26.307  23.892  1.00  0.00    -0.454 OA
ATOM    107  C   UNL A   1      32.325  26.886  22.708  1.00  0.00     0.468 C 
ENDBRANCH  98  99
ENDBRANCH  96  98
ENDBRANCH  85  89
ENDBRANCH  81  83
ENDBRANCH  80  81
ENDBRANCH  79  80
ENDBRANCH  78  79
ENDBRANCH  77  78
ENDBRANCH  76  77
ENDBRANCH  75  76
ENDBRANCH   1  75
TORSDOF 26
ENDMDL
MODEL 2
REMARK VINA RESULT:      -8.0      3.272      5.371
REMARK SMILES O=C(OCCOCCOCCOCCOC(=O)[C@@H]1CC=CC[C@H]1C(=O)N1CC[NH+](Cc2ccc3c(c2)OCO3)CC1)c1ccc(-c2c3nc(c(-c4cccc(S(=O)(=O)[O-])c4F)c4ccc([nH]4)c(-c4cccc(S(=O)(=O)[O-])c4F)c4nc(c(-c5cccc(S(=O)(=O)[O-])c5F)c5ccc2[nH]5)C=C4)C=C3)cc1
REMARK SMILES IDX 9 1 8 2 7 3 6 4 5 5 4 6 3 7 2 8 1 9 42 10 43 11 104 12 44 13
REMARK SMILES IDX 103 14 45 15 46 16 47 17 97 18 48 19 102 20 96 21 98 22
REMARK SMILES IDX 49 23 101 24 95 25 94 26 50 28 82 29 62 30 81 31 63 32 66 33
REMARK SMILES IDX 80 34 99 35 64 36 65 37 79 39 100 40 67 41 51 42 52 43 60 44
REMARK SMILES IDX 53 45 55 46 61 47 54 48 56 49 57 50 58 51 59 52 83 53 84 54
REMARK SMILES IDX 92 55 85 56 87 57 93 58 86 59 88 60 89 61 90 62 91 63 68 64
REMARK SMILES IDX 69 65 77 66 70 67 72 68 78 69 71 70 73 71 74 72 75 73 76 74
REMARK SMILES IDX 10 75 11 76 12 77 13 78 14 79 15 80 16 81 17 82 18 83 19 84
REMARK SMILES IDX 23 85 20 86 22 87 21 88 24 89 25 90 26 91 27 92 41 93 28 94
REMARK SMILES IDX 40 95 29 96 30 98 31 99 32 100 36 101 33 102 35 103 34 104
REMARK SMILES IDX 37 105 39 106 38 107
REMARK H PARENT 98 27 66 38 29 97
REMARK Flexibility Score: inf
ROOT
ATOM      1  O   UNL A   1      49.115  25.637  25.760  1.00  0.00    -0.377 OA
ENDROOT
BRANCH   1   2
ATOM      2  C   UNL A   1      50.024  26.311  24.898  1.00  0.00     0.188 C 
BRANCH   2   3
ATOM      3  C   UNL A   1      51.203  27.044  25.476  1.00  0.00     0.188 C 
BRANCH   3   4
ATOM      4  O   UNL A   1      52.397  26.281  25.551  1.00  0.00    -0.376 OA
BRANCH   4   5
ATOM      5  C   UNL A   1      52.884  26.083  26.864  1.00  0.00     0.202 C 
BRANCH   5   6
ATOM      6  C   UNL A   1      51.767  25.990  27.898  1.00  0.00     0.261 C 
BRANCH   6   7
ATOM      7  O   UNL A   1      52.058  26.710  29.123  1.00  0.00    -0.460 OA
BRANCH   7   8
ATOM      8  C   UNL A   1      52.129  28.078  29.139  1.00  0.00     0.338 C 
ATOM      9  O   UNL A   1      53.190  28.682  29.098  1.00  0.00    -0.246 OA
BRANCH   8  10
ATOM     10  C   UNL A   1      50.838  28.778  29.309  1.00  0.00     0.060 A 
ATOM     11  C   UNL A   1      50.774  29.706  30.320  1.00  0.00     0.016 A 
ATOM     12  C   UNL A   1      49.680  28.474  28.614  1.00  0.00     0.016 A 
ATOM     13  C   UNL A   1      49.562  29.987  30.918  1.00  0.00     0.010 A 
ATOM     14  C   UNL A   1      48.466  29.060  29.031  1.00  0.00     0.010 A 
ATOM     15  C   UNL A   1      48.367  29.775  30.246  1.00  0.00    -0.014 A 
BRANCH  15  16
ATOM     16  C   UNL A   1      47.078  30.308  30.815  1.00  0.00     0.031 A 
ATOM     17  C   UNL A   1      46.344  29.523  31.876  1.00  0.00     0.074 A 
ATOM     18  C   UNL A   1      46.535  31.487  30.409  1.00  0.00     0.049 A 
ATOM     19  N   UNL A   1      45.091  29.599  32.241  1.00  0.00    -0.248 NA
ATOM     20  C   UNL A   1      47.112  28.512  32.625  1.00  0.00     0.031 C 
ATOM     21  C   UNL A   1      47.127  32.449  29.470  1.00  0.00     0.029 A 
ATOM     22  N   UNL A   1      45.327  32.082  30.725  1.00  0.00    -0.354 N 
ATOM     23  C   UNL A   1      44.895  28.569  33.154  1.00  0.00     0.074 A 
ATOM     24  C   UNL A   1      46.172  27.924  33.350  1.00  0.00     0.031 C 
ATOM     25  C   UNL A   1      46.337  33.520  29.342  1.00  0.00     0.029 A 
ATOM     26  C   UNL A   1      45.075  33.224  29.987  1.00  0.00     0.049 A 
ATOM     27  H   UNL A   1      44.710  31.729  31.406  1.00  0.00     0.167 HD
ATOM     28  C   UNL A   1      43.744  28.172  33.742  1.00  0.00     0.034 A 
ATOM     29  C   UNL A   1      43.937  33.892  29.711  1.00  0.00     0.034 A 
ATOM     30  C   UNL A   1      42.490  28.851  33.582  1.00  0.00     0.049 A 
ATOM     31  C   UNL A   1      42.656  33.378  30.287  1.00  0.00     0.074 A 
ATOM     32  C   UNL A   1      41.265  28.538  34.144  1.00  0.00     0.029 A 
ATOM     33  N   UNL A   1      42.296  29.971  32.790  1.00  0.00    -0.354 N 
ATOM     34  N   UNL A   1      42.473  32.388  31.125  1.00  0.00    -0.248 NA
ATOM     35  C   UNL A   1      41.421  34.054  29.868  1.00  0.00     0.031 C 
ATOM     36  C   UNL A   1      40.319  29.442  33.651  1.00  0.00     0.029 A 
ATOM     37  C   UNL A   1      40.965  30.342  32.818  1.00  0.00     0.049 A 
ATOM     38  H   UNL A   1      43.001  30.435  32.283  1.00  0.00     0.167 HD
ATOM     39  C   UNL A   1      41.104  32.323  31.337  1.00  0.00     0.074 A 
ATOM     40  C   UNL A   1      40.508  33.398  30.570  1.00  0.00     0.031 C 
ATOM     41  C   UNL A   1      40.399  31.438  32.079  1.00  0.00     0.034 A 
BRANCH  28  42
ATOM     42  C   UNL A   1      43.762  26.905  34.552  1.00  0.00     0.023 A 
ATOM     43  C   UNL A   1      43.495  25.660  33.954  1.00  0.00     0.012 A 
ATOM     44  C   UNL A   1      44.118  26.962  35.915  1.00  0.00     0.148 A 
ATOM     45  C   UNL A   1      43.567  24.488  34.708  1.00  0.00     0.002 A 
ATOM     46  C   UNL A   1      44.229  25.788  36.648  1.00  0.00     0.091 A 
ATOM     47  F   UNL A   1      44.341  28.163  36.465  1.00  0.00    -0.205 F 
ATOM     48  C   UNL A   1      43.946  24.551  36.049  1.00  0.00     0.022 A 
BRANCH  46  49
ATOM     49  S   UNL A   1      44.777  25.763  38.358  1.00  0.00     0.127 S 
ATOM     50  O   UNL A   1      46.072  26.437  38.262  1.00  0.00    -0.237 OA
ATOM     51  O   UNL A   1      43.732  26.541  39.022  1.00  0.00    -0.237 OA
ATOM     52  O   UNL A   1      44.837  24.361  38.745  1.00  0.00    -0.744 OA
ENDBRANCH  46  49
ENDBRANCH  28  42
BRANCH  29  53
ATOM     53  C   UNL A   1      43.944  35.029  28.734  1.00  0.00     0.023 A 
ATOM     54  C   UNL A   1      43.761  34.781  27.362  1.00  0.00     0.012 A 
ATOM     55  C   UNL A   1      44.108  36.364  29.167  1.00  0.00     0.148 A 
ATOM     56  C   UNL A   1      43.758  35.833  26.442  1.00  0.00     0.002 A 
ATOM     57  C   UNL A   1      44.019  37.411  28.258  1.00  0.00     0.091 A 
ATOM     58  F   UNL A   1      44.329  36.591  30.470  1.00  0.00    -0.205 F 
ATOM     59  C   UNL A   1      43.867  37.148  26.891  1.00  0.00     0.022 A 
BRANCH  57  60
ATOM     60  S   UNL A   1      43.965  39.127  28.791  1.00  0.00     0.127 S 
ATOM     61  O   UNL A   1      43.789  39.831  27.524  1.00  0.00    -0.237 OA
ATOM     62  O   UNL A   1      42.795  39.141  29.670  1.00  0.00    -0.237 OA
ATOM     63  O   UNL A   1      45.227  39.357  29.484  1.00  0.00    -0.744 OA
ENDBRANCH  57  60
ENDBRANCH  29  53
BRANCH  41  64
ATOM     64  C   UNL A   1      38.909  31.608  32.125  1.00  0.00     0.023 A 
ATOM     65  C   UNL A   1      38.087  30.808  31.308  1.00  0.00     0.012 A 
ATOM     66  C   UNL A   1      38.328  32.505  33.040  1.00  0.00     0.148 A 
ATOM     67  C   UNL A   1      36.700  30.916  31.387  1.00  0.00     0.002 A 
ATOM     68  C   UNL A   1      36.946  32.568  33.150  1.00  0.00     0.091 A 
ATOM     69  F   UNL A   1      39.137  33.267  33.790  1.00  0.00    -0.205 F 
ATOM     70  C   UNL A   1      36.132  31.784  32.317  1.00  0.00     0.022 A 
BRANCH  68  71
ATOM     71  S   UNL A   1      36.128  33.581  34.385  1.00  0.00     0.127 S 
ATOM     72  O   UNL A   1      36.603  34.920  34.034  1.00  0.00    -0.237 OA
ATOM     73  O   UNL A   1      34.715  33.337  34.095  1.00  0.00    -0.237 OA
ATOM     74  O   UNL A   1      36.576  33.084  35.679  1.00  0.00    -0.744 OA
ENDBRANCH  68  71
ENDBRANCH  41  64
ENDBRANCH  15  16
ENDBRANCH   8  10
ENDBRANCH   7   8
ENDBRANCH   6   7
ENDBRANCH   5   6
ENDBRANCH   4   5
ENDBRANCH   3   4
ENDBRANCH   2   3
ENDBRANCH   1   2
BRANCH   1  75
ATOM     75  C   UNL A   1      47.719  25.605  25.502  1.00  0.00     0.188 C 
BRANCH  75  76
ATOM     76  C   UNL A   1      47.157  24.452  24.675  1.00  0.00     0.188 C 
BRANCH  76  77
ATOM     77  O   UNL A   1      46.562  23.400  25.400  1.00  0.00    -0.376 OA
BRANCH  77  78
ATOM     78  C   UNL A   1      45.765  22.433  24.728  1.00  0.00     0.202 C 
BRANCH  78  79
ATOM     79  C   UNL A   1      44.482  22.830  23.959  1.00  0.00     0.261 C 
BRANCH  79  80
ATOM     80  O   UNL A   1      43.212  22.525  24.624  1.00  0.00    -0.463 OA
BRANCH  80  81
ATOM     81  C   UNL A   1      43.049  23.013  25.873  1.00  0.00     0.310 C 
ATOM     82  O   UNL A   1      43.358  22.352  26.870  1.00  0.00    -0.252 OA
BRANCH  81  83
ATOM     83  C   UNL A   1      42.432  24.430  26.071  1.00  0.00     0.115 C 
ATOM     84  C   UNL A   1      43.766  25.242  26.110  1.00  0.00     0.043 C 
ATOM     85  C   UNL A   1      41.447  24.809  27.221  1.00  0.00     0.097 C 
ATOM     86  C   UNL A   1      43.782  26.595  26.710  1.00  0.00    -0.030 C 
ATOM     87  C   UNL A   1      41.561  26.279  27.738  1.00  0.00     0.041 C 
ATOM     88  C   UNL A   1      42.792  27.055  27.464  1.00  0.00    -0.030 C 
BRANCH  85  89
ATOM     89  C   UNL A   1      39.875  24.722  27.218  1.00  0.00     0.227 C 
ATOM     90  O   UNL A   1      39.294  25.770  27.564  1.00  0.00    -0.275 OA
ATOM     91  N   UNL A   1      39.107  23.739  26.585  1.00  0.00    -0.331 N 
ATOM     92  C   UNL A   1      37.691  24.076  26.314  1.00  0.00     0.181 C 
ATOM     93  C   UNL A   1      39.376  22.300  26.604  1.00  0.00     0.181 C 
ATOM     94  C   UNL A   1      37.026  23.275  25.182  1.00  0.00     0.284 C 
ATOM     95  C   UNL A   1      38.685  21.493  25.477  1.00  0.00     0.284 C 
ATOM     96  N   UNL A   1      37.303  21.855  25.223  1.00  0.00    -0.328 N 
ATOM     97  H   UNL A   1      37.223  21.573  24.245  1.00  0.00     0.348 HD
BRANCH  96  98
ATOM     98  C   UNL A   1      36.229  20.890  25.340  1.00  0.00     0.299 C 
BRANCH  98  99
ATOM     99  C   UNL A   1      34.825  21.453  25.324  1.00  0.00     0.010 A 
ATOM    100  C   UNL A   1      34.133  21.637  24.101  1.00  0.00     0.013 A 
ATOM    101  C   UNL A   1      34.172  21.761  26.530  1.00  0.00     0.060 A 
ATOM    102  C   UNL A   1      32.820  22.127  24.079  1.00  0.00     0.051 A 
ATOM    103  C   UNL A   1      32.897  22.283  26.474  1.00  0.00     0.166 A 
ATOM    104  C   UNL A   1      32.242  22.468  25.283  1.00  0.00     0.165 A 
ATOM    105  O   UNL A   1      32.171  22.716  27.539  1.00  0.00    -0.454 OA
ATOM    106  O   UNL A   1      31.033  23.064  25.445  1.00  0.00    -0.454 OA
ATOM    107  C   UNL A   1      31.055  23.339  26.865  1.00  0.00     0.468 C 
ENDBRANCH  98  99
ENDBRANCH  96  98
ENDBRANCH  85  89
ENDBRANCH  81  83
ENDBRANCH  80  81
ENDBRANCH  79  80
ENDBRANCH  78  79
ENDBRANCH  77  78
ENDBRANCH  76  77
ENDBRANCH  75  76
ENDBRANCH   1  75
TORSDOF 26
ENDMDL
MODEL 3
REMARK VINA RESULT:      -7.9      3.228     11.967
REMARK SMILES O=C(OCCOCCOCCOCCOC(=O)[C@@H]1CC=CC[C@H]1C(=O)N1CC[NH+](Cc2ccc3c(c2)OCO3)CC1)c1ccc(-c2c3nc(c(-c4cccc(S(=O)(=O)[O-])c4F)c4ccc([nH]4)c(-c4cccc(S(=O)(=O)[O-])c4F)c4nc(c(-c5cccc(S(=O)(=O)[O-])c5F)c5ccc2[nH]5)C=C4)C=C3)cc1
REMARK SMILES IDX 9 1 8 2 7 3 6 4 5 5 4 6 3 7 2 8 1 9 42 10 43 11 104 12 44 13
REMARK SMILES IDX 103 14 45 15 46 16 47 17 97 18 48 19 102 20 96 21 98 22
REMARK SMILES IDX 49 23 101 24 95 25 94 26 50 28 82 29 62 30 81 31 63 32 66 33
REMARK SMILES IDX 80 34 99 35 64 36 65 37 79 39 100 40 67 41 51 42 52 43 60 44
REMARK SMILES IDX 53 45 55 46 61 47 54 48 56 49 57 50 58 51 59 52 83 53 84 54
REMARK SMILES IDX 92 55 85 56 87 57 93 58 86 59 88 60 89 61 90 62 91 63 68 64
REMARK SMILES IDX 69 65 77 66 70 67 72 68 78 69 71 70 73 71 74 72 75 73 76 74
REMARK SMILES IDX 10 75 11 76 12 77 13 78 14 79 15 80 16 81 17 82 18 83 19 84
REMARK SMILES IDX 23 85 20 86 22 87 21 88 24 89 25 90 26 91 27 92 41 93 28 94
REMARK SMILES IDX 40 95 29 96 30 98 31 99 32 100 36 101 33 102 35 103 34 104
REMARK SMILES IDX 37 105 39 106 38 107
REMARK H PARENT 98 27 66 38 29 97
REMARK Flexibility Score: inf
ROOT
ATOM      1  O   UNL A   1      37.787  33.235  32.645  1.00  0.00    -0.377 OA
ENDROOT
BRANCH   1   2
ATOM      2  C   UNL A   1      37.200  34.142  31.719  1.00  0.00     0.188 C 
BRANCH   2   3
ATOM      3  C   UNL A   1      35.728  34.066  31.425  1.00  0.00     0.188 C 
BRANCH   3   4
ATOM      4  O   UNL A   1      35.389  34.194  30.053  1.00  0.00    -0.376 OA
BRANCH   4   5
ATOM      5  C   UNL A   1      34.048  33.866  29.748  1.00  0.00     0.202 C 
BRANCH   5   6
ATOM      6  C   UNL A   1      33.846  33.521  28.276  1.00  0.00     0.261 C 
BRANCH   6   7
ATOM      7  O   UNL A   1      34.921  32.719  27.723  1.00  0.00    -0.460 OA
BRANCH   7   8
ATOM      8  C   UNL A   1      34.915  31.354  27.840  1.00  0.00     0.338 C 
ATOM      9  O   UNL A   1      33.896  30.688  27.725  1.00  0.00    -0.246 OA
BRANCH   8  10
ATOM     10  C   UNL A   1      36.208  30.743  28.216  1.00  0.00     0.060 A 
ATOM     11  C   UNL A   1      36.670  31.018  29.480  1.00  0.00     0.016 A 
ATOM     12  C   UNL A   1      37.024  30.035  27.351  1.00  0.00     0.016 A 
ATOM     13  C   UNL A   1      38.026  30.996  29.734  1.00  0.00     0.010 A 
ATOM     14  C   UNL A   1      38.329  29.703  27.770  1.00  0.00     0.010 A 
ATOM     15  C   UNL A   1      38.889  30.245  28.950  1.00  0.00    -0.014 A 
BRANCH  15  16
ATOM     16  C   UNL A   1      40.317  30.041  29.384  1.00  0.00     0.031 A 
ATOM     17  C   UNL A   1      41.142  31.226  29.830  1.00  0.00     0.074 A 
ATOM     18  C   UNL A   1      40.909  28.817  29.392  1.00  0.00     0.049 A 
ATOM     19  N   UNL A   1      42.442  31.345  29.903  1.00  0.00    -0.248 NA
ATOM     20  C   UNL A   1      40.418  32.441  30.244  1.00  0.00     0.031 C 
ATOM     21  C   UNL A   1      40.266  27.530  29.095  1.00  0.00     0.029 A 
ATOM     22  N   UNL A   1      42.217  28.446  29.646  1.00  0.00    -0.354 N 
ATOM     23  C   UNL A   1      42.685  32.673  30.237  1.00  0.00     0.074 A 
ATOM     24  C   UNL A   1      41.403  33.307  30.429  1.00  0.00     0.031 C 
ATOM     25  C   UNL A   1      41.138  26.529  29.248  1.00  0.00     0.029 A 
ATOM     26  C   UNL A   1      42.456  27.105  29.413  1.00  0.00     0.049 A 
ATOM     27  H   UNL A   1      42.907  29.075  29.963  1.00  0.00     0.167 HD
ATOM     28  C   UNL A   1      43.873  33.313  30.334  1.00  0.00     0.034 A 
ATOM     29  C   UNL A   1      43.591  26.413  29.190  1.00  0.00     0.034 A 
ATOM     30  C   UNL A   1      45.145  32.663  30.193  1.00  0.00     0.049 A 
ATOM     31  C   UNL A   1      44.889  27.157  29.199  1.00  0.00     0.074 A 
ATOM     32  C   UNL A   1      46.408  33.219  30.283  1.00  0.00     0.029 A 
ATOM     33  N   UNL A   1      45.315  31.317  29.915  1.00  0.00    -0.354 N 
ATOM     34  N   UNL A   1      45.110  28.416  29.487  1.00  0.00    -0.248 NA
ATOM     35  C   UNL A   1      46.092  26.397  28.832  1.00  0.00     0.031 C 
ATOM     36  C   UNL A   1      47.343  32.215  30.012  1.00  0.00     0.029 A 
ATOM     37  C   UNL A   1      46.661  31.028  29.794  1.00  0.00     0.049 A 
ATOM     38  H   UNL A   1      44.586  30.663  29.818  1.00  0.00     0.167 HD
ATOM     39  C   UNL A   1      46.477  28.600  29.340  1.00  0.00     0.074 A 
ATOM     40  C   UNL A   1      47.038  27.315  28.975  1.00  0.00     0.031 C 
ATOM     41  C   UNL A   1      47.200  29.736  29.470  1.00  0.00     0.034 A 
BRANCH  28  42
ATOM     42  C   UNL A   1      43.861  34.804  30.527  1.00  0.00     0.023 A 
ATOM     43  C   UNL A   1      43.880  35.678  29.425  1.00  0.00     0.012 A 
ATOM     44  C   UNL A   1      43.759  35.331  31.831  1.00  0.00     0.148 A 
ATOM     45  C   UNL A   1      43.815  37.058  29.619  1.00  0.00     0.002 A 
ATOM     46  C   UNL A   1      43.651  36.702  32.015  1.00  0.00     0.091 A 
ATOM     47  F   UNL A   1      43.769  34.477  32.864  1.00  0.00    -0.205 F 
ATOM     48  C   UNL A   1      43.688  37.569  30.911  1.00  0.00     0.022 A 
BRANCH  46  49
ATOM     49  S   UNL A   1      43.415  37.447  33.632  1.00  0.00     0.127 S 
ATOM     50  O   UNL A   1      42.363  36.601  34.194  1.00  0.00    -0.237 OA
ATOM     51  O   UNL A   1      44.732  37.270  34.242  1.00  0.00    -0.237 OA
ATOM     52  O   UNL A   1      43.033  38.831  33.390  1.00  0.00    -0.744 OA
ENDBRANCH  46  49
ENDBRANCH  28  42
BRANCH  29  53
ATOM     53  C   UNL A   1      43.532  24.966  28.801  1.00  0.00     0.023 A 
ATOM     54  C   UNL A   1      43.394  23.975  29.789  1.00  0.00     0.012 A 
ATOM     55  C   UNL A   1      43.588  24.571  27.446  1.00  0.00     0.148 A 
ATOM     56  C   UNL A   1      43.330  22.624  29.438  1.00  0.00     0.002 A 
ATOM     57  C   UNL A   1      43.439  23.233  27.099  1.00  0.00     0.091 A 
ATOM     58  F   UNL A   1      43.767  25.515  26.510  1.00  0.00    -0.205 F 
ATOM     59  C   UNL A   1      43.332  22.254  28.095  1.00  0.00     0.022 A 
BRANCH  57  60
ATOM     60  S   UNL A   1      43.247  22.712  25.389  1.00  0.00     0.127 S 
ATOM     61  O   UNL A   1      44.316  21.728  25.252  1.00  0.00    -0.237 OA
ATOM     62  O   UNL A   1      41.893  22.156  25.386  1.00  0.00    -0.237 OA
ATOM     63  O   UNL A   1      43.388  23.928  24.597  1.00  0.00    -0.744 OA
ENDBRANCH  57  60
ENDBRANCH  29  53
BRANCH  41  64
ATOM     64  C   UNL A   1      48.681  29.640  29.247  1.00  0.00     0.023 A 
ATOM     65  C   UNL A   1      49.524  29.249  30.305  1.00  0.00     0.012 A 
ATOM     66  C   UNL A   1      49.220  29.858  27.965  1.00  0.00     0.148 A 
ATOM     67  C   UNL A   1      50.893  29.098  30.092  1.00  0.00     0.002 A 
ATOM     68  C   UNL A   1      50.575  29.654  27.750  1.00  0.00     0.091 A 
ATOM     69  F   UNL A   1      48.393  30.248  26.984  1.00  0.00    -0.205 F 
ATOM     70  C   UNL A   1      51.414  29.286  28.814  1.00  0.00     0.022 A 
BRANCH  68  71
ATOM     71  S   UNL A   1      51.316  29.775  26.120  1.00  0.00     0.127 S 
ATOM     72  O   UNL A   1      52.689  29.345  26.385  1.00  0.00    -0.237 OA
ATOM     73  O   UNL A   1      50.515  28.825  25.347  1.00  0.00    -0.237 OA
ATOM     74  O   UNL A   1      51.171  31.165  25.711  1.00  0.00    -0.744 OA
ENDBRANCH  68  71
ENDBRANCH  41  64
ENDBRANCH  15  16
ENDBRANCH   8  10
ENDBRANCH   7   8
ENDBRANCH   6   7
ENDBRANCH   5   6
ENDBRANCH   4   5
ENDBRANCH   3   4
ENDBRANCH   2   3
ENDBRANCH   1   2
BRANCH   1  75
ATOM     75  C   UNL A   1      37.025  32.230  33.297  1.00  0.00     0.188 C 
BRANCH  75  76
ATOM     76  C   UNL A   1      37.721  31.335  34.317  1.00  0.00     0.188 C 
BRANCH  76  77
ATOM     77  O   UNL A   1      37.404  31.570  35.670  1.00  0.00    -0.376 OA
BRANCH  77  78
ATOM     78  C   UNL A   1      38.415  31.991  36.576  1.00  0.00     0.202 C 
BRANCH  78  79
ATOM     79  C   UNL A   1      38.323  33.342  37.326  1.00  0.00     0.261 C 
BRANCH  79  80
ATOM     80  O   UNL A   1      38.857  34.510  36.619  1.00  0.00    -0.463 OA
BRANCH  80  81
ATOM     81  C   UNL A   1      39.744  35.274  37.292  1.00  0.00     0.310 C 
ATOM     82  O   UNL A   1      39.822  36.492  37.103  1.00  0.00    -0.252 OA
BRANCH  81  83
ATOM     83  C   UNL A   1      40.713  34.608  38.314  1.00  0.00     0.115 C 
ATOM     84  C   UNL A   1      40.966  35.858  39.218  1.00  0.00     0.043 C 
ATOM     85  C   UNL A   1      42.024  33.856  37.924  1.00  0.00     0.097 C 
ATOM     86  C   UNL A   1      42.157  35.898  40.096  1.00  0.00    -0.030 C 
ATOM     87  C   UNL A   1      43.188  33.965  38.960  1.00  0.00     0.041 C 
ATOM     88  C   UNL A   1      43.171  35.053  39.965  1.00  0.00    -0.030 C 
BRANCH  85  89
ATOM     89  C   UNL A   1      42.200  32.328  37.588  1.00  0.00     0.227 C 
ATOM     90  O   UNL A   1      42.245  31.578  38.584  1.00  0.00    -0.275 OA
ATOM     91  N   UNL A   1      41.992  31.730  36.341  1.00  0.00    -0.331 N 
ATOM     92  C   UNL A   1      41.764  30.267  36.336  1.00  0.00     0.181 C 
ATOM     93  C   UNL A   1      42.446  32.259  35.054  1.00  0.00     0.181 C 
ATOM     94  C   UNL A   1      41.018  29.719  35.108  1.00  0.00     0.284 C 
ATOM     95  C   UNL A   1      41.709  31.687  33.817  1.00  0.00     0.284 C 
ATOM     96  N   UNL A   1      41.485  30.254  33.847  1.00  0.00    -0.328 N 
ATOM     97  H   UNL A   1      40.663  30.190  33.247  1.00  0.00     0.348 HD
BRANCH  96  98
ATOM     98  C   UNL A   1      42.008  29.380  32.816  1.00  0.00     0.299 C 
BRANCH  98  99
ATOM     99  C   UNL A   1      43.136  28.462  33.232  1.00  0.00     0.010 A 
ATOM    100  C   UNL A   1      44.294  28.978  33.863  1.00  0.00     0.013 A 
ATOM    101  C   UNL A   1      43.027  27.074  33.034  1.00  0.00     0.060 A 
ATOM    102  C   UNL A   1      45.329  28.130  34.281  1.00  0.00     0.051 A 
ATOM    103  C   UNL A   1      44.081  26.270  33.415  1.00  0.00     0.166 A 
ATOM    104  C   UNL A   1      45.203  26.784  34.015  1.00  0.00     0.165 A 
ATOM    105  O   UNL A   1      44.170  24.929  33.210  1.00  0.00    -0.454 OA
ATOM    106  O   UNL A   1      46.149  25.837  34.238  1.00  0.00    -0.454 OA
ATOM    107  C   UNL A   1      45.539  24.689  33.602  1.00  0.00     0.468 C 
ENDBRANCH  98  99
ENDBRANCH  96  98
ENDBRANCH  85  89
ENDBRANCH  81  83
ENDBRANCH  80  81
ENDBRANCH  79  80
ENDBRANCH  78  79
ENDBRANCH  77  78
ENDBRANCH  76  77
ENDBRANCH  75  76
ENDBRANCH   1  75
TORSDOF 26
ENDMDL
