MODEL 1
REMARK VINA RESULT:      -5.3      0.000      0.000
REMARK SMILES O=C(N[C@@H](Cc1ccc(O)cc1)C(=O)N[C@@H](Cc1c[nH]c2ccccc12)C(=O)N[C@@H](CO)C(=O)OCCOCCOCCOCCOC(=O)c1ccc(-c2c3nc(c(-c4cccc(S(=O)(=O)[O-])c4F)c4ccc([nH]4)c(-c4cccc(S(=O)(=O)[O-])c4F)c4nc(c(-c5cccc(S(=O)(=O)[O-])c5F)c5ccc2[nH]5)C=C4)C=C3)cc1)c1ccc(F)cc1
REMARK SMILES IDX 39 1 38 2 37 3 36 4 35 5 33 6 34 7 30 8 29 9 27 10 28 11
REMARK SMILES IDX 16 13 15 14 13 15 14 16 4 18 3 19 1 20 2 21 113 23 114 24
REMARK SMILES IDX 119 25 115 26 118 27 116 28 117 29 5 30 6 31 7 32 12 33 8 34
REMARK SMILES IDX 11 35 9 36 10 37 17 39 18 40 19 41 26 42 20 43 21 44 25 45
REMARK SMILES IDX 22 47 24 48 23 49 31 50 32 51 40 53 41 54 42 55 43 56 44 57
REMARK SMILES IDX 45 58 46 59 47 60 48 61 49 62 50 63 51 64 112 65 52 66
REMARK SMILES IDX 111 67 53 68 54 69 55 70 105 71 56 72 110 73 104 74 106 75
REMARK SMILES IDX 57 76 109 77 103 78 102 79 58 81 90 82 70 83 89 84 71 85
REMARK SMILES IDX 74 86 88 87 107 88 72 89 73 90 87 92 108 93 75 94 59 95
REMARK SMILES IDX 60 96 68 97 61 98 63 99 69 100 62 101 64 102 65 103 66 104
REMARK SMILES IDX 67 105 91 106 92 107 100 108 93 109 95 110 101 111 94 112
REMARK SMILES IDX 96 113 97 114 98 115 99 116 76 117 77 118 85 119 78 120
REMARK SMILES IDX 80 121 86 122 79 123 81 124 82 125 83 126 84 127
REMARK H PARENT 29 12 15 17 3 22 10 38 20 46 32 52 106 80 74 91
REMARK Flexibility Score: inf
ROOT
ATOM      1  C   UNL A   1      38.493  31.346  29.838  1.00  0.00     0.188 C 
ENDROOT
BRANCH   1   2
ATOM      2  O   UNL A   1      39.289  30.441  29.109  1.00  0.00    -0.376 OA
BRANCH   2   3
ATOM      3  C   UNL A   1      38.722  29.669  28.060  1.00  0.00     0.202 C 
BRANCH   3   4
ATOM      4  C   UNL A   1      38.479  28.140  28.046  1.00  0.00     0.261 C 
BRANCH   4   5
ATOM      5  O   UNL A   1      39.543  27.240  28.435  1.00  0.00    -0.462 OA
BRANCH   5   6
ATOM      6  C   UNL A   1      40.898  27.456  27.852  1.00  0.00     0.331 C 
ATOM      7  O   UNL A   1      40.808  26.914  26.704  1.00  0.00    -0.250 OA
BRANCH   6   8
ATOM      8  C   UNL A   1      42.577  28.417  28.891  1.00  0.00     0.218 C 
BRANCH   8   9
ATOM      9  N   UNL A   1      43.329  28.050  30.389  1.00  0.00    -0.339 N 
ATOM     10  C   UNL A   1      43.815  26.935  30.974  1.00  0.00     0.243 C 
ATOM     11  O   UNL A   1      43.592  26.943  32.202  1.00  0.00    -0.273 OA
ATOM     12  H   UNL A   1      43.430  28.845  30.960  1.00  0.00     0.164 HD
BRANCH  10  13
ATOM     13  C   UNL A   1      44.679  25.716  30.391  1.00  0.00     0.175 C 
BRANCH  13  14
ATOM     14  N   UNL A   1      46.045  26.255  30.281  1.00  0.00    -0.342 N 
ATOM     15  C   UNL A   1      47.079  25.999  31.164  1.00  0.00     0.243 C 
ATOM     16  O   UNL A   1      48.180  25.753  30.654  1.00  0.00    -0.273 OA
ATOM     17  H   UNL A   1      46.239  26.844  29.516  1.00  0.00     0.164 HD
BRANCH  15  18
ATOM     18  C   UNL A   1      46.966  26.130  32.736  1.00  0.00     0.176 C 
BRANCH  18  19
ATOM     19  N   UNL A   1      47.743  25.080  33.406  1.00  0.00    -0.340 N 
ATOM     20  O   UNL A   1      48.050  23.219  34.659  1.00  0.00    -0.269 OA
ATOM     21  C   UNL A   1      47.271  24.025  34.159  1.00  0.00     0.251 C 
ATOM     22  H   UNL A   1      48.721  25.136  33.304  1.00  0.00     0.164 HD
BRANCH  21  23
ATOM     23  C   UNL A   1      45.818  23.891  34.444  1.00  0.00     0.040 A 
ATOM     24  C   UNL A   1      45.052  22.844  33.915  1.00  0.00     0.017 A 
ATOM     25  C   UNL A   1      45.210  24.864  35.248  1.00  0.00     0.017 A 
ATOM     26  C   UNL A   1      43.667  22.830  34.104  1.00  0.00     0.040 A 
ATOM     27  C   UNL A   1      43.827  24.834  35.453  1.00  0.00     0.040 A 
ATOM     28  C   UNL A   1      43.066  23.830  34.861  1.00  0.00     0.123 A 
ATOM     29  F   UNL A   1      41.737  23.828  35.024  1.00  0.00    -0.207 F 
ENDBRANCH  21  23
ENDBRANCH  18  19
BRANCH  18  30
ATOM     30  C   UNL A   1      46.847  27.491  33.519  1.00  0.00     0.070 C 
BRANCH  30  31
ATOM     31  C   UNL A   1      46.774  28.833  32.814  1.00  0.00    -0.045 A 
ATOM     32  C   UNL A   1      45.576  29.518  32.826  1.00  0.00     0.007 A 
ATOM     33  C   UNL A   1      47.862  29.546  32.305  1.00  0.00     0.007 A 
ATOM     34  C   UNL A   1      45.322  30.699  32.148  1.00  0.00     0.046 A 
ATOM     35  C   UNL A   1      47.673  30.826  31.739  1.00  0.00     0.046 A 
ATOM     36  C   UNL A   1      46.398  31.370  31.628  1.00  0.00     0.115 A 
BRANCH  36  37
ATOM     37  O   UNL A   1      46.231  32.607  31.091  1.00  0.00    -0.508 OA
ATOM     38  H   UNL A   1      46.094  33.346  31.649  1.00  0.00     0.293 HD
ENDBRANCH  36  37
ENDBRANCH  30  31
ENDBRANCH  18  30
ENDBRANCH  15  18
ENDBRANCH  13  14
BRANCH  13  39
ATOM     39  C   UNL A   1      44.537  24.212  30.689  1.00  0.00     0.072 C 
BRANCH  39  40
ATOM     40  C   UNL A   1      44.097  23.388  29.555  1.00  0.00    -0.020 A 
ATOM     41  C   UNL A   1      42.937  22.635  29.441  1.00  0.00     0.087 A 
ATOM     42  C   UNL A   1      44.759  23.375  28.312  1.00  0.00     0.003 A 
ATOM     43  N   UNL A   1      42.572  22.374  28.128  1.00  0.00    -0.361 N 
ATOM     44  C   UNL A   1      43.404  23.035  27.266  1.00  0.00     0.046 A 
ATOM     45  C   UNL A   1      46.258  24.132  27.646  1.00  0.00     0.010 A 
ATOM     46  H   UNL A   1      41.824  21.795  27.855  1.00  0.00     0.166 HD
ATOM     47  C   UNL A   1      43.479  23.478  25.524  1.00  0.00     0.026 A 
ATOM     48  C   UNL A   1      46.352  24.563  25.892  1.00  0.00     0.001 A 
ATOM     49  C   UNL A   1      44.995  24.166  24.839  1.00  0.00     0.002 A 
ENDBRANCH  39  40
ENDBRANCH  13  39
ENDBRANCH  10  13
ENDBRANCH   8   9
BRANCH   8  50
ATOM     50  C   UNL A   1      44.076  29.126  28.288  1.00  0.00     0.193 C 
BRANCH  50  51
ATOM     51  O   UNL A   1      45.160  28.241  28.012  1.00  0.00    -0.394 OA
ATOM     52  H   UNL A   1      45.265  27.619  28.748  1.00  0.00     0.210 HD
ENDBRANCH  50  51
ENDBRANCH   8  50
ENDBRANCH   6   8
ENDBRANCH   5   6
ENDBRANCH   4   5
ENDBRANCH   3   4
ENDBRANCH   2   3
ENDBRANCH   1   2
BRANCH   1  53
ATOM     53  C   UNL A   1      37.485  30.676  30.771  1.00  0.00     0.188 C 
BRANCH  53  54
ATOM     54  O   UNL A   1      36.172  31.217  30.825  1.00  0.00    -0.377 OA
BRANCH  54  55
ATOM     55  C   UNL A   1      35.715  31.764  32.056  1.00  0.00     0.188 C 
BRANCH  55  56
ATOM     56  C   UNL A   1      34.566  32.776  31.982  1.00  0.00     0.188 C 
BRANCH  56  57
ATOM     57  O   UNL A   1      34.864  34.123  31.609  1.00  0.00    -0.376 OA
BRANCH  57  58
ATOM     58  C   UNL A   1      35.275  35.050  32.608  1.00  0.00     0.202 C 
BRANCH  58  59
ATOM     59  C   UNL A   1      35.274  34.505  34.032  1.00  0.00     0.261 C 
BRANCH  59  60
ATOM     60  O   UNL A   1      36.502  34.808  34.714  1.00  0.00    -0.460 OA
BRANCH  60  61
ATOM     61  C   UNL A   1      37.318  33.742  34.890  1.00  0.00     0.338 C 
ATOM     62  O   UNL A   1      37.000  32.612  35.218  1.00  0.00    -0.246 OA
BRANCH  61  63
ATOM     63  C   UNL A   1      38.685  34.083  34.468  1.00  0.00     0.060 A 
ATOM     64  C   UNL A   1      39.198  33.447  33.330  1.00  0.00     0.016 A 
ATOM     65  C   UNL A   1      39.491  34.906  35.256  1.00  0.00     0.016 A 
ATOM     66  C   UNL A   1      40.547  33.560  33.021  1.00  0.00     0.010 A 
ATOM     67  C   UNL A   1      40.850  35.002  34.956  1.00  0.00     0.010 A 
ATOM     68  C   UNL A   1      41.386  34.279  33.875  1.00  0.00    -0.014 A 
BRANCH  68  69
ATOM     69  C   UNL A   1      42.846  34.075  33.778  1.00  0.00     0.031 A 
ATOM     70  C   UNL A   1      43.468  32.986  34.607  1.00  0.00     0.074 A 
ATOM     71  C   UNL A   1      43.593  34.835  32.961  1.00  0.00     0.049 A 
ATOM     72  N   UNL A   1      44.727  32.670  34.749  1.00  0.00    -0.248 NA
ATOM     73  C   UNL A   1      42.545  32.139  35.385  1.00  0.00     0.031 C 
ATOM     74  C   UNL A   1      43.083  35.891  32.090  1.00  0.00     0.029 A 
ATOM     75  N   UNL A   1      44.950  34.850  32.761  1.00  0.00    -0.354 N 
ATOM     76  C   UNL A   1      44.753  31.626  35.665  1.00  0.00     0.074 A 
ATOM     77  C   UNL A   1      43.384  31.355  36.044  1.00  0.00     0.031 C 
ATOM     78  C   UNL A   1      44.121  36.487  31.479  1.00  0.00     0.029 A 
ATOM     79  C   UNL A   1      45.364  35.877  31.949  1.00  0.00     0.049 A 
ATOM     80  H   UNL A   1      45.564  34.193  33.159  1.00  0.00     0.167 HD
ATOM     81  C   UNL A   1      45.824  30.954  36.144  1.00  0.00     0.034 A 
ATOM     82  C   UNL A   1      46.609  36.302  31.659  1.00  0.00     0.034 A 
ATOM     83  C   UNL A   1      47.178  31.226  35.749  1.00  0.00     0.049 A 
ATOM     84  C   UNL A   1      47.786  35.562  32.238  1.00  0.00     0.074 A 
ATOM     85  C   UNL A   1      48.334  30.571  36.134  1.00  0.00     0.029 A 
ATOM     86  N   UNL A   1      47.561  32.250  34.898  1.00  0.00    -0.354 N 
ATOM     87  N   UNL A   1      47.797  34.513  33.026  1.00  0.00    -0.248 NA
ATOM     88  C   UNL A   1      49.123  36.044  31.864  1.00  0.00     0.031 C 
ATOM     89  C   UNL A   1      49.420  31.236  35.559  1.00  0.00     0.029 A 
ATOM     90  C   UNL A   1      48.937  32.264  34.765  1.00  0.00     0.049 A 
ATOM     91  H   UNL A   1      46.944  32.876  34.454  1.00  0.00     0.167 HD
ATOM     92  C   UNL A   1      49.135  34.186  33.209  1.00  0.00     0.074 A 
ATOM     93  C   UNL A   1      49.905  35.139  32.435  1.00  0.00     0.031 C 
ATOM     94  C   UNL A   1      49.682  33.194  33.955  1.00  0.00     0.034 A 
BRANCH  81  95
ATOM     95  C   UNL A   1      45.580  29.871  37.163  1.00  0.00     0.023 A 
ATOM     96  C   UNL A   1      45.293  28.555  36.751  1.00  0.00     0.012 A 
ATOM     97  C   UNL A   1      45.694  30.155  38.539  1.00  0.00     0.148 A 
ATOM     98  C   UNL A   1      45.094  27.545  37.692  1.00  0.00     0.002 A 
ATOM     99  C   UNL A   1      45.545  29.134  39.468  1.00  0.00     0.091 A 
ATOM    100  F   UNL A   1      45.942  31.418  38.912  1.00  0.00    -0.205 F 
ATOM    101  C   UNL A   1      45.232  27.831  39.047  1.00  0.00     0.022 A 
BRANCH  99 102
ATOM    102  S   UNL A   1      45.786  29.384  41.230  1.00  0.00     0.127 S 
ATOM    103  O   UNL A   1      44.705  30.317  41.545  1.00  0.00    -0.237 OA
ATOM    104  O   UNL A   1      45.600  28.032  41.757  1.00  0.00    -0.237 OA
ATOM    105  O   UNL A   1      47.132  29.919  41.381  1.00  0.00    -0.744 OA
ENDBRANCH  99 102
ENDBRANCH  81  95
BRANCH  82 106
ATOM    106  C   UNL A   1      46.805  37.492  30.786  1.00  0.00     0.023 A 
ATOM    107  C   UNL A   1      46.874  38.777  31.356  1.00  0.00     0.012 A 
ATOM    108  C   UNL A   1      46.930  37.350  29.391  1.00  0.00     0.148 A 
ATOM    109  C   UNL A   1      47.027  39.904  30.547  1.00  0.00     0.002 A 
ATOM    110  C   UNL A   1      47.145  38.469  28.597  1.00  0.00     0.091 A 
ATOM    111  F   UNL A   1      46.850  36.118  28.869  1.00  0.00    -0.205 F 
ATOM    112  C   UNL A   1      47.172  39.750  29.170  1.00  0.00     0.022 A 
BRANCH 110 113
ATOM    113  S   UNL A   1      47.478  38.352  26.837  1.00  0.00     0.127 S 
ATOM    114  O   UNL A   1      48.622  37.444  26.809  1.00  0.00    -0.237 OA
ATOM    115  O   UNL A   1      46.225  37.785  26.335  1.00  0.00    -0.237 OA
ATOM    116  O   UNL A   1      47.741  39.714  26.394  1.00  0.00    -0.744 OA
ENDBRANCH 110 113
ENDBRANCH  82 106
BRANCH  94 117
ATOM    117  C   UNL A   1      51.181  33.041  33.927  1.00  0.00     0.023 A 
ATOM    118  C   UNL A   1      51.797  32.247  32.941  1.00  0.00     0.012 A 
ATOM    119  C   UNL A   1      51.982  33.756  34.841  1.00  0.00     0.148 A 
ATOM    120  C   UNL A   1      53.186  32.135  32.889  1.00  0.00     0.002 A 
ATOM    121  C   UNL A   1      53.365  33.684  34.747  1.00  0.00     0.091 A 
ATOM    122  F   UNL A   1      51.374  34.494  35.780  1.00  0.00    -0.205 F 
ATOM    123  C   UNL A   1      53.969  32.862  33.783  1.00  0.00     0.022 A 
BRANCH 121 124
ATOM    124  S   UNL A   1      54.453  34.665  35.787  1.00  0.00     0.127 S 
ATOM    125  O   UNL A   1      55.675  33.860  35.779  1.00  0.00    -0.237 OA
ATOM    126  O   UNL A   1      54.544  35.919  35.040  1.00  0.00    -0.237 OA
ATOM    127  O   UNL A   1      53.789  34.773  37.079  1.00  0.00    -0.744 OA
ENDBRANCH 121 124
ENDBRANCH  94 117
ENDBRANCH  68  69
ENDBRANCH  61  63
ENDBRANCH  60  61
ENDBRANCH  59  60
ENDBRANCH  58  59
ENDBRANCH  57  58
ENDBRANCH  56  57
ENDBRANCH  55  56
ENDBRANCH  54  55
ENDBRANCH  53  54
ENDBRANCH   1  53
TORSDOF 36
ENDMDL
MODEL 2
REMARK VINA RESULT:      -5.2      4.888      7.376
REMARK SMILES O=C(N[C@@H](Cc1ccc(O)cc1)C(=O)N[C@@H](Cc1c[nH]c2ccccc12)C(=O)N[C@@H](CO)C(=O)OCCOCCOCCOCCOC(=O)c1ccc(-c2c3nc(c(-c4cccc(S(=O)(=O)[O-])c4F)c4ccc([nH]4)c(-c4cccc(S(=O)(=O)[O-])c4F)c4nc(c(-c5cccc(S(=O)(=O)[O-])c5F)c5ccc2[nH]5)C=C4)C=C3)cc1)c1ccc(F)cc1
REMARK SMILES IDX 39 1 38 2 37 3 36 4 35 5 33 6 34 7 30 8 29 9 27 10 28 11
REMARK SMILES IDX 16 13 15 14 13 15 14 16 4 18 3 19 1 20 2 21 113 23 114 24
REMARK SMILES IDX 119 25 115 26 118 27 116 28 117 29 5 30 6 31 7 32 12 33 8 34
REMARK SMILES IDX 11 35 9 36 10 37 17 39 18 40 19 41 26 42 20 43 21 44 25 45
REMARK SMILES IDX 22 47 24 48 23 49 31 50 32 51 40 53 41 54 42 55 43 56 44 57
REMARK SMILES IDX 45 58 46 59 47 60 48 61 49 62 50 63 51 64 112 65 52 66
REMARK SMILES IDX 111 67 53 68 54 69 55 70 105 71 56 72 110 73 104 74 106 75
REMARK SMILES IDX 57 76 109 77 103 78 102 79 58 81 90 82 70 83 89 84 71 85
REMARK SMILES IDX 74 86 88 87 107 88 72 89 73 90 87 92 108 93 75 94 59 95
REMARK SMILES IDX 60 96 68 97 61 98 63 99 69 100 62 101 64 102 65 103 66 104
REMARK SMILES IDX 67 105 91 106 92 107 100 108 93 109 95 110 101 111 94 112
REMARK SMILES IDX 96 113 97 114 98 115 99 116 76 117 77 118 85 119 78 120
REMARK SMILES IDX 80 121 86 122 79 123 81 124 82 125 83 126 84 127
REMARK H PARENT 29 12 15 17 3 22 10 38 20 46 32 52 106 80 74 91
REMARK Flexibility Score: inf
ROOT
ATOM      1  C   UNL A   1      39.445  27.423  28.244  1.00  0.00     0.188 C 
ENDROOT
BRANCH   1   2
ATOM      2  O   UNL A   1      40.363  27.366  29.311  1.00  0.00    -0.376 OA
BRANCH   2   3
ATOM      3  C   UNL A   1      40.469  28.448  30.225  1.00  0.00     0.202 C 
BRANCH   3   4
ATOM      4  C   UNL A   1      41.309  29.738  30.059  1.00  0.00     0.261 C 
BRANCH   4   5
ATOM      5  O   UNL A   1      42.681  29.766  30.514  1.00  0.00    -0.462 OA
BRANCH   5   6
ATOM      6  C   UNL A   1      43.762  29.868  29.492  1.00  0.00     0.331 C 
ATOM      7  O   UNL A   1      44.782  30.191  30.183  1.00  0.00    -0.250 OA
BRANCH   6   8
ATOM      8  C   UNL A   1      43.483  29.589  27.332  1.00  0.00     0.218 C 
BRANCH   8   9
ATOM      9  N   UNL A   1      44.624  29.334  26.076  1.00  0.00    -0.339 N 
ATOM     10  C   UNL A   1      45.914  28.945  26.012  1.00  0.00     0.243 C 
ATOM     11  O   UNL A   1      46.521  29.557  25.111  1.00  0.00    -0.273 OA
ATOM     12  H   UNL A   1      44.245  29.516  25.186  1.00  0.00     0.164 HD
BRANCH  10  13
ATOM     13  C   UNL A   1      46.724  27.806  26.801  1.00  0.00     0.175 C 
BRANCH  13  14
ATOM     14  N   UNL A   1      45.696  26.820  27.176  1.00  0.00    -0.342 N 
ATOM     15  C   UNL A   1      45.215  26.614  28.457  1.00  0.00     0.243 C 
ATOM     16  O   UNL A   1      43.989  26.484  28.562  1.00  0.00    -0.273 OA
ATOM     17  H   UNL A   1      45.321  26.261  26.457  1.00  0.00     0.164 HD
BRANCH  15  18
ATOM     18  C   UNL A   1      46.128  26.412  29.734  1.00  0.00     0.176 C 
BRANCH  18  19
ATOM     19  N   UNL A   1      46.797  27.665  30.102  1.00  0.00    -0.340 N 
ATOM     20  O   UNL A   1      48.476  28.948  30.915  1.00  0.00    -0.269 OA
ATOM     21  C   UNL A   1      48.047  27.826  30.663  1.00  0.00     0.251 C 
ATOM     22  H   UNL A   1      46.291  28.492  29.927  1.00  0.00     0.164 HD
BRANCH  21  23
ATOM     23  C   UNL A   1      48.862  26.642  31.044  1.00  0.00     0.040 A 
ATOM     24  C   UNL A   1      48.883  26.147  32.355  1.00  0.00     0.017 A 
ATOM     25  C   UNL A   1      49.644  26.033  30.054  1.00  0.00     0.017 A 
ATOM     26  C   UNL A   1      49.761  25.114  32.694  1.00  0.00     0.040 A 
ATOM     27  C   UNL A   1      50.505  24.985  30.394  1.00  0.00     0.040 A 
ATOM     28  C   UNL A   1      50.571  24.550  31.714  1.00  0.00     0.123 A 
ATOM     29  F   UNL A   1      51.427  23.574  32.044  1.00  0.00    -0.207 F 
ENDBRANCH  21  23
ENDBRANCH  18  19
BRANCH  18  30
ATOM     30  C   UNL A   1      45.798  25.441  30.929  1.00  0.00     0.070 C 
BRANCH  30  31
ATOM     31  C   UNL A   1      44.873  25.832  32.067  1.00  0.00    -0.045 A 
ATOM     32  C   UNL A   1      44.536  24.872  32.999  1.00  0.00     0.007 A 
ATOM     33  C   UNL A   1      44.469  27.132  32.378  1.00  0.00     0.007 A 
ATOM     34  C   UNL A   1      43.631  25.043  34.033  1.00  0.00     0.046 A 
ATOM     35  C   UNL A   1      43.667  27.376  33.515  1.00  0.00     0.046 A 
ATOM     36  C   UNL A   1      43.221  26.322  34.306  1.00  0.00     0.115 A 
BRANCH  36  37
ATOM     37  O   UNL A   1      42.457  26.572  35.402  1.00  0.00    -0.508 OA
ATOM     38  H   UNL A   1      41.744  27.177  35.349  1.00  0.00     0.293 HD
ENDBRANCH  36  37
ENDBRANCH  30  31
ENDBRANCH  18  30
ENDBRANCH  15  18
ENDBRANCH  13  14
BRANCH  13  39
ATOM     39  C   UNL A   1      48.143  27.275  26.527  1.00  0.00     0.072 C 
BRANCH  39  40
ATOM     40  C   UNL A   1      49.235  28.161  26.951  1.00  0.00    -0.020 A 
ATOM     41  C   UNL A   1      49.144  29.405  27.559  1.00  0.00     0.087 A 
ATOM     42  C   UNL A   1      50.589  27.776  26.929  1.00  0.00     0.003 A 
ATOM     43  N   UNL A   1      50.287  29.767  28.257  1.00  0.00    -0.361 N 
ATOM     44  C   UNL A   1      51.184  28.734  28.262  1.00  0.00     0.046 A 
ATOM     45  C   UNL A   1      51.503  26.319  26.375  1.00  0.00     0.010 A 
ATOM     46  H   UNL A   1      50.433  30.640  28.687  1.00  0.00     0.166 HD
ATOM     47  C   UNL A   1      52.691  28.248  29.117  1.00  0.00     0.026 A 
ATOM     48  C   UNL A   1      53.029  25.833  27.214  1.00  0.00     0.001 A 
ATOM     49  C   UNL A   1      53.643  26.840  28.524  1.00  0.00     0.002 A 
ENDBRANCH  39  40
ENDBRANCH  13  39
ENDBRANCH  10  13
ENDBRANCH   8   9
BRANCH   8  50
ATOM     50  C   UNL A   1      42.246  28.730  26.413  1.00  0.00     0.193 C 
BRANCH  50  51
ATOM     51  O   UNL A   1      42.154  29.002  25.016  1.00  0.00    -0.394 OA
ATOM     52  H   UNL A   1      42.889  29.575  24.749  1.00  0.00     0.210 HD
ENDBRANCH  50  51
ENDBRANCH   8  50
ENDBRANCH   6   8
ENDBRANCH   5   6
ENDBRANCH   4   5
ENDBRANCH   3   4
ENDBRANCH   2   3
ENDBRANCH   1   2
BRANCH   1  53
ATOM     53  C   UNL A   1      38.259  28.354  28.493  1.00  0.00     0.188 C 
BRANCH  53  54
ATOM     54  O   UNL A   1      38.245  29.605  27.818  1.00  0.00    -0.377 OA
BRANCH  54  55
ATOM     55  C   UNL A   1      37.002  30.277  27.661  1.00  0.00     0.188 C 
BRANCH  55  56
ATOM     56  C   UNL A   1      35.940  30.036  28.741  1.00  0.00     0.188 C 
BRANCH  56  57
ATOM     57  O   UNL A   1      36.189  30.516  30.064  1.00  0.00    -0.376 OA
BRANCH  57  58
ATOM     58  C   UNL A   1      37.097  31.596  30.255  1.00  0.00     0.202 C 
BRANCH  58  59
ATOM     59  C   UNL A   1      36.483  32.986  30.120  1.00  0.00     0.261 C 
BRANCH  59  60
ATOM     60  O   UNL A   1      37.327  33.993  30.702  1.00  0.00    -0.460 OA
BRANCH  60  61
ATOM     61  C   UNL A   1      37.143  34.172  32.031  1.00  0.00     0.338 C 
ATOM     62  O   UNL A   1      36.103  34.449  32.605  1.00  0.00    -0.246 OA
BRANCH  61  63
ATOM     63  C   UNL A   1      38.373  33.824  32.758  1.00  0.00     0.060 A 
ATOM     64  C   UNL A   1      38.258  32.997  33.884  1.00  0.00     0.016 A 
ATOM     65  C   UNL A   1      39.593  34.411  32.420  1.00  0.00     0.016 A 
ATOM     66  C   UNL A   1      39.344  32.822  34.730  1.00  0.00     0.010 A 
ATOM     67  C   UNL A   1      40.678  34.251  33.282  1.00  0.00     0.010 A 
ATOM     68  C   UNL A   1      40.533  33.507  34.467  1.00  0.00    -0.014 A 
BRANCH  68  69
ATOM     69  C   UNL A   1      41.533  33.642  35.547  1.00  0.00     0.031 A 
ATOM     70  C   UNL A   1      42.582  32.573  35.681  1.00  0.00     0.074 A 
ATOM     71  C   UNL A   1      41.511  34.698  36.376  1.00  0.00     0.049 A 
ATOM     72  N   UNL A   1      43.508  32.433  36.590  1.00  0.00    -0.248 NA
ATOM     73  C   UNL A   1      42.583  31.516  34.653  1.00  0.00     0.031 C 
ATOM     74  C   UNL A   1      40.559  35.804  36.307  1.00  0.00     0.029 A 
ATOM     75  N   UNL A   1      42.297  34.988  37.461  1.00  0.00    -0.354 N 
ATOM     76  C   UNL A   1      44.170  31.253  36.275  1.00  0.00     0.074 A 
ATOM     77  C   UNL A   1      43.544  30.715  35.088  1.00  0.00     0.031 C 
ATOM     78  C   UNL A   1      40.788  36.636  37.338  1.00  0.00     0.029 A 
ATOM     79  C   UNL A   1      41.873  36.095  38.154  1.00  0.00     0.049 A 
ATOM     80  H   UNL A   1      43.085  34.457  37.716  1.00  0.00     0.167 HD
ATOM     81  C   UNL A   1      45.208  30.672  36.919  1.00  0.00     0.034 A 
ATOM     82  C   UNL A   1      42.288  36.585  39.339  1.00  0.00     0.034 A 
ATOM     83  C   UNL A   1      45.828  31.224  38.091  1.00  0.00     0.049 A 
ATOM     84  C   UNL A   1      43.418  35.896  40.057  1.00  0.00     0.074 A 
ATOM     85  C   UNL A   1      46.918  30.745  38.793  1.00  0.00     0.029 A 
ATOM     86  N   UNL A   1      45.397  32.365  38.749  1.00  0.00    -0.354 N 
ATOM     87  N   UNL A   1      44.102  34.836  39.698  1.00  0.00    -0.248 NA
ATOM     88  C   UNL A   1      43.856  36.489  41.328  1.00  0.00     0.031 C 
ATOM     89  C   UNL A   1      47.112  31.566  39.907  1.00  0.00     0.029 A 
ATOM     90  C   UNL A   1      46.181  32.592  39.864  1.00  0.00     0.049 A 
ATOM     91  H   UNL A   1      44.642  32.931  38.464  1.00  0.00     0.167 HD
ATOM     92  C   UNL A   1      45.074  34.658  40.676  1.00  0.00     0.074 A 
ATOM     93  C   UNL A   1      44.901  35.732  41.634  1.00  0.00     0.031 C 
ATOM     94  C   UNL A   1      46.020  33.692  40.781  1.00  0.00     0.034 A 
BRANCH  81  95
ATOM     95  C   UNL A   1      45.728  29.363  36.384  1.00  0.00     0.023 A 
ATOM     96  C   UNL A   1      46.622  29.343  35.295  1.00  0.00     0.012 A 
ATOM     97  C   UNL A   1      45.369  28.151  37.006  1.00  0.00     0.148 A 
ATOM     98  C   UNL A   1      47.127  28.135  34.815  1.00  0.00     0.002 A 
ATOM     99  C   UNL A   1      45.915  26.956  36.555  1.00  0.00     0.091 A 
ATOM    100  F   UNL A   1      44.497  28.189  38.023  1.00  0.00    -0.205 F 
ATOM    101  C   UNL A   1      46.784  26.945  35.452  1.00  0.00     0.022 A 
BRANCH  99 102
ATOM    102  S   UNL A   1      45.601  25.382  37.360  1.00  0.00     0.127 S 
ATOM    103  O   UNL A   1      46.207  24.444  36.417  1.00  0.00    -0.237 OA
ATOM    104  O   UNL A   1      46.326  25.536  38.621  1.00  0.00    -0.237 OA
ATOM    105  O   UNL A   1      44.155  25.280  37.496  1.00  0.00    -0.744 OA
ENDBRANCH  99 102
ENDBRANCH  81  95
BRANCH  82 106
ATOM    106  C   UNL A   1      41.624  37.782  39.922  1.00  0.00     0.023 A 
ATOM    107  C   UNL A   1      40.418  37.640  40.633  1.00  0.00     0.012 A 
ATOM    108  C   UNL A   1      42.192  39.063  39.779  1.00  0.00     0.148 A 
ATOM    109  C   UNL A   1      39.769  38.758  41.159  1.00  0.00     0.002 A 
ATOM    110  C   UNL A   1      41.574  40.163  40.358  1.00  0.00     0.091 A 
ATOM    111  F   UNL A   1      43.336  39.177  39.089  1.00  0.00    -0.205 F 
ATOM    112  C   UNL A   1      40.351  40.017  41.031  1.00  0.00     0.022 A 
BRANCH 110 113
ATOM    113  S   UNL A   1      42.321  41.796  40.361  1.00  0.00     0.127 S 
ATOM    114  O   UNL A   1      43.637  41.523  40.932  1.00  0.00    -0.237 OA
ATOM    115  O   UNL A   1      42.321  42.124  38.935  1.00  0.00    -0.237 OA
ATOM    116  O   UNL A   1      41.442  42.630  41.169  1.00  0.00    -0.744 OA
ENDBRANCH 110 113
ENDBRANCH  82 106
BRANCH  94 117
ATOM    117  C   UNL A   1      46.985  33.779  41.935  1.00  0.00     0.023 A 
ATOM    118  C   UNL A   1      48.163  34.543  41.821  1.00  0.00     0.012 A 
ATOM    119  C   UNL A   1      46.678  33.159  43.163  1.00  0.00     0.148 A 
ATOM    120  C   UNL A   1      49.039  34.656  42.900  1.00  0.00     0.002 A 
ATOM    121  C   UNL A   1      47.526  33.323  44.249  1.00  0.00     0.091 A 
ATOM    122  F   UNL A   1      45.559  32.425  43.244  1.00  0.00    -0.205 F 
ATOM    123  C   UNL A   1      48.715  34.058  44.115  1.00  0.00     0.022 A 
BRANCH 121 124
ATOM    124  S   UNL A   1      47.139  32.678  45.880  1.00  0.00     0.127 S 
ATOM    125  O   UNL A   1      45.851  33.316  46.153  1.00  0.00    -0.237 OA
ATOM    126  O   UNL A   1      47.067  31.239  45.632  1.00  0.00    -0.237 OA
ATOM    127  O   UNL A   1      48.234  33.091  46.748  1.00  0.00    -0.744 OA
ENDBRANCH 121 124
ENDBRANCH  94 117
ENDBRANCH  68  69
ENDBRANCH  61  63
ENDBRANCH  60  61
ENDBRANCH  59  60
ENDBRANCH  58  59
ENDBRANCH  57  58
ENDBRANCH  56  57
ENDBRANCH  55  56
ENDBRANCH  54  55
ENDBRANCH  53  54
ENDBRANCH   1  53
TORSDOF 36
ENDMDL
MODEL 3
REMARK VINA RESULT:      -5.2      3.966      9.112
REMARK SMILES O=C(N[C@@H](Cc1ccc(O)cc1)C(=O)N[C@@H](Cc1c[nH]c2ccccc12)C(=O)N[C@@H](CO)C(=O)OCCOCCOCCOCCOC(=O)c1ccc(-c2c3nc(c(-c4cccc(S(=O)(=O)[O-])c4F)c4ccc([nH]4)c(-c4cccc(S(=O)(=O)[O-])c4F)c4nc(c(-c5cccc(S(=O)(=O)[O-])c5F)c5ccc2[nH]5)C=C4)C=C3)cc1)c1ccc(F)cc1
REMARK SMILES IDX 39 1 38 2 37 3 36 4 35 5 33 6 34 7 30 8 29 9 27 10 28 11
REMARK SMILES IDX 16 13 15 14 13 15 14 16 4 18 3 19 1 20 2 21 113 23 114 24
REMARK SMILES IDX 119 25 115 26 118 27 116 28 117 29 5 30 6 31 7 32 12 33 8 34
REMARK SMILES IDX 11 35 9 36 10 37 17 39 18 40 19 41 26 42 20 43 21 44 25 45
REMARK SMILES IDX 22 47 24 48 23 49 31 50 32 51 40 53 41 54 42 55 43 56 44 57
REMARK SMILES IDX 45 58 46 59 47 60 48 61 49 62 50 63 51 64 112 65 52 66
REMARK SMILES IDX 111 67 53 68 54 69 55 70 105 71 56 72 110 73 104 74 106 75
REMARK SMILES IDX 57 76 109 77 103 78 102 79 58 81 90 82 70 83 89 84 71 85
REMARK SMILES IDX 74 86 88 87 107 88 72 89 73 90 87 92 108 93 75 94 59 95
REMARK SMILES IDX 60 96 68 97 61 98 63 99 69 100 62 101 64 102 65 103 66 104
REMARK SMILES IDX 67 105 91 106 92 107 100 108 93 109 95 110 101 111 94 112
REMARK SMILES IDX 96 113 97 114 98 115 99 116 76 117 77 118 85 119 78 120
REMARK SMILES IDX 80 121 86 122 79 123 81 124 82 125 83 126 84 127
REMARK H PARENT 29 12 15 17 3 22 10 38 20 46 32 52 106 80 74 91
REMARK Flexibility Score: inf
ROOT
ATOM      1  C   UNL A   1      43.582  28.805  26.761  1.00  0.00     0.188 C 
ENDROOT
BRANCH   1   2
ATOM      2  O   UNL A   1      44.329  29.178  27.895  1.00  0.00    -0.376 OA
BRANCH   2   3
ATOM      3  C   UNL A   1      45.105  30.368  27.885  1.00  0.00     0.202 C 
BRANCH   3   4
ATOM      4  C   UNL A   1      44.596  31.822  28.038  1.00  0.00     0.261 C 
BRANCH   4   5
ATOM      5  O   UNL A   1      44.659  32.728  26.912  1.00  0.00    -0.462 OA
BRANCH   5   6
ATOM      6  C   UNL A   1      43.823  33.962  26.952  1.00  0.00     0.331 C 
ATOM      7  O   UNL A   1      43.452  34.097  25.741  1.00  0.00    -0.250 OA
BRANCH   6   8
ATOM      8  C   UNL A   1      43.483  35.196  28.735  1.00  0.00     0.218 C 
BRANCH   8   9
ATOM      9  N   UNL A   1      43.992  34.985  30.361  1.00  0.00    -0.339 N 
ATOM     10  C   UNL A   1      43.375  34.793  31.545  1.00  0.00     0.243 C 
ATOM     11  O   UNL A   1      43.973  35.391  32.461  1.00  0.00    -0.273 OA
ATOM     12  H   UNL A   1      44.972  35.011  30.451  1.00  0.00     0.164 HD
BRANCH  10  13
ATOM     13  C   UNL A   1      42.121  33.883  31.958  1.00  0.00     0.175 C 
BRANCH  13  14
ATOM     14  N   UNL A   1      42.723  32.649  32.491  1.00  0.00    -0.342 N 
ATOM     15  C   UNL A   1      42.718  31.418  31.858  1.00  0.00     0.243 C 
ATOM     16  O   UNL A   1      43.785  30.792  31.881  1.00  0.00    -0.273 OA
ATOM     17  H   UNL A   1      43.167  32.704  33.369  1.00  0.00     0.164 HD
BRANCH  15  18
ATOM     18  C   UNL A   1      41.430  30.733  31.245  1.00  0.00     0.176 C 
BRANCH  18  19
ATOM     19  N   UNL A   1      41.737  29.383  30.761  1.00  0.00    -0.340 N 
ATOM     20  O   UNL A   1      41.337  27.440  29.667  1.00  0.00    -0.269 OA
ATOM     21  C   UNL A   1      40.940  28.553  30.000  1.00  0.00     0.251 C 
ATOM     22  H   UNL A   1      42.620  29.024  31.011  1.00  0.00     0.164 HD
BRANCH  21  23
ATOM     23  C   UNL A   1      39.557  28.960  29.635  1.00  0.00     0.040 A 
ATOM     24  C   UNL A   1      38.459  28.675  30.458  1.00  0.00     0.017 A 
ATOM     25  C   UNL A   1      39.364  29.626  28.418  1.00  0.00     0.017 A 
ATOM     26  C   UNL A   1      37.164  28.962  30.015  1.00  0.00     0.040 A 
ATOM     27  C   UNL A   1      38.068  29.931  27.989  1.00  0.00     0.040 A 
ATOM     28  C   UNL A   1      36.980  29.578  28.781  1.00  0.00     0.123 A 
ATOM     29  F   UNL A   1      35.739  29.833  28.348  1.00  0.00    -0.207 F 
ENDBRANCH  21  23
ENDBRANCH  18  19
BRANCH  18  30
ATOM     30  C   UNL A   1      39.961  30.952  31.767  1.00  0.00     0.070 C 
BRANCH  30  31
ATOM     31  C   UNL A   1      39.019  31.970  31.150  1.00  0.00    -0.045 A 
ATOM     32  C   UNL A   1      39.403  32.598  29.983  1.00  0.00     0.007 A 
ATOM     33  C   UNL A   1      37.701  32.205  31.547  1.00  0.00     0.007 A 
ATOM     34  C   UNL A   1      38.706  33.616  29.354  1.00  0.00     0.046 A 
ATOM     35  C   UNL A   1      36.897  33.126  30.839  1.00  0.00     0.046 A 
ATOM     36  C   UNL A   1      37.423  33.854  29.776  1.00  0.00     0.115 A 
BRANCH  36  37
ATOM     37  O   UNL A   1      36.637  34.730  29.098  1.00  0.00    -0.508 OA
ATOM     38  H   UNL A   1      36.399  34.556  28.209  1.00  0.00     0.293 HD
ENDBRANCH  36  37
ENDBRANCH  30  31
ENDBRANCH  18  30
ENDBRANCH  15  18
ENDBRANCH  13  14
BRANCH  13  39
ATOM     39  C   UNL A   1      40.772  34.322  32.556  1.00  0.00     0.072 C 
BRANCH  39  40
ATOM     40  C   UNL A   1      40.793  34.620  33.994  1.00  0.00    -0.020 A 
ATOM     41  C   UNL A   1      41.188  35.793  34.622  1.00  0.00     0.087 A 
ATOM     42  C   UNL A   1      40.244  33.761  34.965  1.00  0.00     0.003 A 
ATOM     43  N   UNL A   1      40.656  35.948  35.895  1.00  0.00    -0.361 N 
ATOM     44  C   UNL A   1      39.771  34.940  36.162  1.00  0.00     0.046 A 
ATOM     45  C   UNL A   1      39.481  32.122  34.948  1.00  0.00     0.010 A 
ATOM     46  H   UNL A   1      40.884  36.677  36.516  1.00  0.00     0.166 HD
ATOM     47  C   UNL A   1      38.488  34.541  37.360  1.00  0.00     0.026 A 
ATOM     48  C   UNL A   1      38.205  31.705  36.160  1.00  0.00     0.001 A 
ATOM     49  C   UNL A   1      37.776  32.889  37.394  1.00  0.00     0.002 A 
ENDBRANCH  39  40
ENDBRANCH  13  39
ENDBRANCH  10  13
ENDBRANCH   8   9
BRANCH   8  50
ATOM     50  C   UNL A   1      43.433  36.946  28.956  1.00  0.00     0.193 C 
BRANCH  50  51
ATOM     51  O   UNL A   1      44.145  37.493  30.064  1.00  0.00    -0.394 OA
ATOM     52  H   UNL A   1      43.546  37.583  30.821  1.00  0.00     0.210 HD
ENDBRANCH  50  51
ENDBRANCH   8  50
ENDBRANCH   6   8
ENDBRANCH   5   6
ENDBRANCH   4   5
ENDBRANCH   3   4
ENDBRANCH   2   3
ENDBRANCH   1   2
BRANCH   1  53
ATOM     53  C   UNL A   1      44.303  27.825  25.837  1.00  0.00     0.188 C 
BRANCH  53  54
ATOM     54  O   UNL A   1      44.269  26.446  26.179  1.00  0.00    -0.377 OA
BRANCH  54  55
ATOM     55  C   UNL A   1      45.482  25.815  26.571  1.00  0.00     0.188 C 
BRANCH  55  56
ATOM     56  C   UNL A   1      46.746  26.191  25.789  1.00  0.00     0.188 C 
BRANCH  56  57
ATOM     57  O   UNL A   1      47.994  25.627  26.197  1.00  0.00    -0.376 OA
BRANCH  57  58
ATOM     58  C   UNL A   1      48.364  25.668  27.571  1.00  0.00     0.202 C 
BRANCH  58  59
ATOM     59  C   UNL A   1      48.474  27.068  28.167  1.00  0.00     0.261 C 
BRANCH  59  60
ATOM     60  O   UNL A   1      49.402  27.102  29.264  1.00  0.00    -0.460 OA
BRANCH  60  61
ATOM     61  C   UNL A   1      48.898  26.641  30.433  1.00  0.00     0.338 C 
ATOM     62  O   UNL A   1      48.957  25.505  30.869  1.00  0.00    -0.246 OA
BRANCH  61  63
ATOM     63  C   UNL A   1      48.378  27.764  31.229  1.00  0.00     0.060 A 
ATOM     64  C   UNL A   1      47.193  28.377  30.803  1.00  0.00     0.016 A 
ATOM     65  C   UNL A   1      49.116  28.288  32.291  1.00  0.00     0.016 A 
ATOM     66  C   UNL A   1      46.783  29.571  31.380  1.00  0.00     0.010 A 
ATOM     67  C   UNL A   1      48.714  29.498  32.857  1.00  0.00     0.010 A 
ATOM     68  C   UNL A   1      47.582  30.168  32.358  1.00  0.00    -0.014 A 
BRANCH  68  69
ATOM     69  C   UNL A   1      47.370  31.594  32.680  1.00  0.00     0.031 A 
ATOM     70  C   UNL A   1      46.517  31.934  33.871  1.00  0.00     0.074 A 
ATOM     71  C   UNL A   1      47.934  32.558  31.936  1.00  0.00     0.049 A 
ATOM     72  N   UNL A   1      46.127  33.102  34.303  1.00  0.00    -0.248 NA
ATOM     73  C   UNL A   1      46.037  30.801  34.684  1.00  0.00     0.031 C 
ATOM     74  C   UNL A   1      48.806  32.334  30.785  1.00  0.00     0.029 A 
ATOM     75  N   UNL A   1      47.827  33.922  32.024  1.00  0.00    -0.354 N 
ATOM     76  C   UNL A   1      45.318  32.846  35.404  1.00  0.00     0.074 A 
ATOM     77  C   UNL A   1      45.276  31.412  35.580  1.00  0.00     0.031 C 
ATOM     78  C   UNL A   1      49.119  33.523  30.242  1.00  0.00     0.029 A 
ATOM     79  C   UNL A   1      48.438  34.580  30.986  1.00  0.00     0.049 A 
ATOM     80  H   UNL A   1      47.358  34.382  32.757  1.00  0.00     0.167 HD
ATOM     81  C   UNL A   1      44.670  33.731  36.196  1.00  0.00     0.034 A 
ATOM     82  C   UNL A   1      48.408  35.885  30.652  1.00  0.00     0.034 A 
ATOM     83  C   UNL A   1      44.731  35.155  36.016  1.00  0.00     0.049 A 
ATOM     84  C   UNL A   1      47.645  36.845  31.527  1.00  0.00     0.074 A 
ATOM     85  C   UNL A   1      44.155  36.144  36.791  1.00  0.00     0.029 A 
ATOM     86  N   UNL A   1      45.387  35.791  34.975  1.00  0.00    -0.354 N 
ATOM     87  N   UNL A   1      46.965  36.603  32.622  1.00  0.00    -0.248 NA
ATOM     88  C   UNL A   1      47.672  38.262  31.139  1.00  0.00     0.031 C 
ATOM     89  C   UNL A   1      44.418  37.377  36.187  1.00  0.00     0.029 A 
ATOM     90  C   UNL A   1      45.210  37.159  35.070  1.00  0.00     0.049 A 
ATOM     91  H   UNL A   1      45.904  35.337  34.270  1.00  0.00     0.167 HD
ATOM     92  C   UNL A   1      46.518  37.839  33.075  1.00  0.00     0.074 A 
ATOM     93  C   UNL A   1      47.019  38.829  32.144  1.00  0.00     0.031 C 
ATOM     94  C   UNL A   1      45.754  38.132  34.158  1.00  0.00     0.034 A 
BRANCH  81  95
ATOM     95  C   UNL A   1      43.825  33.187  37.318  1.00  0.00     0.023 A 
ATOM     96  C   UNL A   1      42.449  32.954  37.126  1.00  0.00     0.012 A 
ATOM     97  C   UNL A   1      44.417  32.852  38.552  1.00  0.00     0.148 A 
ATOM     98  C   UNL A   1      41.669  32.425  38.154  1.00  0.00     0.002 A 
ATOM     99  C   UNL A   1      43.645  32.278  39.554  1.00  0.00     0.091 A 
ATOM    100  F   UNL A   1      45.722  33.105  38.723  1.00  0.00    -0.205 F 
ATOM    101  C   UNL A   1      42.269  32.076  39.361  1.00  0.00     0.022 A 
BRANCH  99 102
ATOM    102  S   UNL A   1      44.341  31.718  41.112  1.00  0.00     0.127 S 
ATOM    103  O   UNL A   1      45.406  30.828  40.655  1.00  0.00    -0.237 OA
ATOM    104  O   UNL A   1      44.804  32.972  41.706  1.00  0.00    -0.237 OA
ATOM    105  O   UNL A   1      43.253  31.068  41.829  1.00  0.00    -0.744 OA
ENDBRANCH  99 102
ENDBRANCH  81  95
BRANCH  82 106
ATOM    106  C   UNL A   1      49.113  36.356  29.429  1.00  0.00     0.023 A 
ATOM    107  C   UNL A   1      50.435  36.832  29.520  1.00  0.00     0.012 A 
ATOM    108  C   UNL A   1      48.477  36.326  28.173  1.00  0.00     0.148 A 
ATOM    109  C   UNL A   1      51.098  37.305  28.386  1.00  0.00     0.002 A 
ATOM    110  C   UNL A   1      49.164  36.740  27.039  1.00  0.00     0.091 A 
ATOM    111  F   UNL A   1      47.215  35.879  28.111  1.00  0.00    -0.205 F 
ATOM    112  C   UNL A   1      50.467  37.250  27.146  1.00  0.00     0.022 A 
BRANCH 110 113
ATOM    113  S   UNL A   1      48.481  36.576  25.387  1.00  0.00     0.127 S 
ATOM    114  O   UNL A   1      48.267  35.135  25.293  1.00  0.00    -0.237 OA
ATOM    115  O   UNL A   1      47.261  37.378  25.489  1.00  0.00    -0.237 OA
ATOM    116  O   UNL A   1      49.487  37.126  24.488  1.00  0.00    -0.744 OA
ENDBRANCH 110 113
ENDBRANCH  82 106
BRANCH  94 117
ATOM    117  C   UNL A   1      45.461  39.583  34.437  1.00  0.00     0.023 A 
ATOM    118  C   UNL A   1      46.408  40.385  35.103  1.00  0.00     0.012 A 
ATOM    119  C   UNL A   1      44.270  40.168  33.963  1.00  0.00     0.148 A 
ATOM    120  C   UNL A   1      46.157  41.737  35.328  1.00  0.00     0.002 A 
ATOM    121  C   UNL A   1      44.051  41.527  34.141  1.00  0.00     0.091 A 
ATOM    122  F   UNL A   1      43.376  39.384  33.344  1.00  0.00    -0.205 F 
ATOM    123  C   UNL A   1      44.986  42.310  34.837  1.00  0.00     0.022 A 
BRANCH 121 124
ATOM    124  S   UNL A   1      42.623  42.372  33.453  1.00  0.00     0.127 S 
ATOM    125  O   UNL A   1      41.918  42.796  34.664  1.00  0.00    -0.237 OA
ATOM    126  O   UNL A   1      43.244  43.459  32.697  1.00  0.00    -0.237 OA
ATOM    127  O   UNL A   1      41.924  41.387  32.639  1.00  0.00    -0.744 OA
ENDBRANCH 121 124
ENDBRANCH  94 117
ENDBRANCH  68  69
ENDBRANCH  61  63
ENDBRANCH  60  61
ENDBRANCH  59  60
ENDBRANCH  58  59
ENDBRANCH  57  58
ENDBRANCH  56  57
ENDBRANCH  55  56
ENDBRANCH  54  55
ENDBRANCH  53  54
ENDBRANCH   1  53
TORSDOF 36
ENDMDL
