MODEL 1
REMARK VINA RESULT:      -7.9      0.000      0.000
REMARK SMILES Cc1ncccc1OC1(C(=O)OCCOCCOCCOCCOC(=O)c2ccc(-c3c4nc(c(-c5cccc(S(=O)(=O)[O-])c5F)c5ccc([nH]5)c(-c5cccc(S(=O)(=O)[O-])c5F)c5nc(c(-c6cccc(S(=O)(=O)[O-])c6F)c6ccc3[nH]6)C=C5)C=C4)cc2)CCN(C(=O)c2ccc(O)nn2)CC1
REMARK SMILES IDX 19 1 18 2 17 3 16 4 15 5 14 6 13 7 12 8 10 9 11 10 9 11
REMARK SMILES IDX 90 12 103 13 91 14 102 15 92 16 93 17 94 18 8 19 7 20 1 21
REMARK SMILES IDX 2 22 3 23 4 24 6 25 5 26 95 27 96 28 101 29 97 30 100 31
REMARK SMILES IDX 98 32 99 33 20 35 21 36 22 37 23 38 24 39 25 40 26 41 27 42
REMARK SMILES IDX 28 43 89 44 29 45 88 46 30 47 31 48 32 49 82 50 33 51 87 52
REMARK SMILES IDX 81 53 83 54 34 55 86 56 80 57 79 58 35 60 67 61 47 62 66 63
REMARK SMILES IDX 48 64 51 65 65 66 84 67 49 68 50 69 64 71 85 72 52 73 36 74
REMARK SMILES IDX 37 75 45 76 38 77 40 78 46 79 39 80 41 81 42 82 43 83 44 84
REMARK SMILES IDX 68 85 69 86 77 87 70 88 72 89 78 90 71 91 73 92 74 93 75 94
REMARK SMILES IDX 76 95 53 96 54 97 62 98 55 99 57 100 63 101 56 102 58 103
REMARK SMILES IDX 59 104 60 105 61 106
REMARK H PARENT 99 34 83 59 51 70
REMARK Flexibility Score: inf
ROOT
ATOM      1  C   UNL A   1      41.400  23.507  26.725  1.00  0.00     0.188 C 
ENDROOT
BRANCH   1   2
ATOM      2  O   UNL A   1      40.755  23.804  27.960  1.00  0.00    -0.377 OA
BRANCH   2   3
ATOM      3  C   UNL A   1      40.279  25.124  28.122  1.00  0.00     0.188 C 
BRANCH   3   4
ATOM      4  C   UNL A   1      40.178  25.951  26.833  1.00  0.00     0.188 C 
BRANCH   4   5
ATOM      5  O   UNL A   1      40.156  27.371  26.866  1.00  0.00    -0.376 OA
BRANCH   5   6
ATOM      6  C   UNL A   1      41.285  28.107  27.314  1.00  0.00     0.202 C 
BRANCH   6   7
ATOM      7  C   UNL A   1      41.356  28.652  28.748  1.00  0.00     0.261 C 
BRANCH   7   8
ATOM      8  O   UNL A   1      40.136  28.637  29.512  1.00  0.00    -0.460 OA
BRANCH   8   9
ATOM      9  C   UNL A   1      40.220  28.932  30.843  1.00  0.00     0.350 C 
ATOM     10  O   UNL A   1      40.798  28.212  31.653  1.00  0.00    -0.247 OA
BRANCH   9  11
ATOM     11  C   UNL A   1      39.375  30.201  31.234  1.00  0.00     0.209 C 
ATOM     12  C   UNL A   1      40.132  31.496  30.935  1.00  0.00     0.082 C 
ATOM     13  C   UNL A   1      38.161  30.005  30.326  1.00  0.00     0.082 C 
ATOM     14  C   UNL A   1      39.354  32.706  30.449  1.00  0.00     0.124 C 
ATOM     15  C   UNL A   1      37.305  31.223  30.128  1.00  0.00     0.124 C 
ATOM     16  N   UNL A   1      38.003  32.499  29.961  1.00  0.00    -0.337 N 
ATOM     17  C   UNL A   1      37.285  33.678  29.670  1.00  0.00     0.274 C 
ATOM     18  O   UNL A   1      37.758  34.808  29.747  1.00  0.00    -0.267 OA
BRANCH  11  19
ATOM     19  O   UNL A   1      38.997  29.904  32.603  1.00  0.00    -0.474 OA
BRANCH  19  20
ATOM     20  C   UNL A   1      38.869  30.618  33.750  1.00  0.00     0.142 A 
ATOM     21  C   UNL A   1      36.666  31.863  33.357  1.00  0.00     0.071 C 
ATOM     22  C   UNL A   1      37.806  31.415  34.186  1.00  0.00     0.079 A 
ATOM     23  N   UNL A   1      37.637  31.803  35.488  1.00  0.00    -0.258 NA
ATOM     24  C   UNL A   1      38.519  31.384  36.404  1.00  0.00     0.111 A 
ATOM     25  C   UNL A   1      39.784  30.239  34.747  1.00  0.00     0.050 A 
ATOM     26  C   UNL A   1      39.614  30.617  36.082  1.00  0.00     0.024 A 
ENDBRANCH  19  20
ENDBRANCH  11  19
BRANCH  17  27
ATOM     27  C   UNL A   1      35.884  33.509  29.243  1.00  0.00     0.151 A 
ATOM     28  C   UNL A   1      34.904  34.229  29.902  1.00  0.00     0.042 A 
ATOM     29  N   UNL A   1      35.690  32.875  28.055  1.00  0.00    -0.142 NA
ATOM     30  C   UNL A   1      33.664  34.314  29.290  1.00  0.00     0.072 A 
ATOM     31  N   UNL A   1      34.472  32.955  27.468  1.00  0.00    -0.112 NA
ATOM     32  C   UNL A   1      33.506  33.671  28.081  1.00  0.00     0.230 A 
BRANCH  32  33
ATOM     33  O   UNL A   1      32.337  33.763  27.398  1.00  0.00    -0.492 OA
ATOM     34  H   UNL A   1      32.339  34.011  26.495  1.00  0.00     0.295 HD
ENDBRANCH  32  33
ENDBRANCH  17  27
ENDBRANCH   9  11
ENDBRANCH   8   9
ENDBRANCH   7   8
ENDBRANCH   6   7
ENDBRANCH   5   6
ENDBRANCH   4   5
ENDBRANCH   3   4
ENDBRANCH   2   3
ENDBRANCH   1   2
BRANCH   1  35
ATOM     35  C   UNL A   1      41.948  22.078  26.536  1.00  0.00     0.188 C 
BRANCH  35  36
ATOM     36  O   UNL A   1      43.369  21.990  26.540  1.00  0.00    -0.376 OA
BRANCH  36  37
ATOM     37  C   UNL A   1      44.025  21.309  25.480  1.00  0.00     0.202 C 
BRANCH  37  38
ATOM     38  C   UNL A   1      45.564  21.253  25.475  1.00  0.00     0.261 C 
BRANCH  38  39
ATOM     39  O   UNL A   1      46.253  22.412  25.964  1.00  0.00    -0.460 OA
BRANCH  39  40
ATOM     40  C   UNL A   1      46.326  23.491  25.160  1.00  0.00     0.338 C 
ATOM     41  O   UNL A   1      46.488  23.492  23.950  1.00  0.00    -0.246 OA
BRANCH  40  42
ATOM     42  C   UNL A   1      45.960  24.679  25.958  1.00  0.00     0.060 A 
ATOM     43  C   UNL A   1      46.952  25.301  26.728  1.00  0.00     0.016 A 
ATOM     44  C   UNL A   1      44.655  25.173  25.952  1.00  0.00     0.016 A 
ATOM     45  C   UNL A   1      46.630  26.392  27.533  1.00  0.00     0.010 A 
ATOM     46  C   UNL A   1      44.327  26.252  26.778  1.00  0.00     0.010 A 
ATOM     47  C   UNL A   1      45.305  26.837  27.603  1.00  0.00    -0.014 A 
BRANCH  47  48
ATOM     48  C   UNL A   1      44.906  27.760  28.693  1.00  0.00     0.031 A 
ATOM     49  C   UNL A   1      44.840  29.232  28.388  1.00  0.00     0.074 A 
ATOM     50  C   UNL A   1      44.594  27.305  29.919  1.00  0.00     0.049 A 
ATOM     51  N   UNL A   1      44.550  30.231  29.179  1.00  0.00    -0.248 NA
ATOM     52  C   UNL A   1      45.140  29.629  27.001  1.00  0.00     0.031 C 
ATOM     53  C   UNL A   1      44.596  25.903  30.328  1.00  0.00     0.029 A 
ATOM     54  N   UNL A   1      44.235  27.989  31.055  1.00  0.00    -0.354 N 
ATOM     55  C   UNL A   1      44.669  31.374  28.399  1.00  0.00     0.074 A 
ATOM     56  C   UNL A   1      45.062  30.949  27.075  1.00  0.00     0.031 C 
ATOM     57  C   UNL A   1      44.286  25.831  31.634  1.00  0.00     0.029 A 
ATOM     58  C   UNL A   1      44.093  27.182  32.159  1.00  0.00     0.049 A 
ATOM     59  H   UNL A   1      44.093  28.963  31.076  1.00  0.00     0.167 HD
ATOM     60  C   UNL A   1      44.460  32.665  28.751  1.00  0.00     0.034 A 
ATOM     61  C   UNL A   1      43.865  27.504  33.448  1.00  0.00     0.034 A 
ATOM     62  C   UNL A   1      44.060  33.084  30.066  1.00  0.00     0.049 A 
ATOM     63  C   UNL A   1      43.678  28.953  33.824  1.00  0.00     0.074 A 
ATOM     64  C   UNL A   1      43.781  34.364  30.512  1.00  0.00     0.029 A 
ATOM     65  N   UNL A   1      43.902  32.238  31.152  1.00  0.00    -0.354 N 
ATOM     66  N   UNL A   1      43.688  30.016  33.055  1.00  0.00    -0.248 NA
ATOM     67  C   UNL A   1      43.416  29.244  35.242  1.00  0.00     0.031 C 
ATOM     68  C   UNL A   1      43.499  34.296  31.879  1.00  0.00     0.029 A 
ATOM     69  C   UNL A   1      43.549  32.968  32.273  1.00  0.00     0.049 A 
ATOM     70  H   UNL A   1      44.023  31.261  31.129  1.00  0.00     0.167 HD
ATOM     71  C   UNL A   1      43.394  31.093  33.884  1.00  0.00     0.074 A 
ATOM     72  C   UNL A   1      43.193  30.552  35.214  1.00  0.00     0.031 C 
ATOM     73  C   UNL A   1      43.305  32.411  33.579  1.00  0.00     0.034 A 
BRANCH  60  74
ATOM     74  C   UNL A   1      44.665  33.719  27.695  1.00  0.00     0.023 A 
ATOM     75  C   UNL A   1      43.570  34.185  26.939  1.00  0.00     0.012 A 
ATOM     76  C   UNL A   1      45.938  34.283  27.485  1.00  0.00     0.148 A 
ATOM     77  C   UNL A   1      43.745  35.169  25.967  1.00  0.00     0.002 A 
ATOM     78  C   UNL A   1      46.096  35.298  26.552  1.00  0.00     0.091 A 
ATOM     79  F   UNL A   1      46.971  33.810  28.198  1.00  0.00    -0.205 F 
ATOM     80  C   UNL A   1      45.005  35.733  25.782  1.00  0.00     0.022 A 
BRANCH  78  81
ATOM     81  S   UNL A   1      47.660  36.145  26.296  1.00  0.00     0.127 S 
ATOM     82  O   UNL A   1      48.312  35.270  25.322  1.00  0.00    -0.237 OA
ATOM     83  O   UNL A   1      47.224  37.435  25.763  1.00  0.00    -0.237 OA
ATOM     84  O   UNL A   1      48.301  36.210  27.601  1.00  0.00    -0.744 OA
ENDBRANCH  78  81
ENDBRANCH  60  74
BRANCH  61  85
ATOM     85  C   UNL A   1      43.783  26.433  34.483  1.00  0.00     0.023 A 
ATOM     86  C   UNL A   1      42.525  25.943  34.883  1.00  0.00     0.012 A 
ATOM     87  C   UNL A   1      44.946  25.898  35.071  1.00  0.00     0.148 A 
ATOM     88  C   UNL A   1      42.425  24.966  35.875  1.00  0.00     0.002 A 
ATOM     89  C   UNL A   1      44.842  24.883  36.015  1.00  0.00     0.091 A 
ATOM     90  F   UNL A   1      46.134  26.388  34.689  1.00  0.00    -0.205 F 
ATOM     91  C   UNL A   1      43.581  24.429  36.433  1.00  0.00     0.022 A 
BRANCH  89  92
ATOM     92  S   UNL A   1      46.279  24.042  36.691  1.00  0.00     0.127 S 
ATOM     93  O   UNL A   1      46.938  25.118  37.426  1.00  0.00    -0.237 OA
ATOM     94  O   UNL A   1      45.659  23.013  37.528  1.00  0.00    -0.237 OA
ATOM     95  O   UNL A   1      47.011  23.518  35.547  1.00  0.00    -0.744 OA
ENDBRANCH  89  92
ENDBRANCH  61  85
BRANCH  73  96
ATOM     96  C   UNL A   1      42.922  33.367  34.681  1.00  0.00     0.023 A 
ATOM     97  C   UNL A   1      43.913  33.922  35.515  1.00  0.00     0.012 A 
ATOM     98  C   UNL A   1      41.581  33.774  34.837  1.00  0.00     0.148 A 
ATOM     99  C   UNL A   1      43.570  34.837  36.510  1.00  0.00     0.002 A 
ATOM    100  C   UNL A   1      41.256  34.728  35.794  1.00  0.00     0.091 A 
ATOM    101  F   UNL A   1      40.650  33.225  34.044  1.00  0.00    -0.205 F 
ATOM    102  C   UNL A   1      42.246  35.249  36.641  1.00  0.00     0.022 A 
BRANCH 100 103
ATOM    103  S   UNL A   1      39.595  35.392  35.967  1.00  0.00     0.127 S 
ATOM    104  O   UNL A   1      39.069  35.233  34.612  1.00  0.00    -0.237 OA
ATOM    105  O   UNL A   1      39.006  34.492  36.960  1.00  0.00    -0.237 OA
ATOM    106  O   UNL A   1      39.755  36.768  36.416  1.00  0.00    -0.744 OA
ENDBRANCH 100 103
ENDBRANCH  73  96
ENDBRANCH  47  48
ENDBRANCH  40  42
ENDBRANCH  39  40
ENDBRANCH  38  39
ENDBRANCH  37  38
ENDBRANCH  36  37
ENDBRANCH  35  36
ENDBRANCH   1  35
TORSDOF 27
ENDMDL
MODEL 2
REMARK VINA RESULT:      -7.6      5.099      8.261
REMARK SMILES Cc1ncccc1OC1(C(=O)OCCOCCOCCOCCOC(=O)c2ccc(-c3c4nc(c(-c5cccc(S(=O)(=O)[O-])c5F)c5ccc([nH]5)c(-c5cccc(S(=O)(=O)[O-])c5F)c5nc(c(-c6cccc(S(=O)(=O)[O-])c6F)c6ccc3[nH]6)C=C5)C=C4)cc2)CCN(C(=O)c2ccc(O)nn2)CC1
REMARK SMILES IDX 19 1 18 2 17 3 16 4 15 5 14 6 13 7 12 8 10 9 11 10 9 11
REMARK SMILES IDX 90 12 103 13 91 14 102 15 92 16 93 17 94 18 8 19 7 20 1 21
REMARK SMILES IDX 2 22 3 23 4 24 6 25 5 26 95 27 96 28 101 29 97 30 100 31
REMARK SMILES IDX 98 32 99 33 20 35 21 36 22 37 23 38 24 39 25 40 26 41 27 42
REMARK SMILES IDX 28 43 89 44 29 45 88 46 30 47 31 48 32 49 82 50 33 51 87 52
REMARK SMILES IDX 81 53 83 54 34 55 86 56 80 57 79 58 35 60 67 61 47 62 66 63
REMARK SMILES IDX 48 64 51 65 65 66 84 67 49 68 50 69 64 71 85 72 52 73 36 74
REMARK SMILES IDX 37 75 45 76 38 77 40 78 46 79 39 80 41 81 42 82 43 83 44 84
REMARK SMILES IDX 68 85 69 86 77 87 70 88 72 89 78 90 71 91 73 92 74 93 75 94
REMARK SMILES IDX 76 95 53 96 54 97 62 98 55 99 57 100 63 101 56 102 58 103
REMARK SMILES IDX 59 104 60 105 61 106
REMARK H PARENT 99 34 83 59 51 70
REMARK Flexibility Score: inf
ROOT
ATOM      1  C   UNL A   1      43.994  21.025  26.214  1.00  0.00     0.188 C 
ENDROOT
BRANCH   1   2
ATOM      2  O   UNL A   1      42.784  21.670  26.600  1.00  0.00    -0.377 OA
BRANCH   2   3
ATOM      3  C   UNL A   1      41.590  20.942  26.400  1.00  0.00     0.188 C 
BRANCH   3   4
ATOM      4  C   UNL A   1      40.293  21.730  26.625  1.00  0.00     0.188 C 
BRANCH   4   5
ATOM      5  O   UNL A   1      40.215  22.764  27.598  1.00  0.00    -0.376 OA
BRANCH   5   6
ATOM      6  C   UNL A   1      39.404  23.910  27.380  1.00  0.00     0.202 C 
BRANCH   6   7
ATOM      7  C   UNL A   1      38.439  23.981  26.187  1.00  0.00     0.261 C 
BRANCH   7   8
ATOM      8  O   UNL A   1      37.093  23.520  26.408  1.00  0.00    -0.460 OA
BRANCH   8   9
ATOM      9  C   UNL A   1      36.685  22.409  25.728  1.00  0.00     0.350 C 
ATOM     10  O   UNL A   1      37.468  21.613  25.215  1.00  0.00    -0.247 OA
BRANCH   9  11
ATOM     11  C   UNL A   1      35.122  22.349  25.552  1.00  0.00     0.209 C 
ATOM     12  C   UNL A   1      34.405  22.280  26.901  1.00  0.00     0.082 C 
ATOM     13  C   UNL A   1      34.883  23.672  24.824  1.00  0.00     0.082 C 
ATOM     14  C   UNL A   1      33.079  22.999  27.065  1.00  0.00     0.124 C 
ATOM     15  C   UNL A   1      33.463  24.158  24.827  1.00  0.00     0.124 C 
ATOM     16  N   UNL A   1      32.712  23.992  26.073  1.00  0.00    -0.337 N 
ATOM     17  C   UNL A   1      31.405  24.509  26.198  1.00  0.00     0.274 C 
ATOM     18  O   UNL A   1      30.633  24.215  27.106  1.00  0.00    -0.267 OA
BRANCH  11  19
ATOM     19  O   UNL A   1      34.965  21.255  24.612  1.00  0.00    -0.474 OA
BRANCH  19  20
ATOM     20  C   UNL A   1      34.140  20.182  24.503  1.00  0.00     0.142 A 
ATOM     21  C   UNL A   1      32.028  21.236  23.508  1.00  0.00     0.071 C 
ATOM     22  C   UNL A   1      32.872  20.093  23.920  1.00  0.00     0.079 A 
ATOM     23  N   UNL A   1      32.287  18.908  23.562  1.00  0.00    -0.258 NA
ATOM     24  C   UNL A   1      32.967  17.770  23.755  1.00  0.00     0.111 A 
ATOM     25  C   UNL A   1      34.791  18.955  24.715  1.00  0.00     0.050 A 
ATOM     26  C   UNL A   1      34.210  17.740  24.341  1.00  0.00     0.024 A 
ENDBRANCH  19  20
ENDBRANCH  11  19
BRANCH  17  27
ATOM     27  C   UNL A   1      30.972  25.466  25.163  1.00  0.00     0.151 A 
ATOM     28  C   UNL A   1      31.258  26.807  25.345  1.00  0.00     0.042 A 
ATOM     29  N   UNL A   1      30.573  24.930  23.978  1.00  0.00    -0.142 NA
ATOM     30  C   UNL A   1      31.144  27.633  24.239  1.00  0.00     0.072 A 
ATOM     31  N   UNL A   1      30.456  25.746  22.903  1.00  0.00    -0.112 NA
ATOM     32  C   UNL A   1      30.751  27.055  23.052  1.00  0.00     0.230 A 
BRANCH  32  33
ATOM     33  O   UNL A   1      30.678  27.793  21.915  1.00  0.00    -0.492 OA
ATOM     34  H   UNL A   1      31.300  28.475  21.758  1.00  0.00     0.295 HD
ENDBRANCH  32  33
ENDBRANCH  17  27
ENDBRANCH   9  11
ENDBRANCH   8   9
ENDBRANCH   7   8
ENDBRANCH   6   7
ENDBRANCH   5   6
ENDBRANCH   4   5
ENDBRANCH   3   4
ENDBRANCH   2   3
ENDBRANCH   1   2
BRANCH   1  35
ATOM     35  C   UNL A   1      43.965  20.173  24.928  1.00  0.00     0.188 C 
BRANCH  35  36
ATOM     36  O   UNL A   1      44.597  20.783  23.808  1.00  0.00    -0.376 OA
BRANCH  36  37
ATOM     37  C   UNL A   1      44.462  22.184  23.614  1.00  0.00     0.202 C 
BRANCH  37  38
ATOM     38  C   UNL A   1      45.669  23.093  23.912  1.00  0.00     0.261 C 
BRANCH  38  39
ATOM     39  O   UNL A   1      45.415  24.260  24.707  1.00  0.00    -0.460 OA
BRANCH  39  40
ATOM     40  C   UNL A   1      45.737  24.216  26.015  1.00  0.00     0.338 C 
ATOM     41  O   UNL A   1      46.475  23.410  26.561  1.00  0.00    -0.246 OA
BRANCH  40  42
ATOM     42  C   UNL A   1      45.218  25.443  26.653  1.00  0.00     0.060 A 
ATOM     43  C   UNL A   1      44.863  26.525  25.836  1.00  0.00     0.016 A 
ATOM     44  C   UNL A   1      45.086  25.530  28.040  1.00  0.00     0.016 A 
ATOM     45  C   UNL A   1      44.420  27.716  26.408  1.00  0.00     0.010 A 
ATOM     46  C   UNL A   1      44.666  26.733  28.614  1.00  0.00     0.010 A 
ATOM     47  C   UNL A   1      44.372  27.843  27.801  1.00  0.00    -0.014 A 
BRANCH  47  48
ATOM     48  C   UNL A   1      44.229  29.191  28.402  1.00  0.00     0.031 A 
ATOM     49  C   UNL A   1      45.430  30.097  28.407  1.00  0.00     0.074 A 
ATOM     50  C   UNL A   1      43.060  29.610  28.917  1.00  0.00     0.049 A 
ATOM     51  N   UNL A   1      45.560  31.300  28.902  1.00  0.00    -0.248 NA
ATOM     52  C   UNL A   1      46.650  29.574  27.766  1.00  0.00     0.031 C 
ATOM     53  C   UNL A   1      41.822  28.835  28.947  1.00  0.00     0.029 A 
ATOM     54  N   UNL A   1      42.734  30.792  29.536  1.00  0.00    -0.354 N 
ATOM     55  C   UNL A   1      46.880  31.662  28.666  1.00  0.00     0.074 A 
ATOM     56  C   UNL A   1      47.514  30.553  27.990  1.00  0.00     0.031 C 
ATOM     57  C   UNL A   1      40.878  29.549  29.584  1.00  0.00     0.029 A 
ATOM     58  C   UNL A   1      41.452  30.817  30.032  1.00  0.00     0.049 A 
ATOM     59  H   UNL A   1      43.360  31.548  29.618  1.00  0.00     0.167 HD
ATOM     60  C   UNL A   1      47.509  32.821  28.976  1.00  0.00     0.034 A 
ATOM     61  C   UNL A   1      40.829  31.745  30.785  1.00  0.00     0.034 A 
ATOM     62  C   UNL A   1      46.874  33.926  29.640  1.00  0.00     0.049 A 
ATOM     63  C   UNL A   1      41.564  33.009  31.154  1.00  0.00     0.074 A 
ATOM     64  C   UNL A   1      47.413  35.160  29.960  1.00  0.00     0.029 A 
ATOM     65  N   UNL A   1      45.569  33.926  30.104  1.00  0.00    -0.354 N 
ATOM     66  N   UNL A   1      42.779  33.385  30.833  1.00  0.00    -0.248 NA
ATOM     67  C   UNL A   1      40.829  33.994  31.964  1.00  0.00     0.031 C 
ATOM     68  C   UNL A   1      46.446  35.888  30.658  1.00  0.00     0.029 A 
ATOM     69  C   UNL A   1      45.288  35.129  30.726  1.00  0.00     0.049 A 
ATOM     70  H   UNL A   1      44.934  33.179  30.005  1.00  0.00     0.167 HD
ATOM     71  C   UNL A   1      42.940  34.660  31.364  1.00  0.00     0.074 A 
ATOM     72  C   UNL A   1      41.690  35.002  32.012  1.00  0.00     0.031 C 
ATOM     73  C   UNL A   1      44.024  35.474  31.325  1.00  0.00     0.034 A 
BRANCH  60  74
ATOM     74  C   UNL A   1      48.962  32.949  28.602  1.00  0.00     0.023 A 
ATOM     75  C   UNL A   1      49.964  32.677  29.555  1.00  0.00     0.012 A 
ATOM     76  C   UNL A   1      49.334  33.293  27.288  1.00  0.00     0.148 A 
ATOM     77  C   UNL A   1      51.313  32.780  29.216  1.00  0.00     0.002 A 
ATOM     78  C   UNL A   1      50.679  33.344  26.944  1.00  0.00     0.091 A 
ATOM     79  F   UNL A   1      48.366  33.570  26.402  1.00  0.00    -0.205 F 
ATOM     80  C   UNL A   1      51.670  33.102  27.910  1.00  0.00     0.022 A 
BRANCH  78  81
ATOM     81  S   UNL A   1      51.238  33.669  25.269  1.00  0.00     0.127 S 
ATOM     82  O   UNL A   1      51.284  32.319  24.707  1.00  0.00    -0.237 OA
ATOM     83  O   UNL A   1      50.163  34.511  24.746  1.00  0.00    -0.237 OA
ATOM     84  O   UNL A   1      52.527  34.334  25.396  1.00  0.00    -0.744 OA
ENDBRANCH  78  81
ENDBRANCH  60  74
BRANCH  61  85
ATOM     85  C   UNL A   1      39.422  31.525  31.231  1.00  0.00     0.023 A 
ATOM     86  C   UNL A   1      39.168  30.798  32.409  1.00  0.00     0.012 A 
ATOM     87  C   UNL A   1      38.336  32.035  30.491  1.00  0.00     0.148 A 
ATOM     88  C   UNL A   1      37.858  30.551  32.825  1.00  0.00     0.002 A 
ATOM     89  C   UNL A   1      37.037  31.838  30.943  1.00  0.00     0.091 A 
ATOM     90  F   UNL A   1      38.597  32.711  29.364  1.00  0.00    -0.205 F 
ATOM     91  C   UNL A   1      36.794  31.079  32.098  1.00  0.00     0.022 A 
BRANCH  89  92
ATOM     92  S   UNL A   1      35.613  32.589  30.145  1.00  0.00     0.127 S 
ATOM     93  O   UNL A   1      34.561  32.361  31.131  1.00  0.00    -0.237 OA
ATOM     94  O   UNL A   1      36.043  33.982  30.012  1.00  0.00    -0.237 OA
ATOM     95  O   UNL A   1      35.451  31.891  28.877  1.00  0.00    -0.744 OA
ENDBRANCH  89  92
ENDBRANCH  61  85
BRANCH  73  96
ATOM     96  C   UNL A   1      43.904  36.841  31.953  1.00  0.00     0.023 A 
ATOM     97  C   UNL A   1      44.043  36.997  33.347  1.00  0.00     0.012 A 
ATOM     98  C   UNL A   1      43.728  37.983  31.145  1.00  0.00     0.148 A 
ATOM     99  C   UNL A   1      43.972  38.263  33.928  1.00  0.00     0.002 A 
ATOM    100  C   UNL A   1      43.714  39.245  31.726  1.00  0.00     0.091 A 
ATOM    101  F   UNL A   1      43.583  37.814  29.822  1.00  0.00    -0.205 F 
ATOM    102  C   UNL A   1      43.821  39.386  33.118  1.00  0.00     0.022 A 
BRANCH 100 103
ATOM    103  S   UNL A   1      43.626  40.753  30.753  1.00  0.00     0.127 S 
ATOM    104  O   UNL A   1      42.224  40.756  30.336  1.00  0.00    -0.237 OA
ATOM    105  O   UNL A   1      43.970  41.777  31.741  1.00  0.00    -0.237 OA
ATOM    106  O   UNL A   1      44.596  40.599  29.678  1.00  0.00    -0.744 OA
ENDBRANCH 100 103
ENDBRANCH  73  96
ENDBRANCH  47  48
ENDBRANCH  40  42
ENDBRANCH  39  40
ENDBRANCH  38  39
ENDBRANCH  37  38
ENDBRANCH  36  37
ENDBRANCH  35  36
ENDBRANCH   1  35
TORSDOF 27
ENDMDL
MODEL 3
REMARK VINA RESULT:      -7.6      4.618     11.833
REMARK SMILES Cc1ncccc1OC1(C(=O)OCCOCCOCCOCCOC(=O)c2ccc(-c3c4nc(c(-c5cccc(S(=O)(=O)[O-])c5F)c5ccc([nH]5)c(-c5cccc(S(=O)(=O)[O-])c5F)c5nc(c(-c6cccc(S(=O)(=O)[O-])c6F)c6ccc3[nH]6)C=C5)C=C4)cc2)CCN(C(=O)c2ccc(O)nn2)CC1
REMARK SMILES IDX 19 1 18 2 17 3 16 4 15 5 14 6 13 7 12 8 10 9 11 10 9 11
REMARK SMILES IDX 90 12 103 13 91 14 102 15 92 16 93 17 94 18 8 19 7 20 1 21
REMARK SMILES IDX 2 22 3 23 4 24 6 25 5 26 95 27 96 28 101 29 97 30 100 31
REMARK SMILES IDX 98 32 99 33 20 35 21 36 22 37 23 38 24 39 25 40 26 41 27 42
REMARK SMILES IDX 28 43 89 44 29 45 88 46 30 47 31 48 32 49 82 50 33 51 87 52
REMARK SMILES IDX 81 53 83 54 34 55 86 56 80 57 79 58 35 60 67 61 47 62 66 63
REMARK SMILES IDX 48 64 51 65 65 66 84 67 49 68 50 69 64 71 85 72 52 73 36 74
REMARK SMILES IDX 37 75 45 76 38 77 40 78 46 79 39 80 41 81 42 82 43 83 44 84
REMARK SMILES IDX 68 85 69 86 77 87 70 88 72 89 78 90 71 91 73 92 74 93 75 94
REMARK SMILES IDX 76 95 53 96 54 97 62 98 55 99 57 100 63 101 56 102 58 103
REMARK SMILES IDX 59 104 60 105 61 106
REMARK H PARENT 99 34 83 59 51 70
REMARK Flexibility Score: inf
ROOT
ATOM      1  C   UNL A   1      35.616  31.876  30.051  1.00  0.00     0.188 C 
ENDROOT
BRANCH   1   2
ATOM      2  O   UNL A   1      36.979  31.635  30.390  1.00  0.00    -0.377 OA
BRANCH   2   3
ATOM      3  C   UNL A   1      37.892  31.553  29.316  1.00  0.00     0.188 C 
BRANCH   3   4
ATOM      4  C   UNL A   1      38.115  30.146  28.747  1.00  0.00     0.188 C 
BRANCH   4   5
ATOM      5  O   UNL A   1      37.038  29.380  28.224  1.00  0.00    -0.376 OA
BRANCH   5   6
ATOM      6  C   UNL A   1      36.144  29.936  27.271  1.00  0.00     0.202 C 
BRANCH   6   7
ATOM      7  C   UNL A   1      34.663  29.530  27.245  1.00  0.00     0.261 C 
BRANCH   7   8
ATOM      8  O   UNL A   1      34.173  28.925  26.034  1.00  0.00    -0.460 OA
BRANCH   8   9
ATOM      9  C   UNL A   1      33.120  28.062  26.139  1.00  0.00     0.350 C 
ATOM     10  O   UNL A   1      32.925  27.362  27.130  1.00  0.00    -0.247 OA
BRANCH   9  11
ATOM     11  C   UNL A   1      32.287  27.962  24.808  1.00  0.00     0.209 C 
ATOM     12  C   UNL A   1      31.030  27.111  24.992  1.00  0.00     0.082 C 
ATOM     13  C   UNL A   1      31.970  29.440  24.578  1.00  0.00     0.082 C 
ATOM     14  C   UNL A   1      29.764  27.501  24.251  1.00  0.00     0.124 C 
ATOM     15  C   UNL A   1      30.857  29.714  23.609  1.00  0.00     0.124 C 
ATOM     16  N   UNL A   1      29.688  28.834  23.682  1.00  0.00    -0.337 N 
ATOM     17  C   UNL A   1      28.554  29.078  22.878  1.00  0.00     0.274 C 
ATOM     18  O   UNL A   1      27.645  28.271  22.708  1.00  0.00    -0.267 OA
BRANCH  11  19
ATOM     19  O   UNL A   1      33.293  27.538  23.852  1.00  0.00    -0.474 OA
BRANCH  19  20
ATOM     20  C   UNL A   1      33.512  26.427  23.104  1.00  0.00     0.142 A 
ATOM     21  C   UNL A   1      34.528  24.822  24.822  1.00  0.00     0.071 C 
ATOM     22  C   UNL A   1      33.952  25.160  23.502  1.00  0.00     0.079 A 
ATOM     23  N   UNL A   1      33.808  24.036  22.736  1.00  0.00    -0.258 NA
ATOM     24  C   UNL A   1      33.194  24.138  21.550  1.00  0.00     0.111 A 
ATOM     25  C   UNL A   1      32.908  26.482  21.836  1.00  0.00     0.050 A 
ATOM     26  C   UNL A   1      32.743  25.337  21.051  1.00  0.00     0.024 A 
ENDBRANCH  19  20
ENDBRANCH  11  19
BRANCH  17  27
ATOM     27  C   UNL A   1      28.482  30.396  22.223  1.00  0.00     0.151 A 
ATOM     28  C   UNL A   1      28.326  30.441  20.849  1.00  0.00     0.042 A 
ATOM     29  N   UNL A   1      28.291  31.466  23.042  1.00  0.00    -0.142 NA
ATOM     30  C   UNL A   1      27.934  31.649  20.296  1.00  0.00     0.072 A 
ATOM     31  N   UNL A   1      27.917  32.646  22.492  1.00  0.00    -0.112 NA
ATOM     32  C   UNL A   1      27.738  32.707  21.156  1.00  0.00     0.230 A 
BRANCH  32  33
ATOM     33  O   UNL A   1      27.296  33.903  20.689  1.00  0.00    -0.492 OA
ATOM     34  H   UNL A   1      26.841  33.948  19.872  1.00  0.00     0.295 HD
ENDBRANCH  32  33
ENDBRANCH  17  27
ENDBRANCH   9  11
ENDBRANCH   8   9
ENDBRANCH   7   8
ENDBRANCH   6   7
ENDBRANCH   5   6
ENDBRANCH   4   5
ENDBRANCH   3   4
ENDBRANCH   2   3
ENDBRANCH   1   2
BRANCH   1  35
ATOM     35  C   UNL A   1      34.842  32.900  30.906  1.00  0.00     0.188 C 
BRANCH  35  36
ATOM     36  O   UNL A   1      35.115  32.823  32.301  1.00  0.00    -0.376 OA
BRANCH  36  37
ATOM     37  C   UNL A   1      35.186  34.021  33.061  1.00  0.00     0.202 C 
BRANCH  37  38
ATOM     38  C   UNL A   1      35.926  34.000  34.411  1.00  0.00     0.261 C 
BRANCH  38  39
ATOM     39  O   UNL A   1      36.412  32.727  34.860  1.00  0.00    -0.460 OA
BRANCH  39  40
ATOM     40  C   UNL A   1      37.514  32.707  35.635  1.00  0.00     0.338 C 
ATOM     41  O   UNL A   1      37.582  33.002  36.818  1.00  0.00    -0.246 OA
BRANCH  40  42
ATOM     42  C   UNL A   1      38.597  32.059  34.869  1.00  0.00     0.060 A 
ATOM     43  C   UNL A   1      39.925  32.373  35.189  1.00  0.00     0.016 A 
ATOM     44  C   UNL A   1      38.310  31.156  33.844  1.00  0.00     0.016 A 
ATOM     45  C   UNL A   1      40.971  31.820  34.452  1.00  0.00     0.010 A 
ATOM     46  C   UNL A   1      39.359  30.622  33.089  1.00  0.00     0.010 A 
ATOM     47  C   UNL A   1      40.690  30.986  33.364  1.00  0.00    -0.014 A 
BRANCH  47  48
ATOM     48  C   UNL A   1      41.764  30.676  32.390  1.00  0.00     0.031 A 
ATOM     49  C   UNL A   1      42.451  29.341  32.494  1.00  0.00     0.074 A 
ATOM     50  C   UNL A   1      42.112  31.546  31.427  1.00  0.00     0.049 A 
ATOM     51  N   UNL A   1      43.435  28.857  31.783  1.00  0.00    -0.248 NA
ATOM     52  C   UNL A   1      41.961  28.429  33.542  1.00  0.00     0.031 C 
ATOM     53  C   UNL A   1      41.503  32.856  31.209  1.00  0.00     0.029 A 
ATOM     54  N   UNL A   1      43.085  31.461  30.462  1.00  0.00    -0.354 N 
ATOM     55  C   UNL A   1      43.706  27.604  32.318  1.00  0.00     0.074 A 
ATOM     56  C   UNL A   1      42.789  27.403  33.417  1.00  0.00     0.031 C 
ATOM     57  C   UNL A   1      42.139  33.468  30.195  1.00  0.00     0.029 A 
ATOM     58  C   UNL A   1      43.218  32.606  29.713  1.00  0.00     0.049 A 
ATOM     59  H   UNL A   1      43.636  30.656  30.321  1.00  0.00     0.167 HD
ATOM     60  C   UNL A   1      44.631  26.697  31.925  1.00  0.00     0.034 A 
ATOM     61  C   UNL A   1      44.125  32.930  28.770  1.00  0.00     0.034 A 
ATOM     62  C   UNL A   1      45.535  26.896  30.826  1.00  0.00     0.049 A 
ATOM     63  C   UNL A   1      45.173  31.917  28.378  1.00  0.00     0.074 A 
ATOM     64  C   UNL A   1      46.480  26.020  30.322  1.00  0.00     0.029 A 
ATOM     65  N   UNL A   1      45.624  28.057  30.076  1.00  0.00    -0.354 N 
ATOM     66  N   UNL A   1      45.350  30.695  28.821  1.00  0.00    -0.248 NA
ATOM     67  C   UNL A   1      46.127  32.317  27.333  1.00  0.00     0.031 C 
ATOM     68  C   UNL A   1      47.170  26.669  29.294  1.00  0.00     0.029 A 
ATOM     69  C   UNL A   1      46.619  27.930  29.124  1.00  0.00     0.049 A 
ATOM     70  H   UNL A   1      45.060  28.855  30.200  1.00  0.00     0.167 HD
ATOM     71  C   UNL A   1      46.404  30.168  28.083  1.00  0.00     0.074 A 
ATOM     72  C   UNL A   1      46.815  31.198  27.150  1.00  0.00     0.031 C 
ATOM     73  C   UNL A   1      46.986  28.946  28.170  1.00  0.00     0.034 A 
BRANCH  60  74
ATOM     74  C   UNL A   1      44.711  25.404  32.694  1.00  0.00     0.023 A 
ATOM     75  C   UNL A   1      44.132  24.232  32.168  1.00  0.00     0.012 A 
ATOM     76  C   UNL A   1      45.406  25.343  33.918  1.00  0.00     0.148 A 
ATOM     77  C   UNL A   1      44.211  23.026  32.865  1.00  0.00     0.002 A 
ATOM     78  C   UNL A   1      45.524  24.128  34.581  1.00  0.00     0.091 A 
ATOM     79  F   UNL A   1      45.930  26.473  34.412  1.00  0.00    -0.205 F 
ATOM     80  C   UNL A   1      44.917  22.973  34.064  1.00  0.00     0.022 A 
BRANCH  78  81
ATOM     81  S   UNL A   1      46.481  23.938  36.090  1.00  0.00     0.127 S 
ATOM     82  O   UNL A   1      45.971  22.667  36.603  1.00  0.00    -0.237 OA
ATOM     83  O   UNL A   1      47.850  23.885  35.578  1.00  0.00    -0.237 OA
ATOM     84  O   UNL A   1      46.180  25.105  36.908  1.00  0.00    -0.744 OA
ENDBRANCH  78  81
ENDBRANCH  60  74
BRANCH  61  85
ATOM     85  C   UNL A   1      44.078  34.268  28.114  1.00  0.00     0.023 A 
ATOM     86  C   UNL A   1      43.352  34.435  26.919  1.00  0.00     0.012 A 
ATOM     87  C   UNL A   1      44.748  35.376  28.670  1.00  0.00     0.148 A 
ATOM     88  C   UNL A   1      43.323  35.670  26.270  1.00  0.00     0.002 A 
ATOM     89  C   UNL A   1      44.666  36.618  28.051  1.00  0.00     0.091 A 
ATOM     90  F   UNL A   1      45.447  35.194  29.799  1.00  0.00    -0.205 F 
ATOM     91  C   UNL A   1      43.971  36.763  26.840  1.00  0.00     0.022 A 
BRANCH  89  92
ATOM     92  S   UNL A   1      45.358  38.107  28.779  1.00  0.00     0.127 S 
ATOM     93  O   UNL A   1      46.746  37.714  29.005  1.00  0.00    -0.237 OA
ATOM     94  O   UNL A   1      45.160  39.086  27.709  1.00  0.00    -0.237 OA
ATOM     95  O   UNL A   1      44.574  38.367  29.979  1.00  0.00    -0.744 OA
ENDBRANCH  89  92
ENDBRANCH  61  85
BRANCH  73  96
ATOM     96  C   UNL A   1      48.096  28.621  27.203  1.00  0.00     0.023 A 
ATOM     97  C   UNL A   1      49.443  28.736  27.602  1.00  0.00     0.012 A 
ATOM     98  C   UNL A   1      47.798  28.127  25.916  1.00  0.00     0.148 A 
ATOM     99  C   UNL A   1      50.473  28.399  26.725  1.00  0.00     0.002 A 
ATOM    100  C   UNL A   1      48.829  27.742  25.068  1.00  0.00     0.091 A 
ATOM    101  F   UNL A   1      46.512  28.039  25.548  1.00  0.00    -0.205 F 
ATOM    102  C   UNL A   1      50.167  27.891  25.464  1.00  0.00     0.022 A 
BRANCH 100 103
ATOM    103  S   UNL A   1      48.528  26.984  23.467  1.00  0.00     0.127 S 
ATOM    104  O   UNL A   1      49.878  26.923  22.908  1.00  0.00    -0.237 OA
ATOM    105  O   UNL A   1      47.964  25.686  23.842  1.00  0.00    -0.237 OA
ATOM    106  O   UNL A   1      47.604  27.866  22.769  1.00  0.00    -0.744 OA
ENDBRANCH 100 103
ENDBRANCH  73  96
ENDBRANCH  47  48
ENDBRANCH  40  42
ENDBRANCH  39  40
ENDBRANCH  38  39
ENDBRANCH  37  38
ENDBRANCH  36  37
ENDBRANCH  35  36
ENDBRANCH   1  35
TORSDOF 27
ENDMDL
