MODEL 1
REMARK VINA RESULT:     -10.1      0.000      0.000
REMARK SMILES CC1(C)CCSC[C@@]1(Nc1ccccc1Br)C(=O)OCCOCCOCCOCCOC(=O)c1ccc(-c2c3nc(c(-c4cccc(S(=O)(=O)[O-])c4F)c4ccc([nH]4)c(-c4cccc(S(=O)(=O)[O-])c4F)c4nc(c(-c5cccc(S(=O)(=O)[O-])c5F)c5ccc2[nH]5)C=C4)C=C3)cc1
REMARK SMILES IDX 26 1 25 2 24 3 23 4 22 5 21 6 20 7 19 8 17 9 18 10 8 11 1 12
REMARK SMILES IDX 2 13 3 14 4 15 5 16 7 17 6 18 9 19 10 21 11 22 15 23 12 24
REMARK SMILES IDX 14 25 16 26 13 27 27 28 28 29 29 30 30 31 31 32 32 33 33 34
REMARK SMILES IDX 34 35 35 36 96 37 36 38 95 39 37 40 38 41 39 42 89 43 40 44
REMARK SMILES IDX 94 45 88 46 90 47 41 48 93 49 87 50 86 51 42 53 74 54 54 55
REMARK SMILES IDX 73 56 55 57 58 58 72 59 91 60 56 61 57 62 71 64 92 65 59 66
REMARK SMILES IDX 43 67 44 68 52 69 45 70 47 71 53 72 46 73 48 74 49 75 50 76
REMARK SMILES IDX 51 77 75 78 76 79 84 80 77 81 79 82 85 83 78 84 80 85 81 86
REMARK SMILES IDX 82 87 83 88 60 89 61 90 69 91 62 92 64 93 70 94 63 95 65 96
REMARK SMILES IDX 66 97 67 98 68 99
REMARK H PARENT 9 20 90 52 58 63
REMARK Flexibility Score: inf
ROOT
ATOM      1  C   UNL A   1      35.272  21.648  26.321  1.00  0.00     0.188 C 
ENDROOT
BRANCH   1   2
ATOM      2  O   UNL A   1      34.144  22.500  26.286  1.00  0.00    -0.377 OA
BRANCH   2   3
ATOM      3  C   UNL A   1      33.912  23.294  25.129  1.00  0.00     0.188 C 
BRANCH   3   4
ATOM      4  C   UNL A   1      33.201  22.646  23.937  1.00  0.00     0.188 C 
BRANCH   4   5
ATOM      5  O   UNL A   1      32.336  23.474  23.149  1.00  0.00    -0.376 OA
BRANCH   5   6
ATOM      6  C   UNL A   1      32.827  24.046  21.937  1.00  0.00     0.202 C 
BRANCH   6   7
ATOM      7  C   UNL A   1      33.227  25.518  22.042  1.00  0.00     0.261 C 
BRANCH   7   8
ATOM      8  O   UNL A   1      32.421  26.229  22.996  1.00  0.00    -0.461 OA
BRANCH   8   9
ATOM      9  C   UNL A   1      32.903  27.413  23.450  1.00  0.00     0.333 C 
ATOM     10  O   UNL A   1      33.960  27.902  23.063  1.00  0.00    -0.249 OA
BRANCH   9  11
ATOM     11  C   UNL A   1      32.003  28.057  24.553  1.00  0.00     0.150 C 
ATOM     12  C   UNL A   1      33.761  27.134  26.282  1.00  0.00     0.014 C 
ATOM     13  C   UNL A   1      32.256  27.234  25.892  1.00  0.00     0.000 C 
ATOM     14  C   UNL A   1      31.768  25.766  25.769  1.00  0.00     0.014 C 
ATOM     15  C   UNL A   1      31.492  27.903  27.062  1.00  0.00     0.020 C 
ATOM     16  C   UNL A   1      31.995  29.288  27.454  1.00  0.00     0.070 C 
ATOM     17  C   UNL A   1      32.513  29.515  24.690  1.00  0.00     0.110 C 
ATOM     18  S   UNL A   1      31.986  30.518  26.131  1.00  0.00    -0.159 SA
BRANCH  11  19
ATOM     19  N   UNL A   1      30.536  27.934  24.186  1.00  0.00    -0.368 N 
ATOM     20  H   UNL A   1      30.073  27.182  24.620  1.00  0.00     0.161 HD
BRANCH  19  21
ATOM     21  C   UNL A   1      29.729  28.696  23.345  1.00  0.00     0.049 A 
ATOM     22  C   UNL A   1      30.163  29.875  22.734  1.00  0.00     0.027 A 
ATOM     23  C   UNL A   1      28.382  28.332  23.091  1.00  0.00     0.041 A 
ATOM     24  C   UNL A   1      29.342  30.624  21.877  1.00  0.00     0.002 A 
ATOM     25  C   UNL A   1      27.564  29.056  22.212  1.00  0.00     0.018 A 
ATOM     26  Br  UNL A   1      27.572  26.842  23.960  1.00  0.00    -0.049 Br
ATOM     27  C   UNL A   1      28.049  30.202  21.600  1.00  0.00     0.001 A 
ENDBRANCH  19  21
ENDBRANCH  11  19
ENDBRANCH   9  11
ENDBRANCH   8   9
ENDBRANCH   7   8
ENDBRANCH   6   7
ENDBRANCH   5   6
ENDBRANCH   4   5
ENDBRANCH   3   4
ENDBRANCH   2   3
ENDBRANCH   1   2
BRANCH   1  28
ATOM     28  C   UNL A   1      36.502  22.308  25.687  1.00  0.00     0.188 C 
BRANCH  28  29
ATOM     29  O   UNL A   1      37.227  21.551  24.719  1.00  0.00    -0.376 OA
BRANCH  29  30
ATOM     30  C   UNL A   1      37.327  20.139  24.905  1.00  0.00     0.202 C 
BRANCH  30  31
ATOM     31  C   UNL A   1      38.697  19.509  25.226  1.00  0.00     0.261 C 
BRANCH  31  32
ATOM     32  O   UNL A   1      39.251  19.853  26.509  1.00  0.00    -0.460 OA
BRANCH  32  33
ATOM     33  C   UNL A   1      40.523  20.301  26.501  1.00  0.00     0.338 C 
ATOM     34  O   UNL A   1      41.515  19.717  26.073  1.00  0.00    -0.246 OA
BRANCH  33  35
ATOM     35  C   UNL A   1      40.587  21.679  27.009  1.00  0.00     0.060 A 
ATOM     36  C   UNL A   1      39.877  22.695  26.353  1.00  0.00     0.016 A 
ATOM     37  C   UNL A   1      41.495  21.991  28.020  1.00  0.00     0.016 A 
ATOM     38  C   UNL A   1      40.100  24.031  26.683  1.00  0.00     0.010 A 
ATOM     39  C   UNL A   1      41.717  23.330  28.351  1.00  0.00     0.010 A 
ATOM     40  C   UNL A   1      41.055  24.356  27.653  1.00  0.00    -0.014 A 
BRANCH  40  41
ATOM     41  C   UNL A   1      41.519  25.756  27.803  1.00  0.00     0.031 A 
ATOM     42  C   UNL A   1      42.903  26.107  27.325  1.00  0.00     0.074 A 
ATOM     43  C   UNL A   1      40.748  26.689  28.387  1.00  0.00     0.049 A 
ATOM     44  N   UNL A   1      43.568  27.224  27.459  1.00  0.00    -0.248 NA
ATOM     45  C   UNL A   1      43.637  25.050  26.610  1.00  0.00     0.031 C 
ATOM     46  C   UNL A   1      39.388  26.474  28.878  1.00  0.00     0.029 A 
ATOM     47  N   UNL A   1      41.022  27.996  28.704  1.00  0.00    -0.354 N 
ATOM     48  C   UNL A   1      44.815  26.990  26.893  1.00  0.00     0.074 A 
ATOM     49  C   UNL A   1      44.814  25.626  26.411  1.00  0.00     0.031 C 
ATOM     50  C   UNL A   1      38.963  27.598  29.480  1.00  0.00     0.029 A 
ATOM     51  C   UNL A   1      40.031  28.597  29.444  1.00  0.00     0.049 A 
ATOM     52  H   UNL A   1      41.847  28.457  28.429  1.00  0.00     0.167 HD
ATOM     53  C   UNL A   1      45.867  27.835  26.780  1.00  0.00     0.034 A 
ATOM     54  C   UNL A   1      40.006  29.799  30.054  1.00  0.00     0.034 A 
ATOM     55  C   UNL A   1      45.855  29.198  27.233  1.00  0.00     0.049 A 
ATOM     56  C   UNL A   1      41.194  30.720  29.926  1.00  0.00     0.074 A 
ATOM     57  C   UNL A   1      46.845  30.156  27.102  1.00  0.00     0.029 A 
ATOM     58  N   UNL A   1      44.809  29.793  27.919  1.00  0.00    -0.354 N 
ATOM     59  N   UNL A   1      42.320  30.531  29.281  1.00  0.00    -0.248 NA
ATOM     60  C   UNL A   1      41.097  32.032  30.585  1.00  0.00     0.031 C 
ATOM     61  C   UNL A   1      46.410  31.321  27.741  1.00  0.00     0.029 A 
ATOM     62  C   UNL A   1      45.136  31.100  28.237  1.00  0.00     0.049 A 
ATOM     63  H   UNL A   1      43.959  29.353  28.147  1.00  0.00     0.167 HD
ATOM     64  C   UNL A   1      43.049  31.708  29.427  1.00  0.00     0.074 A 
ATOM     65  C   UNL A   1      42.230  32.611  30.209  1.00  0.00     0.031 C 
ATOM     66  C   UNL A   1      44.287  32.010  28.965  1.00  0.00     0.034 A 
BRANCH  53  67
ATOM     67  C   UNL A   1      47.120  27.308  26.134  1.00  0.00     0.023 A 
ATOM     68  C   UNL A   1      47.331  27.492  24.752  1.00  0.00     0.012 A 
ATOM     69  C   UNL A   1      48.109  26.667  26.905  1.00  0.00     0.148 A 
ATOM     70  C   UNL A   1      48.489  27.014  24.142  1.00  0.00     0.002 A 
ATOM     71  C   UNL A   1      49.282  26.235  26.298  1.00  0.00     0.091 A 
ATOM     72  F   UNL A   1      47.878  26.478  28.213  1.00  0.00    -0.205 F 
ATOM     73  C   UNL A   1      49.468  26.395  24.916  1.00  0.00     0.022 A 
BRANCH  71  74
ATOM     74  S   UNL A   1      50.633  25.500  27.226  1.00  0.00     0.127 S 
ATOM     75  O   UNL A   1      50.021  24.262  27.709  1.00  0.00    -0.237 OA
ATOM     76  O   UNL A   1      51.651  25.314  26.192  1.00  0.00    -0.237 OA
ATOM     77  O   UNL A   1      50.985  26.468  28.255  1.00  0.00    -0.744 OA
ENDBRANCH  71  74
ENDBRANCH  53  67
BRANCH  54  78
ATOM     78  C   UNL A   1      38.805  30.206  30.836  1.00  0.00     0.023 A 
ATOM     79  C   UNL A   1      38.719  29.879  32.203  1.00  0.00     0.012 A 
ATOM     80  C   UNL A   1      37.759  30.936  30.238  1.00  0.00     0.148 A 
ATOM     81  C   UNL A   1      37.603  30.248  32.954  1.00  0.00     0.002 A 
ATOM     82  C   UNL A   1      36.676  31.350  31.004  1.00  0.00     0.091 A 
ATOM     83  F   UNL A   1      37.852  31.223  28.931  1.00  0.00    -0.205 F 
ATOM     84  C   UNL A   1      36.587  30.993  32.358  1.00  0.00     0.022 A 
BRANCH  82  85
ATOM     85  S   UNL A   1      35.386  32.419  30.356  1.00  0.00     0.127 S 
ATOM     86  O   UNL A   1      34.954  31.682  29.172  1.00  0.00    -0.237 OA
ATOM     87  O   UNL A   1      34.424  32.429  31.460  1.00  0.00    -0.237 OA
ATOM     88  O   UNL A   1      36.026  33.703  30.104  1.00  0.00    -0.744 OA
ENDBRANCH  82  85
ENDBRANCH  54  78
BRANCH  66  89
ATOM     89  C   UNL A   1      44.835  33.386  29.245  1.00  0.00     0.023 A 
ATOM     90  C   UNL A   1      45.641  33.606  30.379  1.00  0.00     0.012 A 
ATOM     91  C   UNL A   1      44.643  34.432  28.319  1.00  0.00     0.148 A 
ATOM     92  C   UNL A   1      46.227  34.852  30.600  1.00  0.00     0.002 A 
ATOM     93  C   UNL A   1      45.270  35.656  28.521  1.00  0.00     0.091 A 
ATOM     94  F   UNL A   1      43.859  34.207  27.254  1.00  0.00    -0.205 F 
ATOM     95  C   UNL A   1      46.053  35.871  29.665  1.00  0.00     0.022 A 
BRANCH  93  96
ATOM     96  S   UNL A   1      45.186  36.993  27.323  1.00  0.00     0.127 S 
ATOM     97  O   UNL A   1      45.699  38.120  28.099  1.00  0.00    -0.237 OA
ATOM     98  O   UNL A   1      46.083  36.519  26.267  1.00  0.00    -0.237 OA
ATOM     99  O   UNL A   1      43.787  37.094  26.929  1.00  0.00    -0.744 OA
ENDBRANCH  93  96
ENDBRANCH  66  89
ENDBRANCH  40  41
ENDBRANCH  33  35
ENDBRANCH  32  33
ENDBRANCH  31  32
ENDBRANCH  30  31
ENDBRANCH  29  30
ENDBRANCH  28  29
ENDBRANCH   1  28
TORSDOF 25
ENDMDL
MODEL 2
REMARK VINA RESULT:      -9.1      2.011      2.335
REMARK SMILES CC1(C)CCSC[C@@]1(Nc1ccccc1Br)C(=O)OCCOCCOCCOCCOC(=O)c1ccc(-c2c3nc(c(-c4cccc(S(=O)(=O)[O-])c4F)c4ccc([nH]4)c(-c4cccc(S(=O)(=O)[O-])c4F)c4nc(c(-c5cccc(S(=O)(=O)[O-])c5F)c5ccc2[nH]5)C=C4)C=C3)cc1
REMARK SMILES IDX 26 1 25 2 24 3 23 4 22 5 21 6 20 7 19 8 17 9 18 10 8 11 1 12
REMARK SMILES IDX 2 13 3 14 4 15 5 16 7 17 6 18 9 19 10 21 11 22 15 23 12 24
REMARK SMILES IDX 14 25 16 26 13 27 27 28 28 29 29 30 30 31 31 32 32 33 33 34
REMARK SMILES IDX 34 35 35 36 96 37 36 38 95 39 37 40 38 41 39 42 89 43 40 44
REMARK SMILES IDX 94 45 88 46 90 47 41 48 93 49 87 50 86 51 42 53 74 54 54 55
REMARK SMILES IDX 73 56 55 57 58 58 72 59 91 60 56 61 57 62 71 64 92 65 59 66
REMARK SMILES IDX 43 67 44 68 52 69 45 70 47 71 53 72 46 73 48 74 49 75 50 76
REMARK SMILES IDX 51 77 75 78 76 79 84 80 77 81 79 82 85 83 78 84 80 85 81 86
REMARK SMILES IDX 82 87 83 88 60 89 61 90 69 91 62 92 64 93 70 94 63 95 65 96
REMARK SMILES IDX 66 97 67 98 68 99
REMARK H PARENT 9 20 90 52 58 63
REMARK Flexibility Score: inf
ROOT
ATOM      1  C   UNL A   1      36.311  21.955  25.955  1.00  0.00     0.188 C 
ENDROOT
BRANCH   1   2
ATOM      2  O   UNL A   1      35.566  23.130  25.698  1.00  0.00    -0.377 OA
BRANCH   2   3
ATOM      3  C   UNL A   1      35.704  23.774  24.437  1.00  0.00     0.188 C 
BRANCH   3   4
ATOM      4  C   UNL A   1      35.152  23.063  23.196  1.00  0.00     0.188 C 
BRANCH   4   5
ATOM      5  O   UNL A   1      33.728  22.981  23.057  1.00  0.00    -0.376 OA
BRANCH   5   6
ATOM      6  C   UNL A   1      33.106  23.517  21.889  1.00  0.00     0.202 C 
BRANCH   6   7
ATOM      7  C   UNL A   1      33.049  25.044  21.841  1.00  0.00     0.261 C 
BRANCH   7   8
ATOM      8  O   UNL A   1      32.784  25.615  23.134  1.00  0.00    -0.461 OA
BRANCH   8   9
ATOM      9  C   UNL A   1      32.986  26.949  23.271  1.00  0.00     0.333 C 
ATOM     10  O   UNL A   1      33.848  27.567  22.653  1.00  0.00    -0.249 OA
BRANCH   9  11
ATOM     11  C   UNL A   1      32.046  27.603  24.336  1.00  0.00     0.150 C 
ATOM     12  C   UNL A   1      33.720  26.661  26.137  1.00  0.00     0.014 C 
ATOM     13  C   UNL A   1      32.234  26.777  25.684  1.00  0.00     0.000 C 
ATOM     14  C   UNL A   1      31.737  25.314  25.540  1.00  0.00     0.014 C 
ATOM     15  C   UNL A   1      31.428  27.455  26.821  1.00  0.00     0.020 C 
ATOM     16  C   UNL A   1      31.929  28.834  27.234  1.00  0.00     0.070 C 
ATOM     17  C   UNL A   1      32.566  29.055  24.495  1.00  0.00     0.110 C 
ATOM     18  S   UNL A   1      31.989  30.064  25.912  1.00  0.00    -0.159 SA
BRANCH  11  19
ATOM     19  N   UNL A   1      30.596  27.495  23.907  1.00  0.00    -0.368 N 
ATOM     20  H   UNL A   1      30.162  26.648  24.159  1.00  0.00     0.161 HD
BRANCH  19  21
ATOM     21  C   UNL A   1      29.768  28.381  23.222  1.00  0.00     0.049 A 
ATOM     22  C   UNL A   1      30.235  29.557  22.629  1.00  0.00     0.027 A 
ATOM     23  C   UNL A   1      28.372  28.154  23.123  1.00  0.00     0.041 A 
ATOM     24  C   UNL A   1      29.390  30.432  21.930  1.00  0.00     0.002 A 
ATOM     25  C   UNL A   1      27.525  29.007  22.399  1.00  0.00     0.018 A 
ATOM     26  Br  UNL A   1      27.535  26.685  24.000  1.00  0.00    -0.049 Br
ATOM     27  C   UNL A   1      28.039  30.146  21.797  1.00  0.00     0.001 A 
ENDBRANCH  19  21
ENDBRANCH  11  19
ENDBRANCH   9  11
ENDBRANCH   8   9
ENDBRANCH   7   8
ENDBRANCH   6   7
ENDBRANCH   5   6
ENDBRANCH   4   5
ENDBRANCH   3   4
ENDBRANCH   2   3
ENDBRANCH   1   2
BRANCH   1  28
ATOM     28  C   UNL A   1      37.816  22.241  26.019  1.00  0.00     0.188 C 
BRANCH  28  29
ATOM     29  O   UNL A   1      38.670  21.443  25.202  1.00  0.00    -0.376 OA
BRANCH  29  30
ATOM     30  C   UNL A   1      38.763  20.047  25.486  1.00  0.00     0.202 C 
BRANCH  30  31
ATOM     31  C   UNL A   1      40.128  19.435  25.861  1.00  0.00     0.261 C 
BRANCH  31  32
ATOM     32  O   UNL A   1      40.805  20.063  26.965  1.00  0.00    -0.460 OA
BRANCH  32  33
ATOM     33  C   UNL A   1      41.888  20.802  26.649  1.00  0.00     0.338 C 
ATOM     34  O   UNL A   1      42.904  20.424  26.071  1.00  0.00    -0.246 OA
BRANCH  33  35
ATOM     35  C   UNL A   1      41.675  22.210  27.013  1.00  0.00     0.060 A 
ATOM     36  C   UNL A   1      41.476  23.165  26.005  1.00  0.00     0.016 A 
ATOM     37  C   UNL A   1      41.857  22.606  28.337  1.00  0.00     0.016 A 
ATOM     38  C   UNL A   1      41.493  24.525  26.316  1.00  0.00     0.010 A 
ATOM     39  C   UNL A   1      41.874  23.968  28.647  1.00  0.00     0.010 A 
ATOM     40  C   UNL A   1      41.738  24.933  27.632  1.00  0.00    -0.014 A 
BRANCH  40  41
ATOM     41  C   UNL A   1      42.058  26.350  27.926  1.00  0.00     0.031 A 
ATOM     42  C   UNL A   1      43.485  26.806  27.788  1.00  0.00     0.074 A 
ATOM     43  C   UNL A   1      41.112  27.206  28.348  1.00  0.00     0.049 A 
ATOM     44  N   UNL A   1      44.024  27.954  28.103  1.00  0.00    -0.248 NA
ATOM     45  C   UNL A   1      44.434  25.830  27.226  1.00  0.00     0.031 C 
ATOM     46  C   UNL A   1      39.694  26.887  28.509  1.00  0.00     0.029 A 
ATOM     47  N   UNL A   1      41.215  28.512  28.759  1.00  0.00    -0.354 N 
ATOM     48  C   UNL A   1      45.380  27.822  27.830  1.00  0.00     0.074 A 
ATOM     49  C   UNL A   1      45.582  26.485  27.319  1.00  0.00     0.031 C 
ATOM     50  C   UNL A   1      39.067  27.955  29.032  1.00  0.00     0.029 A 
ATOM     51  C   UNL A   1      40.044  29.017  29.271  1.00  0.00     0.049 A 
ATOM     52  H   UNL A   1      42.047  29.035  28.693  1.00  0.00     0.167 HD
ATOM     53  C   UNL A   1      46.368  28.734  27.986  1.00  0.00     0.034 A 
ATOM     54  C   UNL A   1      39.798  30.187  29.896  1.00  0.00     0.034 A 
ATOM     55  C   UNL A   1      46.160  30.073  28.465  1.00  0.00     0.049 A 
ATOM     56  C   UNL A   1      40.918  31.183  30.070  1.00  0.00     0.074 A 
ATOM     57  C   UNL A   1      47.085  31.093  28.592  1.00  0.00     0.029 A 
ATOM     58  N   UNL A   1      44.947  30.571  28.913  1.00  0.00    -0.354 N 
ATOM     59  N   UNL A   1      42.170  31.093  29.693  1.00  0.00    -0.248 NA
ATOM     60  C   UNL A   1      40.583  32.455  30.729  1.00  0.00     0.031 C 
ATOM     61  C   UNL A   1      46.437  32.200  29.151  1.00  0.00     0.029 A 
ATOM     62  C   UNL A   1      45.102  31.879  29.336  1.00  0.00     0.049 A 
ATOM     63  H   UNL A   1      44.101  30.069  28.928  1.00  0.00     0.167 HD
ATOM     64  C   UNL A   1      42.763  32.304  30.037  1.00  0.00     0.074 A 
ATOM     65  C   UNL A   1      41.729  33.119  30.639  1.00  0.00     0.031 C 
ATOM     66  C   UNL A   1      44.050  32.701  29.879  1.00  0.00     0.034 A 
BRANCH  53  67
ATOM     67  C   UNL A   1      47.769  28.314  27.626  1.00  0.00     0.023 A 
ATOM     68  C   UNL A   1      48.651  27.869  28.631  1.00  0.00     0.012 A 
ATOM     69  C   UNL A   1      48.197  28.322  26.284  1.00  0.00     0.148 A 
ATOM     70  C   UNL A   1      49.948  27.473  28.311  1.00  0.00     0.002 A 
ATOM     71  C   UNL A   1      49.476  27.882  25.968  1.00  0.00     0.091 A 
ATOM     72  F   UNL A   1      47.352  28.774  25.346  1.00  0.00    -0.205 F 
ATOM     73  C   UNL A   1      50.357  27.470  26.980  1.00  0.00     0.022 A 
BRANCH  71  74
ATOM     74  S   UNL A   1      50.064  27.766  24.274  1.00  0.00     0.127 S 
ATOM     75  O   UNL A   1      48.811  27.829  23.522  1.00  0.00    -0.237 OA
ATOM     76  O   UNL A   1      50.905  28.957  24.158  1.00  0.00    -0.237 OA
ATOM     77  O   UNL A   1      50.784  26.504  24.186  1.00  0.00    -0.744 OA
ENDBRANCH  71  74
ENDBRANCH  53  67
BRANCH  54  78
ATOM     78  C   UNL A   1      38.426  30.483  30.396  1.00  0.00     0.023 A 
ATOM     79  C   UNL A   1      38.059  30.091  31.697  1.00  0.00     0.012 A 
ATOM     80  C   UNL A   1      37.493  31.173  29.596  1.00  0.00     0.148 A 
ATOM     81  C   UNL A   1      36.779  30.358  32.184  1.00  0.00     0.002 A 
ATOM     82  C   UNL A   1      36.239  31.485  30.108  1.00  0.00     0.091 A 
ATOM     83  F   UNL A   1      37.858  31.523  28.355  1.00  0.00    -0.205 F 
ATOM     84  C   UNL A   1      35.874  31.064  31.395  1.00  0.00     0.022 A 
BRANCH  82  85
ATOM     85  S   UNL A   1      35.056  32.501  29.215  1.00  0.00     0.127 S 
ATOM     86  O   UNL A   1      35.912  33.557  28.681  1.00  0.00    -0.237 OA
ATOM     87  O   UNL A   1      34.546  31.558  28.218  1.00  0.00    -0.237 OA
ATOM     88  O   UNL A   1      34.073  32.923  30.203  1.00  0.00    -0.744 OA
ENDBRANCH  82  85
ENDBRANCH  54  78
BRANCH  66  89
ATOM     89  C   UNL A   1      44.424  34.094  30.318  1.00  0.00     0.023 A 
ATOM     90  C   UNL A   1      44.318  35.169  29.415  1.00  0.00     0.012 A 
ATOM     91  C   UNL A   1      44.771  34.350  31.661  1.00  0.00     0.148 A 
ATOM     92  C   UNL A   1      44.576  36.475  29.834  1.00  0.00     0.002 A 
ATOM     93  C   UNL A   1      44.977  35.658  32.083  1.00  0.00     0.091 A 
ATOM     94  F   UNL A   1      44.881  33.311  32.501  1.00  0.00    -0.205 F 
ATOM     95  C   UNL A   1      44.890  36.720  31.169  1.00  0.00     0.022 A 
BRANCH  93  96
ATOM     96  S   UNL A   1      45.288  36.080  33.802  1.00  0.00     0.127 S 
ATOM     97  O   UNL A   1      44.095  35.549  34.459  1.00  0.00    -0.237 OA
ATOM     98  O   UNL A   1      46.520  35.342  34.084  1.00  0.00    -0.237 OA
ATOM     99  O   UNL A   1      45.428  37.530  33.843  1.00  0.00    -0.744 OA
ENDBRANCH  93  96
ENDBRANCH  66  89
ENDBRANCH  40  41
ENDBRANCH  33  35
ENDBRANCH  32  33
ENDBRANCH  31  32
ENDBRANCH  30  31
ENDBRANCH  29  30
ENDBRANCH  28  29
ENDBRANCH   1  28
TORSDOF 25
ENDMDL
MODEL 3
REMARK VINA RESULT:      -8.4      4.743      9.321
REMARK SMILES CC1(C)CCSC[C@@]1(Nc1ccccc1Br)C(=O)OCCOCCOCCOCCOC(=O)c1ccc(-c2c3nc(c(-c4cccc(S(=O)(=O)[O-])c4F)c4ccc([nH]4)c(-c4cccc(S(=O)(=O)[O-])c4F)c4nc(c(-c5cccc(S(=O)(=O)[O-])c5F)c5ccc2[nH]5)C=C4)C=C3)cc1
REMARK SMILES IDX 26 1 25 2 24 3 23 4 22 5 21 6 20 7 19 8 17 9 18 10 8 11 1 12
REMARK SMILES IDX 2 13 3 14 4 15 5 16 7 17 6 18 9 19 10 21 11 22 15 23 12 24
REMARK SMILES IDX 14 25 16 26 13 27 27 28 28 29 29 30 30 31 31 32 32 33 33 34
REMARK SMILES IDX 34 35 35 36 96 37 36 38 95 39 37 40 38 41 39 42 89 43 40 44
REMARK SMILES IDX 94 45 88 46 90 47 41 48 93 49 87 50 86 51 42 53 74 54 54 55
REMARK SMILES IDX 73 56 55 57 58 58 72 59 91 60 56 61 57 62 71 64 92 65 59 66
REMARK SMILES IDX 43 67 44 68 52 69 45 70 47 71 53 72 46 73 48 74 49 75 50 76
REMARK SMILES IDX 51 77 75 78 76 79 84 80 77 81 79 82 85 83 78 84 80 85 81 86
REMARK SMILES IDX 82 87 83 88 60 89 61 90 69 91 62 92 64 93 70 94 63 95 65 96
REMARK SMILES IDX 66 97 67 98 68 99
REMARK H PARENT 9 20 90 52 58 63
REMARK Flexibility Score: inf
ROOT
ATOM      1  C   UNL A   1      33.763  34.529  28.869  1.00  0.00     0.188 C 
ENDROOT
BRANCH   1   2
ATOM      2  O   UNL A   1      33.591  33.512  27.903  1.00  0.00    -0.377 OA
BRANCH   2   3
ATOM      3  C   UNL A   1      34.401  32.344  27.976  1.00  0.00     0.188 C 
BRANCH   3   4
ATOM      4  C   UNL A   1      33.768  31.000  27.600  1.00  0.00     0.188 C 
BRANCH   4   5
ATOM      5  O   UNL A   1      34.640  29.870  27.468  1.00  0.00    -0.376 OA
BRANCH   5   6
ATOM      6  C   UNL A   1      34.117  28.634  26.980  1.00  0.00     0.202 C 
BRANCH   6   7
ATOM      7  C   UNL A   1      32.701  28.309  27.455  1.00  0.00     0.261 C 
BRANCH   7   8
ATOM      8  O   UNL A   1      32.039  27.379  26.582  1.00  0.00    -0.461 OA
BRANCH   8   9
ATOM      9  C   UNL A   1      31.865  27.761  25.292  1.00  0.00     0.333 C 
ATOM     10  O   UNL A   1      31.886  28.933  24.928  1.00  0.00    -0.249 OA
BRANCH   9  11
ATOM     11  C   UNL A   1      31.583  26.560  24.332  1.00  0.00     0.150 C 
ATOM     12  C   UNL A   1      34.128  25.951  24.629  1.00  0.00     0.014 C 
ATOM     13  C   UNL A   1      32.964  26.203  23.624  1.00  0.00     0.000 C 
ATOM     14  C   UNL A   1      33.459  27.355  22.709  1.00  0.00     0.014 C 
ATOM     15  C   UNL A   1      32.786  24.933  22.755  1.00  0.00     0.020 C 
ATOM     16  C   UNL A   1      32.500  23.653  23.532  1.00  0.00     0.070 C 
ATOM     17  C   UNL A   1      31.117  25.406  25.256  1.00  0.00     0.110 C 
ATOM     18  S   UNL A   1      31.037  23.700  24.589  1.00  0.00    -0.159 SA
BRANCH  11  19
ATOM     19  N   UNL A   1      30.585  26.954  23.261  1.00  0.00    -0.368 N 
ATOM     20  H   UNL A   1      30.924  26.868  22.341  1.00  0.00     0.161 HD
BRANCH  19  21
ATOM     21  C   UNL A   1      29.274  27.417  23.347  1.00  0.00     0.049 A 
ATOM     22  C   UNL A   1      28.229  26.652  23.873  1.00  0.00     0.027 A 
ATOM     23  C   UNL A   1      28.913  28.697  22.858  1.00  0.00     0.041 A 
ATOM     24  C   UNL A   1      26.916  27.138  23.966  1.00  0.00     0.002 A 
ATOM     25  C   UNL A   1      27.610  29.203  22.975  1.00  0.00     0.018 A 
ATOM     26  Br  UNL A   1      30.172  29.816  21.968  1.00  0.00    -0.049 Br
ATOM     27  C   UNL A   1      26.611  28.421  23.537  1.00  0.00     0.001 A 
ENDBRANCH  19  21
ENDBRANCH  11  19
ENDBRANCH   9  11
ENDBRANCH   8   9
ENDBRANCH   7   8
ENDBRANCH   6   7
ENDBRANCH   5   6
ENDBRANCH   4   5
ENDBRANCH   3   4
ENDBRANCH   2   3
ENDBRANCH   1   2
BRANCH   1  28
ATOM     28  C   UNL A   1      34.523  34.021  30.100  1.00  0.00     0.188 C 
BRANCH  28  29
ATOM     29  O   UNL A   1      34.016  34.385  31.381  1.00  0.00    -0.376 OA
BRANCH  29  30
ATOM     30  C   UNL A   1      34.592  33.770  32.535  1.00  0.00     0.202 C 
BRANCH  30  31
ATOM     31  C   UNL A   1      36.071  34.033  32.879  1.00  0.00     0.261 C 
BRANCH  31  32
ATOM     32  O   UNL A   1      36.935  34.271  31.753  1.00  0.00    -0.460 OA
BRANCH  32  33
ATOM     33  C   UNL A   1      37.984  33.433  31.627  1.00  0.00     0.338 C 
ATOM     34  O   UNL A   1      38.022  32.239  31.917  1.00  0.00    -0.246 OA
BRANCH  33  35
ATOM     35  C   UNL A   1      39.117  34.117  30.988  1.00  0.00     0.060 A 
ATOM     36  C   UNL A   1      39.082  34.381  29.611  1.00  0.00     0.016 A 
ATOM     37  C   UNL A   1      40.286  34.327  31.718  1.00  0.00     0.016 A 
ATOM     38  C   UNL A   1      40.229  34.825  28.953  1.00  0.00     0.010 A 
ATOM     39  C   UNL A   1      41.434  34.772  31.058  1.00  0.00     0.010 A 
ATOM     40  C   UNL A   1      41.422  34.978  29.667  1.00  0.00    -0.014 A 
BRANCH  40  41
ATOM     41  C   UNL A   1      42.705  35.153  28.945  1.00  0.00     0.031 A 
ATOM     42  C   UNL A   1      43.624  33.967  28.818  1.00  0.00     0.074 A 
ATOM     43  C   UNL A   1      43.070  36.347  28.448  1.00  0.00     0.049 A 
ATOM     44  N   UNL A   1      44.839  33.906  28.343  1.00  0.00    -0.248 NA
ATOM     45  C   UNL A   1      43.101  32.678  29.304  1.00  0.00     0.031 C 
ATOM     46  C   UNL A   1      42.263  37.564  28.496  1.00  0.00     0.029 A 
ATOM     47  N   UNL A   1      44.238  36.737  27.840  1.00  0.00    -0.354 N 
ATOM     48  C   UNL A   1      45.247  32.589  28.519  1.00  0.00     0.074 A 
ATOM     49  C   UNL A   1      44.148  31.883  29.141  1.00  0.00     0.031 C 
ATOM     50  C   UNL A   1      42.980  38.580  27.985  1.00  0.00     0.029 A 
ATOM     51  C   UNL A   1      44.305  38.089  27.605  1.00  0.00     0.049 A 
ATOM     52  H   UNL A   1      44.957  36.109  27.598  1.00  0.00     0.167 HD
ATOM     53  C   UNL A   1      46.428  32.017  28.189  1.00  0.00     0.034 A 
ATOM     54  C   UNL A   1      45.331  38.849  27.170  1.00  0.00     0.034 A 
ATOM     55  C   UNL A   1      47.507  32.713  27.544  1.00  0.00     0.049 A 
ATOM     56  C   UNL A   1      46.642  38.191  26.820  1.00  0.00     0.074 A 
ATOM     57  C   UNL A   1      48.717  32.205  27.105  1.00  0.00     0.029 A 
ATOM     58  N   UNL A   1      47.514  34.069  27.261  1.00  0.00    -0.354 N 
ATOM     59  N   UNL A   1      46.973  36.924  26.876  1.00  0.00    -0.248 NA
ATOM     60  C   UNL A   1      47.715  39.066  26.319  1.00  0.00     0.031 C 
ATOM     61  C   UNL A   1      49.471  33.263  26.588  1.00  0.00     0.029 A 
ATOM     62  C   UNL A   1      48.716  34.421  26.671  1.00  0.00     0.049 A 
ATOM     63  H   UNL A   1      46.775  34.690  27.451  1.00  0.00     0.167 HD
ATOM     64  C   UNL A   1      48.273  36.843  26.387  1.00  0.00     0.074 A 
ATOM     65  C   UNL A   1      48.667  38.189  26.025  1.00  0.00     0.031 C 
ATOM     66  C   UNL A   1      49.073  35.756  26.260  1.00  0.00     0.034 A 
BRANCH  53  67
ATOM     67  C   UNL A   1      46.614  30.559  28.516  1.00  0.00     0.023 A 
ATOM     68  C   UNL A   1      46.241  29.574  27.579  1.00  0.00     0.012 A 
ATOM     69  C   UNL A   1      47.197  30.166  29.737  1.00  0.00     0.148 A 
ATOM     70  C   UNL A   1      46.412  28.221  27.866  1.00  0.00     0.002 A 
ATOM     71  C   UNL A   1      47.407  28.818  29.997  1.00  0.00     0.091 A 
ATOM     72  F   UNL A   1      47.520  31.117  30.626  1.00  0.00    -0.205 F 
ATOM     73  C   UNL A   1      47.004  27.844  29.070  1.00  0.00     0.022 A 
BRANCH  71  74
ATOM     74  S   UNL A   1      48.235  28.240  31.482  1.00  0.00     0.127 S 
ATOM     75  O   UNL A   1      49.520  28.932  31.392  1.00  0.00    -0.237 OA
ATOM     76  O   UNL A   1      47.350  28.733  32.539  1.00  0.00    -0.237 OA
ATOM     77  O   UNL A   1      48.295  26.790  31.370  1.00  0.00    -0.744 OA
ENDBRANCH  71  74
ENDBRANCH  53  67
BRANCH  54  78
ATOM     78  C   UNL A   1      45.153  40.322  27.032  1.00  0.00     0.023 A 
ATOM     79  C   UNL A   1      44.713  40.858  25.807  1.00  0.00     0.012 A 
ATOM     80  C   UNL A   1      45.393  41.190  28.115  1.00  0.00     0.148 A 
ATOM     81  C   UNL A   1      44.540  42.234  25.655  1.00  0.00     0.002 A 
ATOM     82  C   UNL A   1      45.165  42.553  27.975  1.00  0.00     0.091 A 
ATOM     83  F   UNL A   1      45.827  40.660  29.268  1.00  0.00    -0.205 F 
ATOM     84  C   UNL A   1      44.755  43.080  26.740  1.00  0.00     0.022 A 
BRANCH  82  85
ATOM     85  S   UNL A   1      45.291  43.702  29.350  1.00  0.00     0.127 S 
ATOM     86  O   UNL A   1      45.051  44.983  28.693  1.00  0.00    -0.237 OA
ATOM     87  O   UNL A   1      44.207  43.244  30.222  1.00  0.00    -0.237 OA
ATOM     88  O   UNL A   1      46.626  43.514  29.901  1.00  0.00    -0.744 OA
ENDBRANCH  82  85
ENDBRANCH  54  78
BRANCH  66  89
ATOM     89  C   UNL A   1      50.445  35.947  25.666  1.00  0.00     0.023 A 
ATOM     90  C   UNL A   1      50.607  35.989  24.267  1.00  0.00     0.012 A 
ATOM     91  C   UNL A   1      51.555  36.198  26.498  1.00  0.00     0.148 A 
ATOM     92  C   UNL A   1      51.857  36.254  23.706  1.00  0.00     0.002 A 
ATOM     93  C   UNL A   1      52.785  36.511  25.933  1.00  0.00     0.091 A 
ATOM     94  F   UNL A   1      51.382  36.139  27.827  1.00  0.00    -0.205 F 
ATOM     95  C   UNL A   1      52.940  36.529  24.538  1.00  0.00     0.022 A 
BRANCH  93  96
ATOM     96  S   UNL A   1      54.212  36.976  26.922  1.00  0.00     0.127 S 
ATOM     97  O   UNL A   1      54.506  35.729  27.626  1.00  0.00    -0.237 OA
ATOM     98  O   UNL A   1      55.191  37.346  25.899  1.00  0.00    -0.237 OA
ATOM     99  O   UNL A   1      53.774  38.079  27.767  1.00  0.00    -0.744 OA
ENDBRANCH  93  96
ENDBRANCH  66  89
ENDBRANCH  40  41
ENDBRANCH  33  35
ENDBRANCH  32  33
ENDBRANCH  31  32
ENDBRANCH  30  31
ENDBRANCH  29  30
ENDBRANCH  28  29
ENDBRANCH   1  28
TORSDOF 25
ENDMDL
