MODEL 1
REMARK VINA RESULT:      -8.9      0.000      0.000
REMARK SMILES CCCN(C(=O)NCC(=O)OCCOCCOCCOCCOC(=O)c1ccc(-c2c3nc(c(-c4cccc(S(=O)(=O)[O-])c4F)c4ccc([nH]4)c(-c4cccc(S(=O)(=O)[O-])c4F)c4nc(c(-c5cccc(S(=O)(=O)[O-])c5F)c5ccc2[nH]5)C=C4)C=C3)cc1)C(C)C
REMARK SMILES IDX 16 1 15 2 14 3 13 4 12 5 11 6 9 7 10 8 8 9 7 10 5 11 6 12
REMARK SMILES IDX 4 14 3 15 2 16 1 17 89 18 90 19 91 20 17 21 18 22 19 23
REMARK SMILES IDX 20 24 21 25 22 26 23 27 24 28 25 29 26 30 27 31 88 32 28 33
REMARK SMILES IDX 87 34 29 35 30 36 31 37 81 38 32 39 86 40 80 41 82 42 33 43
REMARK SMILES IDX 85 44 79 45 78 46 34 48 66 49 46 50 65 51 47 52 50 53 64 54
REMARK SMILES IDX 83 55 48 56 49 57 63 59 84 60 51 61 35 62 36 63 44 64 37 65
REMARK SMILES IDX 39 66 45 67 38 68 40 69 41 70 42 71 43 72 67 73 68 74 76 75
REMARK SMILES IDX 69 76 71 77 77 78 70 79 72 80 73 81 74 82 75 83 52 84 53 85
REMARK SMILES IDX 61 86 54 87 56 88 62 89 55 90 57 91 58 92 59 93 60 94
REMARK H PARENT 7 13 82 47 50 58
REMARK Flexibility Score: inf
ROOT
ATOM      1  C   UNL A   1      33.788  28.620  24.441  1.00  0.00     0.188 C 
ENDROOT
BRANCH   1   2
ATOM      2  C   UNL A   1      33.784  28.624  22.901  1.00  0.00     0.188 C 
BRANCH   2   3
ATOM      3  O   UNL A   1      33.371  27.487  22.151  1.00  0.00    -0.376 OA
BRANCH   3   4
ATOM      4  C   UNL A   1      32.052  26.969  22.266  1.00  0.00     0.202 C 
BRANCH   4   5
ATOM      5  C   UNL A   1      31.774  25.454  22.248  1.00  0.00     0.261 C 
BRANCH   5   6
ATOM      6  O   UNL A   1      30.650  25.013  23.026  1.00  0.00    -0.462 OA
BRANCH   6   7
ATOM      7  C   UNL A   1      30.720  25.226  24.361  1.00  0.00     0.325 C 
ATOM      8  O   UNL A   1      29.973  25.970  24.991  1.00  0.00    -0.250 OA
BRANCH   7   9
ATOM      9  C   UNL A   1      31.707  24.294  25.073  1.00  0.00     0.240 C 
BRANCH   9  10
ATOM     10  N   UNL A   1      31.562  22.844  25.105  1.00  0.00    -0.327 N 
ATOM     11  C   UNL A   1      32.321  21.760  25.310  1.00  0.00     0.318 C 
ATOM     12  O   UNL A   1      31.667  20.715  25.414  1.00  0.00    -0.249 OA
ATOM     13  H   UNL A   1      30.630  22.585  24.922  1.00  0.00     0.166 HD
BRANCH  11  14
ATOM     14  N   UNL A   1      33.685  21.792  25.416  1.00  0.00    -0.322 N 
BRANCH  14  15
ATOM     15  C   UNL A   1      34.625  21.505  24.333  1.00  0.00     0.121 C 
BRANCH  15  16
ATOM     16  C   UNL A   1      34.948  22.709  23.438  1.00  0.00     0.018 C 
ATOM     17  C   UNL A   1      36.425  23.012  23.286  1.00  0.00     0.006 C 
ENDBRANCH  15  16
ENDBRANCH  14  15
BRANCH  14  18
ATOM     18  C   UNL A   1      34.226  22.134  26.761  1.00  0.00     0.080 C 
ATOM     19  C   UNL A   1      35.030  23.436  26.811  1.00  0.00     0.031 C 
ATOM     20  C   UNL A   1      33.141  22.112  27.835  1.00  0.00     0.031 C 
ENDBRANCH  14  18
ENDBRANCH  11  14
ENDBRANCH   9  10
ENDBRANCH   7   9
ENDBRANCH   6   7
ENDBRANCH   5   6
ENDBRANCH   4   5
ENDBRANCH   3   4
ENDBRANCH   2   3
ENDBRANCH   1   2
BRANCH   1  21
ATOM     21  O   UNL A   1      32.888  29.529  25.033  1.00  0.00    -0.377 OA
BRANCH  21  22
ATOM     22  C   UNL A   1      31.505  29.238  24.887  1.00  0.00     0.188 C 
BRANCH  22  23
ATOM     23  C   UNL A   1      30.582  30.413  24.510  1.00  0.00     0.188 C 
BRANCH  23  24
ATOM     24  O   UNL A   1      30.788  31.589  25.287  1.00  0.00    -0.376 OA
BRANCH  24  25
ATOM     25  C   UNL A   1      31.277  31.455  26.615  1.00  0.00     0.202 C 
BRANCH  25  26
ATOM     26  C   UNL A   1      31.846  32.705  27.309  1.00  0.00     0.261 C 
BRANCH  26  27
ATOM     27  O   UNL A   1      33.231  32.998  27.074  1.00  0.00    -0.460 OA
BRANCH  27  28
ATOM     28  C   UNL A   1      33.904  33.689  28.015  1.00  0.00     0.338 C 
ATOM     29  O   UNL A   1      33.514  34.675  28.620  1.00  0.00    -0.246 OA
BRANCH  28  30
ATOM     30  C   UNL A   1      35.119  32.920  28.355  1.00  0.00     0.060 A 
ATOM     31  C   UNL A   1      35.007  31.538  28.558  1.00  0.00     0.016 A 
ATOM     32  C   UNL A   1      36.359  33.553  28.466  1.00  0.00     0.016 A 
ATOM     33  C   UNL A   1      36.128  30.791  28.918  1.00  0.00     0.010 A 
ATOM     34  C   UNL A   1      37.476  32.808  28.850  1.00  0.00     0.010 A 
ATOM     35  C   UNL A   1      37.355  31.432  29.118  1.00  0.00    -0.014 A 
BRANCH  35  36
ATOM     36  C   UNL A   1      38.450  30.715  29.813  1.00  0.00     0.031 A 
ATOM     37  C   UNL A   1      38.740  31.078  31.244  1.00  0.00     0.074 A 
ATOM     38  C   UNL A   1      39.167  29.759  29.199  1.00  0.00     0.049 A 
ATOM     39  N   UNL A   1      39.658  30.615  32.050  1.00  0.00    -0.248 NA
ATOM     40  C   UNL A   1      37.877  32.110  31.843  1.00  0.00     0.031 C 
ATOM     41  C   UNL A   1      38.966  29.301  27.827  1.00  0.00     0.029 A 
ATOM     42  N   UNL A   1      40.226  29.014  29.654  1.00  0.00    -0.354 N 
ATOM     43  C   UNL A   1      39.506  31.319  33.239  1.00  0.00     0.074 A 
ATOM     44  C   UNL A   1      38.418  32.252  33.042  1.00  0.00     0.031 C 
ATOM     45  C   UNL A   1      39.888  28.365  27.542  1.00  0.00     0.029 A 
ATOM     46  C   UNL A   1      40.761  28.181  28.701  1.00  0.00     0.049 A 
ATOM     47  H   UNL A   1      40.571  29.072  30.575  1.00  0.00     0.167 HD
ATOM     48  C   UNL A   1      40.198  31.194  34.396  1.00  0.00     0.034 A 
ATOM     49  C   UNL A   1      41.844  27.381  28.754  1.00  0.00     0.034 A 
ATOM     50  C   UNL A   1      41.278  30.265  34.587  1.00  0.00     0.049 A 
ATOM     51  C   UNL A   1      42.637  27.297  30.034  1.00  0.00     0.074 A 
ATOM     52  C   UNL A   1      42.022  30.033  35.730  1.00  0.00     0.029 A 
ATOM     53  N   UNL A   1      41.788  29.432  33.602  1.00  0.00    -0.354 N 
ATOM     54  N   UNL A   1      42.420  27.891  31.184  1.00  0.00    -0.248 NA
ATOM     55  C   UNL A   1      43.809  26.408  30.032  1.00  0.00     0.031 C 
ATOM     56  C   UNL A   1      43.010  29.090  35.423  1.00  0.00     0.029 A 
ATOM     57  C   UNL A   1      42.850  28.699  34.103  1.00  0.00     0.049 A 
ATOM     58  H   UNL A   1      41.444  29.371  32.682  1.00  0.00     0.167 HD
ATOM     59  C   UNL A   1      43.400  27.418  32.051  1.00  0.00     0.074 A 
ATOM     60  C   UNL A   1      44.203  26.478  31.297  1.00  0.00     0.031 C 
ATOM     61  C   UNL A   1      43.617  27.735  33.354  1.00  0.00     0.034 A 
BRANCH  48  62
ATOM     62  C   UNL A   1      39.799  32.093  35.539  1.00  0.00     0.023 A 
ATOM     63  C   UNL A   1      40.412  33.354  35.693  1.00  0.00     0.012 A 
ATOM     64  C   UNL A   1      38.813  31.690  36.460  1.00  0.00     0.148 A 
ATOM     65  C   UNL A   1      40.092  34.175  36.773  1.00  0.00     0.002 A 
ATOM     66  C   UNL A   1      38.461  32.536  37.506  1.00  0.00     0.091 A 
ATOM     67  F   UNL A   1      38.257  30.480  36.315  1.00  0.00    -0.205 F 
ATOM     68  C   UNL A   1      39.111  33.769  37.674  1.00  0.00     0.022 A 
BRANCH  66  69
ATOM     69  S   UNL A   1      37.152  32.139  38.669  1.00  0.00     0.127 S 
ATOM     70  O   UNL A   1      37.103  30.682  38.572  1.00  0.00    -0.237 OA
ATOM     71  O   UNL A   1      37.696  32.648  39.929  1.00  0.00    -0.237 OA
ATOM     72  O   UNL A   1      35.967  32.841  38.195  1.00  0.00    -0.744 OA
ENDBRANCH  66  69
ENDBRANCH  48  62
BRANCH  49  73
ATOM     73  C   UNL A   1      42.217  26.556  27.570  1.00  0.00     0.023 A 
ATOM     74  C   UNL A   1      42.957  27.143  26.525  1.00  0.00     0.012 A 
ATOM     75  C   UNL A   1      41.867  25.194  27.485  1.00  0.00     0.148 A 
ATOM     76  C   UNL A   1      43.322  26.394  25.406  1.00  0.00     0.002 A 
ATOM     77  C   UNL A   1      42.281  24.440  26.392  1.00  0.00     0.091 A 
ATOM     78  F   UNL A   1      41.154  24.659  28.486  1.00  0.00    -0.205 F 
ATOM     79  C   UNL A   1      42.995  25.043  25.345  1.00  0.00     0.022 A 
BRANCH  77  80
ATOM     80  S   UNL A   1      42.010  22.669  26.277  1.00  0.00     0.127 S 
ATOM     81  O   UNL A   1      40.551  22.587  26.288  1.00  0.00    -0.237 OA
ATOM     82  O   UNL A   1      42.635  22.356  24.991  1.00  0.00    -0.237 OA
ATOM     83  O   UNL A   1      42.677  22.087  27.432  1.00  0.00    -0.744 OA
ENDBRANCH  77  80
ENDBRANCH  49  73
BRANCH  61  84
ATOM     84  C   UNL A   1      44.741  27.030  34.071  1.00  0.00     0.023 A 
ATOM     85  C   UNL A   1      46.057  27.527  33.991  1.00  0.00     0.012 A 
ATOM     86  C   UNL A   1      44.475  25.913  34.890  1.00  0.00     0.148 A 
ATOM     87  C   UNL A   1      47.095  26.904  34.685  1.00  0.00     0.002 A 
ATOM     88  C   UNL A   1      45.503  25.330  35.620  1.00  0.00     0.091 A 
ATOM     89  F   UNL A   1      43.220  25.444  34.942  1.00  0.00    -0.205 F 
ATOM     90  C   UNL A   1      46.816  25.814  35.507  1.00  0.00     0.022 A 
BRANCH  88  91
ATOM     91  S   UNL A   1      45.224  23.988  36.781  1.00  0.00     0.127 S 
ATOM     92  O   UNL A   1      44.163  24.538  37.623  1.00  0.00    -0.237 OA
ATOM     93  O   UNL A   1      44.802  22.899  35.899  1.00  0.00    -0.237 OA
ATOM     94  O   UNL A   1      46.498  23.764  37.453  1.00  0.00    -0.744 OA
ENDBRANCH  88  91
ENDBRANCH  61  84
ENDBRANCH  35  36
ENDBRANCH  28  30
ENDBRANCH  27  28
ENDBRANCH  26  27
ENDBRANCH  25  26
ENDBRANCH  24  25
ENDBRANCH  23  24
ENDBRANCH  22  23
ENDBRANCH  21  22
ENDBRANCH   1  21
TORSDOF 28
ENDMDL
MODEL 2
REMARK VINA RESULT:      -8.9      1.596      2.437
REMARK SMILES CCCN(C(=O)NCC(=O)OCCOCCOCCOCCOC(=O)c1ccc(-c2c3nc(c(-c4cccc(S(=O)(=O)[O-])c4F)c4ccc([nH]4)c(-c4cccc(S(=O)(=O)[O-])c4F)c4nc(c(-c5cccc(S(=O)(=O)[O-])c5F)c5ccc2[nH]5)C=C4)C=C3)cc1)C(C)C
REMARK SMILES IDX 16 1 15 2 14 3 13 4 12 5 11 6 9 7 10 8 8 9 7 10 5 11 6 12
REMARK SMILES IDX 4 14 3 15 2 16 1 17 89 18 90 19 91 20 17 21 18 22 19 23
REMARK SMILES IDX 20 24 21 25 22 26 23 27 24 28 25 29 26 30 27 31 88 32 28 33
REMARK SMILES IDX 87 34 29 35 30 36 31 37 81 38 32 39 86 40 80 41 82 42 33 43
REMARK SMILES IDX 85 44 79 45 78 46 34 48 66 49 46 50 65 51 47 52 50 53 64 54
REMARK SMILES IDX 83 55 48 56 49 57 63 59 84 60 51 61 35 62 36 63 44 64 37 65
REMARK SMILES IDX 39 66 45 67 38 68 40 69 41 70 42 71 43 72 67 73 68 74 76 75
REMARK SMILES IDX 69 76 71 77 77 78 70 79 72 80 73 81 74 82 75 83 52 84 53 85
REMARK SMILES IDX 61 86 54 87 56 88 62 89 55 90 57 91 58 92 59 93 60 94
REMARK H PARENT 7 13 82 47 50 58
REMARK Flexibility Score: inf
ROOT
ATOM      1  C   UNL A   1      32.393  26.392  21.779  1.00  0.00     0.188 C 
ENDROOT
BRANCH   1   2
ATOM      2  C   UNL A   1      33.065  25.034  22.058  1.00  0.00     0.188 C 
BRANCH   2   3
ATOM      3  O   UNL A   1      32.307  23.836  22.183  1.00  0.00    -0.376 OA
BRANCH   3   4
ATOM      4  C   UNL A   1      32.943  22.583  22.399  1.00  0.00     0.202 C 
BRANCH   4   5
ATOM      5  C   UNL A   1      32.257  21.254  22.027  1.00  0.00     0.261 C 
BRANCH   5   6
ATOM      6  O   UNL A   1      31.672  20.524  23.118  1.00  0.00    -0.462 OA
BRANCH   6   7
ATOM      7  C   UNL A   1      32.457  20.328  24.202  1.00  0.00     0.325 C 
ATOM      8  O   UNL A   1      33.529  19.730  24.190  1.00  0.00    -0.250 OA
BRANCH   7   9
ATOM      9  C   UNL A   1      31.984  21.097  25.440  1.00  0.00     0.240 C 
BRANCH   9  10
ATOM     10  N   UNL A   1      32.863  21.458  26.546  1.00  0.00    -0.327 N 
ATOM     11  C   UNL A   1      33.815  22.357  26.824  1.00  0.00     0.318 C 
ATOM     12  O   UNL A   1      34.148  22.368  28.015  1.00  0.00    -0.249 OA
ATOM     13  H   UNL A   1      32.713  20.863  27.316  1.00  0.00     0.166 HD
BRANCH  11  14
ATOM     14  N   UNL A   1      34.361  23.203  25.896  1.00  0.00    -0.322 N 
BRANCH  14  15
ATOM     15  C   UNL A   1      33.692  24.365  25.313  1.00  0.00     0.121 C 
BRANCH  15  16
ATOM     16  C   UNL A   1      33.460  25.521  26.295  1.00  0.00     0.018 C 
ATOM     17  C   UNL A   1      33.866  26.887  25.779  1.00  0.00     0.006 C 
ENDBRANCH  15  16
ENDBRANCH  14  15
BRANCH  14  18
ATOM     18  C   UNL A   1      35.744  22.875  25.450  1.00  0.00     0.080 C 
ATOM     19  C   UNL A   1      36.824  23.820  25.985  1.00  0.00     0.031 C 
ATOM     20  C   UNL A   1      36.101  21.416  25.724  1.00  0.00     0.031 C 
ENDBRANCH  14  18
ENDBRANCH  11  14
ENDBRANCH   9  10
ENDBRANCH   7   9
ENDBRANCH   6   7
ENDBRANCH   5   6
ENDBRANCH   4   5
ENDBRANCH   3   4
ENDBRANCH   2   3
ENDBRANCH   1   2
BRANCH   1  21
ATOM     21  O   UNL A   1      32.005  27.103  22.932  1.00  0.00    -0.377 OA
BRANCH  21  22
ATOM     22  C   UNL A   1      31.620  28.457  22.742  1.00  0.00     0.188 C 
BRANCH  22  23
ATOM     23  C   UNL A   1      31.051  29.199  23.968  1.00  0.00     0.188 C 
BRANCH  23  24
ATOM     24  O   UNL A   1      32.042  29.794  24.801  1.00  0.00    -0.376 OA
BRANCH  24  25
ATOM     25  C   UNL A   1      31.692  30.151  26.131  1.00  0.00     0.202 C 
BRANCH  25  26
ATOM     26  C   UNL A   1      31.828  31.627  26.546  1.00  0.00     0.261 C 
BRANCH  26  27
ATOM     27  O   UNL A   1      32.578  31.894  27.740  1.00  0.00    -0.460 OA
BRANCH  27  28
ATOM     28  C   UNL A   1      33.551  32.824  27.687  1.00  0.00     0.338 C 
ATOM     29  O   UNL A   1      33.408  34.027  27.534  1.00  0.00    -0.246 OA
BRANCH  28  30
ATOM     30  C   UNL A   1      34.820  32.171  28.068  1.00  0.00     0.060 A 
ATOM     31  C   UNL A   1      34.833  30.782  28.257  1.00  0.00     0.016 A 
ATOM     32  C   UNL A   1      35.989  32.917  28.229  1.00  0.00     0.016 A 
ATOM     33  C   UNL A   1      36.006  30.141  28.654  1.00  0.00     0.010 A 
ATOM     34  C   UNL A   1      37.158  32.278  28.650  1.00  0.00     0.010 A 
ATOM     35  C   UNL A   1      37.159  30.894  28.904  1.00  0.00    -0.014 A 
BRANCH  35  36
ATOM     36  C   UNL A   1      38.291  30.277  29.635  1.00  0.00     0.031 A 
ATOM     37  C   UNL A   1      38.517  30.683  31.066  1.00  0.00     0.074 A 
ATOM     38  C   UNL A   1      39.096  29.373  29.052  1.00  0.00     0.049 A 
ATOM     39  N   UNL A   1      39.450  30.306  31.900  1.00  0.00    -0.248 NA
ATOM     40  C   UNL A   1      37.560  31.650  31.629  1.00  0.00     0.031 C 
ATOM     41  C   UNL A   1      38.965  28.881  27.683  1.00  0.00     0.029 A 
ATOM     42  N   UNL A   1      40.200  28.722  29.542  1.00  0.00    -0.354 N 
ATOM     43  C   UNL A   1      39.213  31.012  33.074  1.00  0.00     0.074 A 
ATOM     44  C   UNL A   1      38.059  31.852  32.837  1.00  0.00     0.031 C 
ATOM     45  C   UNL A   1      39.966  28.019  27.435  1.00  0.00     0.029 A 
ATOM     46  C   UNL A   1      40.823  27.922  28.615  1.00  0.00     0.049 A 
ATOM     47  H   UNL A   1      40.517  28.820  30.470  1.00  0.00     0.167 HD
ATOM     48  C   UNL A   1      39.885  30.959  34.248  1.00  0.00     0.034 A 
ATOM     49  C   UNL A   1      41.965  27.212  28.706  1.00  0.00     0.034 A 
ATOM     50  C   UNL A   1      41.031  30.123  34.478  1.00  0.00     0.049 A 
ATOM     51  C   UNL A   1      42.731  27.210  30.004  1.00  0.00     0.074 A 
ATOM     52  C   UNL A   1      41.764  29.967  35.641  1.00  0.00     0.029 A 
ATOM     53  N   UNL A   1      41.630  29.320  33.518  1.00  0.00    -0.354 N 
ATOM     54  N   UNL A   1      42.440  27.801  31.139  1.00  0.00    -0.248 NA
ATOM     55  C   UNL A   1      43.970  26.418  30.042  1.00  0.00     0.031 C 
ATOM     56  C   UNL A   1      42.831  29.103  35.371  1.00  0.00     0.029 A 
ATOM     57  C   UNL A   1      42.734  28.682  34.054  1.00  0.00     0.049 A 
ATOM     58  H   UNL A   1      41.314  29.219  32.591  1.00  0.00     0.167 HD
ATOM     59  C   UNL A   1      43.434  27.420  32.036  1.00  0.00     0.074 A 
ATOM     60  C   UNL A   1      44.327  26.537  31.315  1.00  0.00     0.031 C 
ATOM     61  C   UNL A   1      43.594  27.772  33.338  1.00  0.00     0.034 A 
BRANCH  48  62
ATOM     62  C   UNL A   1      39.389  31.839  35.366  1.00  0.00     0.023 A 
ATOM     63  C   UNL A   1      38.385  31.371  36.241  1.00  0.00     0.012 A 
ATOM     64  C   UNL A   1      39.918  33.130  35.555  1.00  0.00     0.148 A 
ATOM     65  C   UNL A   1      37.879  32.191  37.248  1.00  0.00     0.002 A 
ATOM     66  C   UNL A   1      39.445  33.923  36.595  1.00  0.00     0.091 A 
ATOM     67  F   UNL A   1      40.854  33.570  34.703  1.00  0.00    -0.205 F 
ATOM     68  C   UNL A   1      38.414  33.464  37.429  1.00  0.00     0.022 A 
BRANCH  66  69
ATOM     69  S   UNL A   1      40.129  35.543  36.961  1.00  0.00     0.127 S 
ATOM     70  O   UNL A   1      39.632  36.333  35.836  1.00  0.00    -0.237 OA
ATOM     71  O   UNL A   1      39.506  35.856  38.248  1.00  0.00    -0.237 OA
ATOM     72  O   UNL A   1      41.573  35.365  37.014  1.00  0.00    -0.744 OA
ENDBRANCH  66  69
ENDBRANCH  48  62
BRANCH  49  73
ATOM     73  C   UNL A   1      42.430  26.404  27.543  1.00  0.00     0.023 A 
ATOM     74  C   UNL A   1      43.248  27.005  26.567  1.00  0.00     0.012 A 
ATOM     75  C   UNL A   1      42.091  25.042  27.414  1.00  0.00     0.148 A 
ATOM     76  C   UNL A   1      43.701  26.271  25.470  1.00  0.00     0.002 A 
ATOM     77  C   UNL A   1      42.590  24.303  26.347  1.00  0.00     0.091 A 
ATOM     78  F   UNL A   1      41.303  24.494  28.349  1.00  0.00    -0.205 F 
ATOM     79  C   UNL A   1      43.382  24.920  25.366  1.00  0.00     0.022 A 
BRANCH  77  80
ATOM     80  S   UNL A   1      42.332  22.533  26.187  1.00  0.00     0.127 S 
ATOM     81  O   UNL A   1      43.073  22.231  24.965  1.00  0.00    -0.237 OA
ATOM     82  O   UNL A   1      42.944  22.032  27.419  1.00  0.00    -0.237 OA
ATOM     83  O   UNL A   1      40.891  22.345  26.107  1.00  0.00    -0.744 OA
ENDBRANCH  77  80
ENDBRANCH  49  73
BRANCH  61  84
ATOM     84  C   UNL A   1      44.754  27.169  34.092  1.00  0.00     0.023 A 
ATOM     85  C   UNL A   1      46.006  27.814  34.101  1.00  0.00     0.012 A 
ATOM     86  C   UNL A   1      44.575  25.997  34.855  1.00  0.00     0.148 A 
ATOM     87  C   UNL A   1      47.072  27.284  34.829  1.00  0.00     0.002 A 
ATOM     88  C   UNL A   1      45.626  25.505  35.621  1.00  0.00     0.091 A 
ATOM     89  F   UNL A   1      43.382  25.389  34.823  1.00  0.00    -0.205 F 
ATOM     90  C   UNL A   1      46.879  26.138  35.597  1.00  0.00     0.022 A 
BRANCH  88  91
ATOM     91  S   UNL A   1      45.443  24.095  36.719  1.00  0.00     0.127 S 
ATOM     92  O   UNL A   1      44.493  23.264  35.981  1.00  0.00    -0.237 OA
ATOM     93  O   UNL A   1      46.806  23.565  36.771  1.00  0.00    -0.237 OA
ATOM     94  O   UNL A   1      44.953  24.629  37.983  1.00  0.00    -0.744 OA
ENDBRANCH  88  91
ENDBRANCH  61  84
ENDBRANCH  35  36
ENDBRANCH  28  30
ENDBRANCH  27  28
ENDBRANCH  26  27
ENDBRANCH  25  26
ENDBRANCH  24  25
ENDBRANCH  23  24
ENDBRANCH  22  23
ENDBRANCH  21  22
ENDBRANCH   1  21
TORSDOF 28
ENDMDL
MODEL 3
REMARK VINA RESULT:      -8.4      2.560      3.302
REMARK SMILES CCCN(C(=O)NCC(=O)OCCOCCOCCOCCOC(=O)c1ccc(-c2c3nc(c(-c4cccc(S(=O)(=O)[O-])c4F)c4ccc([nH]4)c(-c4cccc(S(=O)(=O)[O-])c4F)c4nc(c(-c5cccc(S(=O)(=O)[O-])c5F)c5ccc2[nH]5)C=C4)C=C3)cc1)C(C)C
REMARK SMILES IDX 16 1 15 2 14 3 13 4 12 5 11 6 9 7 10 8 8 9 7 10 5 11 6 12
REMARK SMILES IDX 4 14 3 15 2 16 1 17 89 18 90 19 91 20 17 21 18 22 19 23
REMARK SMILES IDX 20 24 21 25 22 26 23 27 24 28 25 29 26 30 27 31 88 32 28 33
REMARK SMILES IDX 87 34 29 35 30 36 31 37 81 38 32 39 86 40 80 41 82 42 33 43
REMARK SMILES IDX 85 44 79 45 78 46 34 48 66 49 46 50 65 51 47 52 50 53 64 54
REMARK SMILES IDX 83 55 48 56 49 57 63 59 84 60 51 61 35 62 36 63 44 64 37 65
REMARK SMILES IDX 39 66 45 67 38 68 40 69 41 70 42 71 43 72 67 73 68 74 76 75
REMARK SMILES IDX 69 76 71 77 77 78 70 79 72 80 73 81 74 82 75 83 52 84 53 85
REMARK SMILES IDX 61 86 54 87 56 88 62 89 55 90 57 91 58 92 59 93 60 94
REMARK H PARENT 7 13 82 47 50 58
REMARK Flexibility Score: inf
ROOT
ATOM      1  C   UNL A   1      31.517  27.642  25.076  1.00  0.00     0.188 C 
ENDROOT
BRANCH   1   2
ATOM      2  C   UNL A   1      32.858  26.886  25.048  1.00  0.00     0.188 C 
BRANCH   2   3
ATOM      3  O   UNL A   1      32.918  25.466  25.118  1.00  0.00    -0.376 OA
BRANCH   3   4
ATOM      4  C   UNL A   1      34.157  24.789  25.282  1.00  0.00     0.202 C 
BRANCH   4   5
ATOM      5  C   UNL A   1      35.050  24.435  24.077  1.00  0.00     0.261 C 
BRANCH   5   6
ATOM      6  O   UNL A   1      34.547  23.411  23.203  1.00  0.00    -0.462 OA
BRANCH   6   7
ATOM      7  C   UNL A   1      33.486  23.744  22.433  1.00  0.00     0.325 C 
ATOM      8  O   UNL A   1      33.507  24.590  21.542  1.00  0.00    -0.250 OA
BRANCH   7   9
ATOM      9  C   UNL A   1      32.277  22.824  22.633  1.00  0.00     0.240 C 
BRANCH   9  10
ATOM     10  N   UNL A   1      31.743  22.474  23.944  1.00  0.00    -0.327 N 
ATOM     11  C   UNL A   1      32.030  21.652  24.961  1.00  0.00     0.318 C 
ATOM     12  O   UNL A   1      31.346  21.863  25.971  1.00  0.00    -0.249 OA
ATOM     13  H   UNL A   1      30.931  22.996  24.138  1.00  0.00     0.166 HD
BRANCH  11  14
ATOM     14  N   UNL A   1      32.996  20.683  24.911  1.00  0.00    -0.322 N 
BRANCH  14  15
ATOM     15  C   UNL A   1      32.787  19.302  24.479  1.00  0.00     0.121 C 
BRANCH  15  16
ATOM     16  C   UNL A   1      32.588  18.302  25.626  1.00  0.00     0.018 C 
ATOM     17  C   UNL A   1      33.277  16.966  25.433  1.00  0.00     0.006 C 
ENDBRANCH  15  16
ENDBRANCH  14  15
BRANCH  14  18
ATOM     18  C   UNL A   1      34.356  21.096  25.356  1.00  0.00     0.080 C 
ATOM     19  C   UNL A   1      34.454  21.470  26.837  1.00  0.00     0.031 C 
ATOM     20  C   UNL A   1      35.417  20.066  24.974  1.00  0.00     0.031 C 
ENDBRANCH  14  18
ENDBRANCH  11  14
ENDBRANCH   9  10
ENDBRANCH   7   9
ENDBRANCH   6   7
ENDBRANCH   5   6
ENDBRANCH   4   5
ENDBRANCH   3   4
ENDBRANCH   2   3
ENDBRANCH   1   2
BRANCH   1  21
ATOM     21  O   UNL A   1      31.375  28.547  26.148  1.00  0.00    -0.377 OA
BRANCH  21  22
ATOM     22  C   UNL A   1      31.604  29.917  25.856  1.00  0.00     0.188 C 
BRANCH  22  23
ATOM     23  C   UNL A   1      33.014  30.466  26.148  1.00  0.00     0.188 C 
BRANCH  23  24
ATOM     24  O   UNL A   1      33.290  30.655  27.533  1.00  0.00    -0.376 OA
BRANCH  24  25
ATOM     25  C   UNL A   1      33.958  31.841  27.943  1.00  0.00     0.202 C 
BRANCH  25  26
ATOM     26  C   UNL A   1      33.181  33.168  27.884  1.00  0.00     0.261 C 
BRANCH  26  27
ATOM     27  O   UNL A   1      33.832  34.321  28.437  1.00  0.00    -0.460 OA
BRANCH  27  28
ATOM     28  C   UNL A   1      33.684  34.566  29.754  1.00  0.00     0.338 C 
ATOM     29  O   UNL A   1      32.700  35.030  30.307  1.00  0.00    -0.246 OA
BRANCH  28  30
ATOM     30  C   UNL A   1      34.841  33.972  30.456  1.00  0.00     0.060 A 
ATOM     31  C   UNL A   1      36.133  34.314  30.035  1.00  0.00     0.016 A 
ATOM     32  C   UNL A   1      34.655  33.093  31.524  1.00  0.00     0.016 A 
ATOM     33  C   UNL A   1      37.244  33.740  30.652  1.00  0.00     0.010 A 
ATOM     34  C   UNL A   1      35.767  32.500  32.126  1.00  0.00     0.010 A 
ATOM     35  C   UNL A   1      37.064  32.791  31.664  1.00  0.00    -0.014 A 
BRANCH  35  36
ATOM     36  C   UNL A   1      38.206  31.945  32.084  1.00  0.00     0.031 A 
ATOM     37  C   UNL A   1      38.861  32.241  33.406  1.00  0.00     0.074 A 
ATOM     38  C   UNL A   1      38.650  30.931  31.321  1.00  0.00     0.049 A 
ATOM     39  N   UNL A   1      39.885  31.664  33.974  1.00  0.00    -0.248 NA
ATOM     40  C   UNL A   1      38.280  33.345  34.188  1.00  0.00     0.031 C 
ATOM     41  C   UNL A   1      38.084  30.529  30.036  1.00  0.00     0.029 A 
ATOM     42  N   UNL A   1      39.698  30.067  31.516  1.00  0.00    -0.354 N 
ATOM     43  C   UNL A   1      40.093  32.353  35.164  1.00  0.00     0.074 A 
ATOM     44  C   UNL A   1      39.099  33.401  35.225  1.00  0.00     0.031 C 
ATOM     45  C   UNL A   1      38.806  29.507  29.545  1.00  0.00     0.029 A 
ATOM     46  C   UNL A   1      39.900  29.204  30.466  1.00  0.00     0.049 A 
ATOM     47  H   UNL A   1      40.252  30.066  32.330  1.00  0.00     0.167 HD
ATOM     48  C   UNL A   1      41.019  32.127  36.126  1.00  0.00     0.034 A 
ATOM     49  C   UNL A   1      40.871  28.291  30.266  1.00  0.00     0.034 A 
ATOM     50  C   UNL A   1      42.005  31.084  36.060  1.00  0.00     0.049 A 
ATOM     51  C   UNL A   1      41.927  28.093  31.324  1.00  0.00     0.074 A 
ATOM     52  C   UNL A   1      42.966  30.747  36.997  1.00  0.00     0.029 A 
ATOM     53  N   UNL A   1      42.176  30.224  34.985  1.00  0.00    -0.354 N 
ATOM     54  N   UNL A   1      42.052  28.681  32.490  1.00  0.00    -0.248 NA
ATOM     55  C   UNL A   1      42.961  27.084  31.048  1.00  0.00     0.031 C 
ATOM     56  C   UNL A   1      43.745  29.711  36.468  1.00  0.00     0.029 A 
ATOM     57  C   UNL A   1      43.239  29.370  35.224  1.00  0.00     0.049 A 
ATOM     58  H   UNL A   1      41.622  30.222  34.171  1.00  0.00     0.167 HD
ATOM     59  C   UNL A   1      43.149  28.085  33.104  1.00  0.00     0.074 A 
ATOM     60  C   UNL A   1      43.645  27.082  32.185  1.00  0.00     0.031 C 
ATOM     61  C   UNL A   1      43.699  28.347  34.318  1.00  0.00     0.034 A 
BRANCH  48  62
ATOM     62  C   UNL A   1      40.999  33.037  37.328  1.00  0.00     0.023 A 
ATOM     63  C   UNL A   1      40.222  32.701  38.456  1.00  0.00     0.012 A 
ATOM     64  C   UNL A   1      41.754  34.226  37.342  1.00  0.00     0.148 A 
ATOM     65  C   UNL A   1      40.153  33.556  39.554  1.00  0.00     0.002 A 
ATOM     66  C   UNL A   1      41.721  35.049  38.462  1.00  0.00     0.091 A 
ATOM     67  F   UNL A   1      42.469  34.545  36.254  1.00  0.00    -0.205 F 
ATOM     68  C   UNL A   1      40.908  34.726  39.560  1.00  0.00     0.022 A 
BRANCH  66  69
ATOM     69  S   UNL A   1      42.722  36.534  38.598  1.00  0.00     0.127 S 
ATOM     70  O   UNL A   1      42.426  36.965  39.963  1.00  0.00    -0.237 OA
ATOM     71  O   UNL A   1      44.075  36.011  38.404  1.00  0.00    -0.237 OA
ATOM     72  O   UNL A   1      42.261  37.426  37.544  1.00  0.00    -0.744 OA
ENDBRANCH  66  69
ENDBRANCH  48  62
BRANCH  49  73
ATOM     73  C   UNL A   1      40.864  27.459  29.029  1.00  0.00     0.023 A 
ATOM     74  C   UNL A   1      39.880  26.464  28.871  1.00  0.00     0.012 A 
ATOM     75  C   UNL A   1      41.806  27.665  28.001  1.00  0.00     0.148 A 
ATOM     76  C   UNL A   1      39.847  25.673  27.723  1.00  0.00     0.002 A 
ATOM     77  C   UNL A   1      41.734  26.909  26.837  1.00  0.00     0.091 A 
ATOM     78  F   UNL A   1      42.739  28.609  28.177  1.00  0.00    -0.205 F 
ATOM     79  C   UNL A   1      40.766  25.902  26.702  1.00  0.00     0.022 A 
BRANCH  77  80
ATOM     80  S   UNL A   1      42.797  27.207  25.419  1.00  0.00     0.127 S 
ATOM     81  O   UNL A   1      44.090  27.438  26.058  1.00  0.00    -0.237 OA
ATOM     82  O   UNL A   1      42.685  25.942  24.693  1.00  0.00    -0.237 OA
ATOM     83  O   UNL A   1      42.227  28.355  24.728  1.00  0.00    -0.744 OA
ENDBRANCH  77  80
ENDBRANCH  49  73
BRANCH  61  84
ATOM     84  C   UNL A   1      44.876  27.509  34.753  1.00  0.00     0.023 A 
ATOM     85  C   UNL A   1      46.189  27.991  34.592  1.00  0.00     0.012 A 
ATOM     86  C   UNL A   1      44.670  26.270  35.395  1.00  0.00     0.148 A 
ATOM     87  C   UNL A   1      47.280  27.239  35.029  1.00  0.00     0.002 A 
ATOM     88  C   UNL A   1      45.758  25.552  35.876  1.00  0.00     0.091 A 
ATOM     89  F   UNL A   1      43.414  25.819  35.527  1.00  0.00    -0.205 F 
ATOM     90  C   UNL A   1      47.064  26.027  35.680  1.00  0.00     0.022 A 
BRANCH  88  91
ATOM     91  S   UNL A   1      45.573  24.032  36.816  1.00  0.00     0.127 S 
ATOM     92  O   UNL A   1      44.951  24.515  38.046  1.00  0.00    -0.237 OA
ATOM     93  O   UNL A   1      44.692  23.242  35.954  1.00  0.00    -0.237 OA
ATOM     94  O   UNL A   1      46.916  23.487  36.970  1.00  0.00    -0.744 OA
ENDBRANCH  88  91
ENDBRANCH  61  84
ENDBRANCH  35  36
ENDBRANCH  28  30
ENDBRANCH  27  28
ENDBRANCH  26  27
ENDBRANCH  25  26
ENDBRANCH  24  25
ENDBRANCH  23  24
ENDBRANCH  22  23
ENDBRANCH  21  22
ENDBRANCH   1  21
TORSDOF 28
ENDMDL
