MODEL 1
REMARK VINA RESULT:      -9.7      0.000      0.000
REMARK SMILES COc1cc(NS(=O)(=O)c2cc(C(=O)OCCOCCOCCOCCOC(=O)c3ccc(-c4c5nc(c(-c6cccc(S(=O)(=O)[O-])c6F)c6ccc([nH]6)c(-c6cccc(S(=O)(=O)[O-])c6F)c6nc(c(-c7cccc(S(=O)(=O)[O-])c7F)c7ccc4[nH]7)C=C6)C=C5)cc3)cc(C)c2C)ccc1N1CCCC1=O
REMARK SMILES IDX 20 1 19 2 18 3 17 4 16 5 15 6 13 7 14 8 12 9 10 10 11 11
REMARK SMILES IDX 96 12 94 13 97 14 93 15 95 16 7 17 8 18 9 19 6 20 5 22 3 23
REMARK SMILES IDX 4 24 100 25 99 26 98 27 2 28 1 29 101 30 102 31 105 32
REMARK SMILES IDX 103 33 104 34 106 35 21 36 22 37 23 38 24 39 25 40 26 41
REMARK SMILES IDX 27 42 28 43 29 44 30 45 31 46 92 47 32 48 91 49 33 50 34 51
REMARK SMILES IDX 35 52 85 53 36 54 90 55 84 56 86 57 37 58 89 59 83 60 82 61
REMARK SMILES IDX 38 63 70 64 50 65 69 66 51 67 54 68 68 69 87 70 52 71 53 72
REMARK SMILES IDX 67 74 88 75 55 76 39 77 40 78 48 79 41 80 43 81 49 82 42 83
REMARK SMILES IDX 44 84 45 85 46 86 47 87 71 88 72 89 80 90 73 91 75 92 81 93
REMARK SMILES IDX 74 94 76 95 77 96 78 97 79 98 56 99 57 100 65 101 58 102
REMARK SMILES IDX 60 103 66 104 59 105 61 106 62 107 63 108 64 109
REMARK H PARENT 6 21 86 62 54 73
REMARK Flexibility Score: inf
ROOT
ATOM      1  C   UNL A   1      33.241  36.064  28.899  1.00  0.00     0.188 C 
ENDROOT
BRANCH   1   2
ATOM      2  C   UNL A   1      34.384  35.031  29.033  1.00  0.00     0.188 C 
BRANCH   2   3
ATOM      3  O   UNL A   1      33.958  33.690  29.218  1.00  0.00    -0.376 OA
BRANCH   3   4
ATOM      4  C   UNL A   1      33.439  32.993  28.099  1.00  0.00     0.202 C 
BRANCH   4   5
ATOM      5  C   UNL A   1      34.135  31.680  27.707  1.00  0.00     0.261 C 
BRANCH   5   6
ATOM      6  O   UNL A   1      33.270  30.649  27.218  1.00  0.00    -0.460 OA
BRANCH   6   7
ATOM      7  C   UNL A   1      33.889  29.550  26.756  1.00  0.00     0.338 C 
ATOM      8  O   UNL A   1      34.882  29.019  27.228  1.00  0.00    -0.246 OA
BRANCH   7   9
ATOM      9  C   UNL A   1      33.073  28.934  25.693  1.00  0.00     0.061 A 
ATOM     10  C   UNL A   1      32.781  27.056  24.180  1.00  0.00     0.091 A 
ATOM     11  C   UNL A   1      33.441  27.666  25.258  1.00  0.00     0.038 A 
ATOM     12  C   UNL A   1      31.688  27.702  23.556  1.00  0.00    -0.028 A 
ATOM     13  C   UNL A   1      31.247  28.945  24.097  1.00  0.00    -0.046 A 
ATOM     14  C   UNL A   1      30.991  27.160  22.336  1.00  0.00     0.046 C 
ATOM     15  C   UNL A   1      31.959  29.556  25.148  1.00  0.00     0.019 A 
ATOM     16  C   UNL A   1      30.033  29.696  23.603  1.00  0.00     0.044 C 
BRANCH  10  17
ATOM     17  S   UNL A   1      33.516  25.508  23.662  1.00  0.00     0.262 S 
ATOM     18  O   UNL A   1      34.664  25.197  24.486  1.00  0.00    -0.201 OA
ATOM     19  O   UNL A   1      33.681  25.545  22.222  1.00  0.00    -0.201 OA
BRANCH  17  20
ATOM     20  N   UNL A   1      32.316  24.318  23.990  1.00  0.00    -0.279 N 
ATOM     21  H   UNL A   1      31.366  24.561  24.082  1.00  0.00     0.180 HD
BRANCH  20  22
ATOM     22  C   UNL A   1      32.761  22.952  24.126  1.00  0.00     0.053 A 
ATOM     23  C   UNL A   1      33.516  21.137  25.590  1.00  0.00     0.144 A 
ATOM     24  C   UNL A   1      33.229  22.492  25.361  1.00  0.00     0.075 A 
ATOM     25  C   UNL A   1      33.403  20.238  24.520  1.00  0.00     0.086 A 
ATOM     26  C   UNL A   1      33.025  20.718  23.253  1.00  0.00     0.032 A 
ATOM     27  C   UNL A   1      32.697  22.067  23.056  1.00  0.00     0.029 A 
BRANCH  23  28
ATOM     28  O   UNL A   1      33.986  20.891  26.851  1.00  0.00    -0.494 OA
ATOM     29  C   UNL A   1      34.426  21.968  27.674  1.00  0.00     0.278 C 
ENDBRANCH  23  28
BRANCH  25  30
ATOM     30  N   UNL A   1      33.769  18.886  24.603  1.00  0.00    -0.309 N 
ATOM     31  C   UNL A   1      35.136  18.451  24.534  1.00  0.00     0.126 C 
ATOM     32  C   UNL A   1      32.892  17.866  24.983  1.00  0.00     0.227 C 
ATOM     33  C   UNL A   1      35.017  16.936  24.536  1.00  0.00     0.032 C 
ATOM     34  C   UNL A   1      33.752  16.675  25.340  1.00  0.00     0.102 C 
ATOM     35  O   UNL A   1      31.679  17.901  25.095  1.00  0.00    -0.275 OA
ENDBRANCH  25  30
ENDBRANCH  20  22
ENDBRANCH  17  20
ENDBRANCH  10  17
ENDBRANCH   7   9
ENDBRANCH   6   7
ENDBRANCH   5   6
ENDBRANCH   4   5
ENDBRANCH   3   4
ENDBRANCH   2   3
ENDBRANCH   1   2
BRANCH   1  36
ATOM     36  O   UNL A   1      32.279  36.219  29.930  1.00  0.00    -0.377 OA
BRANCH  36  37
ATOM     37  C   UNL A   1      32.700  36.654  31.215  1.00  0.00     0.188 C 
BRANCH  37  38
ATOM     38  C   UNL A   1      32.402  35.772  32.449  1.00  0.00     0.188 C 
BRANCH  38  39
ATOM     39  O   UNL A   1      32.943  34.461  32.393  1.00  0.00    -0.376 OA
BRANCH  39  40
ATOM     40  C   UNL A   1      34.151  34.221  33.096  1.00  0.00     0.202 C 
BRANCH  40  41
ATOM     41  C   UNL A   1      34.998  33.007  32.683  1.00  0.00     0.261 C 
BRANCH  41  42
ATOM     42  O   UNL A   1      35.970  32.553  33.635  1.00  0.00    -0.460 OA
BRANCH  42  43
ATOM     43  C   UNL A   1      37.085  33.297  33.817  1.00  0.00     0.338 C 
ATOM     44  O   UNL A   1      37.150  34.435  34.242  1.00  0.00    -0.246 OA
BRANCH  43  45
ATOM     45  C   UNL A   1      38.237  32.396  33.601  1.00  0.00     0.060 A 
ATOM     46  C   UNL A   1      38.165  31.066  34.044  1.00  0.00     0.016 A 
ATOM     47  C   UNL A   1      39.355  32.849  32.900  1.00  0.00     0.016 A 
ATOM     48  C   UNL A   1      39.215  30.185  33.776  1.00  0.00     0.010 A 
ATOM     49  C   UNL A   1      40.417  31.976  32.665  1.00  0.00     0.010 A 
ATOM     50  C   UNL A   1      40.358  30.645  33.115  1.00  0.00    -0.014 A 
BRANCH  50  51
ATOM     51  C   UNL A   1      41.567  29.794  33.023  1.00  0.00     0.031 A 
ATOM     52  C   UNL A   1      42.619  29.937  34.085  1.00  0.00     0.074 A 
ATOM     53  C   UNL A   1      41.750  28.950  31.992  1.00  0.00     0.049 A 
ATOM     54  N   UNL A   1      43.799  29.383  34.162  1.00  0.00    -0.248 NA
ATOM     55  C   UNL A   1      42.293  30.830  35.210  1.00  0.00     0.031 C 
ATOM     56  C   UNL A   1      40.793  28.712  30.915  1.00  0.00     0.029 A 
ATOM     57  N   UNL A   1      42.828  28.164  31.670  1.00  0.00    -0.354 N 
ATOM     58  C   UNL A   1      44.372  29.884  35.324  1.00  0.00     0.074 A 
ATOM     59  C   UNL A   1      43.412  30.790  35.916  1.00  0.00     0.031 C 
ATOM     60  C   UNL A   1      41.341  27.863  30.028  1.00  0.00     0.029 A 
ATOM     61  C   UNL A   1      42.699  27.531  30.456  1.00  0.00     0.049 A 
ATOM     62  H   UNL A   1      43.616  28.062  32.251  1.00  0.00     0.167 HD
ATOM     63  C   UNL A   1      45.587  29.609  35.856  1.00  0.00     0.034 A 
ATOM     64  C   UNL A   1      43.591  26.801  29.756  1.00  0.00     0.034 A 
ATOM     65  C   UNL A   1      46.539  28.711  35.261  1.00  0.00     0.049 A 
ATOM     66  C   UNL A   1      44.966  26.567  30.331  1.00  0.00     0.074 A 
ATOM     67  C   UNL A   1      47.777  28.328  35.743  1.00  0.00     0.029 A 
ATOM     68  N   UNL A   1      46.372  28.079  34.038  1.00  0.00    -0.354 N 
ATOM     69  N   UNL A   1      45.455  26.945  31.488  1.00  0.00    -0.248 NA
ATOM     70  C   UNL A   1      45.908  25.791  29.511  1.00  0.00     0.031 C 
ATOM     71  C   UNL A   1      48.378  27.498  34.790  1.00  0.00     0.029 A 
ATOM     72  C   UNL A   1      47.498  27.334  33.732  1.00  0.00     0.049 A 
ATOM     73  H   UNL A   1      45.570  28.149  33.471  1.00  0.00     0.167 HD
ATOM     74  C   UNL A   1      46.748  26.436  31.545  1.00  0.00     0.074 A 
ATOM     75  C   UNL A   1      46.959  25.699  30.316  1.00  0.00     0.031 C 
ATOM     76  C   UNL A   1      47.682  26.576  32.519  1.00  0.00     0.034 A 
BRANCH  63  77
ATOM     77  C   UNL A   1      45.949  30.294  37.146  1.00  0.00     0.023 A 
ATOM     78  C   UNL A   1      46.617  31.536  37.119  1.00  0.00     0.012 A 
ATOM     79  C   UNL A   1      45.609  29.721  38.387  1.00  0.00     0.148 A 
ATOM     80  C   UNL A   1      46.977  32.175  38.304  1.00  0.00     0.002 A 
ATOM     81  C   UNL A   1      45.929  30.387  39.564  1.00  0.00     0.091 A 
ATOM     82  F   UNL A   1      44.997  28.527  38.394  1.00  0.00    -0.205 F 
ATOM     83  C   UNL A   1      46.625  31.606  39.525  1.00  0.00     0.022 A 
BRANCH  81  84
ATOM     84  S   UNL A   1      45.451  29.773  41.182  1.00  0.00     0.127 S 
ATOM     85  O   UNL A   1      44.055  30.203  41.258  1.00  0.00    -0.237 OA
ATOM     86  O   UNL A   1      45.637  28.330  41.030  1.00  0.00    -0.237 OA
ATOM     87  O   UNL A   1      46.353  30.405  42.134  1.00  0.00    -0.744 OA
ENDBRANCH  81  84
ENDBRANCH  63  77
BRANCH  64  88
ATOM     88  C   UNL A   1      43.209  26.225  28.435  1.00  0.00     0.023 A 
ATOM     89  C   UNL A   1      43.287  27.028  27.282  1.00  0.00     0.012 A 
ATOM     90  C   UNL A   1      42.792  24.884  28.311  1.00  0.00     0.148 A 
ATOM     91  C   UNL A   1      42.936  26.515  26.032  1.00  0.00     0.002 A 
ATOM     92  C   UNL A   1      42.497  24.363  27.056  1.00  0.00     0.091 A 
ATOM     93  F   UNL A   1      42.707  24.140  29.422  1.00  0.00    -0.205 F 
ATOM     94  C   UNL A   1      42.552  25.182  25.918  1.00  0.00     0.022 A 
BRANCH  92  95
ATOM     95  S   UNL A   1      42.115  22.628  26.790  1.00  0.00     0.127 S 
ATOM     96  O   UNL A   1      41.918  22.582  25.344  1.00  0.00    -0.237 OA
ATOM     97  O   UNL A   1      43.337  21.978  27.266  1.00  0.00    -0.237 OA
ATOM     98  O   UNL A   1      40.933  22.352  27.594  1.00  0.00    -0.744 OA
ENDBRANCH  92  95
ENDBRANCH  64  88
BRANCH  76  99
ATOM     99  C   UNL A   1      49.022  25.915  32.311  1.00  0.00     0.023 A 
ATOM    100  C   UNL A   1      50.021  26.578  31.571  1.00  0.00     0.012 A 
ATOM    101  C   UNL A   1      49.322  24.681  32.924  1.00  0.00     0.148 A 
ATOM    102  C   UNL A   1      51.287  26.015  31.422  1.00  0.00     0.002 A 
ATOM    103  C   UNL A   1      50.602  24.149  32.813  1.00  0.00     0.091 A 
ATOM    104  F   UNL A   1      48.356  24.060  33.616  1.00  0.00    -0.205 F 
ATOM    105  C   UNL A   1      51.581  24.807  32.053  1.00  0.00     0.022 A 
BRANCH 103 106
ATOM    106  S   UNL A   1      51.106  22.649  33.664  1.00  0.00     0.127 S 
ATOM    107  O   UNL A   1      52.456  22.449  33.138  1.00  0.00    -0.237 OA
ATOM    108  O   UNL A   1      51.053  23.058  35.067  1.00  0.00    -0.237 OA
ATOM    109  O   UNL A   1      50.139  21.626  33.290  1.00  0.00    -0.744 OA
ENDBRANCH 103 106
ENDBRANCH  76  99
ENDBRANCH  50  51
ENDBRANCH  43  45
ENDBRANCH  42  43
ENDBRANCH  41  42
ENDBRANCH  40  41
ENDBRANCH  39  40
ENDBRANCH  38  39
ENDBRANCH  37  38
ENDBRANCH  36  37
ENDBRANCH   1  36
TORSDOF 28
ENDMDL
MODEL 2
REMARK VINA RESULT:      -8.9      5.904      9.795
REMARK SMILES COc1cc(NS(=O)(=O)c2cc(C(=O)OCCOCCOCCOCCOC(=O)c3ccc(-c4c5nc(c(-c6cccc(S(=O)(=O)[O-])c6F)c6ccc([nH]6)c(-c6cccc(S(=O)(=O)[O-])c6F)c6nc(c(-c7cccc(S(=O)(=O)[O-])c7F)c7ccc4[nH]7)C=C6)C=C5)cc3)cc(C)c2C)ccc1N1CCCC1=O
REMARK SMILES IDX 20 1 19 2 18 3 17 4 16 5 15 6 13 7 14 8 12 9 10 10 11 11
REMARK SMILES IDX 96 12 94 13 97 14 93 15 95 16 7 17 8 18 9 19 6 20 5 22 3 23
REMARK SMILES IDX 4 24 100 25 99 26 98 27 2 28 1 29 101 30 102 31 105 32
REMARK SMILES IDX 103 33 104 34 106 35 21 36 22 37 23 38 24 39 25 40 26 41
REMARK SMILES IDX 27 42 28 43 29 44 30 45 31 46 92 47 32 48 91 49 33 50 34 51
REMARK SMILES IDX 35 52 85 53 36 54 90 55 84 56 86 57 37 58 89 59 83 60 82 61
REMARK SMILES IDX 38 63 70 64 50 65 69 66 51 67 54 68 68 69 87 70 52 71 53 72
REMARK SMILES IDX 67 74 88 75 55 76 39 77 40 78 48 79 41 80 43 81 49 82 42 83
REMARK SMILES IDX 44 84 45 85 46 86 47 87 71 88 72 89 80 90 73 91 75 92 81 93
REMARK SMILES IDX 74 94 76 95 77 96 78 97 79 98 56 99 57 100 65 101 58 102
REMARK SMILES IDX 60 103 66 104 59 105 61 106 62 107 63 108 64 109
REMARK H PARENT 6 21 86 62 54 73
REMARK Flexibility Score: inf
ROOT
ATOM      1  C   UNL A   1      39.389  28.807  27.704  1.00  0.00     0.188 C 
ENDROOT
BRANCH   1   2
ATOM      2  C   UNL A   1      38.211  29.678  28.199  1.00  0.00     0.188 C 
BRANCH   2   3
ATOM      3  O   UNL A   1      36.926  29.099  28.027  1.00  0.00    -0.376 OA
BRANCH   3   4
ATOM      4  C   UNL A   1      35.793  29.944  28.127  1.00  0.00     0.202 C 
BRANCH   4   5
ATOM      5  C   UNL A   1      34.599  29.624  27.213  1.00  0.00     0.261 C 
BRANCH   5   6
ATOM      6  O   UNL A   1      34.638  28.343  26.578  1.00  0.00    -0.460 OA
BRANCH   6   7
ATOM      7  C   UNL A   1      33.486  27.652  26.603  1.00  0.00     0.338 C 
ATOM      8  O   UNL A   1      32.409  28.044  27.028  1.00  0.00    -0.246 OA
BRANCH   7   9
ATOM      9  C   UNL A   1      33.644  26.397  25.846  1.00  0.00     0.061 A 
ATOM     10  C   UNL A   1      32.622  24.775  24.355  1.00  0.00     0.091 A 
ATOM     11  C   UNL A   1      32.592  26.007  25.026  1.00  0.00     0.038 A 
ATOM     12  C   UNL A   1      33.756  23.935  24.457  1.00  0.00    -0.028 A 
ATOM     13  C   UNL A   1      34.876  24.409  25.200  1.00  0.00    -0.046 A 
ATOM     14  C   UNL A   1      33.827  22.559  23.848  1.00  0.00     0.046 C 
ATOM     15  C   UNL A   1      34.798  25.628  25.903  1.00  0.00     0.019 A 
ATOM     16  C   UNL A   1      36.190  23.672  25.310  1.00  0.00     0.044 C 
BRANCH  10  17
ATOM     17  S   UNL A   1      31.102  24.380  23.496  1.00  0.00     0.262 S 
ATOM     18  O   UNL A   1      30.786  22.976  23.653  1.00  0.00    -0.201 OA
ATOM     19  O   UNL A   1      31.182  24.930  22.157  1.00  0.00    -0.201 OA
BRANCH  17  20
ATOM     20  N   UNL A   1      29.884  25.271  24.323  1.00  0.00    -0.279 N 
ATOM     21  H   UNL A   1      29.396  24.885  25.087  1.00  0.00     0.180 HD
BRANCH  20  22
ATOM     22  C   UNL A   1      29.606  26.606  23.851  1.00  0.00     0.053 A 
ATOM     23  C   UNL A   1      30.431  28.666  22.808  1.00  0.00     0.144 A 
ATOM     24  C   UNL A   1      30.657  27.426  23.428  1.00  0.00     0.075 A 
ATOM     25  C   UNL A   1      29.111  29.122  22.684  1.00  0.00     0.086 A 
ATOM     26  C   UNL A   1      28.061  28.340  23.197  1.00  0.00     0.032 A 
ATOM     27  C   UNL A   1      28.303  27.083  23.770  1.00  0.00     0.029 A 
BRANCH  23  28
ATOM     28  O   UNL A   1      31.585  29.330  22.492  1.00  0.00    -0.494 OA
ATOM     29  C   UNL A   1      32.743  29.180  23.309  1.00  0.00     0.278 C 
ENDBRANCH  23  28
BRANCH  25  30
ATOM     30  N   UNL A   1      28.773  30.389  22.184  1.00  0.00    -0.309 N 
ATOM     31  C   UNL A   1      28.164  30.573  20.897  1.00  0.00     0.126 C 
ATOM     32  C   UNL A   1      28.777  31.554  22.956  1.00  0.00     0.227 C 
ATOM     33  C   UNL A   1      28.113  32.084  20.752  1.00  0.00     0.032 C 
ATOM     34  C   UNL A   1      27.977  32.579  22.184  1.00  0.00     0.102 C 
ATOM     35  O   UNL A   1      29.248  31.737  24.065  1.00  0.00    -0.275 OA
ENDBRANCH  25  30
ENDBRANCH  20  22
ENDBRANCH  17  20
ENDBRANCH  10  17
ENDBRANCH   7   9
ENDBRANCH   6   7
ENDBRANCH   5   6
ENDBRANCH   4   5
ENDBRANCH   3   4
ENDBRANCH   2   3
ENDBRANCH   1   2
BRANCH   1  36
ATOM     36  O   UNL A   1      39.630  27.526  28.265  1.00  0.00    -0.377 OA
BRANCH  36  37
ATOM     37  C   UNL A   1      39.938  26.436  27.408  1.00  0.00     0.188 C 
BRANCH  37  38
ATOM     38  C   UNL A   1      39.331  25.045  27.701  1.00  0.00     0.188 C 
BRANCH  38  39
ATOM     39  O   UNL A   1      39.482  24.095  26.659  1.00  0.00    -0.376 OA
BRANCH  39  40
ATOM     40  C   UNL A   1      39.754  22.753  27.029  1.00  0.00     0.202 C 
BRANCH  40  41
ATOM     41  C   UNL A   1      40.490  21.860  26.018  1.00  0.00     0.261 C 
BRANCH  41  42
ATOM     42  O   UNL A   1      41.522  21.015  26.545  1.00  0.00    -0.460 OA
BRANCH  42  43
ATOM     43  C   UNL A   1      42.718  20.994  25.914  1.00  0.00     0.338 C 
ATOM     44  O   UNL A   1      43.095  20.198  25.074  1.00  0.00    -0.246 OA
BRANCH  43  45
ATOM     45  C   UNL A   1      43.413  22.247  26.280  1.00  0.00     0.060 A 
ATOM     46  C   UNL A   1      43.564  23.258  25.319  1.00  0.00     0.016 A 
ATOM     47  C   UNL A   1      43.850  22.445  27.590  1.00  0.00     0.016 A 
ATOM     48  C   UNL A   1      44.149  24.476  25.673  1.00  0.00     0.010 A 
ATOM     49  C   UNL A   1      44.465  23.650  27.933  1.00  0.00     0.010 A 
ATOM     50  C   UNL A   1      44.630  24.664  26.973  1.00  0.00    -0.014 A 
BRANCH  50  51
ATOM     51  C   UNL A   1      45.451  25.851  27.306  1.00  0.00     0.031 A 
ATOM     52  C   UNL A   1      44.809  26.961  28.087  1.00  0.00     0.074 A 
ATOM     53  C   UNL A   1      46.722  25.963  26.883  1.00  0.00     0.049 A 
ATOM     54  N   UNL A   1      45.287  28.134  28.406  1.00  0.00    -0.248 NA
ATOM     55  C   UNL A   1      43.440  26.713  28.570  1.00  0.00     0.031 C 
ATOM     56  C   UNL A   1      47.456  24.944  26.137  1.00  0.00     0.029 A 
ATOM     57  N   UNL A   1      47.605  27.007  26.993  1.00  0.00    -0.354 N 
ATOM     58  C   UNL A   1      44.268  28.778  29.097  1.00  0.00     0.074 A 
ATOM     59  C   UNL A   1      43.145  27.867  29.146  1.00  0.00     0.031 C 
ATOM     60  C   UNL A   1      48.671  25.428  25.823  1.00  0.00     0.029 A 
ATOM     61  C   UNL A   1      48.782  26.802  26.312  1.00  0.00     0.049 A 
ATOM     62  H   UNL A   1      47.415  27.824  27.509  1.00  0.00     0.167 HD
ATOM     63  C   UNL A   1      44.270  30.015  29.648  1.00  0.00     0.034 A 
ATOM     64  C   UNL A   1      49.812  27.641  26.080  1.00  0.00     0.034 A 
ATOM     65  C   UNL A   1      45.387  30.917  29.593  1.00  0.00     0.049 A 
ATOM     66  C   UNL A   1      49.762  29.042  26.640  1.00  0.00     0.074 A 
ATOM     67  C   UNL A   1      45.507  32.173  30.159  1.00  0.00     0.029 A 
ATOM     68  N   UNL A   1      46.567  30.673  28.906  1.00  0.00    -0.354 N 
ATOM     69  N   UNL A   1      48.846  29.599  27.396  1.00  0.00    -0.248 NA
ATOM     70  C   UNL A   1      50.897  29.924  26.330  1.00  0.00     0.031 C 
ATOM     71  C   UNL A   1      46.743  32.706  29.778  1.00  0.00     0.029 A 
ATOM     72  C   UNL A   1      47.409  31.768  29.005  1.00  0.00     0.049 A 
ATOM     73  H   UNL A   1      46.776  29.843  28.419  1.00  0.00     0.167 HD
ATOM     74  C   UNL A   1      49.303  30.884  27.669  1.00  0.00     0.074 A 
ATOM     75  C   UNL A   1      50.590  31.015  27.019  1.00  0.00     0.031 C 
ATOM     76  C   UNL A   1      48.705  31.873  28.381  1.00  0.00     0.034 A 
BRANCH  63  77
ATOM     77  C   UNL A   1      43.018  30.459  30.356  1.00  0.00     0.023 A 
ATOM     78  C   UNL A   1      42.036  31.189  29.656  1.00  0.00     0.012 A 
ATOM     79  C   UNL A   1      42.802  30.133  31.709  1.00  0.00     0.148 A 
ATOM     80  C   UNL A   1      40.880  31.625  30.301  1.00  0.00     0.002 A 
ATOM     81  C   UNL A   1      41.625  30.531  32.333  1.00  0.00     0.091 A 
ATOM     82  F   UNL A   1      43.757  29.461  32.367  1.00  0.00    -0.205 F 
ATOM     83  C   UNL A   1      40.670  31.288  31.635  1.00  0.00     0.022 A 
BRANCH  81  84
ATOM     84  S   UNL A   1      41.228  30.079  34.025  1.00  0.00     0.127 S 
ATOM     85  O   UNL A   1      40.716  31.343  34.554  1.00  0.00    -0.237 OA
ATOM     86  O   UNL A   1      40.213  29.042  33.836  1.00  0.00    -0.237 OA
ATOM     87  O   UNL A   1      42.472  29.611  34.619  1.00  0.00    -0.744 OA
ENDBRANCH  81  84
ENDBRANCH  63  77
BRANCH  64  88
ATOM     88  C   UNL A   1      50.987  27.177  25.289  1.00  0.00     0.023 A 
ATOM     89  C   UNL A   1      51.998  26.432  25.925  1.00  0.00     0.012 A 
ATOM     90  C   UNL A   1      51.097  27.447  23.910  1.00  0.00     0.148 A 
ATOM     91  C   UNL A   1      53.109  25.984  25.209  1.00  0.00     0.002 A 
ATOM     92  C   UNL A   1      52.178  26.950  23.190  1.00  0.00     0.091 A 
ATOM     93  F   UNL A   1      50.133  28.172  23.325  1.00  0.00    -0.205 F 
ATOM     94  C   UNL A   1      53.194  26.233  23.841  1.00  0.00     0.022 A 
BRANCH  92  95
ATOM     95  S   UNL A   1      52.314  27.110  21.406  1.00  0.00     0.127 S 
ATOM     96  O   UNL A   1      51.059  26.513  20.955  1.00  0.00    -0.237 OA
ATOM     97  O   UNL A   1      52.399  28.562  21.243  1.00  0.00    -0.237 OA
ATOM     98  O   UNL A   1      53.522  26.389  21.031  1.00  0.00    -0.744 OA
ENDBRANCH  92  95
ENDBRANCH  64  88
BRANCH  76  99
ATOM     99  C   UNL A   1      49.433  33.187  28.511  1.00  0.00     0.023 A 
ATOM    100  C   UNL A   1      50.355  33.374  29.559  1.00  0.00     0.012 A 
ATOM    101  C   UNL A   1      49.272  34.201  27.545  1.00  0.00     0.148 A 
ATOM    102  C   UNL A   1      51.087  34.556  29.660  1.00  0.00     0.002 A 
ATOM    103  C   UNL A   1      50.041  35.357  27.622  1.00  0.00     0.091 A 
ATOM    104  F   UNL A   1      48.382  34.009  26.559  1.00  0.00    -0.205 F 
ATOM    105  C   UNL A   1      50.939  35.542  28.685  1.00  0.00     0.022 A 
BRANCH 103 106
ATOM    106  S   UNL A   1      49.992  36.642  26.368  1.00  0.00     0.127 S 
ATOM    107  O   UNL A   1      50.795  37.694  26.988  1.00  0.00    -0.237 OA
ATOM    108  O   UNL A   1      50.627  35.983  25.227  1.00  0.00    -0.237 OA
ATOM    109  O   UNL A   1      48.586  36.969  26.176  1.00  0.00    -0.744 OA
ENDBRANCH 103 106
ENDBRANCH  76  99
ENDBRANCH  50  51
ENDBRANCH  43  45
ENDBRANCH  42  43
ENDBRANCH  41  42
ENDBRANCH  40  41
ENDBRANCH  39  40
ENDBRANCH  38  39
ENDBRANCH  37  38
ENDBRANCH  36  37
ENDBRANCH   1  36
TORSDOF 28
ENDMDL
MODEL 3
REMARK VINA RESULT:      -8.9      5.938     11.025
REMARK SMILES COc1cc(NS(=O)(=O)c2cc(C(=O)OCCOCCOCCOCCOC(=O)c3ccc(-c4c5nc(c(-c6cccc(S(=O)(=O)[O-])c6F)c6ccc([nH]6)c(-c6cccc(S(=O)(=O)[O-])c6F)c6nc(c(-c7cccc(S(=O)(=O)[O-])c7F)c7ccc4[nH]7)C=C6)C=C5)cc3)cc(C)c2C)ccc1N1CCCC1=O
REMARK SMILES IDX 20 1 19 2 18 3 17 4 16 5 15 6 13 7 14 8 12 9 10 10 11 11
REMARK SMILES IDX 96 12 94 13 97 14 93 15 95 16 7 17 8 18 9 19 6 20 5 22 3 23
REMARK SMILES IDX 4 24 100 25 99 26 98 27 2 28 1 29 101 30 102 31 105 32
REMARK SMILES IDX 103 33 104 34 106 35 21 36 22 37 23 38 24 39 25 40 26 41
REMARK SMILES IDX 27 42 28 43 29 44 30 45 31 46 92 47 32 48 91 49 33 50 34 51
REMARK SMILES IDX 35 52 85 53 36 54 90 55 84 56 86 57 37 58 89 59 83 60 82 61
REMARK SMILES IDX 38 63 70 64 50 65 69 66 51 67 54 68 68 69 87 70 52 71 53 72
REMARK SMILES IDX 67 74 88 75 55 76 39 77 40 78 48 79 41 80 43 81 49 82 42 83
REMARK SMILES IDX 44 84 45 85 46 86 47 87 71 88 72 89 80 90 73 91 75 92 81 93
REMARK SMILES IDX 74 94 76 95 77 96 78 97 79 98 56 99 57 100 65 101 58 102
REMARK SMILES IDX 60 103 66 104 59 105 61 106 62 107 63 108 64 109
REMARK H PARENT 6 21 86 62 54 73
REMARK Flexibility Score: inf
ROOT
ATOM      1  C   UNL A   1      39.064  28.395  27.697  1.00  0.00     0.188 C 
ENDROOT
BRANCH   1   2
ATOM      2  C   UNL A   1      38.007  29.360  28.281  1.00  0.00     0.188 C 
BRANCH   2   3
ATOM      3  O   UNL A   1      36.659  28.973  28.062  1.00  0.00    -0.376 OA
BRANCH   3   4
ATOM      4  C   UNL A   1      35.656  29.972  28.135  1.00  0.00     0.202 C 
BRANCH   4   5
ATOM      5  C   UNL A   1      34.497  29.875  27.130  1.00  0.00     0.261 C 
BRANCH   5   6
ATOM      6  O   UNL A   1      34.438  28.660  26.377  1.00  0.00    -0.460 OA
BRANCH   6   7
ATOM      7  C   UNL A   1      33.485  27.793  26.756  1.00  0.00     0.338 C 
ATOM      8  O   UNL A   1      32.522  28.034  27.468  1.00  0.00    -0.246 OA
BRANCH   7   9
ATOM      9  C   UNL A   1      33.646  26.526  26.019  1.00  0.00     0.061 A 
ATOM     10  C   UNL A   1      32.604  24.839  24.617  1.00  0.00     0.091 A 
ATOM     11  C   UNL A   1      32.567  26.085  25.262  1.00  0.00     0.038 A 
ATOM     12  C   UNL A   1      33.767  24.037  24.680  1.00  0.00    -0.028 A 
ATOM     13  C   UNL A   1      34.907  24.563  25.355  1.00  0.00    -0.046 A 
ATOM     14  C   UNL A   1      33.853  22.651  24.097  1.00  0.00     0.046 C 
ATOM     15  C   UNL A   1      34.826  25.795  26.035  1.00  0.00     0.019 A 
ATOM     16  C   UNL A   1      36.248  23.869  25.414  1.00  0.00     0.044 C 
BRANCH  10  17
ATOM     17  S   UNL A   1      31.057  24.378  23.844  1.00  0.00     0.262 S 
ATOM     18  O   UNL A   1      30.761  22.985  24.104  1.00  0.00    -0.201 OA
ATOM     19  O   UNL A   1      31.080  24.840  22.470  1.00  0.00    -0.201 OA
BRANCH  17  20
ATOM     20  N   UNL A   1      29.862  25.311  24.658  1.00  0.00    -0.279 N 
ATOM     21  H   UNL A   1      29.391  24.964  25.450  1.00  0.00     0.180 HD
BRANCH  20  22
ATOM     22  C   UNL A   1      29.578  26.625  24.131  1.00  0.00     0.053 A 
ATOM     23  C   UNL A   1      30.426  28.751  23.253  1.00  0.00     0.144 A 
ATOM     24  C   UNL A   1      30.624  27.528  23.914  1.00  0.00     0.075 A 
ATOM     25  C   UNL A   1      29.124  29.104  22.872  1.00  0.00     0.086 A 
ATOM     26  C   UNL A   1      28.058  28.238  23.177  1.00  0.00     0.032 A 
ATOM     27  C   UNL A   1      28.282  27.000  23.796  1.00  0.00     0.029 A 
BRANCH  23  28
ATOM     28  O   UNL A   1      31.564  29.505  23.162  1.00  0.00    -0.494 OA
ATOM     29  C   UNL A   1      32.817  28.881  22.895  1.00  0.00     0.278 C 
ENDBRANCH  23  28
BRANCH  25  30
ATOM     30  N   UNL A   1      28.791  30.345  22.307  1.00  0.00    -0.309 N 
ATOM     31  C   UNL A   1      28.209  30.466  21.001  1.00  0.00     0.126 C 
ATOM     32  C   UNL A   1      28.776  31.545  23.024  1.00  0.00     0.227 C 
ATOM     33  C   UNL A   1      28.155  31.969  20.785  1.00  0.00     0.032 C 
ATOM     34  C   UNL A   1      27.988  32.529  22.189  1.00  0.00     0.102 C 
ATOM     35  O   UNL A   1      29.223  31.781  24.132  1.00  0.00    -0.275 OA
ENDBRANCH  25  30
ENDBRANCH  20  22
ENDBRANCH  17  20
ENDBRANCH  10  17
ENDBRANCH   7   9
ENDBRANCH   6   7
ENDBRANCH   5   6
ENDBRANCH   4   5
ENDBRANCH   3   4
ENDBRANCH   2   3
ENDBRANCH   1   2
BRANCH   1  36
ATOM     36  O   UNL A   1      39.268  27.111  28.266  1.00  0.00    -0.377 OA
BRANCH  36  37
ATOM     37  C   UNL A   1      39.683  26.038  27.435  1.00  0.00     0.188 C 
BRANCH  37  38
ATOM     38  C   UNL A   1      39.379  24.584  27.863  1.00  0.00     0.188 C 
BRANCH  38  39
ATOM     39  O   UNL A   1      39.622  23.603  26.867  1.00  0.00    -0.376 OA
BRANCH  39  40
ATOM     40  C   UNL A   1      40.181  22.369  27.286  1.00  0.00     0.202 C 
BRANCH  40  41
ATOM     41  C   UNL A   1      40.793  21.453  26.215  1.00  0.00     0.261 C 
BRANCH  41  42
ATOM     42  O   UNL A   1      42.044  20.832  26.544  1.00  0.00    -0.460 OA
BRANCH  42  43
ATOM     43  C   UNL A   1      43.096  21.032  25.719  1.00  0.00     0.338 C 
ATOM     44  O   UNL A   1      43.436  20.341  24.777  1.00  0.00    -0.246 OA
BRANCH  43  45
ATOM     45  C   UNL A   1      43.640  22.368  26.042  1.00  0.00     0.060 A 
ATOM     46  C   UNL A   1      43.550  23.398  25.093  1.00  0.00     0.016 A 
ATOM     47  C   UNL A   1      44.174  22.617  27.307  1.00  0.00     0.016 A 
ATOM     48  C   UNL A   1      43.989  24.684  25.415  1.00  0.00     0.010 A 
ATOM     49  C   UNL A   1      44.644  23.894  27.614  1.00  0.00     0.010 A 
ATOM     50  C   UNL A   1      44.567  24.929  26.665  1.00  0.00    -0.014 A 
BRANCH  50  51
ATOM     51  C   UNL A   1      45.241  26.218  26.942  1.00  0.00     0.031 A 
ATOM     52  C   UNL A   1      46.642  26.411  26.437  1.00  0.00     0.074 A 
ATOM     53  C   UNL A   1      44.641  27.177  27.668  1.00  0.00     0.049 A 
ATOM     54  N   UNL A   1      47.468  27.402  26.641  1.00  0.00    -0.248 NA
ATOM     55  C   UNL A   1      47.183  25.336  25.589  1.00  0.00     0.031 C 
ATOM     56  C   UNL A   1      43.280  27.113  28.194  1.00  0.00     0.029 A 
ATOM     57  N   UNL A   1      45.123  28.381  28.119  1.00  0.00    -0.354 N 
ATOM     58  C   UNL A   1      48.638  27.057  25.977  1.00  0.00     0.074 A 
ATOM     59  C   UNL A   1      48.416  25.763  25.368  1.00  0.00     0.031 C 
ATOM     60  C   UNL A   1      43.045  28.215  28.928  1.00  0.00     0.029 A 
ATOM     61  C   UNL A   1      44.252  29.040  28.954  1.00  0.00     0.049 A 
ATOM     62  H   UNL A   1      46.005  28.738  27.868  1.00  0.00     0.167 HD
ATOM     63  C   UNL A   1      49.792  27.757  25.877  1.00  0.00     0.034 A 
ATOM     64  C   UNL A   1      44.426  30.160  29.685  1.00  0.00     0.034 A 
ATOM     65  C   UNL A   1      50.008  29.040  26.488  1.00  0.00     0.049 A 
ATOM     66  C   UNL A   1      45.747  30.887  29.618  1.00  0.00     0.074 A 
ATOM     67  C   UNL A   1      51.124  29.854  26.408  1.00  0.00     0.029 A 
ATOM     68  N   UNL A   1      49.103  29.684  27.317  1.00  0.00    -0.354 N 
ATOM     69  N   UNL A   1      46.804  30.617  28.891  1.00  0.00    -0.248 NA
ATOM     70  C   UNL A   1      45.891  32.084  30.460  1.00  0.00     0.031 C 
ATOM     71  C   UNL A   1      50.909  30.969  27.225  1.00  0.00     0.029 A 
ATOM     72  C   UNL A   1      49.645  30.869  27.784  1.00  0.00     0.049 A 
ATOM     73  H   UNL A   1      48.204  29.347  27.541  1.00  0.00     0.167 HD
ATOM     74  C   UNL A   1      47.729  31.618  29.169  1.00  0.00     0.074 A 
ATOM     75  C   UNL A   1      47.096  32.517  30.112  1.00  0.00     0.031 C 
ATOM     76  C   UNL A   1      48.991  31.773  28.698  1.00  0.00     0.034 A 
BRANCH  63  77
ATOM     77  C   UNL A   1      50.908  27.142  25.076  1.00  0.00     0.023 A 
ATOM     78  C   UNL A   1      51.776  26.209  25.682  1.00  0.00     0.012 A 
ATOM     79  C   UNL A   1      51.085  27.468  23.718  1.00  0.00     0.148 A 
ATOM     80  C   UNL A   1      52.827  25.644  24.960  1.00  0.00     0.002 A 
ATOM     81  C   UNL A   1      52.106  26.865  22.992  1.00  0.00     0.091 A 
ATOM     82  F   UNL A   1      50.268  28.376  23.165  1.00  0.00    -0.205 F 
ATOM     83  C   UNL A   1      52.985  25.965  23.615  1.00  0.00     0.022 A 
BRANCH  81  84
ATOM     84  S   UNL A   1      52.344  27.153  21.236  1.00  0.00     0.127 S 
ATOM     85  O   UNL A   1      51.068  26.694  20.687  1.00  0.00    -0.237 OA
ATOM     86  O   UNL A   1      52.543  28.601  21.187  1.00  0.00    -0.237 OA
ATOM     87  O   UNL A   1      53.508  26.366  20.853  1.00  0.00    -0.744 OA
ENDBRANCH  81  84
ENDBRANCH  63  77
BRANCH  64  88
ATOM     88  C   UNL A   1      43.316  30.673  30.538  1.00  0.00     0.023 A 
ATOM     89  C   UNL A   1      43.016  30.020  31.749  1.00  0.00     0.012 A 
ATOM     90  C   UNL A   1      42.572  31.812  30.170  1.00  0.00     0.148 A 
ATOM     91  C   UNL A   1      41.983  30.479  32.567  1.00  0.00     0.002 A 
ATOM     92  C   UNL A   1      41.581  32.297  31.016  1.00  0.00     0.091 A 
ATOM     93  F   UNL A   1      42.860  32.409  29.005  1.00  0.00    -0.205 F 
ATOM     94  C   UNL A   1      41.273  31.621  32.207  1.00  0.00     0.022 A 
BRANCH  92  95
ATOM     95  S   UNL A   1      40.699  33.830  30.701  1.00  0.00     0.127 S 
ATOM     96  O   UNL A   1      39.774  33.432  29.643  1.00  0.00    -0.237 OA
ATOM     97  O   UNL A   1      40.076  34.087  32.000  1.00  0.00    -0.237 OA
ATOM     98  O   UNL A   1      41.713  34.801  30.315  1.00  0.00    -0.744 OA
ENDBRANCH  92  95
ENDBRANCH  64  88
BRANCH  76  99
ATOM     99  C   UNL A   1      49.783  32.963  29.181  1.00  0.00     0.023 A 
ATOM    100  C   UNL A   1      50.631  32.830  30.298  1.00  0.00     0.012 A 
ATOM    101  C   UNL A   1      49.757  34.183  28.476  1.00  0.00     0.148 A 
ATOM    102  C   UNL A   1      51.421  33.898  30.722  1.00  0.00     0.002 A 
ATOM    103  C   UNL A   1      50.584  35.228  28.873  1.00  0.00     0.091 A 
ATOM    104  F   UNL A   1      48.936  34.294  27.420  1.00  0.00    -0.205 F 
ATOM    105  C   UNL A   1      51.407  35.091  30.002  1.00  0.00     0.022 A 
BRANCH 103 106
ATOM    106  S   UNL A   1      50.708  36.770  27.960  1.00  0.00     0.127 S 
ATOM    107  O   UNL A   1      51.604  37.549  28.812  1.00  0.00    -0.237 OA
ATOM    108  O   UNL A   1      51.298  36.332  26.695  1.00  0.00    -0.237 OA
ATOM    109  O   UNL A   1      49.351  37.287  27.852  1.00  0.00    -0.744 OA
ENDBRANCH 103 106
ENDBRANCH  76  99
ENDBRANCH  50  51
ENDBRANCH  43  45
ENDBRANCH  42  43
ENDBRANCH  41  42
ENDBRANCH  40  41
ENDBRANCH  39  40
ENDBRANCH  38  39
ENDBRANCH  37  38
ENDBRANCH  36  37
ENDBRANCH   1  36
TORSDOF 28
ENDMDL
