MODEL 1
REMARK VINA RESULT:      -6.0      0.000      0.000
REMARK SMILES CCCCCCNC(=O)Oc1cccc(-c2ccc([C@H](C)C(=O)OCCOCCOCCOCCOC(=O)c3ccc(-c4c5nc(c(-c6cccc(S(=O)(=O)[O-])c6F)c6ccc([nH]6)c(-c6cccc(S(=O)(=O)[O-])c6F)c6nc(c(-c7cccc(S(=O)(=O)[O-])c7F)c7ccc4[nH]7)C=C6)C=C5)cc3)cc2F)c1
REMARK SMILES IDX 27 1 26 2 25 3 24 4 22 5 23 6 20 7 21 8 19 9 16 10 17 11
REMARK SMILES IDX 103 12 18 13 102 14 104 15 15 16 11 17 12 18 105 19 13 20
REMARK SMILES IDX 14 21 10 22 8 23 7 24 9 26 6 27 5 28 4 29 3 30 2 31 1 32
REMARK SMILES IDX 28 33 29 34 30 35 31 36 32 37 33 38 34 39 35 40 36 41 37 42
REMARK SMILES IDX 38 43 39 44 40 45 101 46 41 47 100 48 42 49 43 50 44 51
REMARK SMILES IDX 94 52 45 53 99 54 93 55 95 56 46 57 98 58 92 59 91 60 47 62
REMARK SMILES IDX 79 63 59 64 78 65 60 66 63 67 77 68 96 69 61 70 62 71 76 73
REMARK SMILES IDX 97 74 64 75 48 76 49 77 57 78 50 79 52 80 58 81 51 82 53 83
REMARK SMILES IDX 54 84 55 85 56 86 80 87 81 88 89 89 82 90 84 91 90 92 83 93
REMARK SMILES IDX 85 94 86 95 87 96 88 97 65 98 66 99 74 100 67 101 69 102
REMARK SMILES IDX 75 103 68 104 70 105 71 106 72 107 73 108
REMARK H PARENT 7 25 95 61 63 72
REMARK Flexibility Score: inf
ROOT
ATOM      1  O   UNL A   1      50.728  38.609  31.770  1.00  0.00    -0.376 OA
ENDROOT
BRANCH   1   2
ATOM      2  C   UNL A   1      49.992  39.501  32.595  1.00  0.00     0.202 C 
BRANCH   2   3
ATOM      3  C   UNL A   1      48.602  39.186  33.161  1.00  0.00     0.261 C 
BRANCH   3   4
ATOM      4  O   UNL A   1      47.497  39.419  32.283  1.00  0.00    -0.463 OA
BRANCH   4   5
ATOM      5  C   UNL A   1      46.387  39.948  32.849  1.00  0.00     0.313 C 
ATOM      6  O   UNL A   1      46.393  40.897  33.628  1.00  0.00    -0.252 OA
BRANCH   5   7
ATOM      7  C   UNL A   1      45.108  39.166  32.530  1.00  0.00     0.126 C 
ATOM      8  C   UNL A   1      43.916  39.178  33.490  1.00  0.00     0.025 C 
BRANCH   7   9
ATOM      9  C   UNL A   1      44.627  39.663  31.196  1.00  0.00    -0.031 A 
ATOM     10  C   UNL A   1      43.612  40.515  28.759  1.00  0.00     0.018 A 
ATOM     11  C   UNL A   1      43.898  39.160  28.956  1.00  0.00     0.012 A 
ATOM     12  C   UNL A   1      43.878  41.436  29.781  1.00  0.00     0.131 A 
ATOM     13  C   UNL A   1      44.415  38.738  30.162  1.00  0.00     0.005 A 
ATOM     14  C   UNL A   1      44.375  41.019  31.001  1.00  0.00     0.044 A 
ATOM     15  F   UNL A   1      43.655  42.746  29.597  1.00  0.00    -0.206 F 
BRANCH  10  16
ATOM     16  C   UNL A   1      43.108  40.935  27.467  1.00  0.00    -0.012 A 
ATOM     17  C   UNL A   1      43.490  42.041  25.372  1.00  0.00     0.133 A 
ATOM     18  C   UNL A   1      42.251  41.615  24.900  1.00  0.00     0.047 A 
ATOM     19  C   UNL A   1      43.911  41.734  26.656  1.00  0.00     0.056 A 
ATOM     20  C   UNL A   1      41.437  40.831  25.715  1.00  0.00     0.004 A 
ATOM     21  C   UNL A   1      41.868  40.485  26.993  1.00  0.00     0.009 A 
BRANCH  17  22
ATOM     22  O   UNL A   1      44.244  42.880  24.545  1.00  0.00    -0.410 OA
BRANCH  22  23
ATOM     23  C   UNL A   1      44.004  42.866  23.182  1.00  0.00     0.412 C 
ATOM     24  N   UNL A   1      44.995  43.471  22.471  1.00  0.00    -0.321 N 
ATOM     25  H   UNL A   1      44.862  43.566  21.500  1.00  0.00     0.167 HD
ATOM     26  O   UNL A   1      43.032  42.370  22.610  1.00  0.00    -0.224 OA
BRANCH  24  27
ATOM     27  C   UNL A   1      46.228  43.987  23.024  1.00  0.00     0.119 C 
BRANCH  27  28
ATOM     28  C   UNL A   1      47.273  42.887  23.182  1.00  0.00     0.021 C 
BRANCH  28  29
ATOM     29  C   UNL A   1      47.768  42.295  21.859  1.00  0.00     0.002 C 
BRANCH  29  30
ATOM     30  C   UNL A   1      48.519  43.275  20.952  1.00  0.00    -0.000 C 
BRANCH  30  31
ATOM     31  C   UNL A   1      47.727  43.774  19.741  1.00  0.00    -0.003 C 
ATOM     32  C   UNL A   1      46.446  42.990  19.505  1.00  0.00     0.004 C 
ENDBRANCH  30  31
ENDBRANCH  29  30
ENDBRANCH  28  29
ENDBRANCH  27  28
ENDBRANCH  24  27
ENDBRANCH  22  23
ENDBRANCH  17  22
ENDBRANCH  10  16
ENDBRANCH   7   9
ENDBRANCH   5   7
ENDBRANCH   4   5
ENDBRANCH   3   4
ENDBRANCH   2   3
ENDBRANCH   1   2
BRANCH   1  33
ATOM     33  C   UNL A   1      50.865  38.784  30.372  1.00  0.00     0.188 C 
BRANCH  33  34
ATOM     34  C   UNL A   1      49.890  38.149  29.368  1.00  0.00     0.188 C 
BRANCH  34  35
ATOM     35  O   UNL A   1      50.466  37.597  28.204  1.00  0.00    -0.377 OA
BRANCH  35  36
ATOM     36  C   UNL A   1      49.608  37.030  27.220  1.00  0.00     0.188 C 
BRANCH  36  37
ATOM     37  C   UNL A   1      50.096  36.955  25.761  1.00  0.00     0.188 C 
BRANCH  37  38
ATOM     38  O   UNL A   1      50.070  35.652  25.197  1.00  0.00    -0.376 OA
BRANCH  38  39
ATOM     39  C   UNL A   1      48.874  34.891  25.264  1.00  0.00     0.202 C 
BRANCH  39  40
ATOM     40  C   UNL A   1      48.729  33.838  26.377  1.00  0.00     0.261 C 
BRANCH  40  41
ATOM     41  O   UNL A   1      47.571  32.992  26.318  1.00  0.00    -0.460 OA
BRANCH  41  42
ATOM     42  C   UNL A   1      46.359  33.582  26.257  1.00  0.00     0.338 C 
ATOM     43  O   UNL A   1      45.618  33.635  25.295  1.00  0.00    -0.246 OA
BRANCH  42  44
ATOM     44  C   UNL A   1      45.978  33.980  27.629  1.00  0.00     0.060 A 
ATOM     45  C   UNL A   1      46.126  33.046  28.661  1.00  0.00     0.016 A 
ATOM     46  C   UNL A   1      45.450  35.246  27.888  1.00  0.00     0.016 A 
ATOM     47  C   UNL A   1      45.685  33.353  29.946  1.00  0.00     0.010 A 
ATOM     48  C   UNL A   1      44.988  35.546  29.172  1.00  0.00     0.010 A 
ATOM     49  C   UNL A   1      45.057  34.579  30.192  1.00  0.00    -0.014 A 
BRANCH  49  50
ATOM     50  C   UNL A   1      44.273  34.742  31.439  1.00  0.00     0.031 A 
ATOM     51  C   UNL A   1      44.951  35.362  32.632  1.00  0.00     0.074 A 
ATOM     52  C   UNL A   1      42.975  34.396  31.502  1.00  0.00     0.049 A 
ATOM     53  N   UNL A   1      44.471  35.623  33.818  1.00  0.00    -0.248 NA
ATOM     54  C   UNL A   1      46.367  35.737  32.463  1.00  0.00     0.031 C 
ATOM     55  C   UNL A   1      42.203  33.806  30.410  1.00  0.00     0.029 A 
ATOM     56  N   UNL A   1      42.083  34.482  32.541  1.00  0.00    -0.354 N 
ATOM     57  C   UNL A   1      45.525  36.164  34.544  1.00  0.00     0.074 A 
ATOM     58  C   UNL A   1      46.678  36.179  33.671  1.00  0.00     0.031 C 
ATOM     59  C   UNL A   1      40.954  33.562  30.845  1.00  0.00     0.029 A 
ATOM     60  C   UNL A   1      40.847  33.955  32.249  1.00  0.00     0.049 A 
ATOM     61  H   UNL A   1      42.306  34.884  33.411  1.00  0.00     0.167 HD
ATOM     62  C   UNL A   1      45.533  36.624  35.816  1.00  0.00     0.034 A 
ATOM     63  C   UNL A   1      39.765  33.791  33.035  1.00  0.00     0.034 A 
ATOM     64  C   UNL A   1      44.383  36.620  36.679  1.00  0.00     0.049 A 
ATOM     65  C   UNL A   1      39.810  34.277  34.461  1.00  0.00     0.074 A 
ATOM     66  C   UNL A   1      44.277  37.100  37.972  1.00  0.00     0.029 A 
ATOM     67  N   UNL A   1      43.145  36.096  36.343  1.00  0.00    -0.354 N 
ATOM     68  N   UNL A   1      40.781  34.885  35.099  1.00  0.00    -0.248 NA
ATOM     69  C   UNL A   1      38.594  34.084  35.267  1.00  0.00     0.031 C 
ATOM     70  C   UNL A   1      42.985  36.826  38.434  1.00  0.00     0.029 A 
ATOM     71  C   UNL A   1      42.272  36.222  37.410  1.00  0.00     0.049 A 
ATOM     72  H   UNL A   1      42.919  35.692  35.474  1.00  0.00     0.167 HD
ATOM     73  C   UNL A   1      40.281  35.183  36.364  1.00  0.00     0.074 A 
ATOM     74  C   UNL A   1      38.914  34.708  36.392  1.00  0.00     0.031 C 
ATOM     75  C   UNL A   1      40.900  35.785  37.410  1.00  0.00     0.034 A 
BRANCH  62  76
ATOM     76  C   UNL A   1      46.829  37.175  36.352  1.00  0.00     0.023 A 
ATOM     77  C   UNL A   1      47.100  38.555  36.260  1.00  0.00     0.012 A 
ATOM     78  C   UNL A   1      47.760  36.329  36.986  1.00  0.00     0.148 A 
ATOM     79  C   UNL A   1      48.293  39.080  36.758  1.00  0.00     0.002 A 
ATOM     80  C   UNL A   1      48.923  36.866  37.525  1.00  0.00     0.091 A 
ATOM     81  F   UNL A   1      47.495  35.016  37.042  1.00  0.00    -0.205 F 
ATOM     82  C   UNL A   1      49.198  38.238  37.399  1.00  0.00     0.022 A 
BRANCH  80  83
ATOM     83  S   UNL A   1      50.113  35.880  38.439  1.00  0.00     0.127 S 
ATOM     84  O   UNL A   1      51.097  36.889  38.825  1.00  0.00    -0.237 OA
ATOM     85  O   UNL A   1      49.301  35.368  39.543  1.00  0.00    -0.237 OA
ATOM     86  O   UNL A   1      50.592  34.864  37.512  1.00  0.00    -0.744 OA
ENDBRANCH  80  83
ENDBRANCH  62  76
BRANCH  63  87
ATOM     87  C   UNL A   1      38.533  33.153  32.489  1.00  0.00     0.023 A 
ATOM     88  C   UNL A   1      37.433  33.954  32.124  1.00  0.00     0.012 A 
ATOM     89  C   UNL A   1      38.447  31.757  32.334  1.00  0.00     0.148 A 
ATOM     90  C   UNL A   1      36.255  33.371  31.651  1.00  0.00     0.002 A 
ATOM     91  C   UNL A   1      37.294  31.188  31.807  1.00  0.00     0.091 A 
ATOM     92  F   UNL A   1      39.498  31.012  32.702  1.00  0.00    -0.205 F 
ATOM     93  C   UNL A   1      36.190  31.991  31.483  1.00  0.00     0.022 A 
BRANCH  91  94
ATOM     94  S   UNL A   1      37.164  29.435  31.440  1.00  0.00     0.127 S 
ATOM     95  O   UNL A   1      35.948  29.388  30.633  1.00  0.00    -0.237 OA
ATOM     96  O   UNL A   1      38.405  29.194  30.703  1.00  0.00    -0.237 OA
ATOM     97  O   UNL A   1      37.090  28.766  32.731  1.00  0.00    -0.744 OA
ENDBRANCH  91  94
ENDBRANCH  63  87
BRANCH  75  98
ATOM     98  C   UNL A   1      40.092  36.014  38.663  1.00  0.00     0.023 A 
ATOM     99  C   UNL A   1      39.742  37.324  39.051  1.00  0.00     0.012 A 
ATOM    100  C   UNL A   1      39.628  34.922  39.424  1.00  0.00     0.148 A 
ATOM    101  C   UNL A   1      38.982  37.543  40.201  1.00  0.00     0.002 A 
ATOM    102  C   UNL A   1      38.825  35.146  40.536  1.00  0.00     0.091 A 
ATOM    103  F   UNL A   1      39.982  33.684  39.048  1.00  0.00    -0.205 F 
ATOM    104  C   UNL A   1      38.515  36.456  40.935  1.00  0.00     0.022 A 
BRANCH 102 105
ATOM    105  S   UNL A   1      38.095  33.806  41.483  1.00  0.00     0.127 S 
ATOM    106  O   UNL A   1      39.279  33.167  42.056  1.00  0.00    -0.237 OA
ATOM    107  O   UNL A   1      37.263  34.527  42.448  1.00  0.00    -0.237 OA
ATOM    108  O   UNL A   1      37.351  32.997  40.528  1.00  0.00    -0.744 OA
ENDBRANCH 102 105
ENDBRANCH  75  98
ENDBRANCH  49  50
ENDBRANCH  42  44
ENDBRANCH  41  42
ENDBRANCH  40  41
ENDBRANCH  39  40
ENDBRANCH  38  39
ENDBRANCH  37  38
ENDBRANCH  36  37
ENDBRANCH  35  36
ENDBRANCH  34  35
ENDBRANCH  33  34
ENDBRANCH   1  33
TORSDOF 32
ENDMDL
MODEL 2
REMARK VINA RESULT:      -6.0      3.645      8.898
REMARK SMILES CCCCCCNC(=O)Oc1cccc(-c2ccc([C@H](C)C(=O)OCCOCCOCCOCCOC(=O)c3ccc(-c4c5nc(c(-c6cccc(S(=O)(=O)[O-])c6F)c6ccc([nH]6)c(-c6cccc(S(=O)(=O)[O-])c6F)c6nc(c(-c7cccc(S(=O)(=O)[O-])c7F)c7ccc4[nH]7)C=C6)C=C5)cc3)cc2F)c1
REMARK SMILES IDX 27 1 26 2 25 3 24 4 22 5 23 6 20 7 21 8 19 9 16 10 17 11
REMARK SMILES IDX 103 12 18 13 102 14 104 15 15 16 11 17 12 18 105 19 13 20
REMARK SMILES IDX 14 21 10 22 8 23 7 24 9 26 6 27 5 28 4 29 3 30 2 31 1 32
REMARK SMILES IDX 28 33 29 34 30 35 31 36 32 37 33 38 34 39 35 40 36 41 37 42
REMARK SMILES IDX 38 43 39 44 40 45 101 46 41 47 100 48 42 49 43 50 44 51
REMARK SMILES IDX 94 52 45 53 99 54 93 55 95 56 46 57 98 58 92 59 91 60 47 62
REMARK SMILES IDX 79 63 59 64 78 65 60 66 63 67 77 68 96 69 61 70 62 71 76 73
REMARK SMILES IDX 97 74 64 75 48 76 49 77 57 78 50 79 52 80 58 81 51 82 53 83
REMARK SMILES IDX 54 84 55 85 56 86 80 87 81 88 89 89 82 90 84 91 90 92 83 93
REMARK SMILES IDX 85 94 86 95 87 96 88 97 65 98 66 99 74 100 67 101 69 102
REMARK SMILES IDX 75 103 68 104 70 105 71 106 72 107 73 108
REMARK H PARENT 7 25 95 61 63 72
REMARK Flexibility Score: inf
ROOT
ATOM      1  O   UNL A   1      47.167  27.566  27.143  1.00  0.00    -0.376 OA
ENDROOT
BRANCH   1   2
ATOM      2  C   UNL A   1      47.979  28.727  27.241  1.00  0.00     0.202 C 
BRANCH   2   3
ATOM      3  C   UNL A   1      47.421  30.141  27.438  1.00  0.00     0.261 C 
BRANCH   3   4
ATOM      4  O   UNL A   1      47.310  30.592  28.792  1.00  0.00    -0.463 OA
BRANCH   4   5
ATOM      5  C   UNL A   1      47.804  31.825  29.052  1.00  0.00     0.313 C 
ATOM      6  O   UNL A   1      48.770  32.044  29.779  1.00  0.00    -0.252 OA
BRANCH   5   7
ATOM      7  C   UNL A   1      46.965  32.958  28.452  1.00  0.00     0.126 C 
ATOM      8  C   UNL A   1      45.445  32.993  28.628  1.00  0.00     0.025 C 
BRANCH   7   9
ATOM      9  C   UNL A   1      47.520  34.239  29.008  1.00  0.00    -0.031 A 
ATOM     10  C   UNL A   1      48.609  36.526  30.139  1.00  0.00     0.018 A 
ATOM     11  C   UNL A   1      47.586  35.843  30.804  1.00  0.00     0.012 A 
ATOM     12  C   UNL A   1      49.048  36.072  28.889  1.00  0.00     0.131 A 
ATOM     13  C   UNL A   1      47.035  34.714  30.236  1.00  0.00     0.005 A 
ATOM     14  C   UNL A   1      48.517  34.928  28.322  1.00  0.00     0.044 A 
ATOM     15  F   UNL A   1      49.996  36.738  28.212  1.00  0.00    -0.206 F 
BRANCH  10  16
ATOM     16  C   UNL A   1      49.139  37.733  30.741  1.00  0.00    -0.012 A 
ATOM     17  C   UNL A   1      49.368  40.121  30.701  1.00  0.00     0.133 A 
ATOM     18  C   UNL A   1      49.986  40.101  31.949  1.00  0.00     0.047 A 
ATOM     19  C   UNL A   1      48.972  38.947  30.080  1.00  0.00     0.056 A 
ATOM     20  C   UNL A   1      50.171  38.886  32.606  1.00  0.00     0.004 A 
ATOM     21  C   UNL A   1      49.742  37.705  32.006  1.00  0.00     0.009 A 
BRANCH  17  22
ATOM     22  O   UNL A   1      49.263  41.354  30.051  1.00  0.00    -0.410 OA
BRANCH  22  23
ATOM     23  C   UNL A   1      50.085  41.611  28.967  1.00  0.00     0.412 C 
ATOM     24  N   UNL A   1      49.412  42.162  27.919  1.00  0.00    -0.321 N 
ATOM     25  H   UNL A   1      49.915  42.306  27.085  1.00  0.00     0.167 HD
ATOM     26  O   UNL A   1      51.297  41.401  28.896  1.00  0.00    -0.224 OA
BRANCH  24  27
ATOM     27  C   UNL A   1      48.020  42.552  27.930  1.00  0.00     0.119 C 
BRANCH  27  28
ATOM     28  C   UNL A   1      47.439  42.590  26.520  1.00  0.00     0.021 C 
BRANCH  28  29
ATOM     29  C   UNL A   1      47.847  43.822  25.705  1.00  0.00     0.002 C 
BRANCH  29  30
ATOM     30  C   UNL A   1      46.761  44.370  24.773  1.00  0.00    -0.000 C 
BRANCH  30  31
ATOM     31  C   UNL A   1      47.200  44.582  23.322  1.00  0.00    -0.003 C 
ATOM     32  C   UNL A   1      47.976  43.403  22.757  1.00  0.00     0.004 C 
ENDBRANCH  30  31
ENDBRANCH  29  30
ENDBRANCH  28  29
ENDBRANCH  27  28
ENDBRANCH  24  27
ENDBRANCH  22  23
ENDBRANCH  17  22
ENDBRANCH  10  16
ENDBRANCH   7   9
ENDBRANCH   5   7
ENDBRANCH   4   5
ENDBRANCH   3   4
ENDBRANCH   2   3
ENDBRANCH   1   2
BRANCH   1  33
ATOM     33  C   UNL A   1      45.985  27.384  27.901  1.00  0.00     0.188 C 
BRANCH  33  34
ATOM     34  C   UNL A   1      45.226  26.048  27.926  1.00  0.00     0.188 C 
BRANCH  34  35
ATOM     35  O   UNL A   1      44.464  25.742  26.779  1.00  0.00    -0.377 OA
BRANCH  35  36
ATOM     36  C   UNL A   1      43.187  26.351  26.625  1.00  0.00     0.188 C 
BRANCH  36  37
ATOM     37  C   UNL A   1      43.100  27.745  25.975  1.00  0.00     0.188 C 
BRANCH  37  38
ATOM     38  O   UNL A   1      41.780  28.254  25.846  1.00  0.00    -0.376 OA
BRANCH  38  39
ATOM     39  C   UNL A   1      41.187  28.929  26.944  1.00  0.00     0.202 C 
BRANCH  39  40
ATOM     40  C   UNL A   1      39.652  28.982  27.039  1.00  0.00     0.261 C 
BRANCH  40  41
ATOM     41  O   UNL A   1      39.094  29.221  28.340  1.00  0.00    -0.460 OA
BRANCH  41  42
ATOM     42  C   UNL A   1      38.312  30.308  28.502  1.00  0.00     0.338 C 
ATOM     43  O   UNL A   1      37.182  30.467  28.084  1.00  0.00    -0.246 OA
BRANCH  42  44
ATOM     44  C   UNL A   1      38.981  31.208  29.465  1.00  0.00     0.060 A 
ATOM     45  C   UNL A   1      38.488  32.510  29.618  1.00  0.00     0.016 A 
ATOM     46  C   UNL A   1      40.100  30.785  30.185  1.00  0.00     0.016 A 
ATOM     47  C   UNL A   1      39.152  33.414  30.442  1.00  0.00     0.010 A 
ATOM     48  C   UNL A   1      40.779  31.699  30.994  1.00  0.00     0.010 A 
ATOM     49  C   UNL A   1      40.336  33.031  31.083  1.00  0.00    -0.014 A 
BRANCH  49  50
ATOM     50  C   UNL A   1      41.218  34.084  31.641  1.00  0.00     0.031 A 
ATOM     51  C   UNL A   1      41.258  34.262  33.135  1.00  0.00     0.074 A 
ATOM     52  C   UNL A   1      42.004  34.832  30.848  1.00  0.00     0.049 A 
ATOM     53  N   UNL A   1      41.961  35.097  33.854  1.00  0.00    -0.248 NA
ATOM     54  C   UNL A   1      40.385  33.377  33.928  1.00  0.00     0.031 C 
ATOM     55  C   UNL A   1      42.069  34.740  29.391  1.00  0.00     0.029 A 
ATOM     56  N   UNL A   1      42.891  35.831  31.165  1.00  0.00    -0.354 N 
ATOM     57  C   UNL A   1      41.597  34.860  35.174  1.00  0.00     0.074 A 
ATOM     58  C   UNL A   1      40.597  33.816  35.158  1.00  0.00     0.031 C 
ATOM     59  C   UNL A   1      42.936  35.664  28.936  1.00  0.00     0.029 A 
ATOM     60  C   UNL A   1      43.465  36.425  30.066  1.00  0.00     0.049 A 
ATOM     61  H   UNL A   1      43.097  36.095  32.090  1.00  0.00     0.167 HD
ATOM     62  C   UNL A   1      42.062  35.447  36.301  1.00  0.00     0.034 A 
ATOM     63  C   UNL A   1      44.305  37.476  29.986  1.00  0.00     0.034 A 
ATOM     64  C   UNL A   1      43.065  36.477  36.317  1.00  0.00     0.049 A 
ATOM     65  C   UNL A   1      44.780  38.137  31.254  1.00  0.00     0.074 A 
ATOM     66  C   UNL A   1      43.632  37.107  37.408  1.00  0.00     0.029 A 
ATOM     67  N   UNL A   1      43.636  37.040  35.187  1.00  0.00    -0.354 N 
ATOM     68  N   UNL A   1      44.509  37.831  32.500  1.00  0.00    -0.248 NA
ATOM     69  C   UNL A   1      45.706  39.270  31.106  1.00  0.00     0.031 C 
ATOM     70  C   UNL A   1      44.517  38.083  36.937  1.00  0.00     0.029 A 
ATOM     71  C   UNL A   1      44.537  38.024  35.552  1.00  0.00     0.049 A 
ATOM     72  H   UNL A   1      43.431  36.779  34.259  1.00  0.00     0.167 HD
ATOM     73  C   UNL A   1      45.261  38.704  33.282  1.00  0.00     0.074 A 
ATOM     74  C   UNL A   1      46.014  39.535  32.367  1.00  0.00     0.031 C 
ATOM     75  C   UNL A   1      45.315  38.815  34.633  1.00  0.00     0.034 A 
BRANCH  62  76
ATOM     76  C   UNL A   1      41.492  34.982  37.616  1.00  0.00     0.023 A 
ATOM     77  C   UNL A   1      40.255  35.488  38.066  1.00  0.00     0.012 A 
ATOM     78  C   UNL A   1      42.161  34.011  38.385  1.00  0.00     0.148 A 
ATOM     79  C   UNL A   1      39.712  35.062  39.278  1.00  0.00     0.002 A 
ATOM     80  C   UNL A   1      41.590  33.554  39.567  1.00  0.00     0.091 A 
ATOM     81  F   UNL A   1      43.348  33.560  37.953  1.00  0.00    -0.205 F 
ATOM     82  C   UNL A   1      40.373  34.088  40.022  1.00  0.00     0.022 A 
BRANCH  80  83
ATOM     83  S   UNL A   1      42.323  32.246  40.555  1.00  0.00     0.127 S 
ATOM     84  O   UNL A   1      43.096  31.516  39.551  1.00  0.00    -0.237 OA
ATOM     85  O   UNL A   1      43.128  33.001  41.514  1.00  0.00    -0.237 OA
ATOM     86  O   UNL A   1      41.209  31.510  41.139  1.00  0.00    -0.744 OA
ENDBRANCH  80  83
ENDBRANCH  62  76
BRANCH  63  87
ATOM     87  C   UNL A   1      44.771  37.963  28.656  1.00  0.00     0.023 A 
ATOM     88  C   UNL A   1      45.774  37.257  27.964  1.00  0.00     0.012 A 
ATOM     89  C   UNL A   1      44.225  39.125  28.078  1.00  0.00     0.148 A 
ATOM     90  C   UNL A   1      46.253  37.721  26.737  1.00  0.00     0.002 A 
ATOM     91  C   UNL A   1      44.664  39.548  26.829  1.00  0.00     0.091 A 
ATOM     92  F   UNL A   1      43.283  39.790  28.759  1.00  0.00    -0.205 F 
ATOM     93  C   UNL A   1      45.691  38.859  26.166  1.00  0.00     0.022 A 
BRANCH  91  94
ATOM     94  S   UNL A   1      43.914  40.929  25.961  1.00  0.00     0.127 S 
ATOM     95  O   UNL A   1      44.054  42.007  26.936  1.00  0.00    -0.237 OA
ATOM     96  O   UNL A   1      44.777  41.044  24.785  1.00  0.00    -0.237 OA
ATOM     97  O   UNL A   1      42.548  40.516  25.668  1.00  0.00    -0.744 OA
ENDBRANCH  91  94
ENDBRANCH  63  87
BRANCH  75  98
ATOM     98  C   UNL A   1      46.257  39.839  35.214  1.00  0.00     0.023 A 
ATOM     99  C   UNL A   1      47.635  39.558  35.316  1.00  0.00     0.012 A 
ATOM    100  C   UNL A   1      45.783  41.109  35.602  1.00  0.00     0.148 A 
ATOM    101  C   UNL A   1      48.515  40.506  35.838  1.00  0.00     0.002 A 
ATOM    102  C   UNL A   1      46.674  42.067  36.069  1.00  0.00     0.091 A 
ATOM    103  F   UNL A   1      44.467  41.355  35.511  1.00  0.00    -0.205 F 
ATOM    104  C   UNL A   1      48.038  41.761  36.204  1.00  0.00     0.022 A 
BRANCH 102 105
ATOM    105  S   UNL A   1      46.166  43.743  36.467  1.00  0.00     0.127 S 
ATOM    106  O   UNL A   1      45.472  44.142  35.244  1.00  0.00    -0.237 OA
ATOM    107  O   UNL A   1      45.293  43.534  37.623  1.00  0.00    -0.237 OA
ATOM    108  O   UNL A   1      47.390  44.476  36.758  1.00  0.00    -0.744 OA
ENDBRANCH 102 105
ENDBRANCH  75  98
ENDBRANCH  49  50
ENDBRANCH  42  44
ENDBRANCH  41  42
ENDBRANCH  40  41
ENDBRANCH  39  40
ENDBRANCH  38  39
ENDBRANCH  37  38
ENDBRANCH  36  37
ENDBRANCH  35  36
ENDBRANCH  34  35
ENDBRANCH  33  34
ENDBRANCH   1  33
TORSDOF 32
ENDMDL
MODEL 3
REMARK VINA RESULT:      -5.9      4.549     12.494
REMARK SMILES CCCCCCNC(=O)Oc1cccc(-c2ccc([C@H](C)C(=O)OCCOCCOCCOCCOC(=O)c3ccc(-c4c5nc(c(-c6cccc(S(=O)(=O)[O-])c6F)c6ccc([nH]6)c(-c6cccc(S(=O)(=O)[O-])c6F)c6nc(c(-c7cccc(S(=O)(=O)[O-])c7F)c7ccc4[nH]7)C=C6)C=C5)cc3)cc2F)c1
REMARK SMILES IDX 27 1 26 2 25 3 24 4 22 5 23 6 20 7 21 8 19 9 16 10 17 11
REMARK SMILES IDX 103 12 18 13 102 14 104 15 15 16 11 17 12 18 105 19 13 20
REMARK SMILES IDX 14 21 10 22 8 23 7 24 9 26 6 27 5 28 4 29 3 30 2 31 1 32
REMARK SMILES IDX 28 33 29 34 30 35 31 36 32 37 33 38 34 39 35 40 36 41 37 42
REMARK SMILES IDX 38 43 39 44 40 45 101 46 41 47 100 48 42 49 43 50 44 51
REMARK SMILES IDX 94 52 45 53 99 54 93 55 95 56 46 57 98 58 92 59 91 60 47 62
REMARK SMILES IDX 79 63 59 64 78 65 60 66 63 67 77 68 96 69 61 70 62 71 76 73
REMARK SMILES IDX 97 74 64 75 48 76 49 77 57 78 50 79 52 80 58 81 51 82 53 83
REMARK SMILES IDX 54 84 55 85 56 86 80 87 81 88 89 89 82 90 84 91 90 92 83 93
REMARK SMILES IDX 85 94 86 95 87 96 88 97 65 98 66 99 74 100 67 101 69 102
REMARK SMILES IDX 75 103 68 104 70 105 71 106 72 107 73 108
REMARK H PARENT 7 25 95 61 63 72
REMARK Flexibility Score: inf
ROOT
ATOM      1  O   UNL A   1      47.672  35.610  43.280  1.00  0.00    -0.376 OA
ENDROOT
BRANCH   1   2
ATOM      2  C   UNL A   1      47.017  36.137  42.135  1.00  0.00     0.202 C 
BRANCH   2   3
ATOM      3  C   UNL A   1      46.322  37.504  42.106  1.00  0.00     0.261 C 
BRANCH   3   4
ATOM      4  O   UNL A   1      46.146  38.094  40.814  1.00  0.00    -0.463 OA
BRANCH   4   5
ATOM      5  C   UNL A   1      44.909  38.569  40.540  1.00  0.00     0.313 C 
ATOM      6  O   UNL A   1      44.043  37.940  39.936  1.00  0.00    -0.252 OA
BRANCH   5   7
ATOM      7  C   UNL A   1      44.715  40.035  40.944  1.00  0.00     0.126 C 
ATOM      8  C   UNL A   1      45.418  40.614  42.173  1.00  0.00     0.025 C 
BRANCH   7   9
ATOM      9  C   UNL A   1      45.117  40.860  39.754  1.00  0.00    -0.031 A 
ATOM     10  C   UNL A   1      45.828  42.504  37.635  1.00  0.00     0.018 A 
ATOM     11  C   UNL A   1      44.485  42.399  38.011  1.00  0.00     0.012 A 
ATOM     12  C   UNL A   1      46.798  41.748  38.307  1.00  0.00     0.131 A 
ATOM     13  C   UNL A   1      44.129  41.572  39.055  1.00  0.00     0.005 A 
ATOM     14  C   UNL A   1      46.454  40.933  39.369  1.00  0.00     0.044 A 
ATOM     15  F   UNL A   1      48.085  41.798  37.933  1.00  0.00    -0.206 F 
BRANCH  10  16
ATOM     16  C   UNL A   1      46.167  43.349  36.508  1.00  0.00    -0.012 A 
ATOM     17  C   UNL A   1      45.576  44.249  34.363  1.00  0.00     0.133 A 
ATOM     18  C   UNL A   1      46.684  45.093  34.393  1.00  0.00     0.047 A 
ATOM     19  C   UNL A   1      45.329  43.358  35.395  1.00  0.00     0.056 A 
ATOM     20  C   UNL A   1      47.534  45.074  35.496  1.00  0.00     0.004 A 
ATOM     21  C   UNL A   1      47.272  44.208  36.555  1.00  0.00     0.009 A 
BRANCH  17  22
ATOM     22  O   UNL A   1      44.788  44.255  33.209  1.00  0.00    -0.410 OA
BRANCH  22  23
ATOM     23  C   UNL A   1      43.494  44.744  33.284  1.00  0.00     0.412 C 
ATOM     24  N   UNL A   1      42.612  44.003  32.559  1.00  0.00    -0.321 N 
ATOM     25  H   UNL A   1      41.685  44.330  32.505  1.00  0.00     0.167 HD
ATOM     26  O   UNL A   1      43.115  45.725  33.926  1.00  0.00    -0.224 OA
BRANCH  24  27
ATOM     27  C   UNL A   1      42.925  42.776  31.861  1.00  0.00     0.119 C 
BRANCH  27  28
ATOM     28  C   UNL A   1      42.365  41.559  32.593  1.00  0.00     0.021 C 
BRANCH  28  29
ATOM     29  C   UNL A   1      43.000  41.303  33.964  1.00  0.00     0.002 C 
BRANCH  29  30
ATOM     30  C   UNL A   1      43.876  40.049  34.047  1.00  0.00    -0.000 C 
BRANCH  30  31
ATOM     31  C   UNL A   1      43.521  39.084  35.182  1.00  0.00    -0.003 C 
ATOM     32  C   UNL A   1      44.538  39.098  36.313  1.00  0.00     0.004 C 
ENDBRANCH  30  31
ENDBRANCH  29  30
ENDBRANCH  28  29
ENDBRANCH  27  28
ENDBRANCH  24  27
ENDBRANCH  22  23
ENDBRANCH  17  22
ENDBRANCH  10  16
ENDBRANCH   7   9
ENDBRANCH   5   7
ENDBRANCH   4   5
ENDBRANCH   3   4
ENDBRANCH   2   3
ENDBRANCH   1   2
BRANCH   1  33
ATOM     33  C   UNL A   1      47.312  34.377  43.877  1.00  0.00     0.188 C 
BRANCH  33  34
ATOM     34  C   UNL A   1      46.280  33.432  43.243  1.00  0.00     0.188 C 
BRANCH  34  35
ATOM     35  O   UNL A   1      45.015  33.384  43.866  1.00  0.00    -0.377 OA
BRANCH  35  36
ATOM     36  C   UNL A   1      43.879  33.842  43.141  1.00  0.00     0.188 C 
BRANCH  36  37
ATOM     37  C   UNL A   1      42.520  33.155  43.374  1.00  0.00     0.188 C 
BRANCH  37  38
ATOM     38  O   UNL A   1      41.493  34.021  43.835  1.00  0.00    -0.376 OA
BRANCH  38  39
ATOM     39  C   UNL A   1      40.470  33.500  44.668  1.00  0.00     0.202 C 
BRANCH  39  40
ATOM     40  C   UNL A   1      39.019  33.513  44.154  1.00  0.00     0.261 C 
BRANCH  40  41
ATOM     41  O   UNL A   1      38.835  33.351  42.740  1.00  0.00    -0.460 OA
BRANCH  41  42
ATOM     42  C   UNL A   1      38.363  34.402  42.039  1.00  0.00     0.338 C 
ATOM     43  O   UNL A   1      37.530  35.210  42.401  1.00  0.00    -0.246 OA
BRANCH  42  44
ATOM     44  C   UNL A   1      39.185  34.541  40.818  1.00  0.00     0.060 A 
ATOM     45  C   UNL A   1      39.135  35.748  40.111  1.00  0.00     0.016 A 
ATOM     46  C   UNL A   1      39.972  33.482  40.359  1.00  0.00     0.016 A 
ATOM     47  C   UNL A   1      39.820  35.879  38.906  1.00  0.00     0.010 A 
ATOM     48  C   UNL A   1      40.641  33.606  39.139  1.00  0.00     0.010 A 
ATOM     49  C   UNL A   1      40.523  34.787  38.384  1.00  0.00    -0.014 A 
BRANCH  49  50
ATOM     50  C   UNL A   1      40.925  34.813  36.957  1.00  0.00     0.031 A 
ATOM     51  C   UNL A   1      39.869  34.557  35.915  1.00  0.00     0.074 A 
ATOM     52  C   UNL A   1      42.184  35.107  36.589  1.00  0.00     0.049 A 
ATOM     53  N   UNL A   1      39.973  34.546  34.612  1.00  0.00    -0.248 NA
ATOM     54  C   UNL A   1      38.510  34.272  36.410  1.00  0.00     0.031 C 
ATOM     55  C   UNL A   1      43.288  35.393  37.502  1.00  0.00     0.029 A 
ATOM     56  N   UNL A   1      42.744  35.198  35.339  1.00  0.00    -0.354 N 
ATOM     57  C   UNL A   1      38.707  34.227  34.134  1.00  0.00     0.074 A 
ATOM     58  C   UNL A   1      37.854  34.035  35.285  1.00  0.00     0.031 C 
ATOM     59  C   UNL A   1      44.403  35.607  36.781  1.00  0.00     0.029 A 
ATOM     60  C   UNL A   1      44.096  35.449  35.360  1.00  0.00     0.049 A 
ATOM     61  H   UNL A   1      42.228  35.095  34.508  1.00  0.00     0.167 HD
ATOM     62  C   UNL A   1      38.287  34.120  32.852  1.00  0.00     0.034 A 
ATOM     63  C   UNL A   1      44.982  35.520  34.348  1.00  0.00     0.034 A 
ATOM     64  C   UNL A   1      39.133  34.323  31.709  1.00  0.00     0.049 A 
ATOM     65  C   UNL A   1      44.496  35.359  32.930  1.00  0.00     0.074 A 
ATOM     66  C   UNL A   1      38.794  34.276  30.369  1.00  0.00     0.029 A 
ATOM     67  N   UNL A   1      40.491  34.594  31.769  1.00  0.00    -0.354 N 
ATOM     68  N   UNL A   1      43.276  35.166  32.490  1.00  0.00    -0.248 NA
ATOM     69  C   UNL A   1      45.506  35.462  31.866  1.00  0.00     0.031 C 
ATOM     70  C   UNL A   1      39.956  34.477  29.617  1.00  0.00     0.029 A 
ATOM     71  C   UNL A   1      41.010  34.699  30.490  1.00  0.00     0.049 A 
ATOM     72  H   UNL A   1      41.011  34.696  32.599  1.00  0.00     0.167 HD
ATOM     73  C   UNL A   1      43.366  35.165  31.101  1.00  0.00     0.074 A 
ATOM     74  C   UNL A   1      44.757  35.399  30.775  1.00  0.00     0.031 C 
ATOM     75  C   UNL A   1      42.388  34.976  30.179  1.00  0.00     0.034 A 
BRANCH  62  76
ATOM     76  C   UNL A   1      36.840  33.770  32.620  1.00  0.00     0.023 A 
ATOM     77  C   UNL A   1      36.441  32.418  32.567  1.00  0.00     0.012 A 
ATOM     78  C   UNL A   1      35.868  34.781  32.497  1.00  0.00     0.148 A 
ATOM     79  C   UNL A   1      35.104  32.079  32.359  1.00  0.00     0.002 A 
ATOM     80  C   UNL A   1      34.531  34.437  32.341  1.00  0.00     0.091 A 
ATOM     81  F   UNL A   1      36.270  36.060  32.526  1.00  0.00    -0.205 F 
ATOM     82  C   UNL A   1      34.149  33.087  32.257  1.00  0.00     0.022 A 
BRANCH  80  83
ATOM     83  S   UNL A   1      33.215  35.658  32.281  1.00  0.00     0.127 S 
ATOM     84  O   UNL A   1      33.296  36.110  30.893  1.00  0.00    -0.237 OA
ATOM     85  O   UNL A   1      32.035  34.851  32.590  1.00  0.00    -0.237 OA
ATOM     86  O   UNL A   1      33.550  36.660  33.283  1.00  0.00    -0.744 OA
ENDBRANCH  80  83
ENDBRANCH  62  76
BRANCH  63  87
ATOM     87  C   UNL A   1      46.423  35.775  34.631  1.00  0.00     0.023 A 
ATOM     88  C   UNL A   1      47.226  34.745  35.159  1.00  0.00     0.012 A 
ATOM     89  C   UNL A   1      46.999  37.036  34.383  1.00  0.00     0.148 A 
ATOM     90  C   UNL A   1      48.568  34.978  35.470  1.00  0.00     0.002 A 
ATOM     91  C   UNL A   1      48.349  37.244  34.639  1.00  0.00     0.091 A 
ATOM     92  F   UNL A   1      46.215  38.006  33.895  1.00  0.00    -0.205 F 
ATOM     93  C   UNL A   1      49.130  36.222  35.201  1.00  0.00     0.022 A 
BRANCH  91  94
ATOM     94  S   UNL A   1      49.189  38.771  34.209  1.00  0.00     0.127 S 
ATOM     95  O   UNL A   1      50.590  38.403  34.390  1.00  0.00    -0.237 OA
ATOM     96  O   UNL A   1      48.773  38.957  32.819  1.00  0.00    -0.237 OA
ATOM     97  O   UNL A   1      48.677  39.775  35.132  1.00  0.00    -0.744 OA
ENDBRANCH  91  94
ENDBRANCH  63  87
BRANCH  75  98
ATOM     98  C   UNL A   1      42.773  35.064  28.723  1.00  0.00     0.023 A 
ATOM     99  C   UNL A   1      42.474  36.224  27.979  1.00  0.00     0.012 A 
ATOM    100  C   UNL A   1      43.489  34.017  28.108  1.00  0.00     0.148 A 
ATOM    101  C   UNL A   1      42.840  36.320  26.636  1.00  0.00     0.002 A 
ATOM    102  C   UNL A   1      43.899  34.143  26.786  1.00  0.00     0.091 A 
ATOM    103  F   UNL A   1      43.753  32.915  28.826  1.00  0.00    -0.205 F 
ATOM    104  C   UNL A   1      43.561  35.286  26.044  1.00  0.00     0.022 A 
BRANCH 102 105
ATOM    105  S   UNL A   1      44.917  32.908  25.971  1.00  0.00     0.127 S 
ATOM    106  O   UNL A   1      44.912  31.824  26.952  1.00  0.00    -0.237 OA
ATOM    107  O   UNL A   1      44.152  32.631  24.754  1.00  0.00    -0.237 OA
ATOM    108  O   UNL A   1      46.210  33.538  25.744  1.00  0.00    -0.744 OA
ENDBRANCH 102 105
ENDBRANCH  75  98
ENDBRANCH  49  50
ENDBRANCH  42  44
ENDBRANCH  41  42
ENDBRANCH  40  41
ENDBRANCH  39  40
ENDBRANCH  38  39
ENDBRANCH  37  38
ENDBRANCH  36  37
ENDBRANCH  35  36
ENDBRANCH  34  35
ENDBRANCH  33  34
ENDBRANCH   1  33
TORSDOF 32
ENDMDL
