MODEL 1
REMARK VINA RESULT:      -8.6      0.000      0.000
REMARK SMILES CCCCCCC(=O)Nc1ccc(Cl)c(C(=O)OCCOCCOCCOCCOC(=O)c2ccc(-c3c4nc(c(-c5cccc(S(=O)(=O)[O-])c5F)c5ccc([nH]5)c(-c5cccc(S(=O)(=O)[O-])c5F)c5nc(c(-c6cccc(S(=O)(=O)[O-])c6F)c6ccc3[nH]6)C=C5)C=C4)cc2)c1
REMARK SMILES IDX 22 1 21 2 20 3 19 4 18 5 16 6 17 7 15 8 10 9 11 10 96 11
REMARK SMILES IDX 12 12 13 13 14 14 9 15 7 16 8 17 6 19 5 20 4 21 3 22 2 23
REMARK SMILES IDX 1 24 23 25 24 26 25 27 26 28 27 29 28 30 29 31 30 32 31 33
REMARK SMILES IDX 32 34 33 35 34 36 95 37 35 38 94 39 36 40 37 41 38 42 88 43
REMARK SMILES IDX 39 44 93 45 87 46 89 47 40 48 92 49 86 50 85 51 41 53 73 54
REMARK SMILES IDX 53 55 72 56 54 57 57 58 71 59 90 60 55 61 56 62 70 64 91 65
REMARK SMILES IDX 58 66 42 67 43 68 51 69 44 70 46 71 52 72 45 73 47 74 48 75
REMARK SMILES IDX 49 76 50 77 74 78 75 79 83 80 76 81 78 82 84 83 77 84 79 85
REMARK SMILES IDX 80 86 81 87 82 88 59 89 60 90 68 91 61 92 63 93 69 94 62 95
REMARK SMILES IDX 64 96 65 97 66 98 67 99
REMARK H PARENT 9 18 89 52 57 63
REMARK Flexibility Score: inf
ROOT
ATOM      1  C   UNL A   1      32.342  25.077  25.546  1.00  0.00     0.188 C 
ENDROOT
BRANCH   1   2
ATOM      2  O   UNL A   1      33.620  25.085  26.166  1.00  0.00    -0.376 OA
BRANCH   2   3
ATOM      3  C   UNL A   1      34.820  25.011  25.400  1.00  0.00     0.202 C 
BRANCH   3   4
ATOM      4  C   UNL A   1      36.072  24.248  25.869  1.00  0.00     0.261 C 
BRANCH   4   5
ATOM      5  O   UNL A   1      35.898  22.832  25.946  1.00  0.00    -0.460 OA
BRANCH   5   6
ATOM      6  C   UNL A   1      36.011  22.106  24.813  1.00  0.00     0.339 C 
ATOM      7  O   UNL A   1      37.040  21.804  24.233  1.00  0.00    -0.246 OA
BRANCH   6   8
ATOM      8  C   UNL A   1      34.703  21.452  24.561  1.00  0.00     0.080 A 
ATOM      9  C   UNL A   1      33.177  19.705  25.282  1.00  0.00     0.042 A 
ATOM     10  C   UNL A   1      32.118  20.399  24.697  1.00  0.00     0.028 A 
ATOM     11  C   UNL A   1      34.465  20.242  25.250  1.00  0.00     0.043 A 
ATOM     12  C   UNL A   1      32.370  21.534  23.922  1.00  0.00     0.023 A 
ATOM     13  C   UNL A   1      33.667  22.053  23.828  1.00  0.00     0.055 A 
ATOM     14  Cl  UNL A   1      33.904  23.405  22.782  1.00  0.00    -0.083 Cl
BRANCH   9  15
ATOM     15  N   UNL A   1      32.891  18.536  25.988  1.00  0.00    -0.326 N 
ATOM     16  C   UNL A   1      33.367  17.276  25.742  1.00  0.00     0.224 C 
ATOM     17  O   UNL A   1      32.806  16.328  26.300  1.00  0.00    -0.275 OA
ATOM     18  H   UNL A   1      32.275  18.627  26.750  1.00  0.00     0.169 HD
BRANCH  16  19
ATOM     19  C   UNL A   1      34.545  17.035  24.816  1.00  0.00     0.100 C 
BRANCH  19  20
ATOM     20  C   UNL A   1      34.320  17.408  23.343  1.00  0.00     0.010 C 
BRANCH  20  21
ATOM     21  C   UNL A   1      33.027  16.935  22.669  1.00  0.00     0.001 C 
BRANCH  21  22
ATOM     22  C   UNL A   1      32.026  18.055  22.371  1.00  0.00    -0.000 C 
BRANCH  22  23
ATOM     23  C   UNL A   1      32.192  18.753  21.027  1.00  0.00    -0.003 C 
ATOM     24  C   UNL A   1      31.848  20.233  21.060  1.00  0.00     0.004 C 
ENDBRANCH  22  23
ENDBRANCH  21  22
ENDBRANCH  20  21
ENDBRANCH  19  20
ENDBRANCH  16  19
ENDBRANCH   9  15
ENDBRANCH   6   8
ENDBRANCH   5   6
ENDBRANCH   4   5
ENDBRANCH   3   4
ENDBRANCH   2   3
ENDBRANCH   1   2
BRANCH   1  25
ATOM     25  C   UNL A   1      31.171  25.885  26.126  1.00  0.00     0.188 C 
BRANCH  25  26
ATOM     26  O   UNL A   1      30.770  26.986  25.342  1.00  0.00    -0.377 OA
BRANCH  26  27
ATOM     27  C   UNL A   1      31.765  27.633  24.559  1.00  0.00     0.188 C 
BRANCH  27  28
ATOM     28  C   UNL A   1      32.289  29.023  24.989  1.00  0.00     0.188 C 
BRANCH  28  29
ATOM     29  O   UNL A   1      31.723  29.543  26.186  1.00  0.00    -0.376 OA
BRANCH  29  30
ATOM     30  C   UNL A   1      32.297  30.701  26.774  1.00  0.00     0.202 C 
BRANCH  30  31
ATOM     31  C   UNL A   1      33.709  30.584  27.373  1.00  0.00     0.261 C 
BRANCH  31  32
ATOM     32  O   UNL A   1      34.344  31.818  27.732  1.00  0.00    -0.460 OA
BRANCH  32  33
ATOM     33  C   UNL A   1      34.883  31.891  28.964  1.00  0.00     0.338 C 
ATOM     34  O   UNL A   1      34.432  32.496  29.927  1.00  0.00    -0.246 OA
BRANCH  33  35
ATOM     35  C   UNL A   1      36.020  30.956  29.027  1.00  0.00     0.060 A 
ATOM     36  C   UNL A   1      35.993  29.931  29.981  1.00  0.00     0.016 A 
ATOM     37  C   UNL A   1      37.115  31.106  28.172  1.00  0.00     0.016 A 
ATOM     38  C   UNL A   1      37.097  29.096  30.134  1.00  0.00     0.010 A 
ATOM     39  C   UNL A   1      38.228  30.280  28.339  1.00  0.00     0.010 A 
ATOM     40  C   UNL A   1      38.242  29.313  29.360  1.00  0.00    -0.014 A 
BRANCH  40  41
ATOM     41  C   UNL A   1      39.527  28.718  29.800  1.00  0.00     0.031 A 
ATOM     42  C   UNL A   1      40.206  29.323  31.000  1.00  0.00     0.074 A 
ATOM     43  C   UNL A   1      40.061  27.653  29.179  1.00  0.00     0.049 A 
ATOM     44  N   UNL A   1      41.335  28.993  31.570  1.00  0.00    -0.248 NA
ATOM     45  C   UNL A   1      39.519  30.456  31.643  1.00  0.00     0.031 C 
ATOM     46  C   UNL A   1      39.485  26.965  28.025  1.00  0.00     0.029 A 
ATOM     47  N   UNL A   1      41.226  26.972  29.433  1.00  0.00    -0.354 N 
ATOM     48  C   UNL A   1      41.508  29.894  32.615  1.00  0.00     0.074 A 
ATOM     49  C   UNL A   1      40.379  30.796  32.589  1.00  0.00     0.031 C 
ATOM     50  C   UNL A   1      40.313  25.973  27.653  1.00  0.00     0.029 A 
ATOM     51  C   UNL A   1      41.485  25.971  28.527  1.00  0.00     0.049 A 
ATOM     52  H   UNL A   1      41.818  27.181  30.190  1.00  0.00     0.167 HD
ATOM     53  C   UNL A   1      42.506  29.958  33.525  1.00  0.00     0.034 A 
ATOM     54  C   UNL A   1      42.558  25.163  28.410  1.00  0.00     0.034 A 
ATOM     55  C   UNL A   1      43.620  29.051  33.555  1.00  0.00     0.049 A 
ATOM     56  C   UNL A   1      43.678  25.277  29.414  1.00  0.00     0.074 A 
ATOM     57  C   UNL A   1      44.671  29.010  34.453  1.00  0.00     0.029 A 
ATOM     58  N   UNL A   1      43.836  28.035  32.637  1.00  0.00    -0.354 N 
ATOM     59  N   UNL A   1      43.784  26.075  30.451  1.00  0.00    -0.248 NA
ATOM     60  C   UNL A   1      44.811  24.354  29.253  1.00  0.00     0.031 C 
ATOM     61  C   UNL A   1      45.543  27.992  34.055  1.00  0.00     0.029 A 
ATOM     62  C   UNL A   1      45.007  27.365  32.940  1.00  0.00     0.049 A 
ATOM     63  H   UNL A   1      43.242  27.822  31.882  1.00  0.00     0.167 HD
ATOM     64  C   UNL A   1      44.964  25.714  31.093  1.00  0.00     0.074 A 
ATOM     65  C   UNL A   1      45.533  24.620  30.332  1.00  0.00     0.031 C 
ATOM     66  C   UNL A   1      45.530  26.241  32.207  1.00  0.00     0.034 A 
BRANCH  53  67
ATOM     67  C   UNL A   1      42.431  31.044  34.566  1.00  0.00     0.023 A 
ATOM     68  C   UNL A   1      41.700  30.833  35.754  1.00  0.00     0.012 A 
ATOM     69  C   UNL A   1      43.111  32.263  34.382  1.00  0.00     0.148 A 
ATOM     70  C   UNL A   1      41.615  31.833  36.722  1.00  0.00     0.002 A 
ATOM     71  C   UNL A   1      43.065  33.234  35.374  1.00  0.00     0.091 A 
ATOM     72  F   UNL A   1      43.780  32.454  33.236  1.00  0.00    -0.205 F 
ATOM     73  C   UNL A   1      42.306  33.028  36.537  1.00  0.00     0.022 A 
BRANCH  71  74
ATOM     74  S   UNL A   1      43.985  34.773  35.266  1.00  0.00     0.127 S 
ATOM     75  O   UNL A   1      45.036  34.558  36.261  1.00  0.00    -0.237 OA
ATOM     76  O   UNL A   1      44.446  34.756  33.878  1.00  0.00    -0.237 OA
ATOM     77  O   UNL A   1      43.037  35.832  35.580  1.00  0.00    -0.744 OA
ENDBRANCH  71  74
ENDBRANCH  53  67
BRANCH  54  78
ATOM     78  C   UNL A   1      42.617  24.148  27.320  1.00  0.00     0.023 A 
ATOM     79  C   UNL A   1      43.232  24.472  26.096  1.00  0.00     0.012 A 
ATOM     80  C   UNL A   1      42.061  22.865  27.491  1.00  0.00     0.148 A 
ATOM     81  C   UNL A   1      43.259  23.552  25.047  1.00  0.00     0.002 A 
ATOM     82  C   UNL A   1      42.140  21.934  26.462  1.00  0.00     0.091 A 
ATOM     83  F   UNL A   1      41.468  22.580  28.659  1.00  0.00    -0.205 F 
ATOM     84  C   UNL A   1      42.721  22.281  25.233  1.00  0.00     0.022 A 
BRANCH  82  85
ATOM     85  S   UNL A   1      41.580  20.238  26.649  1.00  0.00     0.127 S 
ATOM     86  O   UNL A   1      41.950  19.657  25.360  1.00  0.00    -0.237 OA
ATOM     87  O   UNL A   1      42.382  19.782  27.784  1.00  0.00    -0.237 OA
ATOM     88  O   UNL A   1      40.151  20.320  26.914  1.00  0.00    -0.744 OA
ENDBRANCH  82  85
ENDBRANCH  54  78
BRANCH  66  89
ATOM     89  C   UNL A   1      46.792  25.601  32.727  1.00  0.00     0.023 A 
ATOM     90  C   UNL A   1      48.049  25.981  32.216  1.00  0.00     0.012 A 
ATOM     91  C   UNL A   1      46.729  24.666  33.780  1.00  0.00     0.148 A 
ATOM     92  C   UNL A   1      49.219  25.409  32.717  1.00  0.00     0.002 A 
ATOM     93  C   UNL A   1      47.900  24.144  34.313  1.00  0.00     0.091 A 
ATOM     94  F   UNL A   1      45.523  24.304  34.243  1.00  0.00    -0.205 F 
ATOM     95  C   UNL A   1      49.146  24.502  33.772  1.00  0.00     0.022 A 
BRANCH  93  96
ATOM     96  S   UNL A   1      47.907  23.052  35.739  1.00  0.00     0.127 S 
ATOM     97  O   UNL A   1      46.925  22.043  35.346  1.00  0.00    -0.237 OA
ATOM     98  O   UNL A   1      49.291  22.579  35.761  1.00  0.00    -0.237 OA
ATOM     99  O   UNL A   1      47.532  23.877  36.879  1.00  0.00    -0.744 OA
ENDBRANCH  93  96
ENDBRANCH  66  89
ENDBRANCH  40  41
ENDBRANCH  33  35
ENDBRANCH  32  33
ENDBRANCH  31  32
ENDBRANCH  30  31
ENDBRANCH  29  30
ENDBRANCH  28  29
ENDBRANCH  27  28
ENDBRANCH  26  27
ENDBRANCH  25  26
ENDBRANCH   1  25
TORSDOF 29
ENDMDL
MODEL 2
REMARK VINA RESULT:      -8.0      1.474      7.636
REMARK SMILES CCCCCCC(=O)Nc1ccc(Cl)c(C(=O)OCCOCCOCCOCCOC(=O)c2ccc(-c3c4nc(c(-c5cccc(S(=O)(=O)[O-])c5F)c5ccc([nH]5)c(-c5cccc(S(=O)(=O)[O-])c5F)c5nc(c(-c6cccc(S(=O)(=O)[O-])c6F)c6ccc3[nH]6)C=C5)C=C4)cc2)c1
REMARK SMILES IDX 22 1 21 2 20 3 19 4 18 5 16 6 17 7 15 8 10 9 11 10 96 11
REMARK SMILES IDX 12 12 13 13 14 14 9 15 7 16 8 17 6 19 5 20 4 21 3 22 2 23
REMARK SMILES IDX 1 24 23 25 24 26 25 27 26 28 27 29 28 30 29 31 30 32 31 33
REMARK SMILES IDX 32 34 33 35 34 36 95 37 35 38 94 39 36 40 37 41 38 42 88 43
REMARK SMILES IDX 39 44 93 45 87 46 89 47 40 48 92 49 86 50 85 51 41 53 73 54
REMARK SMILES IDX 53 55 72 56 54 57 57 58 71 59 90 60 55 61 56 62 70 64 91 65
REMARK SMILES IDX 58 66 42 67 43 68 51 69 44 70 46 71 52 72 45 73 47 74 48 75
REMARK SMILES IDX 49 76 50 77 74 78 75 79 83 80 76 81 78 82 84 83 77 84 79 85
REMARK SMILES IDX 80 86 81 87 82 88 59 89 60 90 68 91 61 92 63 93 69 94 62 95
REMARK SMILES IDX 64 96 65 97 66 98 67 99
REMARK H PARENT 9 18 89 52 57 63
REMARK Flexibility Score: inf
ROOT
ATOM      1  C   UNL A   1      32.335  24.990  25.589  1.00  0.00     0.188 C 
ENDROOT
BRANCH   1   2
ATOM      2  O   UNL A   1      33.632  25.144  26.148  1.00  0.00    -0.376 OA
BRANCH   2   3
ATOM      3  C   UNL A   1      34.807  24.988  25.355  1.00  0.00     0.202 C 
BRANCH   3   4
ATOM      4  C   UNL A   1      36.063  24.248  25.849  1.00  0.00     0.261 C 
BRANCH   4   5
ATOM      5  O   UNL A   1      35.987  22.827  25.733  1.00  0.00    -0.460 OA
BRANCH   5   6
ATOM      6  C   UNL A   1      35.940  22.282  24.499  1.00  0.00     0.339 C 
ATOM      7  O   UNL A   1      36.872  22.128  23.728  1.00  0.00    -0.246 OA
BRANCH   6   8
ATOM      8  C   UNL A   1      34.632  21.598  24.353  1.00  0.00     0.080 A 
ATOM      9  C   UNL A   1      33.201  19.831  25.208  1.00  0.00     0.042 A 
ATOM     10  C   UNL A   1      32.087  20.495  24.695  1.00  0.00     0.028 A 
ATOM     11  C   UNL A   1      34.471  20.393  25.074  1.00  0.00     0.043 A 
ATOM     12  C   UNL A   1      32.257  21.623  23.888  1.00  0.00     0.023 A 
ATOM     13  C   UNL A   1      33.532  22.167  23.691  1.00  0.00     0.055 A 
ATOM     14  Cl  UNL A   1      33.661  23.508  22.613  1.00  0.00    -0.083 Cl
BRANCH   9  15
ATOM     15  N   UNL A   1      32.992  18.666  25.949  1.00  0.00    -0.326 N 
ATOM     16  C   UNL A   1      33.506  17.421  25.706  1.00  0.00     0.224 C 
ATOM     17  O   UNL A   1      33.009  16.464  26.306  1.00  0.00    -0.275 OA
ATOM     18  H   UNL A   1      32.408  18.750  26.736  1.00  0.00     0.169 HD
BRANCH  16  19
ATOM     19  C   UNL A   1      34.650  17.206  24.731  1.00  0.00     0.100 C 
BRANCH  19  20
ATOM     20  C   UNL A   1      34.253  17.093  23.253  1.00  0.00     0.010 C 
BRANCH  20  21
ATOM     21  C   UNL A   1      32.792  16.764  22.921  1.00  0.00     0.001 C 
BRANCH  21  22
ATOM     22  C   UNL A   1      31.958  17.969  22.482  1.00  0.00    -0.000 C 
BRANCH  22  23
ATOM     23  C   UNL A   1      32.655  18.957  21.555  1.00  0.00    -0.003 C 
ATOM     24  C   UNL A   1      31.717  19.973  20.926  1.00  0.00     0.004 C 
ENDBRANCH  22  23
ENDBRANCH  21  22
ENDBRANCH  20  21
ENDBRANCH  19  20
ENDBRANCH  16  19
ENDBRANCH   9  15
ENDBRANCH   6   8
ENDBRANCH   5   6
ENDBRANCH   4   5
ENDBRANCH   3   4
ENDBRANCH   2   3
ENDBRANCH   1   2
BRANCH   1  25
ATOM     25  C   UNL A   1      31.116  25.696  26.203  1.00  0.00     0.188 C 
BRANCH  25  26
ATOM     26  O   UNL A   1      30.647  26.805  25.470  1.00  0.00    -0.377 OA
BRANCH  26  27
ATOM     27  C   UNL A   1      31.575  27.477  24.629  1.00  0.00     0.188 C 
BRANCH  27  28
ATOM     28  C   UNL A   1      32.155  28.842  25.070  1.00  0.00     0.188 C 
BRANCH  28  29
ATOM     29  O   UNL A   1      31.740  29.293  26.353  1.00  0.00    -0.376 OA
BRANCH  29  30
ATOM     30  C   UNL A   1      32.322  30.470  26.893  1.00  0.00     0.202 C 
BRANCH  30  31
ATOM     31  C   UNL A   1      33.800  30.415  27.317  1.00  0.00     0.261 C 
BRANCH  31  32
ATOM     32  O   UNL A   1      34.402  31.669  27.662  1.00  0.00    -0.460 OA
BRANCH  32  33
ATOM     33  C   UNL A   1      34.866  31.798  28.919  1.00  0.00     0.338 C 
ATOM     34  O   UNL A   1      34.289  32.317  29.865  1.00  0.00    -0.246 OA
BRANCH  33  35
ATOM     35  C   UNL A   1      36.121  31.033  29.029  1.00  0.00     0.060 A 
ATOM     36  C   UNL A   1      36.119  29.843  29.770  1.00  0.00     0.016 A 
ATOM     37  C   UNL A   1      37.295  31.497  28.431  1.00  0.00     0.016 A 
ATOM     38  C   UNL A   1      37.309  29.152  29.978  1.00  0.00     0.010 A 
ATOM     39  C   UNL A   1      38.491  30.814  28.656  1.00  0.00     0.010 A 
ATOM     40  C   UNL A   1      38.508  29.673  29.478  1.00  0.00    -0.014 A 
BRANCH  40  41
ATOM     41  C   UNL A   1      39.790  29.183  30.039  1.00  0.00     0.031 A 
ATOM     42  C   UNL A   1      40.469  28.034  29.341  1.00  0.00     0.074 A 
ATOM     43  C   UNL A   1      40.357  29.758  31.113  1.00  0.00     0.049 A 
ATOM     44  N   UNL A   1      41.584  27.421  29.639  1.00  0.00    -0.248 NA
ATOM     45  C   UNL A   1      39.796  27.503  28.143  1.00  0.00     0.031 C 
ATOM     46  C   UNL A   1      39.809  30.890  31.858  1.00  0.00     0.029 A 
ATOM     47  N   UNL A   1      41.520  29.449  31.772  1.00  0.00    -0.354 N 
ATOM     48  C   UNL A   1      41.729  26.417  28.690  1.00  0.00     0.074 A 
ATOM     49  C   UNL A   1      40.580  26.488  27.816  1.00  0.00     0.031 C 
ATOM     50  C   UNL A   1      40.626  31.167  32.889  1.00  0.00     0.029 A 
ATOM     51  C   UNL A   1      41.738  30.218  32.891  1.00  0.00     0.049 A 
ATOM     52  H   UNL A   1      42.139  28.746  31.472  1.00  0.00     0.167 HD
ATOM     53  C   UNL A   1      42.734  25.524  28.544  1.00  0.00     0.034 A 
ATOM     54  C   UNL A   1      42.715  30.145  33.817  1.00  0.00     0.034 A 
ATOM     55  C   UNL A   1      43.881  25.463  29.408  1.00  0.00     0.049 A 
ATOM     56  C   UNL A   1      43.806  29.116  33.656  1.00  0.00     0.074 A 
ATOM     57  C   UNL A   1      44.971  24.616  29.331  1.00  0.00     0.029 A 
ATOM     58  N   UNL A   1      44.079  26.274  30.515  1.00  0.00    -0.354 N 
ATOM     59  N   UNL A   1      43.978  28.232  32.702  1.00  0.00    -0.248 NA
ATOM     60  C   UNL A   1      44.859  29.098  34.682  1.00  0.00     0.031 C 
ATOM     61  C   UNL A   1      45.811  24.889  30.416  1.00  0.00     0.029 A 
ATOM     62  C   UNL A   1      45.269  25.942  31.136  1.00  0.00     0.049 A 
ATOM     63  H   UNL A   1      43.464  26.981  30.813  1.00  0.00     0.167 HD
ATOM     64  C   UNL A   1      45.181  27.593  32.983  1.00  0.00     0.074 A 
ATOM     65  C   UNL A   1      45.699  28.197  34.193  1.00  0.00     0.031 C 
ATOM     66  C   UNL A   1      45.800  26.593  32.307  1.00  0.00     0.034 A 
BRANCH  53  67
ATOM     67  C   UNL A   1      42.636  24.544  27.404  1.00  0.00     0.023 A 
ATOM     68  C   UNL A   1      43.368  24.766  26.219  1.00  0.00     0.012 A 
ATOM     69  C   UNL A   1      41.844  23.385  27.520  1.00  0.00     0.148 A 
ATOM     70  C   UNL A   1      43.279  23.872  25.152  1.00  0.00     0.002 A 
ATOM     71  C   UNL A   1      41.802  22.473  26.474  1.00  0.00     0.091 A 
ATOM     72  F   UNL A   1      41.137  23.204  28.645  1.00  0.00    -0.205 F 
ATOM     73  C   UNL A   1      42.507  22.721  25.284  1.00  0.00     0.022 A 
BRANCH  71  74
ATOM     74  S   UNL A   1      40.901  20.922  26.576  1.00  0.00     0.127 S 
ATOM     75  O   UNL A   1      39.577  21.318  26.099  1.00  0.00    -0.237 OA
ATOM     76  O   UNL A   1      41.653  20.071  25.654  1.00  0.00    -0.237 OA
ATOM     77  O   UNL A   1      40.964  20.511  27.972  1.00  0.00    -0.744 OA
ENDBRANCH  71  74
ENDBRANCH  53  67
BRANCH  54  78
ATOM     78  C   UNL A   1      42.732  31.094  34.966  1.00  0.00     0.023 A 
ATOM     79  C   UNL A   1      42.089  30.745  36.169  1.00  0.00     0.012 A 
ATOM     80  C   UNL A   1      43.376  32.343  34.868  1.00  0.00     0.148 A 
ATOM     81  C   UNL A   1      42.054  31.638  37.242  1.00  0.00     0.002 A 
ATOM     82  C   UNL A   1      43.386  33.203  35.960  1.00  0.00     0.091 A 
ATOM     83  F   UNL A   1      43.971  32.662  33.710  1.00  0.00    -0.205 F 
ATOM     84  C   UNL A   1      42.709  32.862  37.140  1.00  0.00     0.022 A 
BRANCH  82  85
ATOM     85  S   UNL A   1      44.300  34.750  35.962  1.00  0.00     0.127 S 
ATOM     86  O   UNL A   1      45.679  34.282  35.851  1.00  0.00    -0.237 OA
ATOM     87  O   UNL A   1      43.773  35.409  34.767  1.00  0.00    -0.237 OA
ATOM     88  O   UNL A   1      43.959  35.409  37.215  1.00  0.00    -0.744 OA
ENDBRANCH  82  85
ENDBRANCH  54  78
BRANCH  66  89
ATOM     89  C   UNL A   1      47.146  26.133  32.805  1.00  0.00     0.023 A 
ATOM     90  C   UNL A   1      47.242  25.285  33.926  1.00  0.00     0.012 A 
ATOM     91  C   UNL A   1      48.319  26.491  32.109  1.00  0.00     0.148 A 
ATOM     92  C   UNL A   1      48.486  24.836  34.370  1.00  0.00     0.002 A 
ATOM     93  C   UNL A   1      49.547  25.994  32.522  1.00  0.00     0.091 A 
ATOM     94  F   UNL A   1      48.210  27.311  31.053  1.00  0.00    -0.205 F 
ATOM     95  C   UNL A   1      49.636  25.179  33.662  1.00  0.00     0.022 A 
BRANCH  93  96
ATOM     96  S   UNL A   1      51.065  26.298  31.610  1.00  0.00     0.127 S 
ATOM     97  O   UNL A   1      51.550  27.525  32.239  1.00  0.00    -0.237 OA
ATOM     98  O   UNL A   1      51.854  25.104  31.914  1.00  0.00    -0.237 OA
ATOM     99  O   UNL A   1      50.676  26.424  30.212  1.00  0.00    -0.744 OA
ENDBRANCH  93  96
ENDBRANCH  66  89
ENDBRANCH  40  41
ENDBRANCH  33  35
ENDBRANCH  32  33
ENDBRANCH  31  32
ENDBRANCH  30  31
ENDBRANCH  29  30
ENDBRANCH  28  29
ENDBRANCH  27  28
ENDBRANCH  26  27
ENDBRANCH  25  26
ENDBRANCH   1  25
TORSDOF 29
ENDMDL
MODEL 3
REMARK VINA RESULT:      -7.7      2.426      7.548
REMARK SMILES CCCCCCC(=O)Nc1ccc(Cl)c(C(=O)OCCOCCOCCOCCOC(=O)c2ccc(-c3c4nc(c(-c5cccc(S(=O)(=O)[O-])c5F)c5ccc([nH]5)c(-c5cccc(S(=O)(=O)[O-])c5F)c5nc(c(-c6cccc(S(=O)(=O)[O-])c6F)c6ccc3[nH]6)C=C5)C=C4)cc2)c1
REMARK SMILES IDX 22 1 21 2 20 3 19 4 18 5 16 6 17 7 15 8 10 9 11 10 96 11
REMARK SMILES IDX 12 12 13 13 14 14 9 15 7 16 8 17 6 19 5 20 4 21 3 22 2 23
REMARK SMILES IDX 1 24 23 25 24 26 25 27 26 28 27 29 28 30 29 31 30 32 31 33
REMARK SMILES IDX 32 34 33 35 34 36 95 37 35 38 94 39 36 40 37 41 38 42 88 43
REMARK SMILES IDX 39 44 93 45 87 46 89 47 40 48 92 49 86 50 85 51 41 53 73 54
REMARK SMILES IDX 53 55 72 56 54 57 57 58 71 59 90 60 55 61 56 62 70 64 91 65
REMARK SMILES IDX 58 66 42 67 43 68 51 69 44 70 46 71 52 72 45 73 47 74 48 75
REMARK SMILES IDX 49 76 50 77 74 78 75 79 83 80 76 81 78 82 84 83 77 84 79 85
REMARK SMILES IDX 80 86 81 87 82 88 59 89 60 90 68 91 61 92 63 93 69 94 62 95
REMARK SMILES IDX 64 96 65 97 66 98 67 99
REMARK H PARENT 9 18 89 52 57 63
REMARK Flexibility Score: inf
ROOT
ATOM      1  C   UNL A   1      32.195  24.986  25.590  1.00  0.00     0.188 C 
ENDROOT
BRANCH   1   2
ATOM      2  O   UNL A   1      33.478  25.266  26.131  1.00  0.00    -0.376 OA
BRANCH   2   3
ATOM      3  C   UNL A   1      34.664  25.112  25.354  1.00  0.00     0.202 C 
BRANCH   3   4
ATOM      4  C   UNL A   1      35.918  24.383  25.870  1.00  0.00     0.261 C 
BRANCH   4   5
ATOM      5  O   UNL A   1      35.852  22.960  25.762  1.00  0.00    -0.460 OA
BRANCH   5   6
ATOM      6  C   UNL A   1      35.865  22.405  24.532  1.00  0.00     0.339 C 
ATOM      7  O   UNL A   1      36.818  22.311  23.777  1.00  0.00    -0.246 OA
BRANCH   6   8
ATOM      8  C   UNL A   1      34.610  21.631  24.369  1.00  0.00     0.080 A 
ATOM      9  C   UNL A   1      33.308  19.752  25.191  1.00  0.00     0.042 A 
ATOM     10  C   UNL A   1      32.150  20.341  24.683  1.00  0.00     0.028 A 
ATOM     11  C   UNL A   1      34.535  20.406  25.071  1.00  0.00     0.043 A 
ATOM     12  C   UNL A   1      32.241  21.491  23.895  1.00  0.00     0.023 A 
ATOM     13  C   UNL A   1      33.474  22.129  23.712  1.00  0.00     0.055 A 
ATOM     14  Cl  UNL A   1      33.509  23.492  22.655  1.00  0.00    -0.083 Cl
BRANCH   9  15
ATOM     15  N   UNL A   1      33.181  18.564  25.913  1.00  0.00    -0.326 N 
ATOM     16  C   UNL A   1      33.734  17.347  25.618  1.00  0.00     0.224 C 
ATOM     17  O   UNL A   1      33.305  16.357  26.217  1.00  0.00    -0.275 OA
ATOM     18  H   UNL A   1      32.631  18.606  26.727  1.00  0.00     0.169 HD
BRANCH  16  19
ATOM     19  C   UNL A   1      34.841  17.202  24.588  1.00  0.00     0.100 C 
BRANCH  19  20
ATOM     20  C   UNL A   1      34.389  17.211  23.121  1.00  0.00     0.010 C 
BRANCH  20  21
ATOM     21  C   UNL A   1      32.948  16.792  22.807  1.00  0.00     0.001 C 
BRANCH  21  22
ATOM     22  C   UNL A   1      31.996  17.960  22.537  1.00  0.00    -0.000 C 
BRANCH  22  23
ATOM     23  C   UNL A   1      31.985  18.491  21.110  1.00  0.00    -0.003 C 
ATOM     24  C   UNL A   1      32.230  19.987  21.011  1.00  0.00     0.004 C 
ENDBRANCH  22  23
ENDBRANCH  21  22
ENDBRANCH  20  21
ENDBRANCH  19  20
ENDBRANCH  16  19
ENDBRANCH   9  15
ENDBRANCH   6   8
ENDBRANCH   5   6
ENDBRANCH   4   5
ENDBRANCH   3   4
ENDBRANCH   2   3
ENDBRANCH   1   2
BRANCH   1  25
ATOM     25  C   UNL A   1      30.933  25.669  26.141  1.00  0.00     0.188 C 
BRANCH  25  26
ATOM     26  O   UNL A   1      30.292  26.539  25.236  1.00  0.00    -0.377 OA
BRANCH  26  27
ATOM     27  C   UNL A   1      31.099  27.183  24.259  1.00  0.00     0.188 C 
BRANCH  27  28
ATOM     28  C   UNL A   1      31.659  28.596  24.543  1.00  0.00     0.188 C 
BRANCH  28  29
ATOM     29  O   UNL A   1      31.253  29.175  25.777  1.00  0.00    -0.376 OA
BRANCH  29  30
ATOM     30  C   UNL A   1      31.765  30.446  26.145  1.00  0.00     0.202 C 
BRANCH  30  31
ATOM     31  C   UNL A   1      33.240  30.534  26.577  1.00  0.00     0.261 C 
BRANCH  31  32
ATOM     32  O   UNL A   1      33.749  31.853  26.810  1.00  0.00    -0.460 OA
BRANCH  32  33
ATOM     33  C   UNL A   1      34.069  32.169  28.079  1.00  0.00     0.338 C 
ATOM     34  O   UNL A   1      33.368  32.761  28.888  1.00  0.00    -0.246 OA
BRANCH  33  35
ATOM     35  C   UNL A   1      35.345  31.509  28.411  1.00  0.00     0.060 A 
ATOM     36  C   UNL A   1      35.310  30.282  29.087  1.00  0.00     0.016 A 
ATOM     37  C   UNL A   1      36.564  32.108  28.083  1.00  0.00     0.016 A 
ATOM     38  C   UNL A   1      36.496  29.685  29.505  1.00  0.00     0.010 A 
ATOM     39  C   UNL A   1      37.751  31.518  28.519  1.00  0.00     0.010 A 
ATOM     40  C   UNL A   1      37.715  30.336  29.281  1.00  0.00    -0.014 A 
BRANCH  40  41
ATOM     41  C   UNL A   1      38.901  29.926  30.070  1.00  0.00     0.031 A 
ATOM     42  C   UNL A   1      39.826  28.902  29.468  1.00  0.00     0.074 A 
ATOM     43  C   UNL A   1      39.173  30.468  31.269  1.00  0.00     0.049 A 
ATOM     44  N   UNL A   1      40.916  28.374  29.959  1.00  0.00    -0.248 NA
ATOM     45  C   UNL A   1      39.471  28.402  28.128  1.00  0.00     0.031 C 
ATOM     46  C   UNL A   1      38.368  31.485  31.943  1.00  0.00     0.029 A 
ATOM     47  N   UNL A   1      40.205  30.220  32.139  1.00  0.00    -0.354 N 
ATOM     48  C   UNL A   1      41.357  27.462  29.008  1.00  0.00     0.074 A 
ATOM     49  C   UNL A   1      40.408  27.492  27.918  1.00  0.00     0.031 C 
ATOM     50  C   UNL A   1      38.924  31.758  33.136  1.00  0.00     0.029 A 
ATOM     51  C   UNL A   1      40.108  30.919  33.319  1.00  0.00     0.049 A 
ATOM     52  H   UNL A   1      40.943  29.602  31.938  1.00  0.00     0.167 HD
ATOM     53  C   UNL A   1      42.460  26.680  29.028  1.00  0.00     0.034 A 
ATOM     54  C   UNL A   1      40.879  30.867  34.424  1.00  0.00     0.034 A 
ATOM     55  C   UNL A   1      43.407  26.661  30.108  1.00  0.00     0.049 A 
ATOM     56  C   UNL A   1      42.083  29.959  34.439  1.00  0.00     0.074 A 
ATOM     57  C   UNL A   1      44.574  25.927  30.215  1.00  0.00     0.029 A 
ATOM     58  N   UNL A   1      43.290  27.401  31.275  1.00  0.00    -0.354 N 
ATOM     59  N   UNL A   1      42.538  29.170  33.495  1.00  0.00    -0.248 NA
ATOM     60  C   UNL A   1      42.901  29.962  35.661  1.00  0.00     0.031 C 
ATOM     61  C   UNL A   1      45.142  26.194  31.465  1.00  0.00     0.029 A 
ATOM     62  C   UNL A   1      44.357  27.135  32.113  1.00  0.00     0.049 A 
ATOM     63  H   UNL A   1      42.554  28.023  31.476  1.00  0.00     0.167 HD
ATOM     64  C   UNL A   1      43.720  28.626  33.987  1.00  0.00     0.074 A 
ATOM     65  C   UNL A   1      43.914  29.183  35.311  1.00  0.00     0.031 C 
ATOM     66  C   UNL A   1      44.566  27.742  33.403  1.00  0.00     0.034 A 
BRANCH  53  67
ATOM     67  C   UNL A   1      42.701  25.784  27.841  1.00  0.00     0.023 A 
ATOM     68  C   UNL A   1      43.580  26.192  26.816  1.00  0.00     0.012 A 
ATOM     69  C   UNL A   1      42.080  24.523  27.756  1.00  0.00     0.148 A 
ATOM     70  C   UNL A   1      43.805  25.377  25.707  1.00  0.00     0.002 A 
ATOM     71  C   UNL A   1      42.350  23.694  26.674  1.00  0.00     0.091 A 
ATOM     72  F   UNL A   1      41.229  24.163  28.727  1.00  0.00    -0.205 F 
ATOM     73  C   UNL A   1      43.200  24.125  25.643  1.00  0.00     0.022 A 
BRANCH  71  74
ATOM     74  S   UNL A   1      41.683  22.032  26.538  1.00  0.00     0.127 S 
ATOM     75  O   UNL A   1      40.274  22.302  26.257  1.00  0.00    -0.237 OA
ATOM     76  O   UNL A   1      42.439  21.492  25.408  1.00  0.00    -0.237 OA
ATOM     77  O   UNL A   1      41.951  21.384  27.814  1.00  0.00    -0.744 OA
ENDBRANCH  71  74
ENDBRANCH  53  67
BRANCH  54  78
ATOM     78  C   UNL A   1      40.561  31.725  35.601  1.00  0.00     0.023 A 
ATOM     79  C   UNL A   1      41.472  32.718  36.008  1.00  0.00     0.012 A 
ATOM     80  C   UNL A   1      39.362  31.556  36.322  1.00  0.00     0.148 A 
ATOM     81  C   UNL A   1      41.216  33.501  37.135  1.00  0.00     0.002 A 
ATOM     82  C   UNL A   1      39.087  32.377  37.408  1.00  0.00     0.091 A 
ATOM     83  F   UNL A   1      38.513  30.597  35.927  1.00  0.00    -0.205 F 
ATOM     84  C   UNL A   1      40.020  33.337  37.828  1.00  0.00     0.022 A 
BRANCH  82  85
ATOM     85  S   UNL A   1      37.524  32.318  38.293  1.00  0.00     0.127 S 
ATOM     86  O   UNL A   1      37.301  30.879  38.409  1.00  0.00    -0.237 OA
ATOM     87  O   UNL A   1      37.866  32.993  39.545  1.00  0.00    -0.237 OA
ATOM     88  O   UNL A   1      36.571  33.038  37.460  1.00  0.00    -0.744 OA
ENDBRANCH  82  85
ENDBRANCH  54  78
BRANCH  66  89
ATOM     89  C   UNL A   1      45.824  27.372  34.146  1.00  0.00     0.023 A 
ATOM     90  C   UNL A   1      45.822  26.311  35.073  1.00  0.00     0.012 A 
ATOM     91  C   UNL A   1      47.034  28.042  33.867  1.00  0.00     0.148 A 
ATOM     92  C   UNL A   1      46.993  25.950  35.740  1.00  0.00     0.002 A 
ATOM     93  C   UNL A   1      48.206  27.640  34.492  1.00  0.00     0.091 A 
ATOM     94  F   UNL A   1      47.015  29.060  32.993  1.00  0.00    -0.205 F 
ATOM     95  C   UNL A   1      48.186  26.605  35.441  1.00  0.00     0.022 A 
BRANCH  93  96
ATOM     96  S   UNL A   1      49.805  28.354  34.090  1.00  0.00     0.127 S 
ATOM     97  O   UNL A   1      49.677  28.580  32.651  1.00  0.00    -0.237 OA
ATOM     98  O   UNL A   1      49.811  29.574  34.899  1.00  0.00    -0.237 OA
ATOM     99  O   UNL A   1      50.799  27.365  34.481  1.00  0.00    -0.744 OA
ENDBRANCH  93  96
ENDBRANCH  66  89
ENDBRANCH  40  41
ENDBRANCH  33  35
ENDBRANCH  32  33
ENDBRANCH  31  32
ENDBRANCH  30  31
ENDBRANCH  29  30
ENDBRANCH  28  29
ENDBRANCH  27  28
ENDBRANCH  26  27
ENDBRANCH  25  26
ENDBRANCH   1  25
TORSDOF 29
ENDMDL
