MODEL 1
REMARK VINA RESULT:      -9.6      0.000      0.000
REMARK SMILES Nn1c(S[C@@H](C(=O)OCCOCCOCCOCCOC(=O)c2ccc(-c3c4nc(c(-c5cccc(S(=O)(=O)[O-])c5F)c5ccc([nH]5)c(-c5cccc(S(=O)(=O)[O-])c5F)c5nc(c(-c6cccc(S(=O)(=O)[O-])c6F)c6ccc3[nH]6)C=C5)C=C4)cc2)c2ccccc2)nc2ccc(Br)cc2c1=O
REMARK SMILES IDX 14 1 13 2 12 3 11 4 10 5 9 6 8 7 6 8 7 9 5 10 4 11 3 12 2 13
REMARK SMILES IDX 100 14 92 15 99 16 101 17 93 18 98 19 94 20 96 21 95 22
REMARK SMILES IDX 97 23 1 24 86 27 87 28 91 29 88 30 90 31 89 32 15 33 16 34
REMARK SMILES IDX 17 35 18 36 19 37 20 38 21 39 22 40 23 41 24 42 85 43 25 44
REMARK SMILES IDX 84 45 26 46 27 47 28 48 78 49 29 50 83 51 77 52 79 53 30 54
REMARK SMILES IDX 82 55 76 56 75 57 31 59 63 60 43 61 62 62 44 63 47 64 61 65
REMARK SMILES IDX 80 66 45 67 46 68 60 70 81 71 48 72 32 73 33 74 41 75 34 76
REMARK SMILES IDX 36 77 42 78 35 79 37 80 38 81 39 82 40 83 64 84 65 85 73 86
REMARK SMILES IDX 66 87 68 88 74 89 67 90 69 91 70 92 71 93 72 94 49 95 50 96
REMARK SMILES IDX 58 97 51 98 53 99 59 100 52 101 54 102 55 103 56 104 57 105
REMARK H PARENT 1 25 1 26 79 58 47 69
REMARK Flexibility Score: inf
ROOT
ATOM      1  O   UNL A   1      31.530  26.478  26.725  1.00  0.00    -0.377 OA
ENDROOT
BRANCH   1   2
ATOM      2  C   UNL A   1      30.276  26.005  26.276  1.00  0.00     0.188 C 
BRANCH   2   3
ATOM      3  C   UNL A   1      29.885  25.810  24.795  1.00  0.00     0.188 C 
BRANCH   3   4
ATOM      4  O   UNL A   1      29.566  27.000  24.118  1.00  0.00    -0.376 OA
BRANCH   4   5
ATOM      5  C   UNL A   1      30.322  27.386  22.986  1.00  0.00     0.202 C 
BRANCH   5   6
ATOM      6  C   UNL A   1      31.847  27.629  23.024  1.00  0.00     0.261 C 
BRANCH   6   7
ATOM      7  O   UNL A   1      32.685  26.543  23.481  1.00  0.00    -0.462 OA
BRANCH   7   8
ATOM      8  C   UNL A   1      33.377  25.804  22.583  1.00  0.00     0.324 C 
ATOM      9  O   UNL A   1      33.842  26.304  21.559  1.00  0.00    -0.251 OA
BRANCH   8  10
ATOM     10  C   UNL A   1      33.510  24.289  22.909  1.00  0.00     0.194 C 
BRANCH  10  11
ATOM     11  S   UNL A   1      31.999  23.355  23.297  1.00  0.00    -0.066 SA
BRANCH  11  12
ATOM     12  C   UNL A   1      32.052  21.589  23.312  1.00  0.00     0.191 A 
ATOM     13  N   UNL A   1      32.036  20.748  22.194  1.00  0.00    -0.202 N 
ATOM     14  C   UNL A   1      32.163  19.356  22.295  1.00  0.00     0.280 A 
ATOM     15  N   UNL A   1      32.198  21.095  24.509  1.00  0.00    -0.222 NA
ATOM     16  C   UNL A   1      32.443  18.820  23.625  1.00  0.00     0.069 A 
ATOM     17  O   UNL A   1      32.099  18.597  21.327  1.00  0.00    -0.267 OA
ATOM     18  C   UNL A   1      32.439  19.720  24.685  1.00  0.00     0.079 A 
ATOM     19  C   UNL A   1      32.805  17.473  23.785  1.00  0.00     0.031 A 
ATOM     20  C   UNL A   1      32.791  19.233  25.950  1.00  0.00     0.030 A 
ATOM     21  C   UNL A   1      33.179  17.020  25.043  1.00  0.00     0.018 A 
ATOM     22  C   UNL A   1      33.165  17.892  26.131  1.00  0.00     0.018 A 
ATOM     23  Br  UNL A   1      33.769  15.238  25.261  1.00  0.00    -0.051 Br
BRANCH  13  24
ATOM     24  N   UNL A   1      31.952  21.210  20.879  1.00  0.00    -0.334 N 
ATOM     25  H   UNL A   1      32.772  21.362  20.356  1.00  0.00     0.178 HD
ATOM     26  H   UNL A   1      31.071  21.381  20.474  1.00  0.00     0.178 HD
ENDBRANCH  13  24
ENDBRANCH  11  12
ENDBRANCH  10  11
BRANCH  10  27
ATOM     27  C   UNL A   1      34.774  23.883  23.653  1.00  0.00    -0.023 A 
ATOM     28  C   UNL A   1      35.650  22.949  23.073  1.00  0.00     0.005 A 
ATOM     29  C   UNL A   1      35.059  24.345  24.954  1.00  0.00     0.005 A 
ATOM     30  C   UNL A   1      36.691  22.397  23.817  1.00  0.00     0.000 A 
ATOM     31  C   UNL A   1      36.102  23.791  25.694  1.00  0.00     0.000 A 
ATOM     32  C   UNL A   1      36.899  22.799  25.134  1.00  0.00     0.000 A 
ENDBRANCH  10  27
ENDBRANCH   8  10
ENDBRANCH   7   8
ENDBRANCH   6   7
ENDBRANCH   5   6
ENDBRANCH   4   5
ENDBRANCH   3   4
ENDBRANCH   2   3
ENDBRANCH   1   2
BRANCH   1  33
ATOM     33  C   UNL A   1      31.619  27.817  27.143  1.00  0.00     0.188 C 
BRANCH  33  34
ATOM     34  C   UNL A   1      33.044  28.380  27.093  1.00  0.00     0.188 C 
BRANCH  34  35
ATOM     35  O   UNL A   1      33.145  29.610  26.374  1.00  0.00    -0.376 OA
BRANCH  35  36
ATOM     36  C   UNL A   1      32.975  30.805  27.132  1.00  0.00     0.202 C 
BRANCH  36  37
ATOM     37  C   UNL A   1      34.240  31.478  27.684  1.00  0.00     0.261 C 
BRANCH  37  38
ATOM     38  O   UNL A   1      34.258  31.793  29.077  1.00  0.00    -0.460 OA
BRANCH  38  39
ATOM     39  C   UNL A   1      35.103  32.743  29.520  1.00  0.00     0.338 C 
ATOM     40  O   UNL A   1      34.841  33.904  29.776  1.00  0.00    -0.246 OA
BRANCH  39  41
ATOM     41  C   UNL A   1      36.350  32.028  29.857  1.00  0.00     0.060 A 
ATOM     42  C   UNL A   1      37.568  32.435  29.299  1.00  0.00     0.016 A 
ATOM     43  C   UNL A   1      36.270  30.860  30.623  1.00  0.00     0.016 A 
ATOM     44  C   UNL A   1      38.714  31.671  29.513  1.00  0.00     0.010 A 
ATOM     45  C   UNL A   1      37.409  30.078  30.809  1.00  0.00     0.010 A 
ATOM     46  C   UNL A   1      38.639  30.494  30.276  1.00  0.00    -0.014 A 
BRANCH  46  47
ATOM     47  C   UNL A   1      39.880  29.851  30.759  1.00  0.00     0.031 A 
ATOM     48  C   UNL A   1      40.613  30.312  31.978  1.00  0.00     0.074 A 
ATOM     49  C   UNL A   1      40.363  28.856  29.992  1.00  0.00     0.049 A 
ATOM     50  N   UNL A   1      41.718  29.831  32.488  1.00  0.00    -0.248 NA
ATOM     51  C   UNL A   1      40.053  31.451  32.720  1.00  0.00     0.031 C 
ATOM     52  C   UNL A   1      39.731  28.377  28.756  1.00  0.00     0.029 A 
ATOM     53  N   UNL A   1      41.489  28.092  30.109  1.00  0.00    -0.354 N 
ATOM     54  C   UNL A   1      41.996  30.609  33.605  1.00  0.00     0.074 A 
ATOM     55  C   UNL A   1      40.944  31.601  33.696  1.00  0.00     0.031 C 
ATOM     56  C   UNL A   1      40.489  27.411  28.224  1.00  0.00     0.029 A 
ATOM     57  C   UNL A   1      41.659  27.211  29.069  1.00  0.00     0.049 A 
ATOM     58  H   UNL A   1      42.117  28.165  30.864  1.00  0.00     0.167 HD
ATOM     59  C   UNL A   1      43.028  30.484  34.472  1.00  0.00     0.034 A 
ATOM     60  C   UNL A   1      42.649  26.338  28.817  1.00  0.00     0.034 A 
ATOM     61  C   UNL A   1      44.058  29.483  34.363  1.00  0.00     0.049 A 
ATOM     62  C   UNL A   1      43.768  26.215  29.802  1.00  0.00     0.074 A 
ATOM     63  C   UNL A   1      45.113  29.238  35.226  1.00  0.00     0.029 A 
ATOM     64  N   UNL A   1      44.173  28.571  33.325  1.00  0.00    -0.354 N 
ATOM     65  N   UNL A   1      43.948  26.877  30.920  1.00  0.00    -0.248 NA
ATOM     66  C   UNL A   1      44.800  25.213  29.517  1.00  0.00     0.031 C 
ATOM     67  C   UNL A   1      45.873  28.189  34.702  1.00  0.00     0.029 A 
ATOM     68  C   UNL A   1      45.283  27.766  33.521  1.00  0.00     0.049 A 
ATOM     69  H   UNL A   1      43.556  28.504  32.560  1.00  0.00     0.167 HD
ATOM     70  C   UNL A   1      45.101  26.355  31.486  1.00  0.00     0.074 A 
ATOM     71  C   UNL A   1      45.571  25.314  30.592  1.00  0.00     0.031 C 
ATOM     72  C   UNL A   1      45.716  26.713  32.638  1.00  0.00     0.034 A 
BRANCH  59  73
ATOM     73  C   UNL A   1      43.084  31.406  35.661  1.00  0.00     0.023 A 
ATOM     74  C   UNL A   1      42.550  30.968  36.890  1.00  0.00     0.012 A 
ATOM     75  C   UNL A   1      43.779  32.631  35.606  1.00  0.00     0.148 A 
ATOM     76  C   UNL A   1      42.702  31.736  38.045  1.00  0.00     0.002 A 
ATOM     77  C   UNL A   1      43.948  33.379  36.766  1.00  0.00     0.091 A 
ATOM     78  F   UNL A   1      44.275  33.029  34.426  1.00  0.00    -0.205 F 
ATOM     79  C   UNL A   1      43.409  32.934  37.985  1.00  0.00     0.022 A 
BRANCH  77  80
ATOM     80  S   UNL A   1      44.882  34.913  36.813  1.00  0.00     0.127 S 
ATOM     81  O   UNL A   1      44.286  35.585  37.968  1.00  0.00    -0.237 OA
ATOM     82  O   UNL A   1      46.248  34.435  37.025  1.00  0.00    -0.237 OA
ATOM     83  O   UNL A   1      44.652  35.567  35.533  1.00  0.00    -0.744 OA
ENDBRANCH  77  80
ENDBRANCH  59  73
BRANCH  60  84
ATOM     84  C   UNL A   1      42.546  25.468  27.618  1.00  0.00     0.023 A 
ATOM     85  C   UNL A   1      43.132  25.894  26.413  1.00  0.00     0.012 A 
ATOM     86  C   UNL A   1      41.987  24.178  27.703  1.00  0.00     0.148 A 
ATOM     87  C   UNL A   1      43.159  25.051  25.304  1.00  0.00     0.002 A 
ATOM     88  C   UNL A   1      42.052  23.328  26.606  1.00  0.00     0.091 A 
ATOM     89  F   UNL A   1      41.448  23.796  28.869  1.00  0.00    -0.205 F 
ATOM     90  C   UNL A   1      42.631  23.766  25.404  1.00  0.00     0.022 A 
BRANCH  88  91
ATOM     91  S   UNL A   1      41.499  21.620  26.667  1.00  0.00     0.127 S 
ATOM     92  O   UNL A   1      40.060  21.781  26.861  1.00  0.00    -0.237 OA
ATOM     93  O   UNL A   1      41.893  21.131  25.345  1.00  0.00    -0.237 OA
ATOM     94  O   UNL A   1      42.217  21.010  27.778  1.00  0.00    -0.744 OA
ENDBRANCH  88  91
ENDBRANCH  60  84
BRANCH  72  95
ATOM     95  C   UNL A   1      46.967  25.972  33.017  1.00  0.00     0.023 A 
ATOM     96  C   UNL A   1      48.220  26.506  32.662  1.00  0.00     0.012 A 
ATOM     97  C   UNL A   1      46.901  24.814  33.813  1.00  0.00     0.148 A 
ATOM     98  C   UNL A   1      49.394  25.889  33.088  1.00  0.00     0.002 A 
ATOM     99  C   UNL A   1      48.074  24.224  34.264  1.00  0.00     0.091 A 
ATOM    100  F   UNL A   1      45.692  24.322  34.124  1.00  0.00    -0.205 F 
ATOM    101  C   UNL A   1      49.322  24.757  33.899  1.00  0.00     0.022 A 
BRANCH  99 102
ATOM    102  S   UNL A   1      48.083  22.809  35.370  1.00  0.00     0.127 S 
ATOM    103  O   UNL A   1      49.210  22.033  34.849  1.00  0.00    -0.237 OA
ATOM    104  O   UNL A   1      48.322  23.435  36.669  1.00  0.00    -0.237 OA
ATOM    105  O   UNL A   1      46.780  22.175  35.229  1.00  0.00    -0.744 OA
ENDBRANCH  99 102
ENDBRANCH  72  95
ENDBRANCH  46  47
ENDBRANCH  39  41
ENDBRANCH  38  39
ENDBRANCH  37  38
ENDBRANCH  36  37
ENDBRANCH  35  36
ENDBRANCH  34  35
ENDBRANCH  33  34
ENDBRANCH   1  33
TORSDOF 27
ENDMDL
MODEL 2
REMARK VINA RESULT:      -9.4      2.999      7.990
REMARK SMILES Nn1c(S[C@@H](C(=O)OCCOCCOCCOCCOC(=O)c2ccc(-c3c4nc(c(-c5cccc(S(=O)(=O)[O-])c5F)c5ccc([nH]5)c(-c5cccc(S(=O)(=O)[O-])c5F)c5nc(c(-c6cccc(S(=O)(=O)[O-])c6F)c6ccc3[nH]6)C=C5)C=C4)cc2)c2ccccc2)nc2ccc(Br)cc2c1=O
REMARK SMILES IDX 14 1 13 2 12 3 11 4 10 5 9 6 8 7 6 8 7 9 5 10 4 11 3 12 2 13
REMARK SMILES IDX 100 14 92 15 99 16 101 17 93 18 98 19 94 20 96 21 95 22
REMARK SMILES IDX 97 23 1 24 86 27 87 28 91 29 88 30 90 31 89 32 15 33 16 34
REMARK SMILES IDX 17 35 18 36 19 37 20 38 21 39 22 40 23 41 24 42 85 43 25 44
REMARK SMILES IDX 84 45 26 46 27 47 28 48 78 49 29 50 83 51 77 52 79 53 30 54
REMARK SMILES IDX 82 55 76 56 75 57 31 59 63 60 43 61 62 62 44 63 47 64 61 65
REMARK SMILES IDX 80 66 45 67 46 68 60 70 81 71 48 72 32 73 33 74 41 75 34 76
REMARK SMILES IDX 36 77 42 78 35 79 37 80 38 81 39 82 40 83 64 84 65 85 73 86
REMARK SMILES IDX 66 87 68 88 74 89 67 90 69 91 70 92 71 93 72 94 49 95 50 96
REMARK SMILES IDX 58 97 51 98 53 99 59 100 52 101 54 102 55 103 56 104 57 105
REMARK H PARENT 1 25 1 26 79 58 47 69
REMARK Flexibility Score: inf
ROOT
ATOM      1  O   UNL A   1      31.936  24.245  26.519  1.00  0.00    -0.377 OA
ENDROOT
BRANCH   1   2
ATOM      2  C   UNL A   1      31.295  23.009  26.277  1.00  0.00     0.188 C 
BRANCH   2   3
ATOM      3  C   UNL A   1      32.019  21.651  26.140  1.00  0.00     0.188 C 
BRANCH   3   4
ATOM      4  O   UNL A   1      31.778  20.986  24.925  1.00  0.00    -0.376 OA
BRANCH   4   5
ATOM      5  C   UNL A   1      32.400  21.445  23.741  1.00  0.00     0.202 C 
BRANCH   5   6
ATOM      6  C   UNL A   1      31.749  22.459  22.775  1.00  0.00     0.261 C 
BRANCH   6   7
ATOM      7  O   UNL A   1      32.400  23.740  22.614  1.00  0.00    -0.462 OA
BRANCH   7   8
ATOM      8  C   UNL A   1      33.739  23.839  22.780  1.00  0.00     0.324 C 
ATOM      9  O   UNL A   1      34.516  23.058  22.234  1.00  0.00    -0.251 OA
BRANCH   8  10
ATOM     10  C   UNL A   1      34.223  24.972  23.732  1.00  0.00     0.194 C 
BRANCH  10  11
ATOM     11  S   UNL A   1      34.747  24.521  25.413  1.00  0.00    -0.066 SA
BRANCH  11  12
ATOM     12  C   UNL A   1      36.089  23.393  25.628  1.00  0.00     0.191 A 
ATOM     13  N   UNL A   1      36.147  22.072  25.172  1.00  0.00    -0.202 N 
ATOM     14  C   UNL A   1      37.288  21.271  25.317  1.00  0.00     0.280 A 
ATOM     15  N   UNL A   1      37.123  23.937  26.208  1.00  0.00    -0.222 NA
ATOM     16  C   UNL A   1      38.477  21.922  25.861  1.00  0.00     0.069 A 
ATOM     17  O   UNL A   1      37.337  20.091  24.968  1.00  0.00    -0.267 OA
ATOM     18  C   UNL A   1      38.339  23.236  26.296  1.00  0.00     0.079 A 
ATOM     19  C   UNL A   1      39.719  21.267  25.834  1.00  0.00     0.031 A 
ATOM     20  C   UNL A   1      39.492  23.897  26.737  1.00  0.00     0.030 A 
ATOM     21  C   UNL A   1      40.852  21.953  26.249  1.00  0.00     0.018 A 
ATOM     22  C   UNL A   1      40.745  23.264  26.710  1.00  0.00     0.018 A 
ATOM     23  Br  UNL A   1      42.547  21.126  26.125  1.00  0.00    -0.051 Br
BRANCH  13  24
ATOM     24  N   UNL A   1      35.106  21.446  24.483  1.00  0.00    -0.334 N 
ATOM     25  H   UNL A   1      34.882  20.506  24.675  1.00  0.00     0.178 HD
ATOM     26  H   UNL A   1      34.594  21.945  23.806  1.00  0.00     0.178 HD
ENDBRANCH  13  24
ENDBRANCH  11  12
ENDBRANCH  10  11
BRANCH  10  27
ATOM     27  C   UNL A   1      33.519  26.312  23.571  1.00  0.00    -0.023 A 
ATOM     28  C   UNL A   1      32.336  26.388  22.816  1.00  0.00     0.005 A 
ATOM     29  C   UNL A   1      34.062  27.509  24.081  1.00  0.00     0.005 A 
ATOM     30  C   UNL A   1      31.794  27.624  22.470  1.00  0.00     0.000 A 
ATOM     31  C   UNL A   1      33.517  28.744  23.733  1.00  0.00     0.000 A 
ATOM     32  C   UNL A   1      32.400  28.800  22.906  1.00  0.00     0.000 A 
ENDBRANCH  10  27
ENDBRANCH   8  10
ENDBRANCH   7   8
ENDBRANCH   6   7
ENDBRANCH   5   6
ENDBRANCH   4   5
ENDBRANCH   3   4
ENDBRANCH   2   3
ENDBRANCH   1   2
BRANCH   1  33
ATOM     33  C   UNL A   1      31.203  25.424  26.297  1.00  0.00     0.188 C 
BRANCH  33  34
ATOM     34  C   UNL A   1      31.857  26.673  26.897  1.00  0.00     0.188 C 
BRANCH  34  35
ATOM     35  O   UNL A   1      31.358  27.895  26.351  1.00  0.00    -0.376 OA
BRANCH  35  36
ATOM     36  C   UNL A   1      31.456  29.049  27.181  1.00  0.00     0.202 C 
BRANCH  36  37
ATOM     37  C   UNL A   1      32.489  30.115  26.789  1.00  0.00     0.261 C 
BRANCH  37  38
ATOM     38  O   UNL A   1      33.711  30.143  27.529  1.00  0.00    -0.460 OA
BRANCH  38  39
ATOM     39  C   UNL A   1      34.437  31.276  27.547  1.00  0.00     0.338 C 
ATOM     40  O   UNL A   1      34.082  32.387  27.196  1.00  0.00    -0.246 OA
BRANCH  39  41
ATOM     41  C   UNL A   1      35.664  30.941  28.298  1.00  0.00     0.060 A 
ATOM     42  C   UNL A   1      36.742  31.833  28.319  1.00  0.00     0.016 A 
ATOM     43  C   UNL A   1      35.779  29.665  28.861  1.00  0.00     0.016 A 
ATOM     44  C   UNL A   1      37.943  31.448  28.913  1.00  0.00     0.010 A 
ATOM     45  C   UNL A   1      36.991  29.269  29.425  1.00  0.00     0.010 A 
ATOM     46  C   UNL A   1      38.069  30.167  29.476  1.00  0.00    -0.014 A 
BRANCH  46  47
ATOM     47  C   UNL A   1      39.211  29.863  30.363  1.00  0.00     0.031 A 
ATOM     48  C   UNL A   1      40.277  28.877  30.007  1.00  0.00     0.074 A 
ATOM     49  C   UNL A   1      39.205  30.479  31.560  1.00  0.00     0.049 A 
ATOM     50  N   UNL A   1      41.319  28.521  30.714  1.00  0.00    -0.248 NA
ATOM     51  C   UNL A   1      40.169  28.197  28.708  1.00  0.00     0.031 C 
ATOM     52  C   UNL A   1      38.171  31.423  32.004  1.00  0.00     0.029 A 
ATOM     53  N   UNL A   1      40.060  30.395  32.622  1.00  0.00    -0.354 N 
ATOM     54  C   UNL A   1      41.991  27.571  29.957  1.00  0.00     0.074 A 
ATOM     55  C   UNL A   1      41.234  27.399  28.733  1.00  0.00     0.031 C 
ATOM     56  C   UNL A   1      38.447  31.816  33.254  1.00  0.00     0.029 A 
ATOM     57  C   UNL A   1      39.663  31.148  33.700  1.00  0.00     0.049 A 
ATOM     58  H   UNL A   1      40.879  29.848  32.616  1.00  0.00     0.167 HD
ATOM     59  C   UNL A   1      43.140  26.923  30.260  1.00  0.00     0.034 A 
ATOM     60  C   UNL A   1      40.214  31.288  34.918  1.00  0.00     0.034 A 
ATOM     61  C   UNL A   1      43.879  27.118  31.482  1.00  0.00     0.049 A 
ATOM     62  C   UNL A   1      41.491  30.569  35.217  1.00  0.00     0.074 A 
ATOM     63  C   UNL A   1      45.086  26.552  31.855  1.00  0.00     0.029 A 
ATOM     64  N   UNL A   1      43.478  27.929  32.533  1.00  0.00    -0.354 N 
ATOM     65  N   UNL A   1      42.178  29.768  34.438  1.00  0.00    -0.248 NA
ATOM     66  C   UNL A   1      42.088  30.791  36.538  1.00  0.00     0.031 C 
ATOM     67  C   UNL A   1      45.406  27.009  33.137  1.00  0.00     0.029 A 
ATOM     68  C   UNL A   1      44.409  27.874  33.556  1.00  0.00     0.049 A 
ATOM     69  H   UNL A   1      42.652  28.465  32.548  1.00  0.00     0.167 HD
ATOM     70  C   UNL A   1      43.303  29.409  35.166  1.00  0.00     0.074 A 
ATOM     71  C   UNL A   1      43.209  30.087  36.443  1.00  0.00     0.031 C 
ATOM     72  C   UNL A   1      44.315  28.583  34.807  1.00  0.00     0.034 A 
BRANCH  59  73
ATOM     73  C   UNL A   1      43.725  25.980  29.242  1.00  0.00     0.023 A 
ATOM     74  C   UNL A   1      43.478  24.599  29.372  1.00  0.00     0.012 A 
ATOM     75  C   UNL A   1      44.389  26.459  28.096  1.00  0.00     0.148 A 
ATOM     76  C   UNL A   1      43.887  23.707  28.380  1.00  0.00     0.002 A 
ATOM     77  C   UNL A   1      44.772  25.568  27.099  1.00  0.00     0.091 A 
ATOM     78  F   UNL A   1      44.615  27.777  27.995  1.00  0.00    -0.205 F 
ATOM     79  C   UNL A   1      44.523  24.192  27.240  1.00  0.00     0.022 A 
BRANCH  77  80
ATOM     80  S   UNL A   1      45.555  26.090  25.568  1.00  0.00     0.127 S 
ATOM     81  O   UNL A   1      44.729  27.238  25.193  1.00  0.00    -0.237 OA
ATOM     82  O   UNL A   1      46.906  26.430  26.013  1.00  0.00    -0.237 OA
ATOM     83  O   UNL A   1      45.475  24.951  24.664  1.00  0.00    -0.744 OA
ENDBRANCH  77  80
ENDBRANCH  59  73
BRANCH  60  84
ATOM     84  C   UNL A   1      39.581  32.220  35.885  1.00  0.00     0.023 A 
ATOM     85  C   UNL A   1      38.660  31.713  36.819  1.00  0.00     0.012 A 
ATOM     86  C   UNL A   1      39.982  33.568  35.964  1.00  0.00     0.148 A 
ATOM     87  C   UNL A   1      38.141  32.535  37.817  1.00  0.00     0.002 A 
ATOM     88  C   UNL A   1      39.490  34.372  36.984  1.00  0.00     0.091 A 
ATOM     89  F   UNL A   1      40.870  34.018  35.068  1.00  0.00    -0.205 F 
ATOM     90  C   UNL A   1      38.563  33.860  37.907  1.00  0.00     0.022 A 
BRANCH  88  91
ATOM     91  S   UNL A   1      40.055  36.056  37.251  1.00  0.00     0.127 S 
ATOM     92  O   UNL A   1      39.279  36.447  38.426  1.00  0.00    -0.237 OA
ATOM     93  O   UNL A   1      41.484  35.857  37.494  1.00  0.00    -0.237 OA
ATOM     94  O   UNL A   1      39.744  36.778  36.025  1.00  0.00    -0.744 OA
ENDBRANCH  88  91
ENDBRANCH  60  84
BRANCH  72  95
ATOM     95  C   UNL A   1      45.419  28.367  35.802  1.00  0.00     0.023 A 
ATOM     96  C   UNL A   1      46.483  29.287  35.866  1.00  0.00     0.012 A 
ATOM     97  C   UNL A   1      45.346  27.318  36.737  1.00  0.00     0.148 A 
ATOM     98  C   UNL A   1      47.465  29.162  36.845  1.00  0.00     0.002 A 
ATOM     99  C   UNL A   1      46.309  27.219  37.733  1.00  0.00     0.091 A 
ATOM    100  F   UNL A   1      44.329  26.449  36.643  1.00  0.00    -0.205 F 
ATOM    101  C   UNL A   1      47.372  28.137  37.785  1.00  0.00     0.022 A 
BRANCH  99 102
ATOM    102  S   UNL A   1      46.236  25.980  39.031  1.00  0.00     0.127 S 
ATOM    103  O   UNL A   1      46.026  24.754  38.259  1.00  0.00    -0.237 OA
ATOM    104  O   UNL A   1      47.559  26.096  39.643  1.00  0.00    -0.237 OA
ATOM    105  O   UNL A   1      45.129  26.363  39.895  1.00  0.00    -0.744 OA
ENDBRANCH  99 102
ENDBRANCH  72  95
ENDBRANCH  46  47
ENDBRANCH  39  41
ENDBRANCH  38  39
ENDBRANCH  37  38
ENDBRANCH  36  37
ENDBRANCH  35  36
ENDBRANCH  34  35
ENDBRANCH  33  34
ENDBRANCH   1  33
TORSDOF 27
ENDMDL
MODEL 3
REMARK VINA RESULT:      -8.8      3.649      8.640
REMARK SMILES Nn1c(S[C@@H](C(=O)OCCOCCOCCOCCOC(=O)c2ccc(-c3c4nc(c(-c5cccc(S(=O)(=O)[O-])c5F)c5ccc([nH]5)c(-c5cccc(S(=O)(=O)[O-])c5F)c5nc(c(-c6cccc(S(=O)(=O)[O-])c6F)c6ccc3[nH]6)C=C5)C=C4)cc2)c2ccccc2)nc2ccc(Br)cc2c1=O
REMARK SMILES IDX 14 1 13 2 12 3 11 4 10 5 9 6 8 7 6 8 7 9 5 10 4 11 3 12 2 13
REMARK SMILES IDX 100 14 92 15 99 16 101 17 93 18 98 19 94 20 96 21 95 22
REMARK SMILES IDX 97 23 1 24 86 27 87 28 91 29 88 30 90 31 89 32 15 33 16 34
REMARK SMILES IDX 17 35 18 36 19 37 20 38 21 39 22 40 23 41 24 42 85 43 25 44
REMARK SMILES IDX 84 45 26 46 27 47 28 48 78 49 29 50 83 51 77 52 79 53 30 54
REMARK SMILES IDX 82 55 76 56 75 57 31 59 63 60 43 61 62 62 44 63 47 64 61 65
REMARK SMILES IDX 80 66 45 67 46 68 60 70 81 71 48 72 32 73 33 74 41 75 34 76
REMARK SMILES IDX 36 77 42 78 35 79 37 80 38 81 39 82 40 83 64 84 65 85 73 86
REMARK SMILES IDX 66 87 68 88 74 89 67 90 69 91 70 92 71 93 72 94 49 95 50 96
REMARK SMILES IDX 58 97 51 98 53 99 59 100 52 101 54 102 55 103 56 104 57 105
REMARK H PARENT 1 25 1 26 79 58 47 69
REMARK Flexibility Score: inf
ROOT
ATOM      1  O   UNL A   1      33.517  23.048  26.784  1.00  0.00    -0.377 OA
ENDROOT
BRANCH   1   2
ATOM      2  C   UNL A   1      33.711  21.649  26.730  1.00  0.00     0.188 C 
BRANCH   2   3
ATOM      3  C   UNL A   1      34.881  20.947  26.006  1.00  0.00     0.188 C 
BRANCH   3   4
ATOM      4  O   UNL A   1      34.490  19.913  25.139  1.00  0.00    -0.376 OA
BRANCH   4   5
ATOM      5  C   UNL A   1      33.417  20.120  24.241  1.00  0.00     0.202 C 
BRANCH   5   6
ATOM      6  C   UNL A   1      32.088  20.797  24.645  1.00  0.00     0.261 C 
BRANCH   6   7
ATOM      7  O   UNL A   1      31.715  22.004  23.942  1.00  0.00    -0.462 OA
BRANCH   7   8
ATOM      8  C   UNL A   1      32.489  22.459  22.929  1.00  0.00     0.324 C 
ATOM      9  O   UNL A   1      32.640  21.813  21.893  1.00  0.00    -0.251 OA
BRANCH   8  10
ATOM     10  C   UNL A   1      33.199  23.821  23.177  1.00  0.00     0.194 C 
BRANCH  10  11
ATOM     11  S   UNL A   1      32.758  25.229  22.115  1.00  0.00    -0.066 SA
BRANCH  11  12
ATOM     12  C   UNL A   1      31.310  26.171  22.483  1.00  0.00     0.191 A 
ATOM     13  N   UNL A   1      30.275  25.802  23.349  1.00  0.00    -0.202 N 
ATOM     14  C   UNL A   1      29.199  26.650  23.646  1.00  0.00     0.280 A 
ATOM     15  N   UNL A   1      31.310  27.346  21.917  1.00  0.00    -0.222 NA
ATOM     16  C   UNL A   1      29.265  28.004  23.102  1.00  0.00     0.069 A 
ATOM     17  O   UNL A   1      28.255  26.321  24.365  1.00  0.00    -0.267 OA
ATOM     18  C   UNL A   1      30.322  28.293  22.245  1.00  0.00     0.079 A 
ATOM     19  C   UNL A   1      28.354  28.984  23.525  1.00  0.00     0.031 A 
ATOM     20  C   UNL A   1      30.445  29.611  21.788  1.00  0.00     0.030 A 
ATOM     21  C   UNL A   1      28.513  30.290  23.081  1.00  0.00     0.018 A 
ATOM     22  C   UNL A   1      29.550  30.608  22.206  1.00  0.00     0.018 A 
ATOM     23  Br  UNL A   1      27.359  31.644  23.720  1.00  0.00    -0.051 Br
BRANCH  13  24
ATOM     24  N   UNL A   1      30.243  24.591  24.043  1.00  0.00    -0.334 N 
ATOM     25  H   UNL A   1      30.264  24.586  25.027  1.00  0.00     0.178 HD
ATOM     26  H   UNL A   1      30.196  23.742  23.547  1.00  0.00     0.178 HD
ENDBRANCH  13  24
ENDBRANCH  11  12
ENDBRANCH  10  11
BRANCH  10  27
ATOM     27  C   UNL A   1      34.649  23.736  23.632  1.00  0.00    -0.023 A 
ATOM     28  C   UNL A   1      35.529  22.856  22.980  1.00  0.00     0.005 A 
ATOM     29  C   UNL A   1      35.126  24.447  24.752  1.00  0.00     0.005 A 
ATOM     30  C   UNL A   1      36.792  22.595  23.510  1.00  0.00     0.000 A 
ATOM     31  C   UNL A   1      36.389  24.184  25.278  1.00  0.00     0.000 A 
ATOM     32  C   UNL A   1      37.210  23.239  24.671  1.00  0.00     0.000 A 
ENDBRANCH  10  27
ENDBRANCH   8  10
ENDBRANCH   7   8
ENDBRANCH   6   7
ENDBRANCH   5   6
ENDBRANCH   4   5
ENDBRANCH   3   4
ENDBRANCH   2   3
ENDBRANCH   1   2
BRANCH   1  33
ATOM     33  C   UNL A   1      32.202  23.529  26.907  1.00  0.00     0.188 C 
BRANCH  33  34
ATOM     34  C   UNL A   1      32.126  25.015  27.273  1.00  0.00     0.188 C 
BRANCH  34  35
ATOM     35  O   UNL A   1      32.185  25.883  26.140  1.00  0.00    -0.376 OA
BRANCH  35  36
ATOM     36  C   UNL A   1      31.701  27.210  26.330  1.00  0.00     0.202 C 
BRANCH  36  37
ATOM     37  C   UNL A   1      32.672  28.365  26.046  1.00  0.00     0.261 C 
BRANCH  37  38
ATOM     38  O   UNL A   1      33.376  28.914  27.160  1.00  0.00    -0.460 OA
BRANCH  38  39
ATOM     39  C   UNL A   1      33.752  30.206  27.121  1.00  0.00     0.338 C 
ATOM     40  O   UNL A   1      33.053  31.173  26.879  1.00  0.00    -0.246 OA
BRANCH  39  41
ATOM     41  C   UNL A   1      35.126  30.229  27.664  1.00  0.00     0.060 A 
ATOM     42  C   UNL A   1      35.782  31.448  27.869  1.00  0.00     0.016 A 
ATOM     43  C   UNL A   1      35.802  29.015  27.832  1.00  0.00     0.016 A 
ATOM     44  C   UNL A   1      37.123  31.453  28.250  1.00  0.00     0.010 A 
ATOM     45  C   UNL A   1      37.152  29.022  28.180  1.00  0.00     0.010 A 
ATOM     46  C   UNL A   1      37.810  30.239  28.414  1.00  0.00    -0.014 A 
BRANCH  46  47
ATOM     47  C   UNL A   1      39.118  30.223  29.102  1.00  0.00     0.031 A 
ATOM     48  C   UNL A   1      40.307  29.486  28.572  1.00  0.00     0.074 A 
ATOM     49  C   UNL A   1      39.166  30.859  30.287  1.00  0.00     0.049 A 
ATOM     50  N   UNL A   1      41.501  29.392  29.097  1.00  0.00    -0.248 NA
ATOM     51  C   UNL A   1      40.147  28.760  27.304  1.00  0.00     0.031 C 
ATOM     52  C   UNL A   1      38.033  31.564  30.900  1.00  0.00     0.029 A 
ATOM     53  N   UNL A   1      40.178  30.999  31.196  1.00  0.00    -0.354 N 
ATOM     54  C   UNL A   1      42.238  28.591  28.235  1.00  0.00     0.074 A 
ATOM     55  C   UNL A   1      41.353  28.218  27.151  1.00  0.00     0.031 C 
ATOM     56  C   UNL A   1      38.410  32.047  32.089  1.00  0.00     0.029 A 
ATOM     57  C   UNL A   1      39.800  31.679  32.328  1.00  0.00     0.049 A 
ATOM     58  H   UNL A   1      41.086  30.647  31.054  1.00  0.00     0.167 HD
ATOM     59  C   UNL A   1      43.536  28.223  28.343  1.00  0.00     0.034 A 
ATOM     60  C   UNL A   1      40.493  31.975  33.441  1.00  0.00     0.034 A 
ATOM     61  C   UNL A   1      44.399  28.614  29.430  1.00  0.00     0.049 A 
ATOM     62  C   UNL A   1      41.930  31.565  33.524  1.00  0.00     0.074 A 
ATOM     63  C   UNL A   1      45.746  28.341  29.598  1.00  0.00     0.029 A 
ATOM     64  N   UNL A   1      44.000  29.348  30.537  1.00  0.00    -0.354 N 
ATOM     65  N   UNL A   1      42.645  30.913  32.639  1.00  0.00    -0.248 NA
ATOM     66  C   UNL A   1      42.665  31.954  34.732  1.00  0.00     0.031 C 
ATOM     67  C   UNL A   1      46.156  28.897  30.814  1.00  0.00     0.029 A 
ATOM     68  C   UNL A   1      45.071  29.532  31.395  1.00  0.00     0.049 A 
ATOM     69  H   UNL A   1      43.089  29.689  30.690  1.00  0.00     0.167 HD
ATOM     70  C   UNL A   1      43.922  30.833  33.172  1.00  0.00     0.074 A 
ATOM     71  C   UNL A   1      43.885  31.513  34.451  1.00  0.00     0.031 C 
ATOM     72  C   UNL A   1      45.023  30.242  32.648  1.00  0.00     0.034 A 
BRANCH  59  73
ATOM     73  C   UNL A   1      44.146  27.401  27.239  1.00  0.00     0.023 A 
ATOM     74  C   UNL A   1      44.761  28.062  26.157  1.00  0.00     0.012 A 
ATOM     75  C   UNL A   1      44.239  25.999  27.335  1.00  0.00     0.148 A 
ATOM     76  C   UNL A   1      45.453  27.341  25.184  1.00  0.00     0.002 A 
ATOM     77  C   UNL A   1      44.950  25.288  26.376  1.00  0.00     0.091 A 
ATOM     78  F   UNL A   1      43.643  25.391  28.372  1.00  0.00    -0.205 F 
ATOM     79  C   UNL A   1      45.557  25.957  25.299  1.00  0.00     0.022 A 
BRANCH  77  80
ATOM     80  S   UNL A   1      45.189  23.508  26.452  1.00  0.00     0.127 S 
ATOM     81  O   UNL A   1      45.494  23.314  27.870  1.00  0.00    -0.237 OA
ATOM     82  O   UNL A   1      43.881  23.004  26.036  1.00  0.00    -0.237 OA
ATOM     83  O   UNL A   1      46.282  23.207  25.540  1.00  0.00    -0.744 OA
ENDBRANCH  77  80
ENDBRANCH  59  73
BRANCH  60  84
ATOM     84  C   UNL A   1      39.832  32.773  34.504  1.00  0.00     0.023 A 
ATOM     85  C   UNL A   1      39.614  34.146  34.290  1.00  0.00     0.012 A 
ATOM     86  C   UNL A   1      39.310  32.156  35.657  1.00  0.00     0.148 A 
ATOM     87  C   UNL A   1      38.889  34.898  35.212  1.00  0.00     0.002 A 
ATOM     88  C   UNL A   1      38.557  32.903  36.554  1.00  0.00     0.091 A 
ATOM     89  F   UNL A   1      39.525  30.845  35.827  1.00  0.00    -0.205 F 
ATOM     90  C   UNL A   1      38.351  34.276  36.337  1.00  0.00     0.022 A 
BRANCH  88  91
ATOM     91  S   UNL A   1      37.731  32.173  37.972  1.00  0.00     0.127 S 
ATOM     92  O   UNL A   1      36.607  33.086  38.163  1.00  0.00    -0.237 OA
ATOM     93  O   UNL A   1      37.370  30.850  37.459  1.00  0.00    -0.237 OA
ATOM     94  O   UNL A   1      38.717  32.160  39.042  1.00  0.00    -0.744 OA
ENDBRANCH  88  91
ENDBRANCH  60  84
BRANCH  72  95
ATOM     95  C   UNL A   1      46.292  30.305  33.448  1.00  0.00     0.023 A 
ATOM     96  C   UNL A   1      46.604  29.257  34.335  1.00  0.00     0.012 A 
ATOM     97  C   UNL A   1      47.219  31.344  33.241  1.00  0.00     0.148 A 
ATOM     98  C   UNL A   1      47.822  29.245  35.012  1.00  0.00     0.002 A 
ATOM     99  C   UNL A   1      48.445  31.309  33.893  1.00  0.00     0.091 A 
ATOM    100  F   UNL A   1      46.888  32.336  32.402  1.00  0.00    -0.205 F 
ATOM    101  C   UNL A   1      48.746  30.263  34.782  1.00  0.00     0.022 A 
BRANCH  99 102
ATOM    102  S   UNL A   1      49.728  32.532  33.607  1.00  0.00     0.127 S 
ATOM    103  O   UNL A   1      49.062  33.765  34.027  1.00  0.00    -0.237 OA
ATOM    104  O   UNL A   1      50.792  32.078  34.503  1.00  0.00    -0.237 OA
ATOM    105  O   UNL A   1      50.052  32.457  32.190  1.00  0.00    -0.744 OA
ENDBRANCH  99 102
ENDBRANCH  72  95
ENDBRANCH  46  47
ENDBRANCH  39  41
ENDBRANCH  38  39
ENDBRANCH  37  38
ENDBRANCH  36  37
ENDBRANCH  35  36
ENDBRANCH  34  35
ENDBRANCH  33  34
ENDBRANCH   1  33
TORSDOF 27
ENDMDL
