MODEL 1
REMARK VINA RESULT:      -7.8      0.000      0.000
REMARK SMILES CCc1ccccc1NC(=O)CCN1C[C@H](C(=O)OCCOCCOCCOCCOC(=O)c2ccc(-c3c4nc(c(-c5cccc(S(=O)(=O)[O-])c5F)c5ccc([nH]5)c(-c5cccc(S(=O)(=O)[O-])c5F)c5nc(c(-c6cccc(S(=O)(=O)[O-])c6F)c6ccc3[nH]6)C=C5)C=C4)cc2)CC1=O
REMARK SMILES IDX 24 1 23 2 22 3 21 4 20 5 19 6 17 7 18 8 16 9 14 10 15 11
REMARK SMILES IDX 98 12 97 13 99 14 13 15 12 16 10 17 9 18 11 20 8 21 3 22
REMARK SMILES IDX 4 23 5 24 7 25 6 26 2 27 1 28 25 29 26 30 27 31 28 32 29 33
REMARK SMILES IDX 30 34 31 35 32 36 33 37 34 38 35 39 96 40 36 41 95 42 37 43
REMARK SMILES IDX 38 44 39 45 89 46 40 47 94 48 88 49 90 50 41 51 93 52 87 53
REMARK SMILES IDX 86 54 42 56 74 57 54 58 73 59 55 60 58 61 72 62 91 63 56 64
REMARK SMILES IDX 57 65 71 67 92 68 59 69 43 70 44 71 52 72 45 73 47 74 53 75
REMARK SMILES IDX 46 76 48 77 49 78 50 79 51 80 75 81 76 82 84 83 77 84 79 85
REMARK SMILES IDX 85 86 78 87 80 88 81 89 82 90 83 91 60 92 61 93 69 94 62 95
REMARK SMILES IDX 64 96 70 97 63 98 65 99 66 100 67 101 68 102
REMARK H PARENT 9 19 90 55 58 66
REMARK Flexibility Score: inf
ROOT
ATOM      1  C   UNL A   1      45.771  39.201  26.470  1.00  0.00     0.188 C 
ENDROOT
BRANCH   1   2
ATOM      2  C   UNL A   1      46.708  40.227  25.847  1.00  0.00     0.188 C 
BRANCH   2   3
ATOM      3  O   UNL A   1      47.945  40.391  26.507  1.00  0.00    -0.376 OA
BRANCH   3   4
ATOM      4  C   UNL A   1      48.024  41.271  27.625  1.00  0.00     0.202 C 
BRANCH   4   5
ATOM      5  C   UNL A   1      48.209  42.801  27.508  1.00  0.00     0.261 C 
BRANCH   5   6
ATOM      6  O   UNL A   1      47.641  43.455  26.338  1.00  0.00    -0.463 OA
BRANCH   6   7
ATOM      7  C   UNL A   1      46.422  44.310  26.485  1.00  0.00     0.311 C 
ATOM      8  O   UNL A   1      46.571  44.846  27.618  1.00  0.00    -0.252 OA
BRANCH   7   9
ATOM      9  C   UNL A   1      44.851  44.519  24.962  1.00  0.00     0.128 C 
ATOM     10  N   UNL A   1      44.946  44.487  22.441  1.00  0.00    -0.341 N 
ATOM     11  C   UNL A   1      44.789  45.452  23.494  1.00  0.00     0.135 C 
ATOM     12  C   UNL A   1      44.309  43.301  22.759  1.00  0.00     0.223 C 
ATOM     13  C   UNL A   1      43.789  43.433  24.171  1.00  0.00     0.117 C 
ATOM     14  O   UNL A   1      44.193  42.311  22.058  1.00  0.00    -0.275 OA
BRANCH  10  15
ATOM     15  C   UNL A   1      45.931  44.623  21.376  1.00  0.00     0.129 C 
BRANCH  15  16
ATOM     16  C   UNL A   1      45.387  44.870  19.960  1.00  0.00     0.122 C 
BRANCH  16  17
ATOM     17  C   UNL A   1      46.408  45.013  18.850  1.00  0.00     0.226 C 
ATOM     18  N   UNL A   1      46.092  45.484  17.605  1.00  0.00    -0.326 N 
ATOM     19  H   UNL A   1      46.826  45.441  16.952  1.00  0.00     0.169 HD
ATOM     20  O   UNL A   1      47.597  44.746  19.052  1.00  0.00    -0.275 OA
BRANCH  18  21
ATOM     21  C   UNL A   1      44.903  46.015  17.109  1.00  0.00     0.044 A 
ATOM     22  C   UNL A   1      44.778  47.806  17.060  1.00  0.00    -0.025 A 
ATOM     23  C   UNL A   1      43.194  48.601  16.668  1.00  0.00     0.006 A 
ATOM     24  C   UNL A   1      41.767  47.612  16.230  1.00  0.00     0.000 A 
ATOM     25  C   UNL A   1      43.470  45.014  16.744  1.00  0.00     0.026 A 
ATOM     26  C   UNL A   1      41.874  45.822  16.356  1.00  0.00     0.002 A 
BRANCH  22  27
ATOM     27  C   UNL A   1      46.013  48.685  17.052  1.00  0.00     0.034 C 
ATOM     28  C   UNL A   1      46.408  49.272  18.392  1.00  0.00     0.009 C 
ENDBRANCH  22  27
ENDBRANCH  18  21
ENDBRANCH  16  17
ENDBRANCH  15  16
ENDBRANCH  10  15
ENDBRANCH   7   9
ENDBRANCH   6   7
ENDBRANCH   5   6
ENDBRANCH   4   5
ENDBRANCH   3   4
ENDBRANCH   2   3
ENDBRANCH   1   2
BRANCH   1  29
ATOM     29  O   UNL A   1      46.362  38.006  26.947  1.00  0.00    -0.377 OA
BRANCH  29  30
ATOM     30  C   UNL A   1      46.331  36.835  26.156  1.00  0.00     0.188 C 
BRANCH  30  31
ATOM     31  C   UNL A   1      45.382  35.753  26.657  1.00  0.00     0.188 C 
BRANCH  31  32
ATOM     32  O   UNL A   1      45.894  34.740  27.531  1.00  0.00    -0.376 OA
BRANCH  32  33
ATOM     33  C   UNL A   1      45.627  34.797  28.928  1.00  0.00     0.202 C 
BRANCH  33  34
ATOM     34  C   UNL A   1      45.081  36.120  29.456  1.00  0.00     0.261 C 
BRANCH  34  35
ATOM     35  O   UNL A   1      45.814  36.617  30.579  1.00  0.00    -0.460 OA
BRANCH  35  36
ATOM     36  C   UNL A   1      45.319  37.764  31.101  1.00  0.00     0.338 C 
ATOM     37  O   UNL A   1      45.250  38.859  30.573  1.00  0.00    -0.246 OA
BRANCH  36  38
ATOM     38  C   UNL A   1      44.749  37.466  32.421  1.00  0.00     0.060 A 
ATOM     39  C   UNL A   1      45.163  36.314  33.103  1.00  0.00     0.016 A 
ATOM     40  C   UNL A   1      43.727  38.274  32.916  1.00  0.00     0.016 A 
ATOM     41  C   UNL A   1      44.506  35.929  34.262  1.00  0.00     0.010 A 
ATOM     42  C   UNL A   1      43.054  37.876  34.064  1.00  0.00     0.010 A 
ATOM     43  C   UNL A   1      43.410  36.675  34.701  1.00  0.00    -0.014 A 
BRANCH  43  44
ATOM     44  C   UNL A   1      42.501  36.092  35.701  1.00  0.00     0.031 A 
ATOM     45  C   UNL A   1      42.849  36.242  37.152  1.00  0.00     0.074 A 
ATOM     46  C   UNL A   1      41.394  35.444  35.308  1.00  0.00     0.049 A 
ATOM     47  N   UNL A   1      42.256  35.734  38.197  1.00  0.00    -0.248 NA
ATOM     48  C   UNL A   1      44.030  37.065  37.468  1.00  0.00     0.031 C 
ATOM     49  C   UNL A   1      40.961  35.279  33.922  1.00  0.00     0.029 A 
ATOM     50  N   UNL A   1      40.454  34.779  36.045  1.00  0.00    -0.354 N 
ATOM     51  C   UNL A   1      43.014  36.134  39.289  1.00  0.00     0.074 A 
ATOM     52  C   UNL A   1      44.116  36.920  38.781  1.00  0.00     0.031 C 
ATOM     53  C   UNL A   1      39.850  34.523  33.905  1.00  0.00     0.029 A 
ATOM     54  C   UNL A   1      39.531  34.120  35.271  1.00  0.00     0.049 A 
ATOM     55  H   UNL A   1      40.440  34.771  37.029  1.00  0.00     0.167 HD
ATOM     56  C   UNL A   1      42.805  35.867  40.598  1.00  0.00     0.034 A 
ATOM     57  C   UNL A   1      38.569  33.252  35.632  1.00  0.00     0.034 A 
ATOM     58  C   UNL A   1      41.703  35.081  41.081  1.00  0.00     0.049 A 
ATOM     59  C   UNL A   1      38.391  32.927  37.089  1.00  0.00     0.074 A 
ATOM     60  C   UNL A   1      41.370  34.783  42.389  1.00  0.00     0.029 A 
ATOM     61  N   UNL A   1      40.774  34.444  40.273  1.00  0.00    -0.354 N 
ATOM     62  N   UNL A   1      39.061  33.376  38.123  1.00  0.00    -0.248 NA
ATOM     63  C   UNL A   1      37.305  32.000  37.432  1.00  0.00     0.031 C 
ATOM     64  C   UNL A   1      40.278  33.912  42.369  1.00  0.00     0.029 A 
ATOM     65  C   UNL A   1      39.881  33.731  41.053  1.00  0.00     0.049 A 
ATOM     66  H   UNL A   1      40.751  34.492  39.290  1.00  0.00     0.167 HD
ATOM     67  C   UNL A   1      38.450  32.822  39.242  1.00  0.00     0.074 A 
ATOM     68  C   UNL A   1      37.346  32.018  38.756  1.00  0.00     0.031 C 
ATOM     69  C   UNL A   1      38.770  32.964  40.552  1.00  0.00     0.034 A 
BRANCH  56  70
ATOM     70  C   UNL A   1      43.797  36.406  41.593  1.00  0.00     0.023 A 
ATOM     71  C   UNL A   1      44.938  35.656  41.944  1.00  0.00     0.012 A 
ATOM     72  C   UNL A   1      43.616  37.687  42.149  1.00  0.00     0.148 A 
ATOM     73  C   UNL A   1      45.862  36.156  42.859  1.00  0.00     0.002 A 
ATOM     74  C   UNL A   1      44.568  38.203  43.019  1.00  0.00     0.091 A 
ATOM     75  F   UNL A   1      42.512  38.376  41.822  1.00  0.00    -0.205 F 
ATOM     76  C   UNL A   1      45.684  37.433  43.386  1.00  0.00     0.022 A 
BRANCH  74  77
ATOM     77  S   UNL A   1      44.470  39.865  43.687  1.00  0.00     0.127 S 
ATOM     78  O   UNL A   1      45.312  39.754  44.878  1.00  0.00    -0.237 OA
ATOM     79  O   UNL A   1      45.045  40.663  42.605  1.00  0.00    -0.237 OA
ATOM     80  O   UNL A   1      43.059  40.115  43.949  1.00  0.00    -0.744 OA
ENDBRANCH  74  77
ENDBRANCH  56  70
BRANCH  57  81
ATOM     81  C   UNL A   1      37.710  32.624  34.595  1.00  0.00     0.023 A 
ATOM     82  C   UNL A   1      36.548  33.282  34.153  1.00  0.00     0.012 A 
ATOM     83  C   UNL A   1      38.049  31.373  34.043  1.00  0.00     0.148 A 
ATOM     84  C   UNL A   1      35.714  32.688  33.206  1.00  0.00     0.002 A 
ATOM     85  C   UNL A   1      37.247  30.814  33.060  1.00  0.00     0.091 A 
ATOM     86  F   UNL A   1      39.159  30.765  34.483  1.00  0.00    -0.205 F 
ATOM     87  C   UNL A   1      36.068  31.459  32.653  1.00  0.00     0.022 A 
BRANCH  85  88
ATOM     88  S   UNL A   1      37.692  29.301  32.204  1.00  0.00     0.127 S 
ATOM     89  O   UNL A   1      37.564  28.311  33.270  1.00  0.00    -0.237 OA
ATOM     90  O   UNL A   1      36.661  29.238  31.169  1.00  0.00    -0.237 OA
ATOM     91  O   UNL A   1      39.043  29.516  31.701  1.00  0.00    -0.744 OA
ENDBRANCH  85  88
ENDBRANCH  57  81
BRANCH  69  92
ATOM     92  C   UNL A   1      37.877  32.293  41.564  1.00  0.00     0.023 A 
ATOM     93  C   UNL A   1      38.257  31.072  42.156  1.00  0.00     0.012 A 
ATOM     94  C   UNL A   1      36.682  32.918  41.971  1.00  0.00     0.148 A 
ATOM     95  C   UNL A   1      37.435  30.462  43.105  1.00  0.00     0.002 A 
ATOM     96  C   UNL A   1      35.901  32.338  42.959  1.00  0.00     0.091 A 
ATOM     97  F   UNL A   1      36.334  34.074  41.385  1.00  0.00    -0.205 F 
ATOM     98  C   UNL A   1      36.266  31.101  43.515  1.00  0.00     0.022 A 
BRANCH  96  99
ATOM     99  S   UNL A   1      34.434  33.133  43.621  1.00  0.00     0.127 S 
ATOM    100  O   UNL A   1      33.496  32.999  42.508  1.00  0.00    -0.237 OA
ATOM    101  O   UNL A   1      34.129  32.298  44.782  1.00  0.00    -0.237 OA
ATOM    102  O   UNL A   1      34.824  34.500  43.941  1.00  0.00    -0.744 OA
ENDBRANCH  96  99
ENDBRANCH  69  92
ENDBRANCH  43  44
ENDBRANCH  36  38
ENDBRANCH  35  36
ENDBRANCH  34  35
ENDBRANCH  33  34
ENDBRANCH  32  33
ENDBRANCH  31  32
ENDBRANCH  30  31
ENDBRANCH  29  30
ENDBRANCH   1  29
TORSDOF 28
ENDMDL
MODEL 2
REMARK VINA RESULT:      -7.6     10.278     16.011
REMARK SMILES CCc1ccccc1NC(=O)CCN1C[C@H](C(=O)OCCOCCOCCOCCOC(=O)c2ccc(-c3c4nc(c(-c5cccc(S(=O)(=O)[O-])c5F)c5ccc([nH]5)c(-c5cccc(S(=O)(=O)[O-])c5F)c5nc(c(-c6cccc(S(=O)(=O)[O-])c6F)c6ccc3[nH]6)C=C5)C=C4)cc2)CC1=O
REMARK SMILES IDX 24 1 23 2 22 3 21 4 20 5 19 6 17 7 18 8 16 9 14 10 15 11
REMARK SMILES IDX 98 12 97 13 99 14 13 15 12 16 10 17 9 18 11 20 8 21 3 22
REMARK SMILES IDX 4 23 5 24 7 25 6 26 2 27 1 28 25 29 26 30 27 31 28 32 29 33
REMARK SMILES IDX 30 34 31 35 32 36 33 37 34 38 35 39 96 40 36 41 95 42 37 43
REMARK SMILES IDX 38 44 39 45 89 46 40 47 94 48 88 49 90 50 41 51 93 52 87 53
REMARK SMILES IDX 86 54 42 56 74 57 54 58 73 59 55 60 58 61 72 62 91 63 56 64
REMARK SMILES IDX 57 65 71 67 92 68 59 69 43 70 44 71 52 72 45 73 47 74 53 75
REMARK SMILES IDX 46 76 48 77 49 78 50 79 51 80 75 81 76 82 84 83 77 84 79 85
REMARK SMILES IDX 85 86 78 87 80 88 81 89 82 90 83 91 60 92 61 93 69 94 62 95
REMARK SMILES IDX 64 96 70 97 63 98 65 99 66 100 67 101 68 102
REMARK H PARENT 9 19 90 55 58 66
REMARK Flexibility Score: inf
ROOT
ATOM      1  C   UNL A   1      46.520  28.815  28.207  1.00  0.00     0.188 C 
ENDROOT
BRANCH   1   2
ATOM      2  C   UNL A   1      47.654  29.603  27.566  1.00  0.00     0.188 C 
BRANCH   2   3
ATOM      3  O   UNL A   1      47.828  29.391  26.181  1.00  0.00    -0.376 OA
BRANCH   3   4
ATOM      4  C   UNL A   1      46.741  28.878  25.415  1.00  0.00     0.202 C 
BRANCH   4   5
ATOM      5  C   UNL A   1      46.908  28.120  24.079  1.00  0.00     0.261 C 
BRANCH   5   6
ATOM      6  O   UNL A   1      46.865  26.665  24.126  1.00  0.00    -0.463 OA
BRANCH   6   7
ATOM      7  C   UNL A   1      48.143  25.888  24.156  1.00  0.00     0.311 C 
ATOM      8  O   UNL A   1      47.785  24.717  23.848  1.00  0.00    -0.252 OA
BRANCH   7   9
ATOM      9  C   UNL A   1      50.117  26.744  24.601  1.00  0.00     0.128 C 
ATOM     10  N   UNL A   1      52.360  25.663  25.012  1.00  0.00    -0.341 N 
ATOM     11  C   UNL A   1      51.325  26.304  25.775  1.00  0.00     0.135 C 
ATOM     12  C   UNL A   1      52.510  26.270  23.778  1.00  0.00     0.223 C 
ATOM     13  C   UNL A   1      51.425  27.312  23.651  1.00  0.00     0.117 C 
ATOM     14  O   UNL A   1      53.341  26.015  22.924  1.00  0.00    -0.275 OA
BRANCH  10  15
ATOM     15  C   UNL A   1      52.904  24.355  25.349  1.00  0.00     0.129 C 
BRANCH  15  16
ATOM     16  C   UNL A   1      54.425  24.271  25.553  1.00  0.00     0.122 C 
BRANCH  16  17
ATOM     17  C   UNL A   1      55.005  25.054  26.713  1.00  0.00     0.226 C 
ATOM     18  N   UNL A   1      56.309  24.939  27.109  1.00  0.00    -0.326 N 
ATOM     19  H   UNL A   1      56.533  25.433  27.930  1.00  0.00     0.169 HD
ATOM     20  O   UNL A   1      54.314  25.876  27.323  1.00  0.00    -0.275 OA
BRANCH  18  21
ATOM     21  C   UNL A   1      57.373  24.239  26.543  1.00  0.00     0.044 A 
ATOM     22  C   UNL A   1      58.415  25.146  25.395  1.00  0.00    -0.025 A 
ATOM     23  C   UNL A   1      59.671  24.273  24.417  1.00  0.00     0.006 A 
ATOM     24  C   UNL A   1      59.952  22.521  24.657  1.00  0.00     0.000 A 
ATOM     25  C   UNL A   1      57.592  22.478  26.741  1.00  0.00     0.026 A 
ATOM     26  C   UNL A   1      58.856  21.604  25.747  1.00  0.00     0.002 A 
BRANCH  22  27
ATOM     27  C   UNL A   1      58.486  26.659  25.418  1.00  0.00     0.034 C 
ATOM     28  C   UNL A   1      59.140  27.266  26.644  1.00  0.00     0.009 C 
ENDBRANCH  22  27
ENDBRANCH  18  21
ENDBRANCH  16  17
ENDBRANCH  15  16
ENDBRANCH  10  15
ENDBRANCH   7   9
ENDBRANCH   6   7
ENDBRANCH   5   6
ENDBRANCH   4   5
ENDBRANCH   3   4
ENDBRANCH   2   3
ENDBRANCH   1   2
BRANCH   1  29
ATOM     29  O   UNL A   1      46.818  27.492  28.617  1.00  0.00    -0.377 OA
BRANCH  29  30
ATOM     30  C   UNL A   1      48.134  27.150  29.003  1.00  0.00     0.188 C 
BRANCH  30  31
ATOM     31  C   UNL A   1      48.474  27.465  30.455  1.00  0.00     0.188 C 
BRANCH  31  32
ATOM     32  O   UNL A   1      49.810  27.227  30.915  1.00  0.00    -0.376 OA
BRANCH  32  33
ATOM     33  C   UNL A   1      50.271  27.830  32.119  1.00  0.00     0.202 C 
BRANCH  33  34
ATOM     34  C   UNL A   1      50.317  26.928  33.349  1.00  0.00     0.261 C 
BRANCH  34  35
ATOM     35  O   UNL A   1      49.060  26.311  33.635  1.00  0.00    -0.460 OA
BRANCH  35  36
ATOM     36  C   UNL A   1      48.555  26.618  34.853  1.00  0.00     0.338 C 
ATOM     37  O   UNL A   1      49.112  26.546  35.934  1.00  0.00    -0.246 OA
BRANCH  36  38
ATOM     38  C   UNL A   1      47.212  27.181  34.672  1.00  0.00     0.060 A 
ATOM     39  C   UNL A   1      46.091  26.399  34.983  1.00  0.00     0.016 A 
ATOM     40  C   UNL A   1      47.077  28.440  34.089  1.00  0.00     0.016 A 
ATOM     41  C   UNL A   1      44.824  26.851  34.651  1.00  0.00     0.010 A 
ATOM     42  C   UNL A   1      45.809  28.883  33.736  1.00  0.00     0.010 A 
ATOM     43  C   UNL A   1      44.692  28.062  33.967  1.00  0.00    -0.014 A 
BRANCH  43  44
ATOM     44  C   UNL A   1      43.416  28.376  33.304  1.00  0.00     0.031 A 
ATOM     45  C   UNL A   1      43.189  27.856  31.916  1.00  0.00     0.074 A 
ATOM     46  C   UNL A   1      42.491  29.111  33.939  1.00  0.00     0.049 A 
ATOM     47  N   UNL A   1      42.193  28.084  31.105  1.00  0.00    -0.248 NA
ATOM     48  C   UNL A   1      44.229  26.971  31.361  1.00  0.00     0.031 C 
ATOM     49  C   UNL A   1      42.613  29.629  35.300  1.00  0.00     0.029 A 
ATOM     50  N   UNL A   1      41.281  29.572  33.502  1.00  0.00    -0.354 N 
ATOM     51  C   UNL A   1      42.504  27.412  29.931  1.00  0.00     0.074 A 
ATOM     52  C   UNL A   1      43.787  26.774  30.129  1.00  0.00     0.031 C 
ATOM     53  C   UNL A   1      41.529  30.372  35.577  1.00  0.00     0.029 A 
ATOM     54  C   UNL A   1      40.670  30.414  34.398  1.00  0.00     0.049 A 
ATOM     55  H   UNL A   1      40.887  29.327  32.634  1.00  0.00     0.167 HD
ATOM     56  C   UNL A   1      41.782  27.336  28.791  1.00  0.00     0.034 A 
ATOM     57  C   UNL A   1      39.565  31.167  34.254  1.00  0.00     0.034 A 
ATOM     58  C   UNL A   1      40.509  27.980  28.615  1.00  0.00     0.049 A 
ATOM     59  C   UNL A   1      38.807  31.109  32.957  1.00  0.00     0.074 A 
ATOM     60  C   UNL A   1      39.669  27.936  27.518  1.00  0.00     0.029 A 
ATOM     61  N   UNL A   1      39.907  28.810  29.549  1.00  0.00    -0.354 N 
ATOM     62  N   UNL A   1      39.066  30.406  31.881  1.00  0.00    -0.248 NA
ATOM     63  C   UNL A   1      37.590  31.926  32.865  1.00  0.00     0.031 C 
ATOM     64  C   UNL A   1      38.592  28.791  27.763  1.00  0.00     0.029 A 
ATOM     65  C   UNL A   1      38.720  29.306  29.044  1.00  0.00     0.049 A 
ATOM     66  H   UNL A   1      40.271  29.015  30.440  1.00  0.00     0.167 HD
ATOM     67  C   UNL A   1      38.019  30.659  31.001  1.00  0.00     0.074 A 
ATOM     68  C   UNL A   1      37.118  31.569  31.680  1.00  0.00     0.031 C 
ATOM     69  C   UNL A   1      37.820  30.184  29.747  1.00  0.00     0.034 A 
BRANCH  56  70
ATOM     70  C   UNL A   1      42.358  26.553  27.643  1.00  0.00     0.023 A 
ATOM     71  C   UNL A   1      43.271  27.156  26.753  1.00  0.00     0.012 A 
ATOM     72  C   UNL A   1      42.024  25.195  27.474  1.00  0.00     0.148 A 
ATOM     73  C   UNL A   1      43.813  26.430  25.694  1.00  0.00     0.002 A 
ATOM     74  C   UNL A   1      42.609  24.463  26.449  1.00  0.00     0.091 A 
ATOM     75  F   UNL A   1      41.136  24.647  28.315  1.00  0.00    -0.205 F 
ATOM     76  C   UNL A   1      43.492  25.082  25.549  1.00  0.00     0.022 A 
BRANCH  74  77
ATOM     77  S   UNL A   1      42.322  22.705  26.229  1.00  0.00     0.127 S 
ATOM     78  O   UNL A   1      42.916  22.156  27.448  1.00  0.00    -0.237 OA
ATOM     79  O   UNL A   1      40.862  22.639  26.179  1.00  0.00    -0.237 OA
ATOM     80  O   UNL A   1      42.995  22.336  24.992  1.00  0.00    -0.744 OA
ENDBRANCH  74  77
ENDBRANCH  56  70
BRANCH  57  81
ATOM     81  C   UNL A   1      39.118  32.047  35.366  1.00  0.00     0.023 A 
ATOM     82  C   UNL A   1      38.160  31.583  36.287  1.00  0.00     0.012 A 
ATOM     83  C   UNL A   1      39.646  33.344  35.513  1.00  0.00     0.148 A 
ATOM     84  C   UNL A   1      37.706  32.410  37.313  1.00  0.00     0.002 A 
ATOM     85  C   UNL A   1      39.233  34.141  36.570  1.00  0.00     0.091 A 
ATOM     86  F   UNL A   1      40.554  33.763  34.621  1.00  0.00    -0.205 F 
ATOM     87  C   UNL A   1      38.249  33.684  37.460  1.00  0.00     0.022 A 
BRANCH  85  88
ATOM     88  S   UNL A   1      39.969  35.741  36.908  1.00  0.00     0.127 S 
ATOM     89  O   UNL A   1      41.381  35.393  37.049  1.00  0.00    -0.237 OA
ATOM     90  O   UNL A   1      39.630  36.480  35.693  1.00  0.00    -0.237 OA
ATOM     91  O   UNL A   1      39.315  36.229  38.116  1.00  0.00    -0.744 OA
ENDBRANCH  85  88
ENDBRANCH  57  81
BRANCH  69  92
ATOM     92  C   UNL A   1      36.547  30.580  29.046  1.00  0.00     0.023 A 
ATOM     93  C   UNL A   1      35.652  29.598  28.577  1.00  0.00     0.012 A 
ATOM     94  C   UNL A   1      36.212  31.942  28.912  1.00  0.00     0.148 A 
ATOM     95  C   UNL A   1      34.466  29.968  27.943  1.00  0.00     0.002 A 
ATOM     96  C   UNL A   1      35.003  32.302  28.336  1.00  0.00     0.091 A 
ATOM     97  F   UNL A   1      37.084  32.861  29.355  1.00  0.00    -0.205 F 
ATOM     98  C   UNL A   1      34.136  31.318  27.834  1.00  0.00     0.022 A 
BRANCH  96  99
ATOM     99  S   UNL A   1      34.449  34.007  28.244  1.00  0.00     0.127 S 
ATOM    100  O   UNL A   1      33.026  33.841  27.953  1.00  0.00    -0.237 OA
ATOM    101  O   UNL A   1      34.744  34.499  29.590  1.00  0.00    -0.237 OA
ATOM    102  O   UNL A   1      35.229  34.631  27.184  1.00  0.00    -0.744 OA
ENDBRANCH  96  99
ENDBRANCH  69  92
ENDBRANCH  43  44
ENDBRANCH  36  38
ENDBRANCH  35  36
ENDBRANCH  34  35
ENDBRANCH  33  34
ENDBRANCH  32  33
ENDBRANCH  31  32
ENDBRANCH  30  31
ENDBRANCH  29  30
ENDBRANCH   1  29
TORSDOF 28
ENDMDL
MODEL 3
REMARK VINA RESULT:      -7.4     10.449     15.349
REMARK SMILES CCc1ccccc1NC(=O)CCN1C[C@H](C(=O)OCCOCCOCCOCCOC(=O)c2ccc(-c3c4nc(c(-c5cccc(S(=O)(=O)[O-])c5F)c5ccc([nH]5)c(-c5cccc(S(=O)(=O)[O-])c5F)c5nc(c(-c6cccc(S(=O)(=O)[O-])c6F)c6ccc3[nH]6)C=C5)C=C4)cc2)CC1=O
REMARK SMILES IDX 24 1 23 2 22 3 21 4 20 5 19 6 17 7 18 8 16 9 14 10 15 11
REMARK SMILES IDX 98 12 97 13 99 14 13 15 12 16 10 17 9 18 11 20 8 21 3 22
REMARK SMILES IDX 4 23 5 24 7 25 6 26 2 27 1 28 25 29 26 30 27 31 28 32 29 33
REMARK SMILES IDX 30 34 31 35 32 36 33 37 34 38 35 39 96 40 36 41 95 42 37 43
REMARK SMILES IDX 38 44 39 45 89 46 40 47 94 48 88 49 90 50 41 51 93 52 87 53
REMARK SMILES IDX 86 54 42 56 74 57 54 58 73 59 55 60 58 61 72 62 91 63 56 64
REMARK SMILES IDX 57 65 71 67 92 68 59 69 43 70 44 71 52 72 45 73 47 74 53 75
REMARK SMILES IDX 46 76 48 77 49 78 50 79 51 80 75 81 76 82 84 83 77 84 79 85
REMARK SMILES IDX 85 86 78 87 80 88 81 89 82 90 83 91 60 92 61 93 69 94 62 95
REMARK SMILES IDX 64 96 70 97 63 98 65 99 66 100 67 101 68 102
REMARK H PARENT 9 19 90 55 58 66
REMARK Flexibility Score: inf
ROOT
ATOM      1  C   UNL A   1      46.478  28.766  28.155  1.00  0.00     0.188 C 
ENDROOT
BRANCH   1   2
ATOM      2  C   UNL A   1      47.662  29.463  27.500  1.00  0.00     0.188 C 
BRANCH   2   3
ATOM      3  O   UNL A   1      47.815  29.221  26.118  1.00  0.00    -0.376 OA
BRANCH   3   4
ATOM      4  C   UNL A   1      46.694  28.770  25.364  1.00  0.00     0.202 C 
BRANCH   4   5
ATOM      5  C   UNL A   1      46.801  28.089  23.980  1.00  0.00     0.261 C 
BRANCH   5   6
ATOM      6  O   UNL A   1      46.800  26.633  23.950  1.00  0.00    -0.463 OA
BRANCH   6   7
ATOM      7  C   UNL A   1      48.084  25.888  24.133  1.00  0.00     0.311 C 
ATOM      8  O   UNL A   1      47.758  24.683  23.945  1.00  0.00    -0.252 OA
BRANCH   7   9
ATOM      9  C   UNL A   1      50.022  26.828  24.570  1.00  0.00     0.128 C 
ATOM     10  N   UNL A   1      52.283  25.839  25.102  1.00  0.00    -0.341 N 
ATOM     11  C   UNL A   1      51.211  26.496  25.799  1.00  0.00     0.135 C 
ATOM     12  C   UNL A   1      52.448  26.372  23.837  1.00  0.00     0.223 C 
ATOM     13  C   UNL A   1      51.338  27.373  23.619  1.00  0.00     0.117 C 
ATOM     14  O   UNL A   1      53.308  26.089  23.021  1.00  0.00    -0.275 OA
BRANCH  10  15
ATOM     15  C   UNL A   1      52.853  24.570  25.533  1.00  0.00     0.129 C 
BRANCH  15  16
ATOM     16  C   UNL A   1      54.358  24.561  25.848  1.00  0.00     0.122 C 
BRANCH  16  17
ATOM     17  C   UNL A   1      54.871  25.646  26.773  1.00  0.00     0.226 C 
ATOM     18  N   UNL A   1      55.958  26.421  26.478  1.00  0.00    -0.326 N 
ATOM     19  H   UNL A   1      56.240  27.025  27.202  1.00  0.00     0.169 HD
ATOM     20  O   UNL A   1      54.281  25.902  27.828  1.00  0.00    -0.275 OA
BRANCH  18  21
ATOM     21  C   UNL A   1      56.733  26.498  25.323  1.00  0.00     0.044 A 
ATOM     22  C   UNL A   1      56.238  27.718  24.100  1.00  0.00    -0.025 A 
ATOM     23  C   UNL A   1      57.018  27.738  22.462  1.00  0.00     0.006 A 
ATOM     24  C   UNL A   1      58.356  26.609  22.080  1.00  0.00     0.000 A 
ATOM     25  C   UNL A   1      58.016  25.320  24.933  1.00  0.00     0.026 A 
ATOM     26  C   UNL A   1      58.794  25.341  23.276  1.00  0.00     0.002 A 
BRANCH  22  27
ATOM     27  C   UNL A   1      55.394  28.919  24.478  1.00  0.00     0.034 C 
ATOM     28  C   UNL A   1      54.496  29.459  23.383  1.00  0.00     0.009 C 
ENDBRANCH  22  27
ENDBRANCH  18  21
ENDBRANCH  16  17
ENDBRANCH  15  16
ENDBRANCH  10  15
ENDBRANCH   7   9
ENDBRANCH   6   7
ENDBRANCH   5   6
ENDBRANCH   4   5
ENDBRANCH   3   4
ENDBRANCH   2   3
ENDBRANCH   1   2
BRANCH   1  29
ATOM     29  O   UNL A   1      46.697  27.450  28.629  1.00  0.00    -0.377 OA
BRANCH  29  30
ATOM     30  C   UNL A   1      47.982  27.061  29.073  1.00  0.00     0.188 C 
BRANCH  30  31
ATOM     31  C   UNL A   1      48.355  27.565  30.462  1.00  0.00     0.188 C 
BRANCH  31  32
ATOM     32  O   UNL A   1      49.689  27.348  30.937  1.00  0.00    -0.376 OA
BRANCH  32  33
ATOM     33  C   UNL A   1      50.159  28.034  32.092  1.00  0.00     0.202 C 
BRANCH  33  34
ATOM     34  C   UNL A   1      50.250  27.211  33.373  1.00  0.00     0.261 C 
BRANCH  34  35
ATOM     35  O   UNL A   1      49.022  26.558  33.704  1.00  0.00    -0.460 OA
BRANCH  35  36
ATOM     36  C   UNL A   1      48.517  26.904  34.912  1.00  0.00     0.338 C 
ATOM     37  O   UNL A   1      49.075  26.872  35.993  1.00  0.00    -0.246 OA
BRANCH  36  38
ATOM     38  C   UNL A   1      47.170  27.453  34.713  1.00  0.00     0.060 A 
ATOM     39  C   UNL A   1      46.055  26.688  35.080  1.00  0.00     0.016 A 
ATOM     40  C   UNL A   1      47.026  28.677  34.061  1.00  0.00     0.016 A 
ATOM     41  C   UNL A   1      44.784  27.118  34.736  1.00  0.00     0.010 A 
ATOM     42  C   UNL A   1      45.753  29.097  33.697  1.00  0.00     0.010 A 
ATOM     43  C   UNL A   1      44.642  28.288  33.986  1.00  0.00    -0.014 A 
BRANCH  43  44
ATOM     44  C   UNL A   1      43.358  28.561  33.320  1.00  0.00     0.031 A 
ATOM     45  C   UNL A   1      43.159  28.054  31.923  1.00  0.00     0.074 A 
ATOM     46  C   UNL A   1      42.401  29.250  33.960  1.00  0.00     0.049 A 
ATOM     47  N   UNL A   1      42.159  28.255  31.110  1.00  0.00    -0.248 NA
ATOM     48  C   UNL A   1      44.236  27.219  31.362  1.00  0.00     0.031 C 
ATOM     49  C   UNL A   1      42.495  29.752  35.330  1.00  0.00     0.029 A 
ATOM     50  N   UNL A   1      41.176  29.670  33.522  1.00  0.00    -0.354 N 
ATOM     51  C   UNL A   1      42.503  27.613  29.928  1.00  0.00     0.074 A 
ATOM     52  C   UNL A   1      43.809  27.023  30.125  1.00  0.00     0.031 C 
ATOM     53  C   UNL A   1      41.381  30.448  35.611  1.00  0.00     0.029 A 
ATOM     54  C   UNL A   1      40.527  30.473  34.427  1.00  0.00     0.049 A 
ATOM     55  H   UNL A   1      40.796  29.422  32.648  1.00  0.00     0.167 HD
ATOM     56  C   UNL A   1      41.790  27.525  28.782  1.00  0.00     0.034 A 
ATOM     57  C   UNL A   1      39.394  31.185  34.287  1.00  0.00     0.034 A 
ATOM     58  C   UNL A   1      40.495  28.121  28.608  1.00  0.00     0.049 A 
ATOM     59  C   UNL A   1      38.647  31.116  32.985  1.00  0.00     0.074 A 
ATOM     60  C   UNL A   1      39.663  28.060  27.505  1.00  0.00     0.029 A 
ATOM     61  N   UNL A   1      39.855  28.913  29.550  1.00  0.00    -0.354 N 
ATOM     62  N   UNL A   1      38.939  30.440  31.900  1.00  0.00    -0.248 NA
ATOM     63  C   UNL A   1      37.399  31.886  32.898  1.00  0.00     0.031 C 
ATOM     64  C   UNL A   1      38.551  28.869  27.756  1.00  0.00     0.029 A 
ATOM     65  C   UNL A   1      38.652  29.369  29.045  1.00  0.00     0.049 A 
ATOM     66  H   UNL A   1      40.206  29.119  30.446  1.00  0.00     0.167 HD
ATOM     67  C   UNL A   1      37.888  30.665  31.018  1.00  0.00     0.074 A 
ATOM     68  C   UNL A   1      36.948  31.528  31.704  1.00  0.00     0.031 C 
ATOM     69  C   UNL A   1      37.715  30.201  29.756  1.00  0.00     0.034 A 
BRANCH  56  70
ATOM     70  C   UNL A   1      42.404  26.783  27.626  1.00  0.00     0.023 A 
ATOM     71  C   UNL A   1      43.061  27.483  26.595  1.00  0.00     0.012 A 
ATOM     72  C   UNL A   1      42.364  25.375  27.589  1.00  0.00     0.148 A 
ATOM     73  C   UNL A   1      43.637  26.797  25.527  1.00  0.00     0.002 A 
ATOM     74  C   UNL A   1      42.988  24.695  26.551  1.00  0.00     0.091 A 
ATOM     75  F   UNL A   1      41.714  24.728  28.567  1.00  0.00    -0.205 F 
ATOM     76  C   UNL A   1      43.611  25.404  25.512  1.00  0.00     0.022 A 
BRANCH  74  77
ATOM     77  S   UNL A   1      43.078  22.904  26.484  1.00  0.00     0.127 S 
ATOM     78  O   UNL A   1      44.439  22.697  25.989  1.00  0.00    -0.237 OA
ATOM     79  O   UNL A   1      42.876  22.536  27.885  1.00  0.00    -0.237 OA
ATOM     80  O   UNL A   1      42.019  22.478  25.580  1.00  0.00    -0.744 OA
ENDBRANCH  74  77
ENDBRANCH  56  70
BRANCH  57  81
ATOM     81  C   UNL A   1      38.907  32.030  35.409  1.00  0.00     0.023 A 
ATOM     82  C   UNL A   1      39.091  33.424  35.368  1.00  0.00     0.012 A 
ATOM     83  C   UNL A   1      38.258  31.450  36.516  1.00  0.00     0.148 A 
ATOM     84  C   UNL A   1      38.671  34.225  36.430  1.00  0.00     0.002 A 
ATOM     85  C   UNL A   1      37.791  32.257  37.541  1.00  0.00     0.091 A 
ATOM     86  F   UNL A   1      38.098  30.120  36.532  1.00  0.00    -0.205 F 
ATOM     87  C   UNL A   1      38.013  33.643  37.511  1.00  0.00     0.022 A 
BRANCH  85  88
ATOM     88  S   UNL A   1      36.824  31.610  38.907  1.00  0.00     0.127 S 
ATOM     89  O   UNL A   1      37.732  31.810  40.033  1.00  0.00    -0.237 OA
ATOM     90  O   UNL A   1      35.659  32.494  38.883  1.00  0.00    -0.237 OA
ATOM     91  O   UNL A   1      36.537  30.223  38.565  1.00  0.00    -0.744 OA
ENDBRANCH  85  88
ENDBRANCH  57  81
BRANCH  69  92
ATOM     92  C   UNL A   1      36.430  30.557  29.053  1.00  0.00     0.023 A 
ATOM     93  C   UNL A   1      35.588  29.548  28.546  1.00  0.00     0.012 A 
ATOM     94  C   UNL A   1      36.033  31.905  28.954  1.00  0.00     0.148 A 
ATOM     95  C   UNL A   1      34.391  29.881  27.910  1.00  0.00     0.002 A 
ATOM     96  C   UNL A   1      34.814  32.225  28.376  1.00  0.00     0.091 A 
ATOM     97  F   UNL A   1      36.857  32.851  29.433  1.00  0.00    -0.205 F 
ATOM     98  C   UNL A   1      33.999  31.216  27.837  1.00  0.00     0.022 A 
BRANCH  96  99
ATOM     99  S   UNL A   1      34.181  33.904  28.327  1.00  0.00     0.127 S 
ATOM    100  O   UNL A   1      34.264  34.294  29.733  1.00  0.00    -0.237 OA
ATOM    101  O   UNL A   1      35.144  34.570  27.451  1.00  0.00    -0.237 OA
ATOM    102  O   UNL A   1      32.831  33.813  27.788  1.00  0.00    -0.744 OA
ENDBRANCH  96  99
ENDBRANCH  69  92
ENDBRANCH  43  44
ENDBRANCH  36  38
ENDBRANCH  35  36
ENDBRANCH  34  35
ENDBRANCH  33  34
ENDBRANCH  32  33
ENDBRANCH  31  32
ENDBRANCH  30  31
ENDBRANCH  29  30
ENDBRANCH   1  29
TORSDOF 28
ENDMDL
