MODEL 1
REMARK VINA RESULT:      -9.3      0.000      0.000
REMARK SMILES Cc1cc2nc(SCC(=O)OCCOCCOCCOCCOC(=O)c3ccc(-c4c5nc(c(-c6cccc(S(=O)(=O)[O-])c6F)c6ccc([nH]6)c(-c6cccc(S(=O)(=O)[O-])c6F)c6nc(c(-c7cccc(S(=O)(=O)[O-])c7F)c7ccc4[nH]7)C=C6)C=C5)cc3)n(CC(C)C)c(=O)c2[nH]1
REMARK SMILES IDX 16 1 15 2 14 3 13 4 12 5 11 6 9 7 10 8 8 9 7 10 6 11 1 12
REMARK SMILES IDX 2 13 3 14 97 15 4 16 96 17 5 19 94 20 89 21 95 22 90 23
REMARK SMILES IDX 91 24 92 25 93 26 17 27 18 28 19 29 20 30 21 31 22 32 23 33
REMARK SMILES IDX 24 34 25 35 26 36 27 37 88 38 28 39 87 40 29 41 30 42 31 43
REMARK SMILES IDX 81 44 32 45 86 46 80 47 82 48 33 49 85 50 79 51 78 52 34 54
REMARK SMILES IDX 66 55 46 56 65 57 47 58 50 59 64 60 83 61 48 62 49 63 63 65
REMARK SMILES IDX 84 66 51 67 35 68 36 69 44 70 37 71 39 72 45 73 38 74 40 75
REMARK SMILES IDX 41 76 42 77 43 78 67 79 68 80 76 81 69 82 71 83 77 84 70 85
REMARK SMILES IDX 72 86 73 87 74 88 75 89 52 90 53 91 61 92 54 93 56 94 62 95
REMARK SMILES IDX 55 96 57 97 58 98 59 99 60 100
REMARK H PARENT 97 18 82 53 50 64
REMARK Flexibility Score: inf
ROOT
ATOM      1  C   UNL A   1      33.310  28.998  23.439  1.00  0.00     0.188 C 
ENDROOT
BRANCH   1   2
ATOM      2  C   UNL A   1      33.636  27.754  22.624  1.00  0.00     0.188 C 
BRANCH   2   3
ATOM      3  O   UNL A   1      32.552  26.833  22.631  1.00  0.00    -0.376 OA
BRANCH   3   4
ATOM      4  C   UNL A   1      32.559  25.771  21.686  1.00  0.00     0.202 C 
BRANCH   4   5
ATOM      5  C   UNL A   1      32.853  24.355  22.204  1.00  0.00     0.261 C 
BRANCH   5   6
ATOM      6  O   UNL A   1      32.374  24.092  23.543  1.00  0.00    -0.463 OA
BRANCH   6   7
ATOM      7  C   UNL A   1      31.040  23.887  23.714  1.00  0.00     0.316 C 
ATOM      8  O   UNL A   1      30.175  24.423  23.028  1.00  0.00    -0.251 OA
BRANCH   7   9
ATOM      9  C   UNL A   1      30.702  22.995  24.894  1.00  0.00     0.200 C 
BRANCH   9  10
ATOM     10  S   UNL A   1      32.029  22.581  25.996  1.00  0.00    -0.076 SA
BRANCH  10  11
ATOM     11  C   UNL A   1      33.080  21.202  25.694  1.00  0.00     0.172 A 
ATOM     12  C   UNL A   1      33.444  15.327  25.114  1.00  0.00     0.064 C 
ATOM     13  C   UNL A   1      33.416  16.812  25.032  1.00  0.00     0.014 A 
ATOM     14  C   UNL A   1      32.358  17.695  25.188  1.00  0.00     0.052 A 
ATOM     15  N   UNL A   1      34.555  17.562  24.808  1.00  0.00    -0.353 N 
ATOM     16  C   UNL A   1      32.922  18.975  25.213  1.00  0.00     0.097 A 
ATOM     17  C   UNL A   1      34.255  18.887  24.993  1.00  0.00     0.131 A 
ATOM     18  H   UNL A   1      35.438  17.204  24.557  1.00  0.00     0.166 HD
ATOM     19  N   UNL A   1      32.300  20.177  25.483  1.00  0.00    -0.222 NA
ATOM     20  C   UNL A   1      35.109  20.020  25.060  1.00  0.00     0.278 A 
ATOM     21  N   UNL A   1      34.488  21.160  25.624  1.00  0.00    -0.286 N 
ATOM     22  O   UNL A   1      36.273  19.983  24.671  1.00  0.00    -0.267 OA
BRANCH  21  23
ATOM     23  C   UNL A   1      35.441  22.202  26.018  1.00  0.00     0.131 C 
BRANCH  23  24
ATOM     24  C   UNL A   1      35.580  23.386  25.016  1.00  0.00     0.003 C 
ATOM     25  C   UNL A   1      35.169  24.753  25.570  1.00  0.00     0.009 C 
ATOM     26  C   UNL A   1      37.027  23.487  24.525  1.00  0.00     0.009 C 
ENDBRANCH  23  24
ENDBRANCH  21  23
ENDBRANCH  10  11
ENDBRANCH   9  10
ENDBRANCH   7   9
ENDBRANCH   6   7
ENDBRANCH   5   6
ENDBRANCH   4   5
ENDBRANCH   3   4
ENDBRANCH   2   3
ENDBRANCH   1   2
BRANCH   1  27
ATOM     27  O   UNL A   1      32.458  28.732  24.559  1.00  0.00    -0.377 OA
BRANCH  27  28
ATOM     28  C   UNL A   1      31.712  29.842  25.049  1.00  0.00     0.188 C 
BRANCH  28  29
ATOM     29  C   UNL A   1      31.859  30.110  26.568  1.00  0.00     0.188 C 
BRANCH  29  30
ATOM     30  O   UNL A   1      33.176  30.412  27.037  1.00  0.00    -0.376 OA
BRANCH  30  31
ATOM     31  C   UNL A   1      33.905  29.324  27.617  1.00  0.00     0.202 C 
BRANCH  31  32
ATOM     32  C   UNL A   1      35.428  29.503  27.601  1.00  0.00     0.261 C 
BRANCH  32  33
ATOM     33  O   UNL A   1      35.917  30.475  28.506  1.00  0.00    -0.460 OA
BRANCH  33  34
ATOM     34  C   UNL A   1      36.745  29.998  29.447  1.00  0.00     0.338 C 
ATOM     35  O   UNL A   1      36.745  30.275  30.635  1.00  0.00    -0.246 OA
BRANCH  34  36
ATOM     36  C   UNL A   1      37.732  29.113  28.836  1.00  0.00     0.060 A 
ATOM     37  C   UNL A   1      38.319  28.205  29.717  1.00  0.00     0.016 A 
ATOM     38  C   UNL A   1      38.318  29.485  27.618  1.00  0.00     0.016 A 
ATOM     39  C   UNL A   1      39.644  27.928  29.530  1.00  0.00     0.010 A 
ATOM     40  C   UNL A   1      39.652  29.206  27.435  1.00  0.00     0.010 A 
ATOM     41  C   UNL A   1      40.310  28.533  28.455  1.00  0.00    -0.014 A 
BRANCH  41  42
ATOM     42  C   UNL A   1      41.744  28.420  28.489  1.00  0.00     0.031 A 
ATOM     43  C   UNL A   1      42.260  27.265  27.753  1.00  0.00     0.074 A 
ATOM     44  C   UNL A   1      42.532  29.223  29.219  1.00  0.00     0.049 A 
ATOM     45  N   UNL A   1      42.639  26.133  28.243  1.00  0.00    -0.248 NA
ATOM     46  C   UNL A   1      42.190  27.332  26.291  1.00  0.00     0.031 C 
ATOM     47  C   UNL A   1      42.242  30.551  29.757  1.00  0.00     0.029 A 
ATOM     48  N   UNL A   1      43.836  29.019  29.540  1.00  0.00    -0.354 N 
ATOM     49  C   UNL A   1      43.061  25.406  27.144  1.00  0.00     0.074 A 
ATOM     50  C   UNL A   1      42.612  26.112  25.967  1.00  0.00     0.031 C 
ATOM     51  C   UNL A   1      43.409  31.127  30.129  1.00  0.00     0.029 A 
ATOM     52  C   UNL A   1      44.482  30.154  29.989  1.00  0.00     0.049 A 
ATOM     53  H   UNL A   1      44.280  28.144  29.458  1.00  0.00     0.167 HD
ATOM     54  C   UNL A   1      43.966  24.403  27.253  1.00  0.00     0.034 A 
ATOM     55  C   UNL A   1      45.821  30.275  30.125  1.00  0.00     0.034 A 
ATOM     56  C   UNL A   1      44.176  23.960  28.598  1.00  0.00     0.049 A 
ATOM     57  C   UNL A   1      46.377  28.903  30.277  1.00  0.00     0.074 A 
ATOM     58  C   UNL A   1      43.413  23.345  29.567  1.00  0.00     0.029 A 
ATOM     59  N   UNL A   1      45.281  24.471  29.231  1.00  0.00    -0.354 N 
ATOM     60  N   UNL A   1      46.155  28.124  31.301  1.00  0.00    -0.248 NA
ATOM     61  C   UNL A   1      46.986  28.253  29.125  1.00  0.00     0.031 C 
ATOM     62  C   UNL A   1      43.930  23.803  30.814  1.00  0.00     0.029 A 
ATOM     63  C   UNL A   1      44.967  24.700  30.546  1.00  0.00     0.049 A 
ATOM     64  H   UNL A   1      46.155  24.645  28.811  1.00  0.00     0.167 HD
ATOM     65  C   UNL A   1      46.230  26.834  30.791  1.00  0.00     0.074 A 
ATOM     66  C   UNL A   1      46.902  26.976  29.508  1.00  0.00     0.031 C 
ATOM     67  C   UNL A   1      45.490  25.814  31.318  1.00  0.00     0.034 A 
BRANCH  54  68
ATOM     68  C   UNL A   1      44.912  24.089  26.141  1.00  0.00     0.023 A 
ATOM     69  C   UNL A   1      44.885  22.813  25.557  1.00  0.00     0.012 A 
ATOM     70  C   UNL A   1      45.963  24.959  25.776  1.00  0.00     0.148 A 
ATOM     71  C   UNL A   1      45.843  22.439  24.609  1.00  0.00     0.002 A 
ATOM     72  C   UNL A   1      46.845  24.624  24.763  1.00  0.00     0.091 A 
ATOM     73  F   UNL A   1      46.181  26.078  26.483  1.00  0.00    -0.205 F 
ATOM     74  C   UNL A   1      46.804  23.356  24.185  1.00  0.00     0.022 A 
BRANCH  72  75
ATOM     75  S   UNL A   1      47.979  25.864  24.139  1.00  0.00     0.127 S 
ATOM     76  O   UNL A   1      48.384  25.289  22.862  1.00  0.00    -0.237 OA
ATOM     77  O   UNL A   1      47.129  27.052  24.042  1.00  0.00    -0.237 OA
ATOM     78  O   UNL A   1      49.001  25.953  25.177  1.00  0.00    -0.744 OA
ENDBRANCH  72  75
ENDBRANCH  54  68
BRANCH  55  79
ATOM     79  C   UNL A   1      46.680  31.458  29.888  1.00  0.00     0.023 A 
ATOM     80  C   UNL A   1      47.470  31.947  30.947  1.00  0.00     0.012 A 
ATOM     81  C   UNL A   1      46.941  31.950  28.588  1.00  0.00     0.148 A 
ATOM     82  C   UNL A   1      48.511  32.852  30.717  1.00  0.00     0.002 A 
ATOM     83  C   UNL A   1      47.959  32.873  28.368  1.00  0.00     0.091 A 
ATOM     84  F   UNL A   1      46.266  31.448  27.545  1.00  0.00    -0.205 F 
ATOM     85  C   UNL A   1      48.759  33.313  29.428  1.00  0.00     0.022 A 
BRANCH  83  86
ATOM     86  S   UNL A   1      48.291  33.517  26.722  1.00  0.00     0.127 S 
ATOM     87  O   UNL A   1      49.219  32.524  26.176  1.00  0.00    -0.237 OA
ATOM     88  O   UNL A   1      46.965  33.513  26.114  1.00  0.00    -0.237 OA
ATOM     89  O   UNL A   1      48.895  34.826  26.945  1.00  0.00    -0.744 OA
ENDBRANCH  83  86
ENDBRANCH  55  79
BRANCH  67  90
ATOM     90  C   UNL A   1      44.906  26.004  32.695  1.00  0.00     0.023 A 
ATOM     91  C   UNL A   1      45.629  25.659  33.854  1.00  0.00     0.012 A 
ATOM     92  C   UNL A   1      43.689  26.698  32.830  1.00  0.00     0.148 A 
ATOM     93  C   UNL A   1      45.141  25.981  35.122  1.00  0.00     0.002 A 
ATOM     94  C   UNL A   1      43.225  27.051  34.093  1.00  0.00     0.091 A 
ATOM     95  F   UNL A   1      43.022  27.035  31.715  1.00  0.00    -0.205 F 
ATOM     96  C   UNL A   1      43.945  26.686  35.242  1.00  0.00     0.022 A 
BRANCH  94  97
ATOM     97  S   UNL A   1      41.757  28.060  34.326  1.00  0.00     0.127 S 
ATOM     98  O   UNL A   1      41.099  27.391  35.448  1.00  0.00    -0.237 OA
ATOM     99  O   UNL A   1      42.326  29.371  34.647  1.00  0.00    -0.237 OA
ATOM    100  O   UNL A   1      41.033  28.018  33.063  1.00  0.00    -0.744 OA
ENDBRANCH  94  97
ENDBRANCH  67  90
ENDBRANCH  41  42
ENDBRANCH  34  36
ENDBRANCH  33  34
ENDBRANCH  32  33
ENDBRANCH  31  32
ENDBRANCH  30  31
ENDBRANCH  29  30
ENDBRANCH  28  29
ENDBRANCH  27  28
ENDBRANCH   1  27
TORSDOF 27
ENDMDL
MODEL 2
REMARK VINA RESULT:      -9.3      5.358      9.829
REMARK SMILES Cc1cc2nc(SCC(=O)OCCOCCOCCOCCOC(=O)c3ccc(-c4c5nc(c(-c6cccc(S(=O)(=O)[O-])c6F)c6ccc([nH]6)c(-c6cccc(S(=O)(=O)[O-])c6F)c6nc(c(-c7cccc(S(=O)(=O)[O-])c7F)c7ccc4[nH]7)C=C6)C=C5)cc3)n(CC(C)C)c(=O)c2[nH]1
REMARK SMILES IDX 16 1 15 2 14 3 13 4 12 5 11 6 9 7 10 8 8 9 7 10 6 11 1 12
REMARK SMILES IDX 2 13 3 14 97 15 4 16 96 17 5 19 94 20 89 21 95 22 90 23
REMARK SMILES IDX 91 24 92 25 93 26 17 27 18 28 19 29 20 30 21 31 22 32 23 33
REMARK SMILES IDX 24 34 25 35 26 36 27 37 88 38 28 39 87 40 29 41 30 42 31 43
REMARK SMILES IDX 81 44 32 45 86 46 80 47 82 48 33 49 85 50 79 51 78 52 34 54
REMARK SMILES IDX 66 55 46 56 65 57 47 58 50 59 64 60 83 61 48 62 49 63 63 65
REMARK SMILES IDX 84 66 51 67 35 68 36 69 44 70 37 71 39 72 45 73 38 74 40 75
REMARK SMILES IDX 41 76 42 77 43 78 67 79 68 80 76 81 69 82 71 83 77 84 70 85
REMARK SMILES IDX 72 86 73 87 74 88 75 89 52 90 53 91 61 92 54 93 56 94 62 95
REMARK SMILES IDX 55 96 57 97 58 98 59 99 60 100
REMARK H PARENT 97 18 82 53 50 64
REMARK Flexibility Score: inf
ROOT
ATOM      1  C   UNL A   1      32.546  29.785  26.091  1.00  0.00     0.188 C 
ENDROOT
BRANCH   1   2
ATOM      2  C   UNL A   1      31.819  28.467  26.321  1.00  0.00     0.188 C 
BRANCH   2   3
ATOM      3  O   UNL A   1      31.281  27.955  25.107  1.00  0.00    -0.376 OA
BRANCH   3   4
ATOM      4  C   UNL A   1      31.440  28.720  23.920  1.00  0.00     0.202 C 
BRANCH   4   5
ATOM      5  C   UNL A   1      31.215  28.010  22.577  1.00  0.00     0.261 C 
BRANCH   5   6
ATOM      6  O   UNL A   1      31.815  26.696  22.482  1.00  0.00    -0.463 OA
BRANCH   6   7
ATOM      7  C   UNL A   1      33.171  26.618  22.420  1.00  0.00     0.316 C 
ATOM      8  O   UNL A   1      33.846  27.150  21.543  1.00  0.00    -0.251 OA
BRANCH   7   9
ATOM      9  C   UNL A   1      33.785  25.735  23.491  1.00  0.00     0.200 C 
BRANCH   9  10
ATOM     10  S   UNL A   1      33.861  23.995  23.152  1.00  0.00    -0.076 SA
BRANCH  10  11
ATOM     11  C   UNL A   1      33.483  22.799  24.386  1.00  0.00     0.172 A 
ATOM     12  C   UNL A   1      32.748  17.060  25.612  1.00  0.00     0.064 C 
ATOM     13  C   UNL A   1      33.118  18.491  25.451  1.00  0.00     0.014 A 
ATOM     14  C   UNL A   1      33.536  19.184  24.324  1.00  0.00     0.052 A 
ATOM     15  N   UNL A   1      33.045  19.396  26.493  1.00  0.00    -0.353 N 
ATOM     16  C   UNL A   1      33.551  20.535  24.683  1.00  0.00     0.097 A 
ATOM     17  C   UNL A   1      33.242  20.659  25.996  1.00  0.00     0.131 A 
ATOM     18  H   UNL A   1      32.878  19.172  27.437  1.00  0.00     0.166 HD
ATOM     19  N   UNL A   1      33.765  21.632  23.874  1.00  0.00    -0.222 NA
ATOM     20  C   UNL A   1      33.083  21.925  26.620  1.00  0.00     0.278 A 
ATOM     21  N   UNL A   1      33.019  23.000  25.702  1.00  0.00    -0.286 N 
ATOM     22  O   UNL A   1      33.000  22.045  27.838  1.00  0.00    -0.267 OA
BRANCH  21  23
ATOM     23  C   UNL A   1      32.509  24.239  26.298  1.00  0.00     0.131 C 
BRANCH  23  24
ATOM     24  C   UNL A   1      30.989  24.500  26.085  1.00  0.00     0.003 C 
ATOM     25  C   UNL A   1      30.535  24.524  24.622  1.00  0.00     0.009 C 
ATOM     26  C   UNL A   1      30.169  23.435  26.819  1.00  0.00     0.009 C 
ENDBRANCH  23  24
ENDBRANCH  21  23
ENDBRANCH  10  11
ENDBRANCH   9  10
ENDBRANCH   7   9
ENDBRANCH   6   7
ENDBRANCH   5   6
ENDBRANCH   4   5
ENDBRANCH   3   4
ENDBRANCH   2   3
ENDBRANCH   1   2
BRANCH   1  27
ATOM     27  O   UNL A   1      32.401  30.707  27.177  1.00  0.00    -0.377 OA
BRANCH  27  28
ATOM     28  C   UNL A   1      33.575  31.427  27.542  1.00  0.00     0.188 C 
BRANCH  28  29
ATOM     29  C   UNL A   1      33.397  32.962  27.641  1.00  0.00     0.188 C 
BRANCH  29  30
ATOM     30  O   UNL A   1      34.559  33.716  27.999  1.00  0.00    -0.376 OA
BRANCH  30  31
ATOM     31  C   UNL A   1      34.340  35.088  28.347  1.00  0.00     0.202 C 
BRANCH  31  32
ATOM     32  C   UNL A   1      33.452  35.294  29.580  1.00  0.00     0.261 C 
BRANCH  32  33
ATOM     33  O   UNL A   1      33.538  34.264  30.547  1.00  0.00    -0.460 OA
BRANCH  33  34
ATOM     34  C   UNL A   1      34.366  34.524  31.569  1.00  0.00     0.338 C 
ATOM     35  O   UNL A   1      34.303  35.463  32.346  1.00  0.00    -0.246 OA
BRANCH  34  36
ATOM     36  C   UNL A   1      35.440  33.535  31.602  1.00  0.00     0.060 A 
ATOM     37  C   UNL A   1      35.234  32.487  32.497  1.00  0.00     0.016 A 
ATOM     38  C   UNL A   1      36.707  33.891  31.117  1.00  0.00     0.016 A 
ATOM     39  C   UNL A   1      36.331  32.014  33.160  1.00  0.00     0.010 A 
ATOM     40  C   UNL A   1      37.808  33.414  31.788  1.00  0.00     0.010 A 
ATOM     41  C   UNL A   1      37.583  32.575  32.871  1.00  0.00    -0.014 A 
BRANCH  41  42
ATOM     42  C   UNL A   1      38.629  32.231  33.796  1.00  0.00     0.031 A 
ATOM     43  C   UNL A   1      38.652  33.068  34.997  1.00  0.00     0.074 A 
ATOM     44  C   UNL A   1      39.570  31.310  33.539  1.00  0.00     0.049 A 
ATOM     45  N   UNL A   1      39.429  34.070  35.235  1.00  0.00    -0.248 NA
ATOM     46  C   UNL A   1      37.574  32.856  35.966  1.00  0.00     0.031 C 
ATOM     47  C   UNL A   1      39.542  30.215  32.571  1.00  0.00     0.029 A 
ATOM     48  N   UNL A   1      40.739  31.125  34.206  1.00  0.00    -0.354 N 
ATOM     49  C   UNL A   1      39.068  34.492  36.502  1.00  0.00     0.074 A 
ATOM     50  C   UNL A   1      37.827  33.832  36.834  1.00  0.00     0.031 C 
ATOM     51  C   UNL A   1      40.534  29.346  32.877  1.00  0.00     0.029 A 
ATOM     52  C   UNL A   1      41.335  29.904  33.956  1.00  0.00     0.049 A 
ATOM     53  H   UNL A   1      41.125  31.798  34.812  1.00  0.00     0.167 HD
ATOM     54  C   UNL A   1      39.929  35.161  37.306  1.00  0.00     0.034 A 
ATOM     55  C   UNL A   1      42.350  29.382  34.678  1.00  0.00     0.034 A 
ATOM     56  C   UNL A   1      41.081  35.669  36.623  1.00  0.00     0.049 A 
ATOM     57  C   UNL A   1      43.052  30.514  35.341  1.00  0.00     0.074 A 
ATOM     58  C   UNL A   1      41.313  36.603  35.637  1.00  0.00     0.029 A 
ATOM     59  N   UNL A   1      42.220  34.910  36.725  1.00  0.00    -0.354 N 
ATOM     60  N   UNL A   1      43.727  31.438  34.711  1.00  0.00    -0.248 NA
ATOM     61  C   UNL A   1      42.774  30.798  36.742  1.00  0.00     0.031 C 
ATOM     62  C   UNL A   1      42.476  36.153  34.945  1.00  0.00     0.029 A 
ATOM     63  C   UNL A   1      42.881  34.948  35.525  1.00  0.00     0.049 A 
ATOM     64  H   UNL A   1      42.514  34.420  37.527  1.00  0.00     0.167 HD
ATOM     65  C   UNL A   1      43.618  32.567  35.511  1.00  0.00     0.074 A 
ATOM     66  C   UNL A   1      43.174  32.071  36.804  1.00  0.00     0.031 C 
ATOM     67  C   UNL A   1      43.619  33.824  34.974  1.00  0.00     0.034 A 
BRANCH  54  68
ATOM     68  C   UNL A   1      39.866  35.026  38.793  1.00  0.00     0.023 A 
ATOM     69  C   UNL A   1      39.679  36.174  39.578  1.00  0.00     0.012 A 
ATOM     70  C   UNL A   1      40.173  33.817  39.454  1.00  0.00     0.148 A 
ATOM     71  C   UNL A   1      39.749  36.106  40.973  1.00  0.00     0.002 A 
ATOM     72  C   UNL A   1      40.137  33.734  40.836  1.00  0.00     0.091 A 
ATOM     73  F   UNL A   1      40.606  32.760  38.750  1.00  0.00    -0.205 F 
ATOM     74  C   UNL A   1      39.945  34.879  41.606  1.00  0.00     0.022 A 
BRANCH  72  75
ATOM     75  S   UNL A   1      40.251  32.126  41.622  1.00  0.00     0.127 S 
ATOM     76  O   UNL A   1      40.222  32.478  43.036  1.00  0.00    -0.237 OA
ATOM     77  O   UNL A   1      39.054  31.445  41.127  1.00  0.00    -0.237 OA
ATOM     78  O   UNL A   1      41.500  31.575  41.105  1.00  0.00    -0.744 OA
ENDBRANCH  72  75
ENDBRANCH  54  68
BRANCH  55  79
ATOM     79  C   UNL A   1      42.610  27.968  35.035  1.00  0.00     0.023 A 
ATOM     80  C   UNL A   1      41.568  27.210  35.606  1.00  0.00     0.012 A 
ATOM     81  C   UNL A   1      43.760  27.277  34.587  1.00  0.00     0.148 A 
ATOM     82  C   UNL A   1      41.645  25.816  35.686  1.00  0.00     0.002 A 
ATOM     83  C   UNL A   1      43.844  25.892  34.695  1.00  0.00     0.091 A 
ATOM     84  F   UNL A   1      44.734  27.954  33.964  1.00  0.00    -0.205 F 
ATOM     85  C   UNL A   1      42.781  25.155  35.227  1.00  0.00     0.022 A 
BRANCH  83  86
ATOM     86  S   UNL A   1      45.308  25.004  34.144  1.00  0.00     0.127 S 
ATOM     87  O   UNL A   1      45.083  24.891  32.701  1.00  0.00    -0.237 OA
ATOM     88  O   UNL A   1      46.383  25.912  34.525  1.00  0.00    -0.237 OA
ATOM     89  O   UNL A   1      45.261  23.727  34.847  1.00  0.00    -0.744 OA
ENDBRANCH  83  86
ENDBRANCH  55  79
BRANCH  67  90
ATOM     90  C   UNL A   1      44.141  33.992  33.570  1.00  0.00     0.023 A 
ATOM     91  C   UNL A   1      45.515  34.163  33.312  1.00  0.00     0.012 A 
ATOM     92  C   UNL A   1      43.261  33.799  32.488  1.00  0.00     0.148 A 
ATOM     93  C   UNL A   1      46.000  34.163  32.001  1.00  0.00     0.002 A 
ATOM     94  C   UNL A   1      43.754  33.761  31.188  1.00  0.00     0.091 A 
ATOM     95  F   UNL A   1      41.958  33.619  32.753  1.00  0.00    -0.205 F 
ATOM     96  C   UNL A   1      45.123  33.952  30.941  1.00  0.00     0.022 A 
BRANCH  94  97
ATOM     97  S   UNL A   1      42.707  33.377  29.778  1.00  0.00     0.127 S 
ATOM     98  O   UNL A   1      43.651  33.457  28.664  1.00  0.00    -0.237 OA
ATOM     99  O   UNL A   1      42.246  32.023  30.092  1.00  0.00    -0.237 OA
ATOM    100  O   UNL A   1      41.651  34.380  29.773  1.00  0.00    -0.744 OA
ENDBRANCH  94  97
ENDBRANCH  67  90
ENDBRANCH  41  42
ENDBRANCH  34  36
ENDBRANCH  33  34
ENDBRANCH  32  33
ENDBRANCH  31  32
ENDBRANCH  30  31
ENDBRANCH  29  30
ENDBRANCH  28  29
ENDBRANCH  27  28
ENDBRANCH   1  27
TORSDOF 27
ENDMDL
MODEL 3
REMARK VINA RESULT:      -9.3      2.899      6.786
REMARK SMILES Cc1cc2nc(SCC(=O)OCCOCCOCCOCCOC(=O)c3ccc(-c4c5nc(c(-c6cccc(S(=O)(=O)[O-])c6F)c6ccc([nH]6)c(-c6cccc(S(=O)(=O)[O-])c6F)c6nc(c(-c7cccc(S(=O)(=O)[O-])c7F)c7ccc4[nH]7)C=C6)C=C5)cc3)n(CC(C)C)c(=O)c2[nH]1
REMARK SMILES IDX 16 1 15 2 14 3 13 4 12 5 11 6 9 7 10 8 8 9 7 10 6 11 1 12
REMARK SMILES IDX 2 13 3 14 97 15 4 16 96 17 5 19 94 20 89 21 95 22 90 23
REMARK SMILES IDX 91 24 92 25 93 26 17 27 18 28 19 29 20 30 21 31 22 32 23 33
REMARK SMILES IDX 24 34 25 35 26 36 27 37 88 38 28 39 87 40 29 41 30 42 31 43
REMARK SMILES IDX 81 44 32 45 86 46 80 47 82 48 33 49 85 50 79 51 78 52 34 54
REMARK SMILES IDX 66 55 46 56 65 57 47 58 50 59 64 60 83 61 48 62 49 63 63 65
REMARK SMILES IDX 84 66 51 67 35 68 36 69 44 70 37 71 39 72 45 73 38 74 40 75
REMARK SMILES IDX 41 76 42 77 43 78 67 79 68 80 76 81 69 82 71 83 77 84 70 85
REMARK SMILES IDX 72 86 73 87 74 88 75 89 52 90 53 91 61 92 54 93 56 94 62 95
REMARK SMILES IDX 55 96 57 97 58 98 59 99 60 100
REMARK H PARENT 97 18 82 53 50 64
REMARK Flexibility Score: inf
ROOT
ATOM      1  C   UNL A   1      32.203  29.870  25.626  1.00  0.00     0.188 C 
ENDROOT
BRANCH   1   2
ATOM      2  C   UNL A   1      31.577  28.485  25.713  1.00  0.00     0.188 C 
BRANCH   2   3
ATOM      3  O   UNL A   1      31.653  27.806  24.465  1.00  0.00    -0.376 OA
BRANCH   3   4
ATOM      4  C   UNL A   1      32.925  27.656  23.851  1.00  0.00     0.202 C 
BRANCH   4   5
ATOM      5  C   UNL A   1      32.965  27.159  22.398  1.00  0.00     0.261 C 
BRANCH   5   6
ATOM      6  O   UNL A   1      32.314  25.885  22.180  1.00  0.00    -0.463 OA
BRANCH   6   7
ATOM      7  C   UNL A   1      32.911  25.003  21.333  1.00  0.00     0.316 C 
ATOM      8  O   UNL A   1      33.083  25.217  20.137  1.00  0.00    -0.251 OA
BRANCH   7   9
ATOM      9  C   UNL A   1      33.271  23.679  21.981  1.00  0.00     0.200 C 
BRANCH   9  10
ATOM     10  S   UNL A   1      31.959  22.788  22.774  1.00  0.00    -0.076 SA
BRANCH  10  11
ATOM     11  C   UNL A   1      32.276  21.642  24.071  1.00  0.00     0.172 A 
ATOM     12  C   UNL A   1      32.554  15.947  25.645  1.00  0.00     0.064 C 
ATOM     13  C   UNL A   1      32.717  17.383  25.293  1.00  0.00     0.014 A 
ATOM     14  C   UNL A   1      32.516  18.033  24.084  1.00  0.00     0.052 A 
ATOM     15  N   UNL A   1      33.084  18.336  26.223  1.00  0.00    -0.353 N 
ATOM     16  C   UNL A   1      32.614  19.401  24.359  1.00  0.00     0.097 A 
ATOM     17  C   UNL A   1      32.948  19.579  25.660  1.00  0.00     0.131 A 
ATOM     18  H   UNL A   1      33.393  18.154  27.140  1.00  0.00     0.166 HD
ATOM     19  N   UNL A   1      32.357  20.463  23.516  1.00  0.00    -0.222 NA
ATOM     20  C   UNL A   1      33.022  20.867  26.253  1.00  0.00     0.278 A 
ATOM     21  N   UNL A   1      32.470  21.891  25.445  1.00  0.00    -0.286 N 
ATOM     22  O   UNL A   1      33.511  21.046  27.364  1.00  0.00    -0.267 OA
BRANCH  21  23
ATOM     23  C   UNL A   1      32.222  23.135  26.178  1.00  0.00     0.131 C 
BRANCH  23  24
ATOM     24  C   UNL A   1      30.746  23.630  26.165  1.00  0.00     0.003 C 
ATOM     25  C   UNL A   1      29.810  22.900  27.133  1.00  0.00     0.009 C 
ATOM     26  C   UNL A   1      30.694  25.126  26.490  1.00  0.00     0.009 C 
ENDBRANCH  23  24
ENDBRANCH  21  23
ENDBRANCH  10  11
ENDBRANCH   9  10
ENDBRANCH   7   9
ENDBRANCH   6   7
ENDBRANCH   5   6
ENDBRANCH   4   5
ENDBRANCH   3   4
ENDBRANCH   2   3
ENDBRANCH   1   2
BRANCH   1  27
ATOM     27  O   UNL A   1      32.347  30.507  26.902  1.00  0.00    -0.377 OA
BRANCH  27  28
ATOM     28  C   UNL A   1      33.679  30.828  27.289  1.00  0.00     0.188 C 
BRANCH  28  29
ATOM     29  C   UNL A   1      33.907  32.309  27.683  1.00  0.00     0.188 C 
BRANCH  29  30
ATOM     30  O   UNL A   1      35.265  32.759  27.707  1.00  0.00    -0.376 OA
BRANCH  30  31
ATOM     31  C   UNL A   1      35.590  33.732  28.707  1.00  0.00     0.202 C 
BRANCH  31  32
ATOM     32  C   UNL A   1      34.873  33.526  30.047  1.00  0.00     0.261 C 
BRANCH  32  33
ATOM     33  O   UNL A   1      35.280  32.374  30.762  1.00  0.00    -0.460 OA
BRANCH  33  34
ATOM     34  C   UNL A   1      36.227  32.596  31.686  1.00  0.00     0.338 C 
ATOM     35  O   UNL A   1      36.486  33.655  32.234  1.00  0.00    -0.246 OA
BRANCH  34  36
ATOM     36  C   UNL A   1      36.989  31.373  31.920  1.00  0.00     0.060 A 
ATOM     37  C   UNL A   1      37.767  31.388  33.076  1.00  0.00     0.016 A 
ATOM     38  C   UNL A   1      37.232  30.507  30.844  1.00  0.00     0.016 A 
ATOM     39  C   UNL A   1      38.984  30.770  33.011  1.00  0.00     0.010 A 
ATOM     40  C   UNL A   1      38.458  29.889  30.782  1.00  0.00     0.010 A 
ATOM     41  C   UNL A   1      39.350  30.132  31.818  1.00  0.00    -0.014 A 
BRANCH  41  42
ATOM     42  C   UNL A   1      40.736  29.757  31.731  1.00  0.00     0.031 A 
ATOM     43  C   UNL A   1      41.527  30.625  30.858  1.00  0.00     0.074 A 
ATOM     44  C   UNL A   1      41.240  28.651  32.300  1.00  0.00     0.049 A 
ATOM     45  N   UNL A   1      41.884  30.391  29.640  1.00  0.00    -0.248 NA
ATOM     46  C   UNL A   1      41.809  31.974  31.353  1.00  0.00     0.031 C 
ATOM     47  C   UNL A   1      40.698  27.859  33.403  1.00  0.00     0.029 A 
ATOM     48  N   UNL A   1      42.439  28.071  32.039  1.00  0.00    -0.354 N 
ATOM     49  C   UNL A   1      42.631  31.498  29.281  1.00  0.00     0.074 A 
ATOM     50  C   UNL A   1      42.415  32.505  30.293  1.00  0.00     0.031 C 
ATOM     51  C   UNL A   1      41.677  27.048  33.868  1.00  0.00     0.029 A 
ATOM     52  C   UNL A   1      42.842  27.168  33.005  1.00  0.00     0.049 A 
ATOM     53  H   UNL A   1      42.974  28.275  31.238  1.00  0.00     0.167 HD
ATOM     54  C   UNL A   1      43.575  31.441  28.311  1.00  0.00     0.034 A 
ATOM     55  C   UNL A   1      44.089  26.658  33.109  1.00  0.00     0.034 A 
ATOM     56  C   UNL A   1      43.494  30.268  27.494  1.00  0.00     0.049 A 
ATOM     57  C   UNL A   1      44.723  26.757  31.767  1.00  0.00     0.074 A 
ATOM     58  C   UNL A   1      42.582  29.746  26.603  1.00  0.00     0.029 A 
ATOM     59  N   UNL A   1      44.355  29.250  27.820  1.00  0.00    -0.354 N 
ATOM     60  N   UNL A   1      44.335  26.088  30.715  1.00  0.00    -0.248 NA
ATOM     61  C   UNL A   1      45.655  27.843  31.500  1.00  0.00     0.031 C 
ATOM     62  C   UNL A   1      42.731  28.330  26.683  1.00  0.00     0.029 A 
ATOM     63  C   UNL A   1      43.709  28.055  27.642  1.00  0.00     0.049 A 
ATOM     64  H   UNL A   1      45.283  29.361  28.129  1.00  0.00     0.167 HD
ATOM     65  C   UNL A   1      44.659  26.900  29.636  1.00  0.00     0.074 A 
ATOM     66  C   UNL A   1      45.605  27.869  30.166  1.00  0.00     0.031 C 
ATOM     67  C   UNL A   1      43.916  26.893  28.489  1.00  0.00     0.034 A 
BRANCH  54  68
ATOM     68  C   UNL A   1      44.791  32.308  28.361  1.00  0.00     0.023 A 
ATOM     69  C   UNL A   1      45.725  32.120  29.391  1.00  0.00     0.012 A 
ATOM     70  C   UNL A   1      44.950  33.433  27.523  1.00  0.00     0.148 A 
ATOM     71  C   UNL A   1      46.803  32.998  29.549  1.00  0.00     0.002 A 
ATOM     72  C   UNL A   1      46.074  34.237  27.617  1.00  0.00     0.091 A 
ATOM     73  F   UNL A   1      43.959  33.797  26.695  1.00  0.00    -0.205 F 
ATOM     74  C   UNL A   1      46.998  34.038  28.641  1.00  0.00     0.022 A 
BRANCH  72  75
ATOM     75  S   UNL A   1      46.376  35.476  26.357  1.00  0.00     0.127 S 
ATOM     76  O   UNL A   1      46.476  34.663  25.151  1.00  0.00    -0.237 OA
ATOM     77  O   UNL A   1      45.179  36.314  26.442  1.00  0.00    -0.237 OA
ATOM     78  O   UNL A   1      47.595  36.140  26.808  1.00  0.00    -0.744 OA
ENDBRANCH  72  75
ENDBRANCH  54  68
BRANCH  55  79
ATOM     79  C   UNL A   1      44.859  26.321  34.329  1.00  0.00     0.023 A 
ATOM     80  C   UNL A   1      44.994  27.295  35.338  1.00  0.00     0.012 A 
ATOM     81  C   UNL A   1      45.234  24.994  34.639  1.00  0.00     0.148 A 
ATOM     82  C   UNL A   1      45.437  26.955  36.620  1.00  0.00     0.002 A 
ATOM     83  C   UNL A   1      45.702  24.665  35.908  1.00  0.00     0.091 A 
ATOM     84  F   UNL A   1      45.042  24.026  33.733  1.00  0.00    -0.205 F 
ATOM     85  C   UNL A   1      45.788  25.640  36.908  1.00  0.00     0.022 A 
BRANCH  83  86
ATOM     86  S   UNL A   1      46.196  22.983  36.310  1.00  0.00     0.127 S 
ATOM     87  O   UNL A   1      46.420  23.057  37.756  1.00  0.00    -0.237 OA
ATOM     88  O   UNL A   1      45.023  22.212  35.913  1.00  0.00    -0.237 OA
ATOM     89  O   UNL A   1      47.412  22.753  35.539  1.00  0.00    -0.744 OA
ENDBRANCH  83  86
ENDBRANCH  55  79
BRANCH  67  90
ATOM     90  C   UNL A   1      42.998  25.721  28.250  1.00  0.00     0.023 A 
ATOM     91  C   UNL A   1      41.639  25.766  28.616  1.00  0.00     0.012 A 
ATOM     92  C   UNL A   1      43.466  24.632  27.491  1.00  0.00     0.148 A 
ATOM     93  C   UNL A   1      40.767  24.737  28.250  1.00  0.00     0.002 A 
ATOM     94  C   UNL A   1      42.587  23.628  27.097  1.00  0.00     0.091 A 
ATOM     95  F   UNL A   1      44.760  24.614  27.135  1.00  0.00    -0.205 F 
ATOM     96  C   UNL A   1      41.238  23.674  27.483  1.00  0.00     0.022 A 
BRANCH  94  97
ATOM     97  S   UNL A   1      43.088  22.289  26.009  1.00  0.00     0.127 S 
ATOM     98  O   UNL A   1      44.434  21.986  26.493  1.00  0.00    -0.237 OA
ATOM     99  O   UNL A   1      42.089  21.259  26.300  1.00  0.00    -0.237 OA
ATOM    100  O   UNL A   1      43.018  22.821  24.654  1.00  0.00    -0.744 OA
ENDBRANCH  94  97
ENDBRANCH  67  90
ENDBRANCH  41  42
ENDBRANCH  34  36
ENDBRANCH  33  34
ENDBRANCH  32  33
ENDBRANCH  31  32
ENDBRANCH  30  31
ENDBRANCH  29  30
ENDBRANCH  28  29
ENDBRANCH  27  28
ENDBRANCH   1  27
TORSDOF 27
ENDMDL
