MODEL 1
REMARK VINA RESULT:      -8.7      0.000      0.000
REMARK SMILES [NH3+][C@H]1C=C[C@@H](C(=O)N2CCC(CC(=O)OCCOCCOCCOCCOC(=O)c3ccc(-c4c5nc(c(-c6cccc(S(=O)(=O)[O-])c6F)c6ccc([nH]6)c(-c6cccc(S(=O)(=O)[O-])c6F)c6nc(c(-c7cccc(S(=O)(=O)[O-])c7F)c7ccc4[nH]7)C=C6)C=C5)cc3)CC2)C1
REMARK SMILES IDX 21 1 20 2 19 3 18 4 17 5 16 6 15 7 13 8 14 9 12 10 11 11
REMARK SMILES IDX 6 12 7 13 8 14 9 15 94 16 10 17 93 18 5 19 2 20 3 21 95 22
REMARK SMILES IDX 4 23 1 24 22 28 23 29 24 30 25 31 26 32 27 33 28 34 29 35
REMARK SMILES IDX 30 36 31 37 92 38 32 39 91 40 33 41 34 42 35 43 85 44 36 45
REMARK SMILES IDX 90 46 84 47 86 48 37 49 89 50 83 51 82 52 38 54 70 55 50 56
REMARK SMILES IDX 69 57 51 58 54 59 68 60 87 61 52 62 53 63 67 65 88 66 55 67
REMARK SMILES IDX 39 68 40 69 48 70 41 71 43 72 49 73 42 74 44 75 45 76 46 77
REMARK SMILES IDX 47 78 71 79 72 80 80 81 73 82 75 83 81 84 74 85 76 86 77 87
REMARK SMILES IDX 78 88 79 89 56 90 57 91 65 92 58 93 60 94 66 95 59 96 61 97
REMARK SMILES IDX 62 98 63 99 64 100
REMARK H PARENT 1 25 1 26 1 27 86 53 54 64
REMARK Flexibility Score: inf
ROOT
ATOM      1  O   UNL A   1      34.513  33.996  28.172  1.00  0.00    -0.377 OA
ENDROOT
BRANCH   1   2
ATOM      2  C   UNL A   1      35.282  32.827  28.373  1.00  0.00     0.188 C 
BRANCH   2   3
ATOM      3  C   UNL A   1      34.842  31.545  27.658  1.00  0.00     0.188 C 
BRANCH   3   4
ATOM      4  O   UNL A   1      33.551  31.036  27.909  1.00  0.00    -0.376 OA
BRANCH   4   5
ATOM      5  C   UNL A   1      32.507  31.176  26.956  1.00  0.00     0.202 C 
BRANCH   5   6
ATOM      6  C   UNL A   1      31.880  30.027  26.142  1.00  0.00     0.261 C 
BRANCH   6   7
ATOM      7  O   UNL A   1      32.682  28.861  25.912  1.00  0.00    -0.463 OA
BRANCH   7   8
ATOM      8  C   UNL A   1      32.343  27.765  26.626  1.00  0.00     0.306 C 
ATOM      9  O   UNL A   1      31.536  27.769  27.555  1.00  0.00    -0.252 OA
BRANCH   8  10
ATOM     10  C   UNL A   1      32.976  26.468  26.176  1.00  0.00     0.126 C 
BRANCH  10  11
ATOM     11  C   UNL A   1      32.164  25.195  25.908  1.00  0.00     0.003 C 
ATOM     12  C   UNL A   1      32.540  21.549  24.251  1.00  0.00     0.229 C 
ATOM     13  O   UNL A   1      33.248  21.936  23.318  1.00  0.00    -0.274 OA
ATOM     14  N   UNL A   1      31.812  22.450  25.011  1.00  0.00    -0.342 N 
ATOM     15  C   UNL A   1      31.145  23.548  24.314  1.00  0.00     0.120 C 
ATOM     16  C   UNL A   1      32.120  22.699  26.408  1.00  0.00     0.120 C 
ATOM     17  C   UNL A   1      31.922  24.865  24.431  1.00  0.00     0.026 C 
ATOM     18  C   UNL A   1      32.883  24.011  26.583  1.00  0.00     0.026 C 
BRANCH  12  19
ATOM     19  C   UNL A   1      32.296  20.039  24.449  1.00  0.00     0.107 C 
ATOM     20  C   UNL A   1      32.918  17.797  23.672  1.00  0.00     0.205 C 
ATOM     21  C   UNL A   1      33.720  18.206  24.855  1.00  0.00     0.033 C 
ATOM     22  C   UNL A   1      32.241  19.107  23.238  1.00  0.00     0.087 C 
ATOM     23  C   UNL A   1      33.375  19.421  25.295  1.00  0.00    -0.012 C 
BRANCH  20  24
ATOM     24  N   UNL A   1      33.755  17.257  22.613  1.00  0.00    -0.352 N 
ATOM     25  H   UNL A   1      33.615  16.249  22.550  1.00  0.00     0.345 HD
ATOM     26  H   UNL A   1      34.734  17.452  22.820  1.00  0.00     0.345 HD
ATOM     27  H   UNL A   1      33.503  17.692  21.725  1.00  0.00     0.345 HD
ENDBRANCH  20  24
ENDBRANCH  12  19
ENDBRANCH  10  11
ENDBRANCH   8  10
ENDBRANCH   7   8
ENDBRANCH   6   7
ENDBRANCH   5   6
ENDBRANCH   4   5
ENDBRANCH   3   4
ENDBRANCH   2   3
ENDBRANCH   1   2
BRANCH   1  28
ATOM     28  C   UNL A   1      33.517  34.373  29.119  1.00  0.00     0.188 C 
BRANCH  28  29
ATOM     29  C   UNL A   1      33.292  35.852  29.496  1.00  0.00     0.188 C 
BRANCH  29  30
ATOM     30  O   UNL A   1      33.393  36.146  30.879  1.00  0.00    -0.376 OA
BRANCH  30  31
ATOM     31  C   UNL A   1      33.773  35.104  31.766  1.00  0.00     0.202 C 
BRANCH  31  32
ATOM     32  C   UNL A   1      35.263  34.964  32.112  1.00  0.00     0.261 C 
BRANCH  32  33
ATOM     33  O   UNL A   1      35.656  33.734  32.742  1.00  0.00    -0.460 OA
BRANCH  33  34
ATOM     34  C   UNL A   1      35.291  32.574  32.153  1.00  0.00     0.338 C 
ATOM     35  O   UNL A   1      34.188  32.269  31.748  1.00  0.00    -0.246 OA
BRANCH  34  36
ATOM     36  C   UNL A   1      36.520  31.792  31.907  1.00  0.00     0.060 A 
ATOM     37  C   UNL A   1      36.619  30.501  32.441  1.00  0.00     0.016 A 
ATOM     38  C   UNL A   1      37.573  32.340  31.172  1.00  0.00     0.016 A 
ATOM     39  C   UNL A   1      37.796  29.769  32.278  1.00  0.00     0.010 A 
ATOM     40  C   UNL A   1      38.757  31.613  31.027  1.00  0.00     0.010 A 
ATOM     41  C   UNL A   1      38.887  30.342  31.614  1.00  0.00    -0.014 A 
BRANCH  41  42
ATOM     42  C   UNL A   1      40.222  29.701  31.704  1.00  0.00     0.031 A 
ATOM     43  C   UNL A   1      41.140  30.119  32.822  1.00  0.00     0.074 A 
ATOM     44  C   UNL A   1      40.611  28.763  30.822  1.00  0.00     0.049 A 
ATOM     45  N   UNL A   1      42.363  29.738  33.077  1.00  0.00    -0.248 NA
ATOM     46  C   UNL A   1      40.604  31.102  33.779  1.00  0.00     0.031 C 
ATOM     47  C   UNL A   1      39.806  28.260  29.711  1.00  0.00     0.029 A 
ATOM     48  N   UNL A   1      41.800  28.087  30.712  1.00  0.00    -0.354 N 
ATOM     49  C   UNL A   1      42.755  30.452  34.204  1.00  0.00     0.074 A 
ATOM     50  C   UNL A   1      41.645  31.301  34.575  1.00  0.00     0.031 C 
ATOM     51  C   UNL A   1      40.536  27.372  29.013  1.00  0.00     0.029 A 
ATOM     52  C   UNL A   1      41.866  27.267  29.610  1.00  0.00     0.049 A 
ATOM     53  H   UNL A   1      42.535  28.178  31.360  1.00  0.00     0.167 HD
ATOM     54  C   UNL A   1      43.927  30.397  34.879  1.00  0.00     0.034 A 
ATOM     55  C   UNL A   1      42.894  26.542  29.125  1.00  0.00     0.034 A 
ATOM     56  C   UNL A   1      45.027  29.547  34.513  1.00  0.00     0.049 A 
ATOM     57  C   UNL A   1      44.209  26.540  29.865  1.00  0.00     0.074 A 
ATOM     58  C   UNL A   1      46.246  29.398  35.149  1.00  0.00     0.029 A 
ATOM     59  N   UNL A   1      45.049  28.716  33.403  1.00  0.00    -0.354 N 
ATOM     60  N   UNL A   1      44.531  27.144  30.984  1.00  0.00    -0.248 NA
ATOM     61  C   UNL A   1      45.294  25.730  29.291  1.00  0.00     0.031 C 
ATOM     62  C   UNL A   1      47.020  28.503  34.403  1.00  0.00     0.029 A 
ATOM     63  C   UNL A   1      46.265  28.060  33.329  1.00  0.00     0.049 A 
ATOM     64  H   UNL A   1      44.308  28.608  32.764  1.00  0.00     0.167 HD
ATOM     65  C   UNL A   1      45.835  26.753  31.269  1.00  0.00     0.074 A 
ATOM     66  C   UNL A   1      46.238  25.846  30.214  1.00  0.00     0.031 C 
ATOM     67  C   UNL A   1      46.633  27.117  32.303  1.00  0.00     0.034 A 
BRANCH  54  68
ATOM     68  C   UNL A   1      44.074  31.276  36.094  1.00  0.00     0.023 A 
ATOM     69  C   UNL A   1      43.811  30.750  37.375  1.00  0.00     0.012 A 
ATOM     70  C   UNL A   1      44.519  32.607  35.971  1.00  0.00     0.148 A 
ATOM     71  C   UNL A   1      43.954  31.544  38.512  1.00  0.00     0.002 A 
ATOM     72  C   UNL A   1      44.707  33.377  37.112  1.00  0.00     0.091 A 
ATOM     73  F   UNL A   1      44.743  33.094  34.744  1.00  0.00    -0.205 F 
ATOM     74  C   UNL A   1      44.412  32.852  38.381  1.00  0.00     0.022 A 
BRANCH  72  75
ATOM     75  S   UNL A   1      45.366  35.046  37.058  1.00  0.00     0.127 S 
ATOM     76  O   UNL A   1      45.318  35.429  38.468  1.00  0.00    -0.237 OA
ATOM     77  O   UNL A   1      46.713  34.826  36.532  1.00  0.00    -0.237 OA
ATOM     78  O   UNL A   1      44.484  35.801  36.179  1.00  0.00    -0.744 OA
ENDBRANCH  72  75
ENDBRANCH  54  68
BRANCH  55  79
ATOM     79  C   UNL A   1      42.728  25.735  27.882  1.00  0.00     0.023 A 
ATOM     80  C   UNL A   1      43.022  26.312  26.631  1.00  0.00     0.012 A 
ATOM     81  C   UNL A   1      42.266  24.406  27.932  1.00  0.00     0.148 A 
ATOM     82  C   UNL A   1      42.820  25.594  25.450  1.00  0.00     0.002 A 
ATOM     83  C   UNL A   1      42.123  23.677  26.756  1.00  0.00     0.091 A 
ATOM     84  F   UNL A   1      41.977  23.879  29.130  1.00  0.00    -0.205 F 
ATOM     85  C   UNL A   1      42.380  24.276  25.514  1.00  0.00     0.022 A 
BRANCH  83  86
ATOM     86  S   UNL A   1      41.676  21.938  26.746  1.00  0.00     0.127 S 
ATOM     87  O   UNL A   1      42.756  21.348  27.533  1.00  0.00    -0.237 OA
ATOM     88  O   UNL A   1      40.372  21.963  27.410  1.00  0.00    -0.237 OA
ATOM     89  O   UNL A   1      41.633  21.551  25.343  1.00  0.00    -0.744 OA
ENDBRANCH  83  86
ENDBRANCH  55  79
BRANCH  67  90
ATOM     90  C   UNL A   1      48.003  26.493  32.391  1.00  0.00     0.023 A 
ATOM     91  C   UNL A   1      49.118  27.149  31.833  1.00  0.00     0.012 A 
ATOM     92  C   UNL A   1      48.195  25.287  33.096  1.00  0.00     0.148 A 
ATOM     93  C   UNL A   1      50.394  26.597  31.941  1.00  0.00     0.002 A 
ATOM     94  C   UNL A   1      49.475  24.771  33.247  1.00  0.00     0.091 A 
ATOM     95  F   UNL A   1      47.119  24.670  33.608  1.00  0.00    -0.205 F 
ATOM     96  C   UNL A   1      50.574  25.416  32.658  1.00  0.00     0.022 A 
BRANCH  94  97
ATOM     97  S   UNL A   1      49.817  23.311  34.238  1.00  0.00     0.127 S 
ATOM     98  O   UNL A   1      50.287  22.367  33.225  1.00  0.00    -0.237 OA
ATOM     99  O   UNL A   1      50.853  23.794  35.151  1.00  0.00    -0.237 OA
ATOM    100  O   UNL A   1      48.559  22.957  34.882  1.00  0.00    -0.744 OA
ENDBRANCH  94  97
ENDBRANCH  67  90
ENDBRANCH  41  42
ENDBRANCH  34  36
ENDBRANCH  33  34
ENDBRANCH  32  33
ENDBRANCH  31  32
ENDBRANCH  30  31
ENDBRANCH  29  30
ENDBRANCH  28  29
ENDBRANCH   1  28
TORSDOF 26
ENDMDL
MODEL 2
REMARK VINA RESULT:      -8.6      5.093      7.599
REMARK SMILES [NH3+][C@H]1C=C[C@@H](C(=O)N2CCC(CC(=O)OCCOCCOCCOCCOC(=O)c3ccc(-c4c5nc(c(-c6cccc(S(=O)(=O)[O-])c6F)c6ccc([nH]6)c(-c6cccc(S(=O)(=O)[O-])c6F)c6nc(c(-c7cccc(S(=O)(=O)[O-])c7F)c7ccc4[nH]7)C=C6)C=C5)cc3)CC2)C1
REMARK SMILES IDX 21 1 20 2 19 3 18 4 17 5 16 6 15 7 13 8 14 9 12 10 11 11
REMARK SMILES IDX 6 12 7 13 8 14 9 15 94 16 10 17 93 18 5 19 2 20 3 21 95 22
REMARK SMILES IDX 4 23 1 24 22 28 23 29 24 30 25 31 26 32 27 33 28 34 29 35
REMARK SMILES IDX 30 36 31 37 92 38 32 39 91 40 33 41 34 42 35 43 85 44 36 45
REMARK SMILES IDX 90 46 84 47 86 48 37 49 89 50 83 51 82 52 38 54 70 55 50 56
REMARK SMILES IDX 69 57 51 58 54 59 68 60 87 61 52 62 53 63 67 65 88 66 55 67
REMARK SMILES IDX 39 68 40 69 48 70 41 71 43 72 49 73 42 74 44 75 45 76 46 77
REMARK SMILES IDX 47 78 71 79 72 80 80 81 73 82 75 83 81 84 74 85 76 86 77 87
REMARK SMILES IDX 78 88 79 89 56 90 57 91 65 92 58 93 60 94 66 95 59 96 61 97
REMARK SMILES IDX 62 98 63 99 64 100
REMARK H PARENT 1 25 1 26 1 27 86 53 54 64
REMARK Flexibility Score: inf
ROOT
ATOM      1  O   UNL A   1      34.590  34.582  28.750  1.00  0.00    -0.377 OA
ENDROOT
BRANCH   1   2
ATOM      2  C   UNL A   1      34.671  33.363  28.039  1.00  0.00     0.188 C 
BRANCH   2   3
ATOM      3  C   UNL A   1      34.385  32.064  28.801  1.00  0.00     0.188 C 
BRANCH   3   4
ATOM      4  O   UNL A   1      35.236  30.958  28.601  1.00  0.00    -0.376 OA
BRANCH   4   5
ATOM      5  C   UNL A   1      36.561  31.128  28.118  1.00  0.00     0.202 C 
BRANCH   5   6
ATOM      6  C   UNL A   1      37.447  30.014  27.526  1.00  0.00     0.261 C 
BRANCH   6   7
ATOM      7  O   UNL A   1      37.696  28.861  28.340  1.00  0.00    -0.463 OA
BRANCH   7   8
ATOM      8  C   UNL A   1      38.992  28.628  28.646  1.00  0.00     0.306 C 
ATOM      9  O   UNL A   1      39.832  29.512  28.808  1.00  0.00    -0.252 OA
BRANCH   8  10
ATOM     10  C   UNL A   1      39.366  27.177  28.852  1.00  0.00     0.126 C 
BRANCH  10  11
ATOM     11  C   UNL A   1      39.967  26.307  27.742  1.00  0.00     0.003 C 
ATOM     12  C   UNL A   1      43.504  24.860  26.486  1.00  0.00     0.229 C 
ATOM     13  O   UNL A   1      44.134  25.884  26.761  1.00  0.00    -0.274 OA
ATOM     14  N   UNL A   1      42.121  24.877  26.408  1.00  0.00    -0.342 N 
ATOM     15  C   UNL A   1      41.487  26.028  25.767  1.00  0.00     0.120 C 
ATOM     16  C   UNL A   1      41.291  24.166  27.364  1.00  0.00     0.120 C 
ATOM     17  C   UNL A   1      40.928  27.025  26.788  1.00  0.00     0.026 C 
ATOM     18  C   UNL A   1      40.695  25.118  28.398  1.00  0.00     0.026 C 
BRANCH  12  19
ATOM     19  C   UNL A   1      44.261  23.599  26.022  1.00  0.00     0.107 C 
ATOM     20  C   UNL A   1      44.802  22.195  24.085  1.00  0.00     0.205 C 
ATOM     21  C   UNL A   1      45.868  23.198  24.346  1.00  0.00     0.033 C 
ATOM     22  C   UNL A   1      43.642  22.679  24.968  1.00  0.00     0.087 C 
ATOM     23  C   UNL A   1      45.588  23.956  25.412  1.00  0.00    -0.012 C 
BRANCH  20  24
ATOM     24  N   UNL A   1      44.423  22.166  22.681  1.00  0.00    -0.352 N 
ATOM     25  H   UNL A   1      43.469  21.818  22.594  1.00  0.00     0.345 HD
ATOM     26  H   UNL A   1      45.057  21.552  22.170  1.00  0.00     0.345 HD
ATOM     27  H   UNL A   1      44.478  23.109  22.294  1.00  0.00     0.345 HD
ENDBRANCH  20  24
ENDBRANCH  12  19
ENDBRANCH  10  11
ENDBRANCH   8  10
ENDBRANCH   7   8
ENDBRANCH   6   7
ENDBRANCH   5   6
ENDBRANCH   4   5
ENDBRANCH   3   4
ENDBRANCH   2   3
ENDBRANCH   1   2
BRANCH   1  28
ATOM     28  C   UNL A   1      33.331  35.218  28.947  1.00  0.00     0.188 C 
BRANCH  28  29
ATOM     29  C   UNL A   1      33.240  36.707  29.337  1.00  0.00     0.188 C 
BRANCH  29  30
ATOM     30  O   UNL A   1      32.561  36.974  30.552  1.00  0.00    -0.376 OA
BRANCH  30  31
ATOM     31  C   UNL A   1      33.310  36.984  31.759  1.00  0.00     0.202 C 
BRANCH  31  32
ATOM     32  C   UNL A   1      33.417  35.670  32.548  1.00  0.00     0.261 C 
BRANCH  32  33
ATOM     33  O   UNL A   1      34.531  34.823  32.226  1.00  0.00    -0.460 OA
BRANCH  33  34
ATOM     34  C   UNL A   1      34.525  33.558  32.701  1.00  0.00     0.338 C 
ATOM     35  O   UNL A   1      33.558  32.854  32.910  1.00  0.00    -0.246 OA
BRANCH  34  36
ATOM     36  C   UNL A   1      35.927  33.093  32.750  1.00  0.00     0.060 A 
ATOM     37  C   UNL A   1      36.797  33.665  33.686  1.00  0.00     0.016 A 
ATOM     38  C   UNL A   1      36.380  32.116  31.862  1.00  0.00     0.016 A 
ATOM     39  C   UNL A   1      38.140  33.290  33.708  1.00  0.00     0.010 A 
ATOM     40  C   UNL A   1      37.730  31.756  31.872  1.00  0.00     0.010 A 
ATOM     41  C   UNL A   1      38.623  32.371  32.767  1.00  0.00    -0.014 A 
BRANCH  41  42
ATOM     42  C   UNL A   1      40.086  32.203  32.587  1.00  0.00     0.031 A 
ATOM     43  C   UNL A   1      40.792  33.104  31.608  1.00  0.00     0.074 A 
ATOM     44  C   UNL A   1      40.777  31.281  33.280  1.00  0.00     0.049 A 
ATOM     45  N   UNL A   1      42.048  33.114  31.248  1.00  0.00    -0.248 NA
ATOM     46  C   UNL A   1      39.967  34.128  30.946  1.00  0.00     0.031 C 
ATOM     47  C   UNL A   1      40.211  30.367  34.269  1.00  0.00     0.029 A 
ATOM     48  N   UNL A   1      42.107  30.947  33.232  1.00  0.00    -0.354 N 
ATOM     49  C   UNL A   1      42.161  34.123  30.299  1.00  0.00     0.074 A 
ATOM     50  C   UNL A   1      40.843  34.693  30.127  1.00  0.00     0.031 C 
ATOM     51  C   UNL A   1      41.185  29.554  34.718  1.00  0.00     0.029 A 
ATOM     52  C   UNL A   1      42.433  29.871  34.025  1.00  0.00     0.049 A 
ATOM     53  H   UNL A   1      42.766  31.432  32.684  1.00  0.00     0.167 HD
ATOM     54  C   UNL A   1      43.264  34.548  29.638  1.00  0.00     0.034 A 
ATOM     55  C   UNL A   1      43.598  29.204  34.151  1.00  0.00     0.034 A 
ATOM     56  C   UNL A   1      44.574  33.985  29.816  1.00  0.00     0.049 A 
ATOM     57  C   UNL A   1      44.799  29.663  33.363  1.00  0.00     0.074 A 
ATOM     58  C   UNL A   1      45.760  34.365  29.215  1.00  0.00     0.029 A 
ATOM     59  N   UNL A   1      44.868  32.913  30.642  1.00  0.00    -0.354 N 
ATOM     60  N   UNL A   1      44.914  30.681  32.543  1.00  0.00    -0.248 NA
ATOM     61  C   UNL A   1      46.044  28.899  33.541  1.00  0.00     0.031 C 
ATOM     62  C   UNL A   1      46.767  33.497  29.651  1.00  0.00     0.029 A 
ATOM     63  C   UNL A   1      46.216  32.608  30.558  1.00  0.00     0.049 A 
ATOM     64  H   UNL A   1      44.215  32.438  31.206  1.00  0.00     0.167 HD
ATOM     65  C   UNL A   1      46.246  30.705  32.145  1.00  0.00     0.074 A 
ATOM     66  C   UNL A   1      46.905  29.610  32.827  1.00  0.00     0.031 C 
ATOM     67  C   UNL A   1      46.869  31.549  31.286  1.00  0.00     0.034 A 
BRANCH  54  68
ATOM     68  C   UNL A   1      43.099  35.690  28.669  1.00  0.00     0.023 A 
ATOM     69  C   UNL A   1      42.767  35.427  27.324  1.00  0.00     0.012 A 
ATOM     70  C   UNL A   1      43.226  37.025  29.100  1.00  0.00     0.148 A 
ATOM     71  C   UNL A   1      42.598  36.471  26.416  1.00  0.00     0.002 A 
ATOM     72  C   UNL A   1      43.008  38.062  28.201  1.00  0.00     0.091 A 
ATOM     73  F   UNL A   1      43.564  37.254  30.377  1.00  0.00    -0.205 F 
ATOM     74  C   UNL A   1      42.707  37.787  26.857  1.00  0.00     0.022 A 
BRANCH  72  75
ATOM     75  S   UNL A   1      43.049  39.790  28.686  1.00  0.00     0.127 S 
ATOM     76  O   UNL A   1      43.300  40.450  27.406  1.00  0.00    -0.237 OA
ATOM     77  O   UNL A   1      41.701  39.990  29.221  1.00  0.00    -0.237 OA
ATOM     78  O   UNL A   1      44.118  39.911  29.667  1.00  0.00    -0.744 OA
ENDBRANCH  72  75
ENDBRANCH  54  68
BRANCH  55  79
ATOM     79  C   UNL A   1      43.702  28.038  35.074  1.00  0.00     0.023 A 
ATOM     80  C   UNL A   1      43.996  28.249  36.436  1.00  0.00     0.012 A 
ATOM     81  C   UNL A   1      43.528  26.720  34.607  1.00  0.00     0.148 A 
ATOM     82  C   UNL A   1      44.154  27.169  37.306  1.00  0.00     0.002 A 
ATOM     83  C   UNL A   1      43.629  25.653  35.492  1.00  0.00     0.091 A 
ATOM     84  F   UNL A   1      43.264  26.538  33.306  1.00  0.00    -0.205 F 
ATOM     85  C   UNL A   1      43.962  25.873  36.837  1.00  0.00     0.022 A 
BRANCH  83  86
ATOM     86  S   UNL A   1      43.283  23.960  35.006  1.00  0.00     0.127 S 
ATOM     87  O   UNL A   1      43.751  23.945  33.622  1.00  0.00    -0.237 OA
ATOM     88  O   UNL A   1      44.114  23.205  35.945  1.00  0.00    -0.237 OA
ATOM     89  O   UNL A   1      41.850  23.782  35.189  1.00  0.00    -0.744 OA
ENDBRANCH  83  86
ENDBRANCH  55  79
BRANCH  67  90
ATOM     90  C   UNL A   1      48.352  31.371  31.072  1.00  0.00     0.023 A 
ATOM     91  C   UNL A   1      48.825  30.555  30.026  1.00  0.00     0.012 A 
ATOM     92  C   UNL A   1      49.277  32.076  31.869  1.00  0.00     0.148 A 
ATOM     93  C   UNL A   1      50.193  30.414  29.799  1.00  0.00     0.002 A 
ATOM     94  C   UNL A   1      50.636  31.975  31.603  1.00  0.00     0.091 A 
ATOM     95  F   UNL A   1      48.808  32.837  32.869  1.00  0.00    -0.205 F 
ATOM     96  C   UNL A   1      51.097  31.132  30.579  1.00  0.00     0.022 A 
BRANCH  94  97
ATOM     97  S   UNL A   1      51.868  32.938  32.488  1.00  0.00     0.127 S 
ATOM     98  O   UNL A   1      53.113  32.318  32.036  1.00  0.00    -0.237 OA
ATOM     99  O   UNL A   1      51.635  34.287  31.969  1.00  0.00    -0.237 OA
ATOM    100  O   UNL A   1      51.568  32.774  33.904  1.00  0.00    -0.744 OA
ENDBRANCH  94  97
ENDBRANCH  67  90
ENDBRANCH  41  42
ENDBRANCH  34  36
ENDBRANCH  33  34
ENDBRANCH  32  33
ENDBRANCH  31  32
ENDBRANCH  30  31
ENDBRANCH  29  30
ENDBRANCH  28  29
ENDBRANCH   1  28
TORSDOF 26
ENDMDL
MODEL 3
REMARK VINA RESULT:      -8.0      4.978     15.399
REMARK SMILES [NH3+][C@H]1C=C[C@@H](C(=O)N2CCC(CC(=O)OCCOCCOCCOCCOC(=O)c3ccc(-c4c5nc(c(-c6cccc(S(=O)(=O)[O-])c6F)c6ccc([nH]6)c(-c6cccc(S(=O)(=O)[O-])c6F)c6nc(c(-c7cccc(S(=O)(=O)[O-])c7F)c7ccc4[nH]7)C=C6)C=C5)cc3)CC2)C1
REMARK SMILES IDX 21 1 20 2 19 3 18 4 17 5 16 6 15 7 13 8 14 9 12 10 11 11
REMARK SMILES IDX 6 12 7 13 8 14 9 15 94 16 10 17 93 18 5 19 2 20 3 21 95 22
REMARK SMILES IDX 4 23 1 24 22 28 23 29 24 30 25 31 26 32 27 33 28 34 29 35
REMARK SMILES IDX 30 36 31 37 92 38 32 39 91 40 33 41 34 42 35 43 85 44 36 45
REMARK SMILES IDX 90 46 84 47 86 48 37 49 89 50 83 51 82 52 38 54 70 55 50 56
REMARK SMILES IDX 69 57 51 58 54 59 68 60 87 61 52 62 53 63 67 65 88 66 55 67
REMARK SMILES IDX 39 68 40 69 48 70 41 71 43 72 49 73 42 74 44 75 45 76 46 77
REMARK SMILES IDX 47 78 71 79 72 80 80 81 73 82 75 83 81 84 74 85 76 86 77 87
REMARK SMILES IDX 78 88 79 89 56 90 57 91 65 92 58 93 60 94 66 95 59 96 61 97
REMARK SMILES IDX 62 98 63 99 64 100
REMARK H PARENT 1 25 1 26 1 27 86 53 54 64
REMARK Flexibility Score: inf
ROOT
ATOM      1  O   UNL A   1      51.944  19.168  35.573  1.00  0.00    -0.377 OA
ENDROOT
BRANCH   1   2
ATOM      2  C   UNL A   1      51.195  18.614  36.637  1.00  0.00     0.188 C 
BRANCH   2   3
ATOM      3  C   UNL A   1      51.154  19.381  37.963  1.00  0.00     0.188 C 
BRANCH   3   4
ATOM      4  O   UNL A   1      51.095  18.651  39.168  1.00  0.00    -0.376 OA
BRANCH   4   5
ATOM      5  C   UNL A   1      50.268  19.072  40.243  1.00  0.00     0.202 C 
BRANCH   5   6
ATOM      6  C   UNL A   1      48.727  19.097  40.228  1.00  0.00     0.261 C 
BRANCH   6   7
ATOM      7  O   UNL A   1      48.080  20.340  40.530  1.00  0.00    -0.463 OA
BRANCH   7   8
ATOM      8  C   UNL A   1      48.352  21.363  39.690  1.00  0.00     0.306 C 
ATOM      9  O   UNL A   1      49.021  22.349  39.997  1.00  0.00    -0.252 OA
BRANCH   8  10
ATOM     10  C   UNL A   1      47.831  21.208  38.279  1.00  0.00     0.126 C 
BRANCH  10  11
ATOM     11  C   UNL A   1      47.317  22.390  37.447  1.00  0.00     0.003 C 
ATOM     12  C   UNL A   1      44.393  23.338  34.854  1.00  0.00     0.229 C 
ATOM     13  O   UNL A   1      44.415  22.249  34.275  1.00  0.00    -0.274 OA
ATOM     14  N   UNL A   1      45.439  23.728  35.675  1.00  0.00    -0.342 N 
ATOM     15  C   UNL A   1      46.800  23.440  35.229  1.00  0.00     0.120 C 
ATOM     16  C   UNL A   1      45.273  23.870  37.110  1.00  0.00     0.120 C 
ATOM     17  C   UNL A   1      47.390  22.208  35.927  1.00  0.00     0.026 C 
ATOM     18  C   UNL A   1      45.860  22.674  37.857  1.00  0.00     0.026 C 
BRANCH  12  19
ATOM     19  C   UNL A   1      43.297  24.366  34.505  1.00  0.00     0.107 C 
ATOM     20  C   UNL A   1      41.777  26.056  35.429  1.00  0.00     0.205 C 
ATOM     21  C   UNL A   1      43.038  26.669  34.935  1.00  0.00     0.033 C 
ATOM     22  C   UNL A   1      42.098  24.553  35.436  1.00  0.00     0.087 C 
ATOM     23  C   UNL A   1      43.865  25.756  34.413  1.00  0.00    -0.012 C 
BRANCH  20  24
ATOM     24  N   UNL A   1      41.433  26.531  36.759  1.00  0.00    -0.352 N 
ATOM     25  H   UNL A   1      41.152  25.741  37.340  1.00  0.00     0.345 HD
ATOM     26  H   UNL A   1      40.663  27.196  36.695  1.00  0.00     0.345 HD
ATOM     27  H   UNL A   1      42.243  26.990  37.177  1.00  0.00     0.345 HD
ENDBRANCH  20  24
ENDBRANCH  12  19
ENDBRANCH  10  11
ENDBRANCH   8  10
ENDBRANCH   7   8
ENDBRANCH   6   7
ENDBRANCH   5   6
ENDBRANCH   4   5
ENDBRANCH   3   4
ENDBRANCH   2   3
ENDBRANCH   1   2
BRANCH   1  28
ATOM     28  C   UNL A   1      52.469  20.488  35.674  1.00  0.00     0.188 C 
BRANCH  28  29
ATOM     29  C   UNL A   1      53.609  20.967  34.751  1.00  0.00     0.188 C 
BRANCH  29  30
ATOM     30  O   UNL A   1      53.209  21.802  33.678  1.00  0.00    -0.376 OA
BRANCH  30  31
ATOM     31  C   UNL A   1      52.624  23.060  33.982  1.00  0.00     0.202 C 
BRANCH  31  32
ATOM     32  C   UNL A   1      52.783  24.192  32.955  1.00  0.00     0.261 C 
BRANCH  32  33
ATOM     33  O   UNL A   1      51.622  24.505  32.169  1.00  0.00    -0.460 OA
BRANCH  33  34
ATOM     34  C   UNL A   1      51.621  25.663  31.472  1.00  0.00     0.338 C 
ATOM     35  O   UNL A   1      52.445  26.036  30.662  1.00  0.00    -0.246 OA
BRANCH  34  36
ATOM     36  C   UNL A   1      50.327  26.332  31.721  1.00  0.00     0.060 A 
ATOM     37  C   UNL A   1      49.355  25.663  32.476  1.00  0.00     0.016 A 
ATOM     38  C   UNL A   1      50.072  27.599  31.195  1.00  0.00     0.016 A 
ATOM     39  C   UNL A   1      48.102  26.246  32.669  1.00  0.00     0.010 A 
ATOM     40  C   UNL A   1      48.810  28.172  31.374  1.00  0.00     0.010 A 
ATOM     41  C   UNL A   1      47.808  27.480  32.077  1.00  0.00    -0.014 A 
BRANCH  41  42
ATOM     42  C   UNL A   1      46.404  27.953  32.021  1.00  0.00     0.031 A 
ATOM     43  C   UNL A   1      45.518  27.431  30.921  1.00  0.00     0.074 A 
ATOM     44  C   UNL A   1      45.918  28.819  32.929  1.00  0.00     0.049 A 
ATOM     45  N   UNL A   1      44.278  27.732  30.640  1.00  0.00    -0.248 NA
ATOM     46  C   UNL A   1      46.116  26.436  30.014  1.00  0.00     0.031 C 
ATOM     47  C   UNL A   1      46.668  29.378  34.051  1.00  0.00     0.029 A 
ATOM     48  N   UNL A   1      44.677  29.397  33.029  1.00  0.00    -0.354 N 
ATOM     49  C   UNL A   1      43.954  26.989  29.511  1.00  0.00     0.074 A 
ATOM     50  C   UNL A   1      45.133  26.233  29.149  1.00  0.00     0.031 C 
ATOM     51  C   UNL A   1      45.879  30.243  34.713  1.00  0.00     0.029 A 
ATOM     52  C   UNL A   1      44.581  30.320  34.044  1.00  0.00     0.049 A 
ATOM     53  H   UNL A   1      43.928  29.173  32.432  1.00  0.00     0.167 HD
ATOM     54  C   UNL A   1      42.778  26.928  28.843  1.00  0.00     0.034 A 
ATOM     55  C   UNL A   1      43.572  31.150  34.373  1.00  0.00     0.034 A 
ATOM     56  C   UNL A   1      41.606  27.675  29.209  1.00  0.00     0.049 A 
ATOM     57  C   UNL A   1      42.290  31.103  33.578  1.00  0.00     0.074 A 
ATOM     58  C   UNL A   1      40.358  27.661  28.613  1.00  0.00     0.029 A 
ATOM     59  N   UNL A   1      41.541  28.582  30.255  1.00  0.00    -0.354 N 
ATOM     60  N   UNL A   1      41.965  30.324  32.575  1.00  0.00    -0.248 NA
ATOM     61  C   UNL A   1      41.222  32.031  33.983  1.00  0.00     0.031 C 
ATOM     62  C   UNL A   1      39.548  28.588  29.277  1.00  0.00     0.029 A 
ATOM     63  C   UNL A   1      40.277  29.144  30.315  1.00  0.00     0.049 A 
ATOM     64  H   UNL A   1      42.284  28.794  30.865  1.00  0.00     0.167 HD
ATOM     65  C   UNL A   1      40.647  30.635  32.259  1.00  0.00     0.074 A 
ATOM     66  C   UNL A   1      40.226  31.662  33.189  1.00  0.00     0.031 C 
ATOM     67  C   UNL A   1      39.856  30.125  31.282  1.00  0.00     0.034 A 
BRANCH  54  68
ATOM     68  C   UNL A   1      42.700  26.010  27.651  1.00  0.00     0.023 A 
ATOM     69  C   UNL A   1      43.158  26.452  26.393  1.00  0.00     0.012 A 
ATOM     70  C   UNL A   1      42.217  24.693  27.787  1.00  0.00     0.148 A 
ATOM     71  C   UNL A   1      43.106  25.611  25.282  1.00  0.00     0.002 A 
ATOM     72  C   UNL A   1      42.213  23.845  26.686  1.00  0.00     0.091 A 
ATOM     73  F   UNL A   1      41.766  24.299  28.985  1.00  0.00    -0.205 F 
ATOM     74  C   UNL A   1      42.645  24.306  25.431  1.00  0.00     0.022 A 
BRANCH  72  75
ATOM     75  S   UNL A   1      41.712  22.125  26.789  1.00  0.00     0.127 S 
ATOM     76  O   UNL A   1      42.042  21.640  25.449  1.00  0.00    -0.237 OA
ATOM     77  O   UNL A   1      42.580  21.616  27.851  1.00  0.00    -0.237 OA
ATOM     78  O   UNL A   1      40.293  22.135  27.114  1.00  0.00    -0.744 OA
ENDBRANCH  72  75
ENDBRANCH  54  68
BRANCH  55  79
ATOM     79  C   UNL A   1      43.712  32.091  35.521  1.00  0.00     0.023 A 
ATOM     80  C   UNL A   1      44.125  33.418  35.290  1.00  0.00     0.012 A 
ATOM     81  C   UNL A   1      43.454  31.674  36.841  1.00  0.00     0.148 A 
ATOM     82  C   UNL A   1      44.317  34.300  36.355  1.00  0.00     0.002 A 
ATOM     83  C   UNL A   1      43.592  32.575  37.892  1.00  0.00     0.091 A 
ATOM     84  F   UNL A   1      43.078  30.404  37.043  1.00  0.00    -0.205 F 
ATOM     85  C   UNL A   1      44.042  33.882  37.653  1.00  0.00     0.022 A 
BRANCH  83  86
ATOM     86  S   UNL A   1      43.148  32.162  39.582  1.00  0.00     0.127 S 
ATOM     87  O   UNL A   1      43.996  31.000  39.837  1.00  0.00    -0.237 OA
ATOM     88  O   UNL A   1      43.538  33.378  40.297  1.00  0.00    -0.237 OA
ATOM     89  O   UNL A   1      41.715  31.905  39.561  1.00  0.00    -0.744 OA
ENDBRANCH  83  86
ENDBRANCH  55  79
BRANCH  67  90
ATOM     90  C   UNL A   1      38.433  30.619  31.197  1.00  0.00     0.023 A 
ATOM     91  C   UNL A   1      37.454  30.115  32.075  1.00  0.00     0.012 A 
ATOM     92  C   UNL A   1      38.085  31.639  30.289  1.00  0.00     0.148 A 
ATOM     93  C   UNL A   1      36.144  30.592  32.026  1.00  0.00     0.002 A 
ATOM     94  C   UNL A   1      36.793  32.148  30.282  1.00  0.00     0.091 A 
ATOM     95  F   UNL A   1      39.028  32.096  29.450  1.00  0.00    -0.205 F 
ATOM     96  C   UNL A   1      35.818  31.616  31.140  1.00  0.00     0.022 A 
BRANCH  94  97
ATOM     97  S   UNL A   1      36.306  33.534  29.247  1.00  0.00     0.127 S 
ATOM     98  O   UNL A   1      37.483  34.396  29.329  1.00  0.00    -0.237 OA
ATOM     99  O   UNL A   1      36.108  32.893  27.947  1.00  0.00    -0.237 OA
ATOM    100  O   UNL A   1      35.093  34.077  29.845  1.00  0.00    -0.744 OA
ENDBRANCH  94  97
ENDBRANCH  67  90
ENDBRANCH  41  42
ENDBRANCH  34  36
ENDBRANCH  33  34
ENDBRANCH  32  33
ENDBRANCH  31  32
ENDBRANCH  30  31
ENDBRANCH  29  30
ENDBRANCH  28  29
ENDBRANCH   1  28
TORSDOF 26
ENDMDL
