MODEL 1
REMARK VINA RESULT:     -10.2      0.000      0.000
REMARK SMILES NS(=O)(=O)c1ccc(-n2nc(C(F)F)cc2-c2ccc(C(=O)OCCOCCOCCOCCOC(=O)c3ccc(-c4c5nc(c(-c6cccc(S(=O)(=O)[O-])c6F)c6ccc([nH]6)c(-c6cccc(S(=O)(=O)[O-])c6F)c6nc(c(-c7cccc(S(=O)(=O)[O-])c7F)c7ccc4[nH]7)C=C6)C=C5)cc3)cc2)cc1
REMARK SMILES IDX 28 1 27 2 26 3 25 4 24 5 23 6 21 7 22 8 20 9 17 10 18 11
REMARK SMILES IDX 102 12 19 13 101 14 16 15 9 16 10 17 11 18 15 19 8 20 5 21
REMARK SMILES IDX 6 22 104 23 7 24 103 25 2 26 3 27 4 28 1 29 12 32 13 33
REMARK SMILES IDX 14 34 29 35 30 36 31 37 32 38 33 39 34 40 35 41 36 42 37 43
REMARK SMILES IDX 38 44 39 45 100 46 40 47 99 48 41 49 42 50 43 51 93 52 44 53
REMARK SMILES IDX 98 54 92 55 94 56 45 57 97 58 91 59 90 60 46 62 78 63 58 64
REMARK SMILES IDX 77 65 59 66 62 67 76 68 95 69 60 70 61 71 75 73 96 74 63 75
REMARK SMILES IDX 47 76 48 77 56 78 49 79 51 80 57 81 50 82 52 83 53 84 54 85
REMARK SMILES IDX 55 86 79 87 80 88 88 89 81 90 83 91 89 92 82 93 84 94 85 95
REMARK SMILES IDX 86 96 87 97 64 98 65 99 73 100 66 101 68 102 74 103 67 104
REMARK SMILES IDX 69 105 70 106 71 107 72 108
REMARK H PARENT 1 30 1 31 94 61 62 72
REMARK Flexibility Score: inf
ROOT
ATOM      1  C   UNL A   1      39.314  21.969  25.944  1.00  0.00     0.188 C 
ENDROOT
BRANCH   1   2
ATOM      2  C   UNL A   1      37.784  22.194  25.999  1.00  0.00     0.188 C 
BRANCH   2   3
ATOM      3  O   UNL A   1      36.834  21.335  25.372  1.00  0.00    -0.376 OA
BRANCH   3   4
ATOM      4  C   UNL A   1      35.837  21.845  24.505  1.00  0.00     0.202 C 
BRANCH   4   5
ATOM      5  C   UNL A   1      34.372  21.490  24.789  1.00  0.00     0.261 C 
BRANCH   5   6
ATOM      6  O   UNL A   1      33.719  22.331  25.744  1.00  0.00    -0.460 OA
BRANCH   6   7
ATOM      7  C   UNL A   1      32.609  22.959  25.295  1.00  0.00     0.338 C 
ATOM      8  O   UNL A   1      31.615  22.449  24.809  1.00  0.00    -0.246 OA
BRANCH   7   9
ATOM      9  C   UNL A   1      32.711  24.402  25.613  1.00  0.00     0.060 A 
ATOM     10  C   UNL A   1      33.031  27.123  26.199  1.00  0.00     0.000 A 
ATOM     11  C   UNL A   1      33.984  26.448  25.423  1.00  0.00     0.011 A 
ATOM     12  C   UNL A   1      31.894  26.435  26.641  1.00  0.00     0.011 A 
ATOM     13  C   UNL A   1      33.833  25.092  25.141  1.00  0.00     0.016 A 
ATOM     14  C   UNL A   1      31.726  25.079  26.340  1.00  0.00     0.016 A 
BRANCH  10  15
ATOM     15  C   UNL A   1      33.323  28.475  26.676  1.00  0.00     0.075 A 
ATOM     16  N   UNL A   1      32.887  29.666  26.108  1.00  0.00    -0.233 N 
ATOM     17  N   UNL A   1      33.720  30.695  26.418  1.00  0.00    -0.166 NA
ATOM     18  C   UNL A   1      34.507  30.219  27.397  1.00  0.00     0.129 A 
ATOM     19  C   UNL A   1      34.284  28.839  27.600  1.00  0.00     0.060 A 
BRANCH  16  20
ATOM     20  C   UNL A   1      31.754  29.888  25.280  1.00  0.00     0.065 A 
ATOM     21  C   UNL A   1      29.519  30.292  23.663  1.00  0.00     0.082 A 
ATOM     22  C   UNL A   1      29.872  31.259  24.608  1.00  0.00     0.024 A 
ATOM     23  C   UNL A   1      30.294  29.141  23.494  1.00  0.00     0.024 A 
ATOM     24  C   UNL A   1      30.979  31.047  25.434  1.00  0.00     0.030 A 
ATOM     25  C   UNL A   1      31.430  28.952  24.286  1.00  0.00     0.030 A 
BRANCH  21  26
ATOM     26  S   UNL A   1      28.080  30.558  22.669  1.00  0.00     0.238 S 
ATOM     27  O   UNL A   1      27.394  29.304  22.487  1.00  0.00    -0.207 OA
ATOM     28  O   UNL A   1      28.454  31.410  21.562  1.00  0.00    -0.207 OA
BRANCH  26  29
ATOM     29  N   UNL A   1      27.070  31.481  23.645  1.00  0.00    -0.225 NA
ATOM     30  H   UNL A   1      26.370  30.878  24.075  1.00  0.00     0.137 HD
ATOM     31  H   UNL A   1      26.606  32.191  23.077  1.00  0.00     0.137 HD
ENDBRANCH  26  29
ENDBRANCH  21  26
ENDBRANCH  16  20
BRANCH  18  32
ATOM     32  C   UNL A   1      35.535  31.057  28.096  1.00  0.00     0.393 C 
ATOM     33  F   UNL A   1      36.808  30.721  27.749  1.00  0.00    -0.203 F 
ATOM     34  F   UNL A   1      35.390  32.379  27.811  1.00  0.00    -0.203 F 
ENDBRANCH  18  32
ENDBRANCH  10  15
ENDBRANCH   7   9
ENDBRANCH   6   7
ENDBRANCH   5   6
ENDBRANCH   4   5
ENDBRANCH   3   4
ENDBRANCH   2   3
ENDBRANCH   1   2
BRANCH   1  35
ATOM     35  O   UNL A   1      39.836  21.056  26.897  1.00  0.00    -0.377 OA
BRANCH  35  36
ATOM     36  C   UNL A   1      40.938  20.279  26.434  1.00  0.00     0.188 C 
BRANCH  36  37
ATOM     37  C   UNL A   1      42.323  20.925  26.627  1.00  0.00     0.188 C 
BRANCH  37  38
ATOM     38  O   UNL A   1      42.940  21.307  25.398  1.00  0.00    -0.376 OA
BRANCH  38  39
ATOM     39  C   UNL A   1      42.971  22.692  25.082  1.00  0.00     0.202 C 
BRANCH  39  40
ATOM     40  C   UNL A   1      42.781  23.585  26.307  1.00  0.00     0.261 C 
BRANCH  40  41
ATOM     41  O   UNL A   1      41.580  24.351  26.280  1.00  0.00    -0.460 OA
BRANCH  41  42
ATOM     42  C   UNL A   1      41.713  25.646  25.931  1.00  0.00     0.338 C 
ATOM     43  O   UNL A   1      42.277  26.093  24.948  1.00  0.00    -0.246 OA
BRANCH  42  44
ATOM     44  C   UNL A   1      41.089  26.484  26.959  1.00  0.00     0.060 A 
ATOM     45  C   UNL A   1      40.599  27.726  26.546  1.00  0.00     0.016 A 
ATOM     46  C   UNL A   1      41.209  26.141  28.314  1.00  0.00     0.016 A 
ATOM     47  C   UNL A   1      40.433  28.711  27.493  1.00  0.00     0.010 A 
ATOM     48  C   UNL A   1      41.048  27.128  29.259  1.00  0.00     0.010 A 
ATOM     49  C   UNL A   1      40.760  28.419  28.819  1.00  0.00    -0.014 A 
BRANCH  49  50
ATOM     50  C   UNL A   1      40.940  29.539  29.717  1.00  0.00     0.031 A 
ATOM     51  C   UNL A   1      39.715  30.230  30.151  1.00  0.00     0.074 A 
ATOM     52  C   UNL A   1      42.162  29.844  30.193  1.00  0.00     0.049 A 
ATOM     53  N   UNL A   1      39.391  31.465  29.949  1.00  0.00    -0.248 NA
ATOM     54  C   UNL A   1      38.686  29.428  30.824  1.00  0.00     0.031 C 
ATOM     55  C   UNL A   1      43.380  29.030  30.088  1.00  0.00     0.029 A 
ATOM     56  N   UNL A   1      42.534  30.869  31.009  1.00  0.00    -0.354 N 
ATOM     57  C   UNL A   1      38.218  31.652  30.670  1.00  0.00     0.074 A 
ATOM     58  C   UNL A   1      37.745  30.344  31.046  1.00  0.00     0.031 C 
ATOM     59  C   UNL A   1      44.267  29.452  31.015  1.00  0.00     0.029 A 
ATOM     60  C   UNL A   1      43.727  30.629  31.675  1.00  0.00     0.049 A 
ATOM     61  H   UNL A   1      42.009  31.695  31.117  1.00  0.00     0.167 HD
ATOM     62  C   UNL A   1      37.845  32.877  31.122  1.00  0.00     0.034 A 
ATOM     63  C   UNL A   1      44.190  31.290  32.761  1.00  0.00     0.034 A 
ATOM     64  C   UNL A   1      38.544  33.947  30.466  1.00  0.00     0.049 A 
ATOM     65  C   UNL A   1      43.476  32.584  32.846  1.00  0.00     0.074 A 
ATOM     66  C   UNL A   1      38.683  34.377  29.162  1.00  0.00     0.029 A 
ATOM     67  N   UNL A   1      39.516  34.594  31.188  1.00  0.00    -0.354 N 
ATOM     68  N   UNL A   1      43.638  33.569  32.007  1.00  0.00    -0.248 NA
ATOM     69  C   UNL A   1      42.297  32.674  33.692  1.00  0.00     0.031 C 
ATOM     70  C   UNL A   1      39.990  34.939  29.088  1.00  0.00     0.029 A 
ATOM     71  C   UNL A   1      40.574  34.822  30.351  1.00  0.00     0.049 A 
ATOM     72  H   UNL A   1      39.460  34.848  32.137  1.00  0.00     0.167 HD
ATOM     73  C   UNL A   1      42.387  34.166  31.921  1.00  0.00     0.074 A 
ATOM     74  C   UNL A   1      41.657  33.674  33.083  1.00  0.00     0.031 C 
ATOM     75  C   UNL A   1      41.963  34.758  30.763  1.00  0.00     0.034 A 
BRANCH  62  76
ATOM     76  C   UNL A   1      37.082  33.095  32.399  1.00  0.00     0.023 A 
ATOM     77  C   UNL A   1      35.850  33.776  32.325  1.00  0.00     0.012 A 
ATOM     78  C   UNL A   1      37.626  32.883  33.686  1.00  0.00     0.148 A 
ATOM     79  C   UNL A   1      35.200  34.237  33.473  1.00  0.00     0.002 A 
ATOM     80  C   UNL A   1      36.929  33.257  34.828  1.00  0.00     0.091 A 
ATOM     81  F   UNL A   1      38.882  32.443  33.822  1.00  0.00    -0.205 F 
ATOM     82  C   UNL A   1      35.728  33.960  34.729  1.00  0.00     0.022 A 
BRANCH  80  83
ATOM     83  S   UNL A   1      37.553  32.814  36.453  1.00  0.00     0.127 S 
ATOM     84  O   UNL A   1      38.754  33.635  36.545  1.00  0.00    -0.237 OA
ATOM     85  O   UNL A   1      36.453  33.220  37.330  1.00  0.00    -0.237 OA
ATOM     86  O   UNL A   1      37.749  31.370  36.384  1.00  0.00    -0.744 OA
ENDBRANCH  80  83
ENDBRANCH  62  76
BRANCH  63  87
ATOM     87  C   UNL A   1      45.061  30.790  33.847  1.00  0.00     0.023 A 
ATOM     88  C   UNL A   1      46.451  30.995  33.771  1.00  0.00     0.012 A 
ATOM     89  C   UNL A   1      44.522  30.315  35.065  1.00  0.00     0.148 A 
ATOM     90  C   UNL A   1      47.275  30.751  34.876  1.00  0.00     0.002 A 
ATOM     91  C   UNL A   1      45.348  30.051  36.152  1.00  0.00     0.091 A 
ATOM     92  F   UNL A   1      43.191  30.210  35.190  1.00  0.00    -0.205 F 
ATOM     93  C   UNL A   1      46.725  30.279  36.064  1.00  0.00     0.022 A 
BRANCH  91  94
ATOM     94  S   UNL A   1      44.695  29.425  37.706  1.00  0.00     0.127 S 
ATOM     95  O   UNL A   1      43.767  30.486  38.101  1.00  0.00    -0.237 OA
ATOM     96  O   UNL A   1      44.059  28.179  37.290  1.00  0.00    -0.237 OA
ATOM     97  O   UNL A   1      45.850  29.290  38.587  1.00  0.00    -0.744 OA
ENDBRANCH  91  94
ENDBRANCH  63  87
BRANCH  75  98
ATOM     98  C   UNL A   1      42.988  35.056  29.695  1.00  0.00     0.023 A 
ATOM     99  C   UNL A   1      43.659  36.295  29.639  1.00  0.00     0.012 A 
ATOM    100  C   UNL A   1      43.416  34.017  28.847  1.00  0.00     0.148 A 
ATOM    101  C   UNL A   1      44.707  36.506  28.742  1.00  0.00     0.002 A 
ATOM    102  C   UNL A   1      44.494  34.216  27.989  1.00  0.00     0.091 A 
ATOM    103  F   UNL A   1      42.781  32.837  28.912  1.00  0.00    -0.205 F 
ATOM    104  C   UNL A   1      45.133  35.463  27.925  1.00  0.00     0.022 A 
BRANCH 102 105
ATOM    105  S   UNL A   1      45.178  32.866  27.021  1.00  0.00     0.127 S 
ATOM    106  O   UNL A   1      46.038  32.195  27.991  1.00  0.00    -0.237 OA
ATOM    107  O   UNL A   1      43.985  32.110  26.635  1.00  0.00    -0.237 OA
ATOM    108  O   UNL A   1      45.861  33.500  25.897  1.00  0.00    -0.744 OA
ENDBRANCH 102 105
ENDBRANCH  75  98
ENDBRANCH  49  50
ENDBRANCH  42  44
ENDBRANCH  41  42
ENDBRANCH  40  41
ENDBRANCH  39  40
ENDBRANCH  38  39
ENDBRANCH  37  38
ENDBRANCH  36  37
ENDBRANCH  35  36
ENDBRANCH   1  35
TORSDOF 28
ENDMDL
MODEL 2
REMARK VINA RESULT:      -9.6      1.824      2.182
REMARK SMILES NS(=O)(=O)c1ccc(-n2nc(C(F)F)cc2-c2ccc(C(=O)OCCOCCOCCOCCOC(=O)c3ccc(-c4c5nc(c(-c6cccc(S(=O)(=O)[O-])c6F)c6ccc([nH]6)c(-c6cccc(S(=O)(=O)[O-])c6F)c6nc(c(-c7cccc(S(=O)(=O)[O-])c7F)c7ccc4[nH]7)C=C6)C=C5)cc3)cc2)cc1
REMARK SMILES IDX 28 1 27 2 26 3 25 4 24 5 23 6 21 7 22 8 20 9 17 10 18 11
REMARK SMILES IDX 102 12 19 13 101 14 16 15 9 16 10 17 11 18 15 19 8 20 5 21
REMARK SMILES IDX 6 22 104 23 7 24 103 25 2 26 3 27 4 28 1 29 12 32 13 33
REMARK SMILES IDX 14 34 29 35 30 36 31 37 32 38 33 39 34 40 35 41 36 42 37 43
REMARK SMILES IDX 38 44 39 45 100 46 40 47 99 48 41 49 42 50 43 51 93 52 44 53
REMARK SMILES IDX 98 54 92 55 94 56 45 57 97 58 91 59 90 60 46 62 78 63 58 64
REMARK SMILES IDX 77 65 59 66 62 67 76 68 95 69 60 70 61 71 75 73 96 74 63 75
REMARK SMILES IDX 47 76 48 77 56 78 49 79 51 80 57 81 50 82 52 83 53 84 54 85
REMARK SMILES IDX 55 86 79 87 80 88 88 89 81 90 83 91 89 92 82 93 84 94 85 95
REMARK SMILES IDX 86 96 87 97 64 98 65 99 73 100 66 101 68 102 74 103 67 104
REMARK SMILES IDX 69 105 70 106 71 107 72 108
REMARK H PARENT 1 30 1 31 94 61 62 72
REMARK Flexibility Score: inf
ROOT
ATOM      1  C   UNL A   1      39.450  22.011  25.925  1.00  0.00     0.188 C 
ENDROOT
BRANCH   1   2
ATOM      2  C   UNL A   1      37.919  22.226  25.996  1.00  0.00     0.188 C 
BRANCH   2   3
ATOM      3  O   UNL A   1      36.964  21.310  25.465  1.00  0.00    -0.376 OA
BRANCH   3   4
ATOM      4  C   UNL A   1      35.983  21.726  24.532  1.00  0.00     0.202 C 
BRANCH   4   5
ATOM      5  C   UNL A   1      34.515  21.382  24.815  1.00  0.00     0.261 C 
BRANCH   5   6
ATOM      6  O   UNL A   1      33.842  22.281  25.699  1.00  0.00    -0.460 OA
BRANCH   6   7
ATOM      7  C   UNL A   1      32.751  22.891  25.181  1.00  0.00     0.338 C 
ATOM      8  O   UNL A   1      31.797  22.363  24.638  1.00  0.00    -0.246 OA
BRANCH   7   9
ATOM      9  C   UNL A   1      32.811  24.336  25.499  1.00  0.00     0.060 A 
ATOM     10  C   UNL A   1      33.051  27.066  26.084  1.00  0.00     0.000 A 
ATOM     11  C   UNL A   1      34.025  26.418  25.311  1.00  0.00     0.011 A 
ATOM     12  C   UNL A   1      31.933  26.344  26.524  1.00  0.00     0.011 A 
ATOM     13  C   UNL A   1      33.913  25.058  25.029  1.00  0.00     0.016 A 
ATOM     14  C   UNL A   1      31.805  24.984  26.223  1.00  0.00     0.016 A 
BRANCH  10  15
ATOM     15  C   UNL A   1      33.303  28.425  26.562  1.00  0.00     0.075 A 
ATOM     16  N   UNL A   1      32.859  29.604  25.975  1.00  0.00    -0.233 N 
ATOM     17  N   UNL A   1      33.663  30.651  26.302  1.00  0.00    -0.166 NA
ATOM     18  C   UNL A   1      34.432  30.196  27.306  1.00  0.00     0.129 A 
ATOM     19  C   UNL A   1      34.230  28.812  27.510  1.00  0.00     0.060 A 
BRANCH  16  20
ATOM     20  C   UNL A   1      31.746  29.799  25.114  1.00  0.00     0.065 A 
ATOM     21  C   UNL A   1      29.570  30.214  23.420  1.00  0.00     0.082 A 
ATOM     22  C   UNL A   1      30.451  29.159  23.169  1.00  0.00     0.024 A 
ATOM     23  C   UNL A   1      29.748  31.042  24.533  1.00  0.00     0.024 A 
ATOM     24  C   UNL A   1      31.553  28.963  24.004  1.00  0.00     0.030 A 
ATOM     25  C   UNL A   1      30.823  30.817  25.396  1.00  0.00     0.030 A 
BRANCH  21  26
ATOM     26  S   UNL A   1      28.214  30.476  22.316  1.00  0.00     0.238 S 
ATOM     27  O   UNL A   1      28.533  29.903  21.032  1.00  0.00    -0.207 OA
ATOM     28  O   UNL A   1      27.768  31.843  22.472  1.00  0.00    -0.207 OA
BRANCH  26  29
ATOM     29  N   UNL A   1      26.984  29.513  22.940  1.00  0.00    -0.225 NA
ATOM     30  H   UNL A   1      26.528  30.003  23.709  1.00  0.00     0.137 HD
ATOM     31  H   UNL A   1      27.379  28.637  23.280  1.00  0.00     0.137 HD
ENDBRANCH  26  29
ENDBRANCH  21  26
ENDBRANCH  16  20
BRANCH  18  32
ATOM     32  C   UNL A   1      35.423  31.058  28.028  1.00  0.00     0.393 C 
ATOM     33  F   UNL A   1      34.893  31.649  29.134  1.00  0.00    -0.203 F 
ATOM     34  F   UNL A   1      36.504  30.345  28.446  1.00  0.00    -0.203 F 
ENDBRANCH  18  32
ENDBRANCH  10  15
ENDBRANCH   7   9
ENDBRANCH   6   7
ENDBRANCH   5   6
ENDBRANCH   4   5
ENDBRANCH   3   4
ENDBRANCH   2   3
ENDBRANCH   1   2
BRANCH   1  35
ATOM     35  O   UNL A   1      39.988  21.104  26.874  1.00  0.00    -0.377 OA
BRANCH  35  36
ATOM     36  C   UNL A   1      41.046  20.285  26.381  1.00  0.00     0.188 C 
BRANCH  36  37
ATOM     37  C   UNL A   1      42.453  20.905  26.474  1.00  0.00     0.188 C 
BRANCH  37  38
ATOM     38  O   UNL A   1      42.983  21.285  25.205  1.00  0.00    -0.376 OA
BRANCH  38  39
ATOM     39  C   UNL A   1      43.119  22.675  24.940  1.00  0.00     0.202 C 
BRANCH  39  40
ATOM     40  C   UNL A   1      42.873  23.541  26.175  1.00  0.00     0.261 C 
BRANCH  40  41
ATOM     41  O   UNL A   1      41.711  24.359  26.083  1.00  0.00    -0.460 OA
BRANCH  41  42
ATOM     42  C   UNL A   1      41.926  25.669  25.854  1.00  0.00     0.338 C 
ATOM     43  O   UNL A   1      42.542  26.166  24.927  1.00  0.00    -0.246 OA
BRANCH  42  44
ATOM     44  C   UNL A   1      41.321  26.449  26.937  1.00  0.00     0.060 A 
ATOM     45  C   UNL A   1      40.703  27.650  26.578  1.00  0.00     0.016 A 
ATOM     46  C   UNL A   1      41.574  26.109  28.274  1.00  0.00     0.016 A 
ATOM     47  C   UNL A   1      40.536  28.613  27.546  1.00  0.00     0.010 A 
ATOM     48  C   UNL A   1      41.411  27.075  29.240  1.00  0.00     0.010 A 
ATOM     49  C   UNL A   1      40.988  28.341  28.840  1.00  0.00    -0.014 A 
BRANCH  49  50
ATOM     50  C   UNL A   1      41.150  29.467  29.734  1.00  0.00     0.031 A 
ATOM     51  C   UNL A   1      39.911  30.107  30.207  1.00  0.00     0.074 A 
ATOM     52  C   UNL A   1      42.372  29.823  30.172  1.00  0.00     0.049 A 
ATOM     53  N   UNL A   1      39.530  31.326  30.018  1.00  0.00    -0.248 NA
ATOM     54  C   UNL A   1      38.937  29.262  30.911  1.00  0.00     0.031 C 
ATOM     55  C   UNL A   1      43.619  29.060  30.027  1.00  0.00     0.029 A 
ATOM     56  N   UNL A   1      42.727  30.861  30.978  1.00  0.00    -0.354 N 
ATOM     57  C   UNL A   1      38.373  31.465  30.776  1.00  0.00     0.074 A 
ATOM     58  C   UNL A   1      37.966  30.138  31.164  1.00  0.00     0.031 C 
ATOM     59  C   UNL A   1      44.516  29.518  30.926  1.00  0.00     0.029 A 
ATOM     60  C   UNL A   1      43.949  30.671  31.606  1.00  0.00     0.049 A 
ATOM     61  H   UNL A   1      42.171  31.665  31.104  1.00  0.00     0.167 HD
ATOM     62  C   UNL A   1      37.964  32.672  31.242  1.00  0.00     0.034 A 
ATOM     63  C   UNL A   1      44.418  31.349  32.678  1.00  0.00     0.034 A 
ATOM     64  C   UNL A   1      38.597  33.771  30.567  1.00  0.00     0.049 A 
ATOM     65  C   UNL A   1      43.654  32.612  32.788  1.00  0.00     0.074 A 
ATOM     66  C   UNL A   1      38.677  34.207  29.260  1.00  0.00     0.029 A 
ATOM     67  N   UNL A   1      39.563  34.457  31.259  1.00  0.00    -0.354 N 
ATOM     68  N   UNL A   1      43.748  33.604  31.946  1.00  0.00    -0.248 NA
ATOM     69  C   UNL A   1      42.499  32.653  33.671  1.00  0.00     0.031 C 
ATOM     70  C   UNL A   1      39.956  34.824  29.146  1.00  0.00     0.029 A 
ATOM     71  C   UNL A   1      40.584  34.730  30.390  1.00  0.00     0.049 A 
ATOM     72  H   UNL A   1      39.527  34.708  32.210  1.00  0.00     0.167 HD
ATOM     73  C   UNL A   1      42.471  34.148  31.901  1.00  0.00     0.074 A 
ATOM     74  C   UNL A   1      41.799  33.626  33.084  1.00  0.00     0.031 C 
ATOM     75  C   UNL A   1      41.987  34.723  30.758  1.00  0.00     0.034 A 
BRANCH  62  76
ATOM     76  C   UNL A   1      37.233  32.857  32.544  1.00  0.00     0.023 A 
ATOM     77  C   UNL A   1      35.945  33.430  32.502  1.00  0.00     0.012 A 
ATOM     78  C   UNL A   1      37.840  32.724  33.812  1.00  0.00     0.148 A 
ATOM     79  C   UNL A   1      35.302  33.863  33.665  1.00  0.00     0.002 A 
ATOM     80  C   UNL A   1      37.157  33.066  34.972  1.00  0.00     0.091 A 
ATOM     81  F   UNL A   1      39.134  32.395  33.908  1.00  0.00    -0.205 F 
ATOM     82  C   UNL A   1      35.898  33.663  34.905  1.00  0.00     0.022 A 
BRANCH  80  83
ATOM     83  S   UNL A   1      37.876  32.719  36.580  1.00  0.00     0.127 S 
ATOM     84  O   UNL A   1      38.368  31.358  36.400  1.00  0.00    -0.237 OA
ATOM     85  O   UNL A   1      38.913  33.746  36.687  1.00  0.00    -0.237 OA
ATOM     86  O   UNL A   1      36.771  32.898  37.517  1.00  0.00    -0.744 OA
ENDBRANCH  80  83
ENDBRANCH  62  76
BRANCH  63  87
ATOM     87  C   UNL A   1      45.343  30.885  33.735  1.00  0.00     0.023 A 
ATOM     88  C   UNL A   1      44.913  29.911  34.654  1.00  0.00     0.012 A 
ATOM     89  C   UNL A   1      46.716  31.221  33.712  1.00  0.00     0.148 A 
ATOM     90  C   UNL A   1      45.821  29.280  35.511  1.00  0.00     0.002 A 
ATOM     91  C   UNL A   1      47.611  30.608  34.583  1.00  0.00     0.091 A 
ATOM     92  F   UNL A   1      47.163  32.071  32.776  1.00  0.00    -0.205 F 
ATOM     93  C   UNL A   1      47.168  29.628  35.477  1.00  0.00     0.022 A 
BRANCH  91  94
ATOM     94  S   UNL A   1      49.359  31.030  34.594  1.00  0.00     0.127 S 
ATOM     95  O   UNL A   1      49.941  29.919  35.349  1.00  0.00    -0.237 OA
ATOM     96  O   UNL A   1      49.680  31.035  33.169  1.00  0.00    -0.237 OA
ATOM     97  O   UNL A   1      49.446  32.318  35.273  1.00  0.00    -0.744 OA
ENDBRANCH  91  94
ENDBRANCH  63  87
BRANCH  75  98
ATOM     98  C   UNL A   1      42.964  35.065  29.659  1.00  0.00     0.023 A 
ATOM     99  C   UNL A   1      43.133  34.230  28.535  1.00  0.00     0.012 A 
ATOM    100  C   UNL A   1      43.587  36.326  29.663  1.00  0.00     0.148 A 
ATOM    101  C   UNL A   1      43.927  34.627  27.457  1.00  0.00     0.002 A 
ATOM    102  C   UNL A   1      44.337  36.739  28.566  1.00  0.00     0.091 A 
ATOM    103  F   UNL A   1      43.415  37.120  30.731  1.00  0.00    -0.205 F 
ATOM    104  C   UNL A   1      44.519  35.887  27.467  1.00  0.00     0.022 A 
BRANCH 102 105
ATOM    105  S   UNL A   1      45.002  38.404  28.461  1.00  0.00     0.127 S 
ATOM    106  O   UNL A   1      46.028  38.393  29.500  1.00  0.00    -0.237 OA
ATOM    107  O   UNL A   1      45.520  38.459  27.093  1.00  0.00    -0.237 OA
ATOM    108  O   UNL A   1      43.868  39.292  28.697  1.00  0.00    -0.744 OA
ENDBRANCH 102 105
ENDBRANCH  75  98
ENDBRANCH  49  50
ENDBRANCH  42  44
ENDBRANCH  41  42
ENDBRANCH  40  41
ENDBRANCH  39  40
ENDBRANCH  38  39
ENDBRANCH  37  38
ENDBRANCH  36  37
ENDBRANCH  35  36
ENDBRANCH   1  35
TORSDOF 28
ENDMDL
MODEL 3
REMARK VINA RESULT:      -9.4      3.909      8.243
REMARK SMILES NS(=O)(=O)c1ccc(-n2nc(C(F)F)cc2-c2ccc(C(=O)OCCOCCOCCOCCOC(=O)c3ccc(-c4c5nc(c(-c6cccc(S(=O)(=O)[O-])c6F)c6ccc([nH]6)c(-c6cccc(S(=O)(=O)[O-])c6F)c6nc(c(-c7cccc(S(=O)(=O)[O-])c7F)c7ccc4[nH]7)C=C6)C=C5)cc3)cc2)cc1
REMARK SMILES IDX 28 1 27 2 26 3 25 4 24 5 23 6 21 7 22 8 20 9 17 10 18 11
REMARK SMILES IDX 102 12 19 13 101 14 16 15 9 16 10 17 11 18 15 19 8 20 5 21
REMARK SMILES IDX 6 22 104 23 7 24 103 25 2 26 3 27 4 28 1 29 12 32 13 33
REMARK SMILES IDX 14 34 29 35 30 36 31 37 32 38 33 39 34 40 35 41 36 42 37 43
REMARK SMILES IDX 38 44 39 45 100 46 40 47 99 48 41 49 42 50 43 51 93 52 44 53
REMARK SMILES IDX 98 54 92 55 94 56 45 57 97 58 91 59 90 60 46 62 78 63 58 64
REMARK SMILES IDX 77 65 59 66 62 67 76 68 95 69 60 70 61 71 75 73 96 74 63 75
REMARK SMILES IDX 47 76 48 77 56 78 49 79 51 80 57 81 50 82 52 83 53 84 54 85
REMARK SMILES IDX 55 86 79 87 80 88 88 89 81 90 83 91 89 92 82 93 84 94 85 95
REMARK SMILES IDX 86 96 87 97 64 98 65 99 73 100 66 101 68 102 74 103 67 104
REMARK SMILES IDX 69 105 70 106 71 107 72 108
REMARK H PARENT 1 30 1 31 94 61 62 72
REMARK Flexibility Score: inf
ROOT
ATOM      1  C   UNL A   1      43.374  18.666  26.217  1.00  0.00     0.188 C 
ENDROOT
BRANCH   1   2
ATOM      2  C   UNL A   1      42.219  19.370  25.468  1.00  0.00     0.188 C 
BRANCH   2   3
ATOM      3  O   UNL A   1      41.696  20.645  25.837  1.00  0.00    -0.376 OA
BRANCH   3   4
ATOM      4  C   UNL A   1      41.281  20.916  27.163  1.00  0.00     0.202 C 
BRANCH   4   5
ATOM      5  C   UNL A   1      40.497  22.207  27.433  1.00  0.00     0.261 C 
BRANCH   5   6
ATOM      6  O   UNL A   1      39.995  22.866  26.268  1.00  0.00    -0.460 OA
BRANCH   6   7
ATOM      7  C   UNL A   1      38.851  23.564  26.448  1.00  0.00     0.338 C 
ATOM      8  O   UNL A   1      38.740  24.739  26.753  1.00  0.00    -0.246 OA
BRANCH   7   9
ATOM      9  C   UNL A   1      37.701  22.707  26.076  1.00  0.00     0.060 A 
ATOM     10  C   UNL A   1      35.597  21.038  25.278  1.00  0.00     0.000 A 
ATOM     11  C   UNL A   1      36.926  20.689  24.995  1.00  0.00     0.011 A 
ATOM     12  C   UNL A   1      35.335  22.207  26.004  1.00  0.00     0.011 A 
ATOM     13  C   UNL A   1      37.972  21.525  25.380  1.00  0.00     0.016 A 
ATOM     14  C   UNL A   1      36.384  23.036  26.414  1.00  0.00     0.016 A 
BRANCH  10  15
ATOM     15  C   UNL A   1      34.510  20.274  24.666  1.00  0.00     0.075 A 
ATOM     16  N   UNL A   1      33.278  20.772  24.256  1.00  0.00    -0.233 N 
ATOM     17  N   UNL A   1      32.331  19.796  24.244  1.00  0.00    -0.166 NA
ATOM     18  C   UNL A   1      33.017  18.648  24.367  1.00  0.00     0.129 A 
ATOM     19  C   UNL A   1      34.385  18.900  24.620  1.00  0.00     0.060 A 
BRANCH  16  20
ATOM     20  C   UNL A   1      32.937  22.105  23.900  1.00  0.00     0.065 A 
ATOM     21  C   UNL A   1      32.261  24.709  23.168  1.00  0.00     0.082 A 
ATOM     22  C   UNL A   1      31.628  24.111  24.260  1.00  0.00     0.024 A 
ATOM     23  C   UNL A   1      33.257  24.029  22.460  1.00  0.00     0.024 A 
ATOM     24  C   UNL A   1      31.949  22.799  24.614  1.00  0.00     0.030 A 
ATOM     25  C   UNL A   1      33.614  22.733  22.844  1.00  0.00     0.030 A 
BRANCH  21  26
ATOM     26  S   UNL A   1      31.796  26.351  22.705  1.00  0.00     0.238 S 
ATOM     27  O   UNL A   1      31.494  26.377  21.297  1.00  0.00    -0.207 OA
ATOM     28  O   UNL A   1      32.728  27.269  23.321  1.00  0.00    -0.207 OA
BRANCH  26  29
ATOM     29  N   UNL A   1      30.324  26.595  23.481  1.00  0.00    -0.225 NA
ATOM     30  H   UNL A   1      30.215  27.586  23.698  1.00  0.00     0.137 HD
ATOM     31  H   UNL A   1      30.301  26.053  24.344  1.00  0.00     0.137 HD
ENDBRANCH  26  29
ENDBRANCH  21  26
ENDBRANCH  16  20
BRANCH  18  32
ATOM     32  C   UNL A   1      32.364  17.299  24.323  1.00  0.00     0.393 C 
ATOM     33  F   UNL A   1      33.171  16.344  23.783  1.00  0.00    -0.203 F 
ATOM     34  F   UNL A   1      32.019  16.863  25.564  1.00  0.00    -0.203 F 
ENDBRANCH  18  32
ENDBRANCH  10  15
ENDBRANCH   7   9
ENDBRANCH   6   7
ENDBRANCH   5   6
ENDBRANCH   4   5
ENDBRANCH   3   4
ENDBRANCH   2   3
ENDBRANCH   1   2
BRANCH   1  35
ATOM     35  O   UNL A   1      44.670  18.861  25.672  1.00  0.00    -0.377 OA
BRANCH  35  36
ATOM     36  C   UNL A   1      44.689  19.499  24.397  1.00  0.00     0.188 C 
BRANCH  36  37
ATOM     37  C   UNL A   1      45.107  20.982  24.412  1.00  0.00     0.188 C 
BRANCH  37  38
ATOM     38  O   UNL A   1      44.808  21.636  25.645  1.00  0.00    -0.376 OA
BRANCH  38  39
ATOM     39  C   UNL A   1      45.732  22.611  26.111  1.00  0.00     0.202 C 
BRANCH  39  40
ATOM     40  C   UNL A   1      45.057  23.750  26.872  1.00  0.00     0.261 C 
BRANCH  40  41
ATOM     41  O   UNL A   1      45.714  25.006  26.731  1.00  0.00    -0.460 OA
BRANCH  41  42
ATOM     42  C   UNL A   1      44.976  26.005  26.209  1.00  0.00     0.338 C 
ATOM     43  O   UNL A   1      44.948  26.374  25.048  1.00  0.00    -0.246 OA
BRANCH  42  44
ATOM     44  C   UNL A   1      44.202  26.637  27.281  1.00  0.00     0.060 A 
ATOM     45  C   UNL A   1      42.939  27.128  26.939  1.00  0.00     0.016 A 
ATOM     46  C   UNL A   1      44.814  26.938  28.506  1.00  0.00     0.016 A 
ATOM     47  C   UNL A   1      42.380  28.102  27.735  1.00  0.00     0.010 A 
ATOM     48  C   UNL A   1      44.256  27.915  29.298  1.00  0.00     0.010 A 
ATOM     49  C   UNL A   1      43.100  28.548  28.846  1.00  0.00    -0.014 A 
BRANCH  49  50
ATOM     50  C   UNL A   1      42.689  29.801  29.440  1.00  0.00     0.031 A 
ATOM     51  C   UNL A   1      43.482  30.987  29.077  1.00  0.00     0.074 A 
ATOM     52  C   UNL A   1      41.577  29.866  30.197  1.00  0.00     0.049 A 
ATOM     53  N   UNL A   1      44.165  31.750  29.863  1.00  0.00    -0.248 NA
ATOM     54  C   UNL A   1      43.594  31.317  27.651  1.00  0.00     0.031 C 
ATOM     55  C   UNL A   1      40.548  28.829  30.347  1.00  0.00     0.029 A 
ATOM     56  N   UNL A   1      41.053  30.932  30.863  1.00  0.00    -0.354 N 
ATOM     57  C   UNL A   1      44.608  32.793  29.058  1.00  0.00     0.074 A 
ATOM     58  C   UNL A   1      44.374  32.396  27.693  1.00  0.00     0.031 C 
ATOM     59  C   UNL A   1      39.423  29.399  30.831  1.00  0.00     0.029 A 
ATOM     60  C   UNL A   1      39.700  30.792  31.136  1.00  0.00     0.049 A 
ATOM     61  H   UNL A   1      41.580  31.722  31.122  1.00  0.00     0.167 HD
ATOM     62  C   UNL A   1      44.909  34.014  29.571  1.00  0.00     0.034 A 
ATOM     63  C   UNL A   1      38.844  31.778  31.491  1.00  0.00     0.034 A 
ATOM     64  C   UNL A   1      45.096  33.987  30.995  1.00  0.00     0.049 A 
ATOM     65  C   UNL A   1      39.645  32.919  31.990  1.00  0.00     0.074 A 
ATOM     66  C   UNL A   1      45.936  33.321  31.864  1.00  0.00     0.029 A 
ATOM     67  N   UNL A   1      44.098  34.528  31.767  1.00  0.00    -0.354 N 
ATOM     68  N   UNL A   1      40.316  32.912  33.108  1.00  0.00    -0.248 NA
ATOM     69  C   UNL A   1      39.986  33.987  31.065  1.00  0.00     0.031 C 
ATOM     70  C   UNL A   1      45.179  33.143  33.058  1.00  0.00     0.029 A 
ATOM     71  C   UNL A   1      43.921  33.712  32.851  1.00  0.00     0.049 A 
ATOM     72  H   UNL A   1      43.601  35.355  31.575  1.00  0.00     0.167 HD
ATOM     73  C   UNL A   1      41.434  33.694  32.850  1.00  0.00     0.074 A 
ATOM     74  C   UNL A   1      41.098  34.443  31.646  1.00  0.00     0.031 C 
ATOM     75  C   UNL A   1      42.633  33.438  33.458  1.00  0.00     0.034 A 
BRANCH  62  76
ATOM     76  C   UNL A   1      44.707  35.303  28.822  1.00  0.00     0.023 A 
ATOM     77  C   UNL A   1      43.384  35.731  28.591  1.00  0.00     0.012 A 
ATOM     78  C   UNL A   1      45.736  35.979  28.129  1.00  0.00     0.148 A 
ATOM     79  C   UNL A   1      43.100  36.772  27.701  1.00  0.00     0.002 A 
ATOM     80  C   UNL A   1      45.455  37.075  27.323  1.00  0.00     0.091 A 
ATOM     81  F   UNL A   1      46.982  35.491  28.131  1.00  0.00    -0.205 F 
ATOM     82  C   UNL A   1      44.137  37.459  27.081  1.00  0.00     0.022 A 
BRANCH  80  83
ATOM     83  S   UNL A   1      46.792  38.030  26.600  1.00  0.00     0.127 S 
ATOM     84  O   UNL A   1      47.636  38.290  27.760  1.00  0.00    -0.237 OA
ATOM     85  O   UNL A   1      47.350  37.095  25.622  1.00  0.00    -0.237 OA
ATOM     86  O   UNL A   1      46.129  39.184  26.000  1.00  0.00    -0.744 OA
ENDBRANCH  80  83
ENDBRANCH  62  76
BRANCH  63  87
ATOM     87  C   UNL A   1      37.391  31.878  31.235  1.00  0.00     0.023 A 
ATOM     88  C   UNL A   1      36.500  31.968  32.321  1.00  0.00     0.012 A 
ATOM     89  C   UNL A   1      36.886  32.115  29.936  1.00  0.00     0.148 A 
ATOM     90  C   UNL A   1      35.155  32.299  32.122  1.00  0.00     0.002 A 
ATOM     91  C   UNL A   1      35.542  32.419  29.741  1.00  0.00     0.091 A 
ATOM     92  F   UNL A   1      37.737  32.134  28.901  1.00  0.00    -0.205 F 
ATOM     93  C   UNL A   1      34.676  32.523  30.834  1.00  0.00     0.022 A 
BRANCH  91  94
ATOM     94  S   UNL A   1      34.865  32.704  28.100  1.00  0.00     0.127 S 
ATOM     95  O   UNL A   1      34.952  31.374  27.494  1.00  0.00    -0.237 OA
ATOM     96  O   UNL A   1      33.509  33.150  28.403  1.00  0.00    -0.237 OA
ATOM     97  O   UNL A   1      35.741  33.694  27.483  1.00  0.00    -0.744 OA
ENDBRANCH  91  94
ENDBRANCH  63  87
BRANCH  75  98
ATOM     98  C   UNL A   1      42.645  32.521  34.658  1.00  0.00     0.023 A 
ATOM     99  C   UNL A   1      42.529  33.022  35.972  1.00  0.00     0.012 A 
ATOM    100  C   UNL A   1      42.589  31.130  34.458  1.00  0.00     0.148 A 
ATOM    101  C   UNL A   1      42.393  32.159  37.061  1.00  0.00     0.002 A 
ATOM    102  C   UNL A   1      42.403  30.275  35.541  1.00  0.00     0.091 A 
ATOM    103  F   UNL A   1      42.689  30.660  33.205  1.00  0.00    -0.205 F 
ATOM    104  C   UNL A   1      42.317  30.785  36.844  1.00  0.00     0.022 A 
BRANCH 102 105
ATOM    105  S   UNL A   1      42.153  28.512  35.307  1.00  0.00     0.127 S 
ATOM    106  O   UNL A   1      40.955  28.477  34.473  1.00  0.00    -0.237 OA
ATOM    107  O   UNL A   1      43.382  28.099  34.627  1.00  0.00    -0.237 OA
ATOM    108  O   UNL A   1      42.009  27.957  36.649  1.00  0.00    -0.744 OA
ENDBRANCH 102 105
ENDBRANCH  75  98
ENDBRANCH  49  50
ENDBRANCH  42  44
ENDBRANCH  41  42
ENDBRANCH  40  41
ENDBRANCH  39  40
ENDBRANCH  38  39
ENDBRANCH  37  38
ENDBRANCH  36  37
ENDBRANCH  35  36
ENDBRANCH   1  35
TORSDOF 28
ENDMDL
