MODEL 1
REMARK VINA RESULT:      -7.4      0.000      0.000
REMARK SMILES C[NH2+][C@@]1(C(=O)OCCOCCOCCOCCOC(=O)c2ccc(-c3c4nc(c(-c5cccc(S(=O)(=O)[O-])c5F)c5ccc([nH]5)c(-c5cccc(S(=O)(=O)[O-])c5F)c5nc(c(-c6cccc(S(=O)(=O)[O-])c6F)c6ccc3[nH]6)C=C5)C=C4)cc2)CC[C@H](Sc2ccc(C)c(C)c2)C1
REMARK SMILES IDX 13 1 12 2 11 3 10 4 9 5 8 6 7 7 6 8 4 9 5 10 3 11 84 12
REMARK SMILES IDX 96 13 85 14 86 15 2 16 1 17 87 20 88 21 89 22 95 23 90 24
REMARK SMILES IDX 93 25 91 26 94 27 92 28 14 29 15 30 16 31 17 32 18 33 19 34
REMARK SMILES IDX 20 35 21 36 22 37 83 38 23 39 82 40 24 41 25 42 26 43 76 44
REMARK SMILES IDX 27 45 81 46 75 47 77 48 28 49 80 50 74 51 73 52 29 54 61 55
REMARK SMILES IDX 41 56 60 57 42 58 45 59 59 60 78 61 43 62 44 63 58 65 79 66
REMARK SMILES IDX 46 67 30 68 31 69 39 70 32 71 34 72 40 73 33 74 35 75 36 76
REMARK SMILES IDX 37 77 38 78 62 79 63 80 71 81 64 82 66 83 72 84 65 85 67 86
REMARK SMILES IDX 68 87 69 88 70 89 47 90 48 91 56 92 49 93 51 94 57 95 50 96
REMARK SMILES IDX 52 97 53 98 54 99 55 100
REMARK H PARENT 2 18 2 19 77 53 45 64
REMARK Flexibility Score: inf
ROOT
ATOM      1  C   UNL A   1      38.888  28.131  30.095  1.00  0.00     0.188 C 
ENDROOT
BRANCH   1   2
ATOM      2  O   UNL A   1      39.365  28.100  28.758  1.00  0.00    -0.377 OA
BRANCH   2   3
ATOM      3  C   UNL A   1      38.540  28.518  27.694  1.00  0.00     0.188 C 
BRANCH   3   4
ATOM      4  C   UNL A   1      37.533  29.631  27.990  1.00  0.00     0.188 C 
BRANCH   4   5
ATOM      5  O   UNL A   1      36.155  29.345  27.882  1.00  0.00    -0.376 OA
BRANCH   5   6
ATOM      6  C   UNL A   1      35.180  30.376  27.896  1.00  0.00     0.202 C 
BRANCH   6   7
ATOM      7  C   UNL A   1      33.828  30.380  27.150  1.00  0.00     0.261 C 
BRANCH   7   8
ATOM      8  O   UNL A   1      33.556  29.322  26.223  1.00  0.00    -0.459 OA
BRANCH   8   9
ATOM      9  C   UNL A   1      32.482  29.500  25.426  1.00  0.00     0.368 C 
ATOM     10  O   UNL A   1      31.562  30.275  25.695  1.00  0.00    -0.245 OA
BRANCH   9  11
ATOM     11  C   UNL A   1      32.480  28.634  24.119  1.00  0.00     0.195 C 
ATOM     12  C   UNL A   1      30.983  28.401  23.847  1.00  0.00     0.082 C 
ATOM     13  C   UNL A   1      32.970  27.173  24.072  1.00  0.00     0.096 C 
ATOM     14  C   UNL A   1      30.656  27.220  24.774  1.00  0.00     0.022 C 
ATOM     15  C   UNL A   1      31.864  26.288  24.652  1.00  0.00     0.059 C 
BRANCH  11  16
ATOM     16  N   UNL A   1      33.321  29.393  23.162  1.00  0.00    -0.335 N 
ATOM     17  C   UNL A   1      34.374  28.660  22.506  1.00  0.00     0.331 C 
ATOM     18  H   UNL A   1      32.707  29.766  22.439  1.00  0.00     0.347 HD
ATOM     19  H   UNL A   1      33.795  30.100  23.725  1.00  0.00     0.347 HD
ENDBRANCH  11  16
BRANCH  15  20
ATOM     20  S   UNL A   1      32.531  25.559  26.181  1.00  0.00    -0.122 SA
BRANCH  20  21
ATOM     21  C   UNL A   1      32.754  23.841  25.829  1.00  0.00     0.008 A 
ATOM     22  C   UNL A   1      33.233  22.893  26.727  1.00  0.00     0.015 A 
ATOM     23  C   UNL A   1      32.428  23.442  24.530  1.00  0.00     0.018 A 
ATOM     24  C   UNL A   1      33.451  21.584  26.311  1.00  0.00     0.005 A 
ATOM     25  C   UNL A   1      32.598  22.117  24.111  1.00  0.00    -0.047 A 
ATOM     26  C   UNL A   1      33.147  21.185  25.004  1.00  0.00    -0.048 A 
ATOM     27  C   UNL A   1      32.255  21.758  22.697  1.00  0.00     0.044 C 
ATOM     28  C   UNL A   1      33.426  19.758  24.629  1.00  0.00     0.044 C 
ENDBRANCH  20  21
ENDBRANCH  15  20
ENDBRANCH   9  11
ENDBRANCH   8   9
ENDBRANCH   7   8
ENDBRANCH   6   7
ENDBRANCH   5   6
ENDBRANCH   4   5
ENDBRANCH   3   4
ENDBRANCH   2   3
ENDBRANCH   1   2
BRANCH   1  29
ATOM     29  C   UNL A   1      39.754  28.727  31.218  1.00  0.00     0.188 C 
BRANCH  29  30
ATOM     30  O   UNL A   1      39.052  29.518  32.163  1.00  0.00    -0.376 OA
BRANCH  30  31
ATOM     31  C   UNL A   1      39.464  29.483  33.522  1.00  0.00     0.202 C 
BRANCH  31  32
ATOM     32  C   UNL A   1      39.800  30.810  34.224  1.00  0.00     0.261 C 
BRANCH  32  33
ATOM     33  O   UNL A   1      41.020  30.854  34.984  1.00  0.00    -0.460 OA
BRANCH  33  34
ATOM     34  C   UNL A   1      41.501  29.707  35.500  1.00  0.00     0.338 C 
ATOM     35  O   UNL A   1      40.955  28.984  36.320  1.00  0.00    -0.246 OA
BRANCH  34  36
ATOM     36  C   UNL A   1      42.730  29.350  34.761  1.00  0.00     0.060 A 
ATOM     37  C   UNL A   1      43.324  30.306  33.926  1.00  0.00     0.016 A 
ATOM     38  C   UNL A   1      43.286  28.074  34.875  1.00  0.00     0.016 A 
ATOM     39  C   UNL A   1      44.443  29.975  33.160  1.00  0.00     0.010 A 
ATOM     40  C   UNL A   1      44.397  27.739  34.094  1.00  0.00     0.010 A 
ATOM     41  C   UNL A   1      44.956  28.674  33.200  1.00  0.00    -0.014 A 
BRANCH  41  42
ATOM     42  C   UNL A   1      45.925  28.220  32.168  1.00  0.00     0.031 A 
ATOM     43  C   UNL A   1      47.369  28.628  32.325  1.00  0.00     0.074 A 
ATOM     44  C   UNL A   1      45.553  27.459  31.122  1.00  0.00     0.049 A 
ATOM     45  N   UNL A   1      48.383  28.421  31.526  1.00  0.00    -0.248 NA
ATOM     46  C   UNL A   1      47.721  29.350  33.562  1.00  0.00     0.031 C 
ATOM     47  C   UNL A   1      44.218  26.906  30.896  1.00  0.00     0.029 A 
ATOM     48  N   UNL A   1      46.271  27.049  30.024  1.00  0.00    -0.354 N 
ATOM     49  C   UNL A   1      49.484  28.992  32.153  1.00  0.00     0.074 A 
ATOM     50  C   UNL A   1      49.012  29.582  33.386  1.00  0.00     0.031 C 
ATOM     51  C   UNL A   1      44.197  26.286  29.701  1.00  0.00     0.029 A 
ATOM     52  C   UNL A   1      45.502  26.428  29.065  1.00  0.00     0.049 A 
ATOM     53  H   UNL A   1      47.241  27.187  29.931  1.00  0.00     0.167 HD
ATOM     54  C   UNL A   1      50.778  29.003  31.754  1.00  0.00     0.034 A 
ATOM     55  C   UNL A   1      45.812  26.052  27.809  1.00  0.00     0.034 A 
ATOM     56  C   UNL A   1      51.246  28.406  30.533  1.00  0.00     0.049 A 
ATOM     57  C   UNL A   1      47.230  26.205  27.328  1.00  0.00     0.074 A 
ATOM     58  C   UNL A   1      52.543  28.315  30.061  1.00  0.00     0.029 A 
ATOM     59  N   UNL A   1      50.431  27.819  29.577  1.00  0.00    -0.354 N 
ATOM     60  N   UNL A   1      48.277  26.664  27.969  1.00  0.00    -0.248 NA
ATOM     61  C   UNL A   1      47.522  25.724  25.968  1.00  0.00     0.031 C 
ATOM     62  C   UNL A   1      52.507  27.717  28.798  1.00  0.00     0.029 A 
ATOM     63  C   UNL A   1      51.193  27.389  28.506  1.00  0.00     0.049 A 
ATOM     64  H   UNL A   1      49.454  27.724  29.650  1.00  0.00     0.167 HD
ATOM     65  C   UNL A   1      49.361  26.462  27.121  1.00  0.00     0.074 A 
ATOM     66  C   UNL A   1      48.840  25.850  25.916  1.00  0.00     0.031 C 
ATOM     67  C   UNL A   1      50.671  26.742  27.329  1.00  0.00     0.034 A 
BRANCH  54  68
ATOM     68  C   UNL A   1      51.787  29.669  32.653  1.00  0.00     0.023 A 
ATOM     69  C   UNL A   1      52.068  31.042  32.502  1.00  0.00     0.012 A 
ATOM     70  C   UNL A   1      52.414  28.946  33.688  1.00  0.00     0.148 A 
ATOM     71  C   UNL A   1      52.981  31.679  33.343  1.00  0.00     0.002 A 
ATOM     72  C   UNL A   1      53.286  29.597  34.552  1.00  0.00     0.091 A 
ATOM     73  F   UNL A   1      52.150  27.638  33.804  1.00  0.00    -0.205 F 
ATOM     74  C   UNL A   1      53.581  30.959  34.373  1.00  0.00     0.022 A 
BRANCH  72  75
ATOM     75  S   UNL A   1      54.049  28.780  35.957  1.00  0.00     0.127 S 
ATOM     76  O   UNL A   1      52.878  28.281  36.679  1.00  0.00    -0.237 OA
ATOM     77  O   UNL A   1      54.852  27.742  35.309  1.00  0.00    -0.237 OA
ATOM     78  O   UNL A   1      54.818  29.802  36.650  1.00  0.00    -0.744 OA
ENDBRANCH  72  75
ENDBRANCH  54  68
BRANCH  55  79
ATOM     79  C   UNL A   1      44.795  25.432  26.913  1.00  0.00     0.023 A 
ATOM     80  C   UNL A   1      44.089  26.252  26.014  1.00  0.00     0.012 A 
ATOM     81  C   UNL A   1      44.466  24.065  26.995  1.00  0.00     0.148 A 
ATOM     82  C   UNL A   1      43.059  25.730  25.230  1.00  0.00     0.002 A 
ATOM     83  C   UNL A   1      43.454  23.546  26.192  1.00  0.00     0.091 A 
ATOM     84  F   UNL A   1      45.143  23.295  27.860  1.00  0.00    -0.205 F 
ATOM     85  C   UNL A   1      42.742  24.379  25.318  1.00  0.00     0.022 A 
BRANCH  83  86
ATOM     86  S   UNL A   1      42.993  21.811  26.251  1.00  0.00     0.127 S 
ATOM     87  O   UNL A   1      41.863  21.736  25.324  1.00  0.00    -0.237 OA
ATOM     88  O   UNL A   1      44.213  21.167  25.774  1.00  0.00    -0.237 OA
ATOM     89  O   UNL A   1      42.633  21.569  27.643  1.00  0.00    -0.744 OA
ENDBRANCH  83  86
ENDBRANCH  55  79
BRANCH  67  90
ATOM     90  C   UNL A   1      51.654  26.331  26.264  1.00  0.00     0.023 A 
ATOM     91  C   UNL A   1      52.246  25.054  26.295  1.00  0.00     0.012 A 
ATOM     92  C   UNL A   1      51.940  27.200  25.191  1.00  0.00     0.148 A 
ATOM     93  C   UNL A   1      53.137  24.662  25.296  1.00  0.00     0.002 A 
ATOM     94  C   UNL A   1      52.784  26.782  24.170  1.00  0.00     0.091 A 
ATOM     95  F   UNL A   1      51.381  28.419  25.188  1.00  0.00    -0.205 F 
ATOM     96  C   UNL A   1      53.395  25.519  24.228  1.00  0.00     0.022 A 
BRANCH  94  97
ATOM     97  S   UNL A   1      53.093  27.776  22.705  1.00  0.00     0.127 S 
ATOM     98  O   UNL A   1      51.735  28.058  22.245  1.00  0.00    -0.237 OA
ATOM     99  O   UNL A   1      53.801  28.930  23.260  1.00  0.00    -0.237 OA
ATOM    100  O   UNL A   1      53.892  26.945  21.815  1.00  0.00    -0.744 OA
ENDBRANCH  94  97
ENDBRANCH  67  90
ENDBRANCH  41  42
ENDBRANCH  34  36
ENDBRANCH  33  34
ENDBRANCH  32  33
ENDBRANCH  31  32
ENDBRANCH  30  31
ENDBRANCH  29  30
ENDBRANCH   1  29
TORSDOF 26
ENDMDL
MODEL 2
REMARK VINA RESULT:      -7.3      6.339     12.660
REMARK SMILES C[NH2+][C@@]1(C(=O)OCCOCCOCCOCCOC(=O)c2ccc(-c3c4nc(c(-c5cccc(S(=O)(=O)[O-])c5F)c5ccc([nH]5)c(-c5cccc(S(=O)(=O)[O-])c5F)c5nc(c(-c6cccc(S(=O)(=O)[O-])c6F)c6ccc3[nH]6)C=C5)C=C4)cc2)CC[C@H](Sc2ccc(C)c(C)c2)C1
REMARK SMILES IDX 13 1 12 2 11 3 10 4 9 5 8 6 7 7 6 8 4 9 5 10 3 11 84 12
REMARK SMILES IDX 96 13 85 14 86 15 2 16 1 17 87 20 88 21 89 22 95 23 90 24
REMARK SMILES IDX 93 25 91 26 94 27 92 28 14 29 15 30 16 31 17 32 18 33 19 34
REMARK SMILES IDX 20 35 21 36 22 37 83 38 23 39 82 40 24 41 25 42 26 43 76 44
REMARK SMILES IDX 27 45 81 46 75 47 77 48 28 49 80 50 74 51 73 52 29 54 61 55
REMARK SMILES IDX 41 56 60 57 42 58 45 59 59 60 78 61 43 62 44 63 58 65 79 66
REMARK SMILES IDX 46 67 30 68 31 69 39 70 32 71 34 72 40 73 33 74 35 75 36 76
REMARK SMILES IDX 37 77 38 78 62 79 63 80 71 81 64 82 66 83 72 84 65 85 67 86
REMARK SMILES IDX 68 87 69 88 70 89 47 90 48 91 56 92 49 93 51 94 57 95 50 96
REMARK SMILES IDX 52 97 53 98 54 99 55 100
REMARK H PARENT 2 18 2 19 77 53 45 64
REMARK Flexibility Score: inf
ROOT
ATOM      1  C   UNL A   1      47.905  26.667  26.107  1.00  0.00     0.188 C 
ENDROOT
BRANCH   1   2
ATOM      2  O   UNL A   1      47.964  27.681  27.098  1.00  0.00    -0.377 OA
BRANCH   2   3
ATOM      3  C   UNL A   1      47.637  29.015  26.778  1.00  0.00     0.188 C 
BRANCH   3   4
ATOM      4  C   UNL A   1      46.422  29.237  25.875  1.00  0.00     0.188 C 
BRANCH   4   5
ATOM      5  O   UNL A   1      46.177  30.532  25.374  1.00  0.00    -0.376 OA
BRANCH   5   6
ATOM      6  C   UNL A   1      45.760  31.590  26.223  1.00  0.00     0.202 C 
BRANCH   6   7
ATOM      7  C   UNL A   1      44.319  32.116  26.405  1.00  0.00     0.261 C 
BRANCH   7   8
ATOM      8  O   UNL A   1      44.035  33.471  26.040  1.00  0.00    -0.459 OA
BRANCH   8   9
ATOM      9  C   UNL A   1      45.090  34.313  26.034  1.00  0.00     0.368 C 
ATOM     10  O   UNL A   1      46.006  34.241  25.213  1.00  0.00    -0.245 OA
BRANCH   9  11
ATOM     11  C   UNL A   1      45.074  35.399  27.165  1.00  0.00     0.195 C 
ATOM     12  C   UNL A   1      46.510  35.361  27.718  1.00  0.00     0.082 C 
ATOM     13  C   UNL A   1      44.295  35.232  28.485  1.00  0.00     0.096 C 
ATOM     14  C   UNL A   1      46.459  34.173  28.691  1.00  0.00     0.022 C 
ATOM     15  C   UNL A   1      45.106  34.307  29.396  1.00  0.00     0.059 C 
BRANCH  11  16
ATOM     16  N   UNL A   1      44.538  36.617  26.510  1.00  0.00    -0.335 N 
ATOM     17  C   UNL A   1      43.138  36.893  26.706  1.00  0.00     0.331 C 
ATOM     18  H   UNL A   1      45.064  37.415  26.866  1.00  0.00     0.347 HD
ATOM     19  H   UNL A   1      44.643  36.451  25.509  1.00  0.00     0.347 HD
ENDBRANCH  11  16
BRANCH  15  20
ATOM     20  S   UNL A   1      44.114  32.798  29.620  1.00  0.00    -0.122 SA
BRANCH  20  21
ATOM     21  C   UNL A   1      45.200  31.625  30.376  1.00  0.00     0.008 A 
ATOM     22  C   UNL A   1      45.623  30.434  29.797  1.00  0.00     0.015 A 
ATOM     23  C   UNL A   1      45.634  31.946  31.665  1.00  0.00     0.018 A 
ATOM     24  C   UNL A   1      46.409  29.544  30.523  1.00  0.00     0.005 A 
ATOM     25  C   UNL A   1      46.464  31.082  32.389  1.00  0.00    -0.047 A 
ATOM     26  C   UNL A   1      46.829  29.852  31.823  1.00  0.00    -0.048 A 
ATOM     27  C   UNL A   1      46.874  31.472  33.777  1.00  0.00     0.044 C 
ATOM     28  C   UNL A   1      47.662  28.833  32.545  1.00  0.00     0.044 C 
ENDBRANCH  20  21
ENDBRANCH  15  20
ENDBRANCH   9  11
ENDBRANCH   8   9
ENDBRANCH   7   8
ENDBRANCH   6   7
ENDBRANCH   5   6
ENDBRANCH   4   5
ENDBRANCH   3   4
ENDBRANCH   2   3
ENDBRANCH   1   2
BRANCH   1  29
ATOM     29  C   UNL A   1      47.067  25.398  26.338  1.00  0.00     0.188 C 
BRANCH  29  30
ATOM     30  O   UNL A   1      46.099  25.126  25.339  1.00  0.00    -0.376 OA
BRANCH  30  31
ATOM     31  C   UNL A   1      45.376  23.904  25.403  1.00  0.00     0.202 C 
BRANCH  31  32
ATOM     32  C   UNL A   1      43.950  23.861  24.826  1.00  0.00     0.261 C 
BRANCH  32  33
ATOM     33  O   UNL A   1      42.876  24.208  25.716  1.00  0.00    -0.460 OA
BRANCH  33  34
ATOM     34  C   UNL A   1      42.413  25.473  25.709  1.00  0.00     0.338 C 
ATOM     35  O   UNL A   1      41.786  26.020  24.814  1.00  0.00    -0.246 OA
BRANCH  34  36
ATOM     36  C   UNL A   1      42.616  26.045  27.057  1.00  0.00     0.060 A 
ATOM     37  C   UNL A   1      43.712  26.888  27.279  1.00  0.00     0.016 A 
ATOM     38  C   UNL A   1      41.741  25.738  28.101  1.00  0.00     0.016 A 
ATOM     39  C   UNL A   1      43.970  27.386  28.558  1.00  0.00     0.010 A 
ATOM     40  C   UNL A   1      42.010  26.224  29.385  1.00  0.00     0.010 A 
ATOM     41  C   UNL A   1      43.150  27.015  29.629  1.00  0.00    -0.014 A 
BRANCH  41  42
ATOM     42  C   UNL A   1      43.588  27.264  31.028  1.00  0.00     0.031 A 
ATOM     43  C   UNL A   1      43.166  28.556  31.682  1.00  0.00     0.074 A 
ATOM     44  C   UNL A   1      44.331  26.376  31.715  1.00  0.00     0.049 A 
ATOM     45  N   UNL A   1      43.480  29.034  32.858  1.00  0.00    -0.248 NA
ATOM     46  C   UNL A   1      42.248  29.417  30.914  1.00  0.00     0.031 C 
ATOM     47  C   UNL A   1      44.727  25.047  31.249  1.00  0.00     0.029 A 
ATOM     48  N   UNL A   1      44.921  26.481  32.952  1.00  0.00    -0.354 N 
ATOM     49  C   UNL A   1      42.811  30.248  32.967  1.00  0.00     0.074 A 
ATOM     50  C   UNL A   1      42.097  30.451  31.726  1.00  0.00     0.031 C 
ATOM     51  C   UNL A   1      45.546  24.489  32.159  1.00  0.00     0.029 A 
ATOM     52  C   UNL A   1      45.760  25.432  33.252  1.00  0.00     0.049 A 
ATOM     53  H   UNL A   1      44.759  27.235  33.564  1.00  0.00     0.167 HD
ATOM     54  C   UNL A   1      42.771  31.105  34.013  1.00  0.00     0.034 A 
ATOM     55  C   UNL A   1      46.624  25.272  34.274  1.00  0.00     0.034 A 
ATOM     56  C   UNL A   1      43.474  30.895  35.250  1.00  0.00     0.049 A 
ATOM     57  C   UNL A   1      46.672  26.312  35.362  1.00  0.00     0.074 A 
ATOM     58  C   UNL A   1      43.459  31.675  36.392  1.00  0.00     0.029 A 
ATOM     59  N   UNL A   1      44.337  29.840  35.499  1.00  0.00    -0.354 N 
ATOM     60  N   UNL A   1      45.965  27.408  35.490  1.00  0.00    -0.248 NA
ATOM     61  C   UNL A   1      47.593  26.055  36.480  1.00  0.00     0.031 C 
ATOM     62  C   UNL A   1      44.351  31.118  37.313  1.00  0.00     0.029 A 
ATOM     63  C   UNL A   1      44.882  29.962  36.764  1.00  0.00     0.049 A 
ATOM     64  H   UNL A   1      44.535  29.111  34.867  1.00  0.00     0.167 HD
ATOM     65  C   UNL A   1      46.303  27.934  36.734  1.00  0.00     0.074 A 
ATOM     66  C   UNL A   1      47.286  27.040  37.312  1.00  0.00     0.031 C 
ATOM     67  C   UNL A   1      45.827  29.045  37.348  1.00  0.00     0.034 A 
BRANCH  54  68
ATOM     68  C   UNL A   1      41.928  32.346  33.876  1.00  0.00     0.023 A 
ATOM     69  C   UNL A   1      42.476  33.511  33.299  1.00  0.00     0.012 A 
ATOM     70  C   UNL A   1      40.574  32.341  34.265  1.00  0.00     0.148 A 
ATOM     71  C   UNL A   1      41.700  34.659  33.142  1.00  0.00     0.002 A 
ATOM     72  C   UNL A   1      39.794  33.473  34.063  1.00  0.00     0.091 A 
ATOM     73  F   UNL A   1      40.076  31.232  34.830  1.00  0.00    -0.205 F 
ATOM     74  C   UNL A   1      40.358  34.637  33.514  1.00  0.00     0.022 A 
BRANCH  72  75
ATOM     75  S   UNL A   1      38.038  33.520  34.433  1.00  0.00     0.127 S 
ATOM     76  O   UNL A   1      37.718  34.923  34.170  1.00  0.00    -0.237 OA
ATOM     77  O   UNL A   1      37.494  32.577  33.455  1.00  0.00    -0.237 OA
ATOM     78  O   UNL A   1      37.907  33.102  35.821  1.00  0.00    -0.744 OA
ENDBRANCH  72  75
ENDBRANCH  54  68
BRANCH  55  79
ATOM     79  C   UNL A   1      47.484  24.059  34.378  1.00  0.00     0.023 A 
ATOM     80  C   UNL A   1      46.987  22.928  35.050  1.00  0.00     0.012 A 
ATOM     81  C   UNL A   1      48.806  24.042  33.892  1.00  0.00     0.148 A 
ATOM     82  C   UNL A   1      47.796  21.810  35.258  1.00  0.00     0.002 A 
ATOM     83  C   UNL A   1      49.599  22.912  34.081  1.00  0.00     0.091 A 
ATOM     84  F   UNL A   1      49.269  25.128  33.256  1.00  0.00    -0.205 F 
ATOM     85  C   UNL A   1      49.100  21.801  34.773  1.00  0.00     0.022 A 
BRANCH  83  86
ATOM     86  S   UNL A   1      51.290  22.830  33.480  1.00  0.00     0.127 S 
ATOM     87  O   UNL A   1      51.987  23.804  34.320  1.00  0.00    -0.237 OA
ATOM     88  O   UNL A   1      51.630  21.438  33.754  1.00  0.00    -0.237 OA
ATOM     89  O   UNL A   1      51.204  23.213  32.076  1.00  0.00    -0.744 OA
ENDBRANCH  83  86
ENDBRANCH  55  79
BRANCH  67  90
ATOM     90  C   UNL A   1      46.307  29.333  38.747  1.00  0.00     0.023 A 
ATOM     91  C   UNL A   1      47.379  30.221  38.964  1.00  0.00     0.012 A 
ATOM     92  C   UNL A   1      45.645  28.766  39.854  1.00  0.00     0.148 A 
ATOM     93  C   UNL A   1      47.808  30.508  40.259  1.00  0.00     0.002 A 
ATOM     94  C   UNL A   1      46.041  29.101  41.142  1.00  0.00     0.091 A 
ATOM     95  F   UNL A   1      44.638  27.909  39.628  1.00  0.00    -0.205 F 
ATOM     96  C   UNL A   1      47.132  29.960  41.347  1.00  0.00     0.022 A 
BRANCH  94  97
ATOM     97  S   UNL A   1      45.165  28.527  42.602  1.00  0.00     0.127 S 
ATOM     98  O   UNL A   1      46.232  28.513  43.602  1.00  0.00    -0.237 OA
ATOM     99  O   UNL A   1      44.163  29.575  42.793  1.00  0.00    -0.237 OA
ATOM    100  O   UNL A   1      44.619  27.221  42.258  1.00  0.00    -0.744 OA
ENDBRANCH  94  97
ENDBRANCH  67  90
ENDBRANCH  41  42
ENDBRANCH  34  36
ENDBRANCH  33  34
ENDBRANCH  32  33
ENDBRANCH  31  32
ENDBRANCH  30  31
ENDBRANCH  29  30
ENDBRANCH   1  29
TORSDOF 26
ENDMDL
MODEL 3
REMARK VINA RESULT:      -7.3      6.180      7.583
REMARK SMILES C[NH2+][C@@]1(C(=O)OCCOCCOCCOCCOC(=O)c2ccc(-c3c4nc(c(-c5cccc(S(=O)(=O)[O-])c5F)c5ccc([nH]5)c(-c5cccc(S(=O)(=O)[O-])c5F)c5nc(c(-c6cccc(S(=O)(=O)[O-])c6F)c6ccc3[nH]6)C=C5)C=C4)cc2)CC[C@H](Sc2ccc(C)c(C)c2)C1
REMARK SMILES IDX 13 1 12 2 11 3 10 4 9 5 8 6 7 7 6 8 4 9 5 10 3 11 84 12
REMARK SMILES IDX 96 13 85 14 86 15 2 16 1 17 87 20 88 21 89 22 95 23 90 24
REMARK SMILES IDX 93 25 91 26 94 27 92 28 14 29 15 30 16 31 17 32 18 33 19 34
REMARK SMILES IDX 20 35 21 36 22 37 83 38 23 39 82 40 24 41 25 42 26 43 76 44
REMARK SMILES IDX 27 45 81 46 75 47 77 48 28 49 80 50 74 51 73 52 29 54 61 55
REMARK SMILES IDX 41 56 60 57 42 58 45 59 59 60 78 61 43 62 44 63 58 65 79 66
REMARK SMILES IDX 46 67 30 68 31 69 39 70 32 71 34 72 40 73 33 74 35 75 36 76
REMARK SMILES IDX 37 77 38 78 62 79 63 80 71 81 64 82 66 83 72 84 65 85 67 86
REMARK SMILES IDX 68 87 69 88 70 89 47 90 48 91 56 92 49 93 51 94 57 95 50 96
REMARK SMILES IDX 52 97 53 98 54 99 55 100
REMARK H PARENT 2 18 2 19 77 53 45 64
REMARK Flexibility Score: inf
ROOT
ATOM      1  C   UNL A   1      35.930  31.686  31.239  1.00  0.00     0.188 C 
ENDROOT
BRANCH   1   2
ATOM      2  O   UNL A   1      36.316  31.339  29.919  1.00  0.00    -0.377 OA
BRANCH   2   3
ATOM      3  C   UNL A   1      35.536  30.447  29.155  1.00  0.00     0.188 C 
BRANCH   3   4
ATOM      4  C   UNL A   1      35.718  30.488  27.636  1.00  0.00     0.188 C 
BRANCH   4   5
ATOM      5  O   UNL A   1      34.586  30.706  26.823  1.00  0.00    -0.376 OA
BRANCH   5   6
ATOM      6  C   UNL A   1      33.270  30.659  27.353  1.00  0.00     0.202 C 
BRANCH   6   7
ATOM      7  C   UNL A   1      32.038  29.987  26.709  1.00  0.00     0.261 C 
BRANCH   7   8
ATOM      8  O   UNL A   1      32.003  29.847  25.284  1.00  0.00    -0.459 OA
BRANCH   8   9
ATOM      9  C   UNL A   1      32.420  28.658  24.799  1.00  0.00     0.368 C 
ATOM     10  O   UNL A   1      33.106  27.867  25.449  1.00  0.00    -0.245 OA
BRANCH   9  11
ATOM     11  C   UNL A   1      31.971  28.352  23.329  1.00  0.00     0.195 C 
ATOM     12  C   UNL A   1      30.847  29.373  23.077  1.00  0.00     0.082 C 
ATOM     13  C   UNL A   1      31.230  27.061  22.924  1.00  0.00     0.096 C 
ATOM     14  C   UNL A   1      29.629  28.690  23.720  1.00  0.00     0.022 C 
ATOM     15  C   UNL A   1      29.762  27.215  23.331  1.00  0.00     0.059 C 
BRANCH  11  16
ATOM     16  N   UNL A   1      33.224  28.384  22.537  1.00  0.00    -0.335 N 
ATOM     17  C   UNL A   1      33.649  27.140  21.948  1.00  0.00     0.331 C 
ATOM     18  H   UNL A   1      33.094  29.056  21.780  1.00  0.00     0.347 HD
ATOM     19  H   UNL A   1      33.956  28.631  23.204  1.00  0.00     0.347 HD
ENDBRANCH  11  16
BRANCH  15  20
ATOM     20  S   UNL A   1      29.448  25.968  24.619  1.00  0.00    -0.122 SA
BRANCH  20  21
ATOM     21  C   UNL A   1      30.676  24.719  24.379  1.00  0.00     0.008 A 
ATOM     22  C   UNL A   1      30.757  23.874  23.278  1.00  0.00     0.015 A 
ATOM     23  C   UNL A   1      31.616  24.589  25.406  1.00  0.00     0.018 A 
ATOM     24  C   UNL A   1      31.717  22.867  23.239  1.00  0.00     0.005 A 
ATOM     25  C   UNL A   1      32.616  23.611  25.357  1.00  0.00    -0.047 A 
ATOM     26  C   UNL A   1      32.646  22.719  24.275  1.00  0.00    -0.048 A 
ATOM     27  C   UNL A   1      33.577  23.506  26.502  1.00  0.00     0.044 C 
ATOM     28  C   UNL A   1      33.639  21.599  24.165  1.00  0.00     0.044 C 
ENDBRANCH  20  21
ENDBRANCH  15  20
ENDBRANCH   9  11
ENDBRANCH   8   9
ENDBRANCH   7   8
ENDBRANCH   6   7
ENDBRANCH   5   6
ENDBRANCH   4   5
ENDBRANCH   3   4
ENDBRANCH   2   3
ENDBRANCH   1   2
BRANCH   1  29
ATOM     29  C   UNL A   1      34.946  32.842  31.487  1.00  0.00     0.188 C 
BRANCH  29  30
ATOM     30  O   UNL A   1      34.193  32.745  32.684  1.00  0.00    -0.376 OA
BRANCH  30  31
ATOM     31  C   UNL A   1      34.562  33.556  33.791  1.00  0.00     0.202 C 
BRANCH  31  32
ATOM     32  C   UNL A   1      35.901  34.312  33.735  1.00  0.00     0.261 C 
BRANCH  32  33
ATOM     33  O   UNL A   1      36.898  33.944  34.704  1.00  0.00    -0.460 OA
BRANCH  33  34
ATOM     34  C   UNL A   1      37.613  32.821  34.500  1.00  0.00     0.338 C 
ATOM     35  O   UNL A   1      37.232  31.670  34.647  1.00  0.00    -0.246 OA
BRANCH  34  36
ATOM     36  C   UNL A   1      38.896  33.201  33.871  1.00  0.00     0.060 A 
ATOM     37  C   UNL A   1      38.881  33.796  32.602  1.00  0.00     0.016 A 
ATOM     38  C   UNL A   1      40.108  32.956  34.518  1.00  0.00     0.016 A 
ATOM     39  C   UNL A   1      40.079  34.099  31.952  1.00  0.00     0.010 A 
ATOM     40  C   UNL A   1      41.307  33.245  33.859  1.00  0.00     0.010 A 
ATOM     41  C   UNL A   1      41.300  33.778  32.555  1.00  0.00    -0.014 A 
BRANCH  41  42
ATOM     42  C   UNL A   1      42.554  33.792  31.757  1.00  0.00     0.031 A 
ATOM     43  C   UNL A   1      43.330  35.084  31.681  1.00  0.00     0.074 A 
ATOM     44  C   UNL A   1      43.011  32.698  31.120  1.00  0.00     0.049 A 
ATOM     45  N   UNL A   1      44.406  35.369  30.995  1.00  0.00    -0.248 NA
ATOM     46  C   UNL A   1      42.837  36.200  32.509  1.00  0.00     0.031 C 
ATOM     47  C   UNL A   1      42.424  31.360  31.187  1.00  0.00     0.029 A 
ATOM     48  N   UNL A   1      44.068  32.552  30.253  1.00  0.00    -0.354 N 
ATOM     49  C   UNL A   1      44.712  36.691  31.297  1.00  0.00     0.074 A 
ATOM     50  C   UNL A   1      43.691  37.166  32.205  1.00  0.00     0.031 C 
ATOM     51  C   UNL A   1      43.088  30.547  30.344  1.00  0.00     0.029 A 
ATOM     52  C   UNL A   1      44.121  31.313  29.656  1.00  0.00     0.049 A 
ATOM     53  H   UNL A   1      44.723  33.265  30.076  1.00  0.00     0.167 HD
ATOM     54  C   UNL A   1      45.760  37.438  30.879  1.00  0.00     0.034 A 
ATOM     55  C   UNL A   1      44.894  30.865  28.646  1.00  0.00     0.034 A 
ATOM     56  C   UNL A   1      46.780  36.960  29.984  1.00  0.00     0.049 A 
ATOM     57  C   UNL A   1      45.966  31.764  28.091  1.00  0.00     0.074 A 
ATOM     58  C   UNL A   1      47.912  37.617  29.540  1.00  0.00     0.029 A 
ATOM     59  N   UNL A   1      46.777  35.714  29.377  1.00  0.00    -0.354 N 
ATOM     60  N   UNL A   1      46.297  32.979  28.453  1.00  0.00    -0.248 NA
ATOM     61  C   UNL A   1      46.815  31.200  27.030  1.00  0.00     0.031 C 
ATOM     62  C   UNL A   1      48.569  36.786  28.627  1.00  0.00     0.029 A 
ATOM     63  C   UNL A   1      47.872  35.592  28.541  1.00  0.00     0.049 A 
ATOM     64  H   UNL A   1      46.095  35.018  29.519  1.00  0.00     0.167 HD
ATOM     65  C   UNL A   1      47.434  33.298  27.717  1.00  0.00     0.074 A 
ATOM     66  C   UNL A   1      47.726  32.152  26.881  1.00  0.00     0.031 C 
ATOM     67  C   UNL A   1      48.178  34.431  27.746  1.00  0.00     0.034 A 
BRANCH  54  68
ATOM     68  C   UNL A   1      45.871  38.849  31.395  1.00  0.00     0.023 A 
ATOM     69  C   UNL A   1      46.618  39.115  32.562  1.00  0.00     0.012 A 
ATOM     70  C   UNL A   1      45.285  39.920  30.692  1.00  0.00     0.148 A 
ATOM     71  C   UNL A   1      46.751  40.419  33.039  1.00  0.00     0.002 A 
ATOM     72  C   UNL A   1      45.462  41.221  31.146  1.00  0.00     0.091 A 
ATOM     73  F   UNL A   1      44.564  39.645  29.597  1.00  0.00    -0.205 F 
ATOM     74  C   UNL A   1      46.183  41.471  32.325  1.00  0.00     0.022 A 
BRANCH  72  75
ATOM     75  S   UNL A   1      44.838  42.651  30.256  1.00  0.00     0.127 S 
ATOM     76  O   UNL A   1      45.560  42.547  28.988  1.00  0.00    -0.237 OA
ATOM     77  O   UNL A   1      43.407  42.356  30.169  1.00  0.00    -0.237 OA
ATOM     78  O   UNL A   1      45.174  43.810  31.070  1.00  0.00    -0.744 OA
ENDBRANCH  72  75
ENDBRANCH  54  68
BRANCH  55  79
ATOM     79  C   UNL A   1      44.747  29.480  28.115  1.00  0.00     0.023 A 
ATOM     80  C   UNL A   1      45.688  28.504  28.491  1.00  0.00     0.012 A 
ATOM     81  C   UNL A   1      43.743  29.142  27.188  1.00  0.00     0.148 A 
ATOM     82  C   UNL A   1      45.647  27.223  27.938  1.00  0.00     0.002 A 
ATOM     83  C   UNL A   1      43.692  27.854  26.659  1.00  0.00     0.091 A 
ATOM     84  F   UNL A   1      42.855  30.083  26.834  1.00  0.00    -0.205 F 
ATOM     85  C   UNL A   1      44.649  26.898  27.024  1.00  0.00     0.022 A 
BRANCH  83  86
ATOM     86  S   UNL A   1      42.432  27.364  25.477  1.00  0.00     0.127 S 
ATOM     87  O   UNL A   1      42.295  28.549  24.629  1.00  0.00    -0.237 OA
ATOM     88  O   UNL A   1      43.068  26.223  24.827  1.00  0.00    -0.237 OA
ATOM     89  O   UNL A   1      41.255  27.077  26.286  1.00  0.00    -0.744 OA
ENDBRANCH  83  86
ENDBRANCH  55  79
BRANCH  67  90
ATOM     90  C   UNL A   1      49.424  34.473  26.899  1.00  0.00     0.023 A 
ATOM     91  C   UNL A   1      49.378  34.991  25.590  1.00  0.00     0.012 A 
ATOM     92  C   UNL A   1      50.659  34.054  27.433  1.00  0.00     0.148 A 
ATOM     93  C   UNL A   1      50.535  35.055  24.814  1.00  0.00     0.002 A 
ATOM     94  C   UNL A   1      51.817  34.173  26.675  1.00  0.00     0.091 A 
ATOM     95  F   UNL A   1      50.680  33.547  28.675  1.00  0.00    -0.205 F 
ATOM     96  C   UNL A   1      51.754  34.659  25.360  1.00  0.00     0.022 A 
BRANCH  94  97
ATOM     97  S   UNL A   1      53.444  33.786  27.330  1.00  0.00     0.127 S 
ATOM     98  O   UNL A   1      54.291  33.979  26.154  1.00  0.00    -0.237 OA
ATOM     99  O   UNL A   1      53.606  34.799  28.372  1.00  0.00    -0.237 OA
ATOM    100  O   UNL A   1      53.366  32.417  27.823  1.00  0.00    -0.744 OA
ENDBRANCH  94  97
ENDBRANCH  67  90
ENDBRANCH  41  42
ENDBRANCH  34  36
ENDBRANCH  33  34
ENDBRANCH  32  33
ENDBRANCH  31  32
ENDBRANCH  30  31
ENDBRANCH  29  30
ENDBRANCH   1  29
TORSDOF 26
ENDMDL
