MODEL 1
REMARK VINA RESULT:     -10.5      0.000      0.000
REMARK SMILES O=C(OCCOCCOCCOCCOC(=O)c1cc(-n2cccc2)ccc1O)c1ccc(-c2c3nc(c(-c4cccc(S(=O)(=O)[O-])c4F)c4ccc([nH]4)c(-c4cccc(S(=O)(=O)[O-])c4F)c4nc(c(-c5cccc(S(=O)(=O)[O-])c5F)c5ccc2[nH]5)C=C4)C=C3)cc1
REMARK SMILES IDX 8 1 7 2 6 3 5 4 4 5 3 6 2 7 1 8 30 9 31 10 92 11 32 12 91 13
REMARK SMILES IDX 33 14 34 15 35 16 85 17 36 18 90 19 84 20 86 21 37 22 89 23
REMARK SMILES IDX 83 24 82 25 38 27 70 28 50 29 69 30 51 31 54 32 68 33 87 34
REMARK SMILES IDX 52 35 53 36 67 38 88 39 55 40 39 41 40 42 48 43 41 44 43 45
REMARK SMILES IDX 49 46 42 47 44 48 45 49 46 50 47 51 71 52 72 53 80 54 73 55
REMARK SMILES IDX 75 56 81 57 74 58 76 59 77 60 78 61 79 62 56 63 57 64 65 65
REMARK SMILES IDX 58 66 60 67 66 68 59 69 61 70 62 71 63 72 64 73 9 74 10 75
REMARK SMILES IDX 11 76 12 77 13 78 14 79 15 80 16 81 17 82 18 83 19 84 28 85
REMARK SMILES IDX 20 86 27 87 26 88 29 89 21 91 22 92 25 93 23 94 24 95
REMARK H PARENT 86 26 54 37 29 90
REMARK Flexibility Score: inf
ROOT
ATOM      1  C   UNL A   1      30.714  30.206  24.465  1.00  0.00     0.188 C 
ENDROOT
BRANCH   1   2
ATOM      2  C   UNL A   1      31.680  29.254  25.183  1.00  0.00     0.188 C 
BRANCH   2   3
ATOM      3  O   UNL A   1      33.098  29.375  25.105  1.00  0.00    -0.376 OA
BRANCH   3   4
ATOM      4  C   UNL A   1      34.054  28.623  25.828  1.00  0.00     0.202 C 
BRANCH   4   5
ATOM      5  C   UNL A   1      34.500  28.983  27.255  1.00  0.00     0.261 C 
BRANCH   5   6
ATOM      6  O   UNL A   1      35.267  30.183  27.364  1.00  0.00    -0.460 OA
BRANCH   6   7
ATOM      7  C   UNL A   1      36.321  30.459  28.170  1.00  0.00     0.338 C 
ATOM      8  O   UNL A   1      36.255  31.454  28.888  1.00  0.00    -0.246 OA
BRANCH   7   9
ATOM      9  C   UNL A   1      37.532  29.601  28.233  1.00  0.00     0.060 A 
ATOM     10  C   UNL A   1      37.820  28.708  29.267  1.00  0.00     0.016 A 
ATOM     11  C   UNL A   1      38.430  29.697  27.157  1.00  0.00     0.016 A 
ATOM     12  C   UNL A   1      39.050  28.097  29.349  1.00  0.00     0.010 A 
ATOM     13  C   UNL A   1      39.648  29.029  27.196  1.00  0.00     0.010 A 
ATOM     14  C   UNL A   1      39.976  28.292  28.332  1.00  0.00    -0.014 A 
BRANCH  14  15
ATOM     15  C   UNL A   1      41.285  27.662  28.545  1.00  0.00     0.031 A 
ATOM     16  C   UNL A   1      41.279  26.198  28.119  1.00  0.00     0.074 A 
ATOM     17  C   UNL A   1      42.194  28.420  29.225  1.00  0.00     0.049 A 
ATOM     18  N   UNL A   1      41.758  25.160  28.738  1.00  0.00    -0.248 NA
ATOM     19  C   UNL A   1      40.476  25.801  26.933  1.00  0.00     0.031 C 
ATOM     20  C   UNL A   1      41.984  29.838  29.599  1.00  0.00     0.029 A 
ATOM     21  N   UNL A   1      43.445  28.183  29.755  1.00  0.00    -0.354 N 
ATOM     22  C   UNL A   1      41.544  24.052  27.888  1.00  0.00     0.074 A 
ATOM     23  C   UNL A   1      40.596  24.471  26.901  1.00  0.00     0.031 C 
ATOM     24  C   UNL A   1      43.021  30.305  30.319  1.00  0.00     0.029 A 
ATOM     25  C   UNL A   1      44.014  29.260  30.474  1.00  0.00     0.049 A 
ATOM     26  H   UNL A   1      43.909  27.322  29.641  1.00  0.00     0.167 HD
ATOM     27  C   UNL A   1      42.316  22.926  27.935  1.00  0.00     0.034 A 
ATOM     28  C   UNL A   1      45.187  29.312  31.177  1.00  0.00     0.034 A 
ATOM     29  C   UNL A   1      43.369  23.114  28.883  1.00  0.00     0.049 A 
ATOM     30  C   UNL A   1      45.854  28.020  30.962  1.00  0.00     0.074 A 
ATOM     31  C   UNL A   1      43.443  23.096  30.249  1.00  0.00     0.029 A 
ATOM     32  N   UNL A   1      44.513  23.678  28.369  1.00  0.00    -0.354 N 
ATOM     33  N   UNL A   1      46.410  27.657  29.848  1.00  0.00    -0.248 NA
ATOM     34  C   UNL A   1      45.833  27.015  32.034  1.00  0.00     0.031 C 
ATOM     35  C   UNL A   1      44.505  23.976  30.548  1.00  0.00     0.029 A 
ATOM     36  C   UNL A   1      45.096  24.422  29.359  1.00  0.00     0.049 A 
ATOM     37  H   UNL A   1      44.854  23.566  27.451  1.00  0.00     0.167 HD
ATOM     38  C   UNL A   1      46.442  26.290  29.969  1.00  0.00     0.074 A 
ATOM     39  C   UNL A   1      46.409  26.006  31.386  1.00  0.00     0.031 C 
ATOM     40  C   UNL A   1      45.939  25.529  28.962  1.00  0.00     0.034 A 
BRANCH  27  41
ATOM     41  C   UNL A   1      42.460  21.719  27.036  1.00  0.00     0.023 A 
ATOM     42  C   UNL A   1      41.704  20.577  27.434  1.00  0.00     0.012 A 
ATOM     43  C   UNL A   1      43.440  21.523  26.049  1.00  0.00     0.148 A 
ATOM     44  C   UNL A   1      41.982  19.292  26.971  1.00  0.00     0.002 A 
ATOM     45  C   UNL A   1      43.676  20.238  25.545  1.00  0.00     0.091 A 
ATOM     46  F   UNL A   1      44.209  22.546  25.665  1.00  0.00    -0.205 F 
ATOM     47  C   UNL A   1      42.978  19.123  26.030  1.00  0.00     0.022 A 
BRANCH  45  48
ATOM     48  S   UNL A   1      44.878  19.923  24.246  1.00  0.00     0.127 S 
ATOM     49  O   UNL A   1      44.569  20.974  23.281  1.00  0.00    -0.237 OA
ATOM     50  O   UNL A   1      46.150  20.104  24.952  1.00  0.00    -0.237 OA
ATOM     51  O   UNL A   1      44.634  18.551  23.823  1.00  0.00    -0.744 OA
ENDBRANCH  45  48
ENDBRANCH  27  41
BRANCH  28  52
ATOM     52  C   UNL A   1      45.857  30.279  32.127  1.00  0.00     0.023 A 
ATOM     53  C   UNL A   1      47.097  30.889  31.887  1.00  0.00     0.012 A 
ATOM     54  C   UNL A   1      45.182  30.694  33.314  1.00  0.00     0.148 A 
ATOM     55  C   UNL A   1      47.588  31.913  32.720  1.00  0.00     0.002 A 
ATOM     56  C   UNL A   1      45.609  31.779  34.070  1.00  0.00     0.091 A 
ATOM     57  F   UNL A   1      44.116  30.012  33.745  1.00  0.00    -0.205 F 
ATOM     58  C   UNL A   1      46.827  32.389  33.783  1.00  0.00     0.022 A 
BRANCH  56  59
ATOM     59  S   UNL A   1      44.561  32.535  35.327  1.00  0.00     0.127 S 
ATOM     60  O   UNL A   1      45.406  33.618  35.825  1.00  0.00    -0.237 OA
ATOM     61  O   UNL A   1      43.414  32.965  34.527  1.00  0.00    -0.237 OA
ATOM     62  O   UNL A   1      44.261  31.488  36.296  1.00  0.00    -0.744 OA
ENDBRANCH  56  59
ENDBRANCH  28  52
BRANCH  40  63
ATOM     63  C   UNL A   1      45.993  26.214  27.589  1.00  0.00     0.023 A 
ATOM     64  C   UNL A   1      44.785  26.713  27.057  1.00  0.00     0.012 A 
ATOM     65  C   UNL A   1      47.123  26.244  26.738  1.00  0.00     0.148 A 
ATOM     66  C   UNL A   1      44.696  27.174  25.739  1.00  0.00     0.002 A 
ATOM     67  C   UNL A   1      47.033  26.685  25.414  1.00  0.00     0.091 A 
ATOM     68  F   UNL A   1      48.291  25.846  27.228  1.00  0.00    -0.205 F 
ATOM     69  C   UNL A   1      45.815  27.151  24.915  1.00  0.00     0.022 A 
BRANCH  67  70
ATOM     70  S   UNL A   1      48.402  26.615  24.236  1.00  0.00     0.127 S 
ATOM     71  O   UNL A   1      49.535  26.239  25.085  1.00  0.00    -0.237 OA
ATOM     72  O   UNL A   1      47.966  25.565  23.320  1.00  0.00    -0.237 OA
ATOM     73  O   UNL A   1      48.524  27.946  23.657  1.00  0.00    -0.744 OA
ENDBRANCH  67  70
ENDBRANCH  40  63
ENDBRANCH  14  15
ENDBRANCH   7   9
ENDBRANCH   6   7
ENDBRANCH   5   6
ENDBRANCH   4   5
ENDBRANCH   3   4
ENDBRANCH   2   3
ENDBRANCH   1   2
BRANCH   1  74
ATOM     74  O   UNL A   1      29.828  29.601  23.543  1.00  0.00    -0.377 OA
BRANCH  74  75
ATOM     75  C   UNL A   1      30.139  28.268  23.205  1.00  0.00     0.188 C 
BRANCH  75  76
ATOM     76  C   UNL A   1      29.073  27.243  23.634  1.00  0.00     0.188 C 
BRANCH  76  77
ATOM     77  O   UNL A   1      29.400  25.895  23.954  1.00  0.00    -0.376 OA
BRANCH  77  78
ATOM     78  C   UNL A   1      30.750  25.504  24.126  1.00  0.00     0.202 C 
BRANCH  78  79
ATOM     79  C   UNL A   1      31.049  24.015  23.919  1.00  0.00     0.261 C 
BRANCH  79  80
ATOM     80  O   UNL A   1      30.617  23.152  24.983  1.00  0.00    -0.460 OA
BRANCH  80  81
ATOM     81  C   UNL A   1      31.405  23.109  26.087  1.00  0.00     0.342 C 
ATOM     82  O   UNL A   1      31.122  23.463  27.217  1.00  0.00    -0.246 OA
BRANCH  81  83
ATOM     83  C   UNL A   1      32.664  22.401  25.769  1.00  0.00     0.103 A 
ATOM     84  C   UNL A   1      32.583  21.111  25.223  1.00  0.00     0.046 A 
ATOM     85  C   UNL A   1      33.915  22.972  26.018  1.00  0.00     0.130 A 
ATOM     86  C   UNL A   1      33.757  20.399  24.961  1.00  0.00     0.046 A 
ATOM     87  C   UNL A   1      35.083  22.240  25.779  1.00  0.00     0.049 A 
ATOM     88  C   UNL A   1      35.007  20.940  25.270  1.00  0.00     0.030 A 
BRANCH  85  89
ATOM     89  O   UNL A   1      34.004  24.238  26.518  1.00  0.00    -0.507 OA
ATOM     90  H   UNL A   1      34.219  24.953  25.951  1.00  0.00     0.293 HD
ENDBRANCH  85  89
BRANCH  86  91
ATOM     91  N   UNL A   1      33.682  19.138  24.337  1.00  0.00    -0.324 N 
ATOM     92  C   UNL A   1      32.620  18.660  23.605  1.00  0.00     0.091 A 
ATOM     93  C   UNL A   1      34.637  18.149  24.419  1.00  0.00     0.091 A 
ATOM     94  C   UNL A   1      32.911  17.374  23.205  1.00  0.00     0.020 A 
ATOM     95  C   UNL A   1      34.170  17.036  23.754  1.00  0.00     0.020 A 
ENDBRANCH  86  91
ENDBRANCH  81  83
ENDBRANCH  80  81
ENDBRANCH  79  80
ENDBRANCH  78  79
ENDBRANCH  77  78
ENDBRANCH  76  77
ENDBRANCH  75  76
ENDBRANCH  74  75
ENDBRANCH   1  74
TORSDOF 25
ENDMDL
MODEL 2
REMARK VINA RESULT:     -10.1      3.938      7.826
REMARK SMILES O=C(OCCOCCOCCOCCOC(=O)c1cc(-n2cccc2)ccc1O)c1ccc(-c2c3nc(c(-c4cccc(S(=O)(=O)[O-])c4F)c4ccc([nH]4)c(-c4cccc(S(=O)(=O)[O-])c4F)c4nc(c(-c5cccc(S(=O)(=O)[O-])c5F)c5ccc2[nH]5)C=C4)C=C3)cc1
REMARK SMILES IDX 8 1 7 2 6 3 5 4 4 5 3 6 2 7 1 8 30 9 31 10 92 11 32 12 91 13
REMARK SMILES IDX 33 14 34 15 35 16 85 17 36 18 90 19 84 20 86 21 37 22 89 23
REMARK SMILES IDX 83 24 82 25 38 27 70 28 50 29 69 30 51 31 54 32 68 33 87 34
REMARK SMILES IDX 52 35 53 36 67 38 88 39 55 40 39 41 40 42 48 43 41 44 43 45
REMARK SMILES IDX 49 46 42 47 44 48 45 49 46 50 47 51 71 52 72 53 80 54 73 55
REMARK SMILES IDX 75 56 81 57 74 58 76 59 77 60 78 61 79 62 56 63 57 64 65 65
REMARK SMILES IDX 58 66 60 67 66 68 59 69 61 70 62 71 63 72 64 73 9 74 10 75
REMARK SMILES IDX 11 76 12 77 13 78 14 79 15 80 16 81 17 82 18 83 19 84 28 85
REMARK SMILES IDX 20 86 27 87 26 88 29 89 21 91 22 92 25 93 23 94 24 95
REMARK H PARENT 86 26 54 37 29 90
REMARK Flexibility Score: inf
ROOT
ATOM      1  C   UNL A   1      33.598  35.514  30.945  1.00  0.00     0.188 C 
ENDROOT
BRANCH   1   2
ATOM      2  C   UNL A   1      33.173  35.039  29.548  1.00  0.00     0.188 C 
BRANCH   2   3
ATOM      3  O   UNL A   1      34.077  34.455  28.613  1.00  0.00    -0.376 OA
BRANCH   3   4
ATOM      4  C   UNL A   1      33.970  33.175  28.018  1.00  0.00     0.202 C 
BRANCH   4   5
ATOM      5  C   UNL A   1      34.593  31.910  28.631  1.00  0.00     0.261 C 
BRANCH   5   6
ATOM      6  O   UNL A   1      35.359  31.114  27.726  1.00  0.00    -0.460 OA
BRANCH   6   7
ATOM      7  C   UNL A   1      35.783  29.833  27.855  1.00  0.00     0.338 C 
ATOM      8  O   UNL A   1      34.955  28.934  27.730  1.00  0.00    -0.246 OA
BRANCH   7   9
ATOM      9  C   UNL A   1      37.202  29.477  28.117  1.00  0.00     0.060 A 
ATOM     10  C   UNL A   1      38.260  29.739  27.245  1.00  0.00     0.016 A 
ATOM     11  C   UNL A   1      37.479  28.850  29.343  1.00  0.00     0.016 A 
ATOM     12  C   UNL A   1      39.509  29.206  27.471  1.00  0.00     0.010 A 
ATOM     13  C   UNL A   1      38.754  28.368  29.614  1.00  0.00     0.010 A 
ATOM     14  C   UNL A   1      39.740  28.487  28.637  1.00  0.00    -0.014 A 
BRANCH  14  15
ATOM     15  C   UNL A   1      41.078  27.893  28.754  1.00  0.00     0.031 A 
ATOM     16  C   UNL A   1      41.083  26.433  28.316  1.00  0.00     0.074 A 
ATOM     17  C   UNL A   1      42.010  28.672  29.377  1.00  0.00     0.049 A 
ATOM     18  N   UNL A   1      41.633  25.405  28.892  1.00  0.00    -0.248 NA
ATOM     19  C   UNL A   1      40.212  26.021  27.185  1.00  0.00     0.031 C 
ATOM     20  C   UNL A   1      41.787  30.080  29.776  1.00  0.00     0.029 A 
ATOM     21  N   UNL A   1      43.300  28.467  29.818  1.00  0.00    -0.354 N 
ATOM     22  C   UNL A   1      41.392  24.297  28.049  1.00  0.00     0.074 A 
ATOM     23  C   UNL A   1      40.366  24.696  27.133  1.00  0.00     0.031 C 
ATOM     24  C   UNL A   1      42.858  30.572  30.428  1.00  0.00     0.029 A 
ATOM     25  C   UNL A   1      43.888  29.554  30.505  1.00  0.00     0.049 A 
ATOM     26  H   UNL A   1      43.780  27.620  29.664  1.00  0.00     0.167 HD
ATOM     27  C   UNL A   1      42.196  23.192  28.033  1.00  0.00     0.034 A 
ATOM     28  C   UNL A   1      45.105  29.635  31.127  1.00  0.00     0.034 A 
ATOM     29  C   UNL A   1      43.306  23.403  28.908  1.00  0.00     0.049 A 
ATOM     30  C   UNL A   1      45.791  28.363  30.855  1.00  0.00     0.074 A 
ATOM     31  C   UNL A   1      43.474  23.378  30.265  1.00  0.00     0.029 A 
ATOM     32  N   UNL A   1      44.396  24.003  28.321  1.00  0.00    -0.354 N 
ATOM     33  N   UNL A   1      46.279  28.024  29.701  1.00  0.00    -0.248 NA
ATOM     34  C   UNL A   1      45.872  27.351  31.916  1.00  0.00     0.031 C 
ATOM     35  C   UNL A   1      44.530  24.286  30.499  1.00  0.00     0.029 A 
ATOM     36  C   UNL A   1      45.025  24.756  29.275  1.00  0.00     0.049 A 
ATOM     37  H   UNL A   1      44.675  23.907  27.382  1.00  0.00     0.167 HD
ATOM     38  C   UNL A   1      46.357  26.658  29.809  1.00  0.00     0.074 A 
ATOM     39  C   UNL A   1      46.430  26.363  31.222  1.00  0.00     0.031 C 
ATOM     40  C   UNL A   1      45.807  25.890  28.831  1.00  0.00     0.034 A 
BRANCH  27  41
ATOM     41  C   UNL A   1      42.311  21.996  27.116  1.00  0.00     0.023 A 
ATOM     42  C   UNL A   1      41.419  20.923  27.408  1.00  0.00     0.012 A 
ATOM     43  C   UNL A   1      43.357  21.728  26.217  1.00  0.00     0.148 A 
ATOM     44  C   UNL A   1      41.618  19.627  26.935  1.00  0.00     0.002 A 
ATOM     45  C   UNL A   1      43.519  20.438  25.698  1.00  0.00     0.091 A 
ATOM     46  F   UNL A   1      44.251  22.682  25.935  1.00  0.00    -0.205 F 
ATOM     47  C   UNL A   1      42.678  19.384  26.085  1.00  0.00     0.022 A 
BRANCH  45  48
ATOM     48  S   UNL A   1      44.803  20.037  24.507  1.00  0.00     0.127 S 
ATOM     49  O   UNL A   1      44.457  18.669  24.133  1.00  0.00    -0.237 OA
ATOM     50  O   UNL A   1      44.569  21.030  23.454  1.00  0.00    -0.237 OA
ATOM     51  O   UNL A   1      46.060  20.224  25.220  1.00  0.00    -0.744 OA
ENDBRANCH  45  48
ENDBRANCH  27  41
BRANCH  28  52
ATOM     52  C   UNL A   1      45.811  30.614  32.037  1.00  0.00     0.023 A 
ATOM     53  C   UNL A   1      46.947  31.352  31.672  1.00  0.00     0.012 A 
ATOM     54  C   UNL A   1      45.274  30.902  33.327  1.00  0.00     0.148 A 
ATOM     55  C   UNL A   1      47.456  32.376  32.493  1.00  0.00     0.002 A 
ATOM     56  C   UNL A   1      45.703  31.985  34.084  1.00  0.00     0.091 A 
ATOM     57  F   UNL A   1      44.342  30.100  33.853  1.00  0.00    -0.205 F 
ATOM     58  C   UNL A   1      46.810  32.723  33.676  1.00  0.00     0.022 A 
BRANCH  56  59
ATOM     59  S   UNL A   1      44.777  32.573  35.516  1.00  0.00     0.127 S 
ATOM     60  O   UNL A   1      45.610  32.127  36.629  1.00  0.00    -0.237 OA
ATOM     61  O   UNL A   1      44.777  34.018  35.286  1.00  0.00    -0.237 OA
ATOM     62  O   UNL A   1      43.461  31.950  35.438  1.00  0.00    -0.744 OA
ENDBRANCH  56  59
ENDBRANCH  28  52
BRANCH  40  63
ATOM     63  C   UNL A   1      45.747  26.585  27.464  1.00  0.00     0.023 A 
ATOM     64  C   UNL A   1      44.481  26.978  26.983  1.00  0.00     0.012 A 
ATOM     65  C   UNL A   1      46.836  26.721  26.572  1.00  0.00     0.148 A 
ATOM     66  C   UNL A   1      44.300  27.438  25.674  1.00  0.00     0.002 A 
ATOM     67  C   UNL A   1      46.657  27.161  25.256  1.00  0.00     0.091 A 
ATOM     68  F   UNL A   1      48.053  26.426  27.013  1.00  0.00    -0.205 F 
ATOM     69  C   UNL A   1      45.384  27.519  24.808  1.00  0.00     0.022 A 
BRANCH  67  70
ATOM     70  S   UNL A   1      47.980  27.220  24.027  1.00  0.00     0.127 S 
ATOM     71  O   UNL A   1      48.221  25.802  23.749  1.00  0.00    -0.237 OA
ATOM     72  O   UNL A   1      47.349  27.947  22.930  1.00  0.00    -0.237 OA
ATOM     73  O   UNL A   1      49.109  27.890  24.659  1.00  0.00    -0.744 OA
ENDBRANCH  67  70
ENDBRANCH  40  63
ENDBRANCH  14  15
ENDBRANCH   7   9
ENDBRANCH   6   7
ENDBRANCH   5   6
ENDBRANCH   4   5
ENDBRANCH   3   4
ENDBRANCH   2   3
ENDBRANCH   1   2
BRANCH   1  74
ATOM     74  O   UNL A   1      32.993  34.841  32.032  1.00  0.00    -0.377 OA
BRANCH  74  75
ATOM     75  C   UNL A   1      33.891  34.335  32.993  1.00  0.00     0.188 C 
BRANCH  75  76
ATOM     76  C   UNL A   1      34.872  35.382  33.552  1.00  0.00     0.188 C 
BRANCH  76  77
ATOM     77  O   UNL A   1      36.220  35.061  33.882  1.00  0.00    -0.376 OA
BRANCH  77  78
ATOM     78  C   UNL A   1      37.105  34.567  32.893  1.00  0.00     0.202 C 
BRANCH  78  79
ATOM     79  C   UNL A   1      37.503  33.094  33.024  1.00  0.00     0.261 C 
BRANCH  79  80
ATOM     80  O   UNL A   1      38.912  32.831  32.932  1.00  0.00    -0.460 OA
BRANCH  80  81
ATOM     81  C   UNL A   1      39.393  32.528  31.698  1.00  0.00     0.342 C 
ATOM     82  O   UNL A   1      38.826  31.922  30.808  1.00  0.00    -0.246 OA
BRANCH  81  83
ATOM     83  C   UNL A   1      40.700  33.192  31.500  1.00  0.00     0.103 A 
ATOM     84  C   UNL A   1      40.980  33.750  30.243  1.00  0.00     0.046 A 
ATOM     85  C   UNL A   1      41.657  33.255  32.516  1.00  0.00     0.130 A 
ATOM     86  C   UNL A   1      42.226  34.338  30.013  1.00  0.00     0.046 A 
ATOM     87  C   UNL A   1      42.913  33.818  32.266  1.00  0.00     0.049 A 
ATOM     88  C   UNL A   1      43.210  34.343  31.005  1.00  0.00     0.030 A 
BRANCH  85  89
ATOM     89  O   UNL A   1      41.382  32.743  33.751  1.00  0.00    -0.507 OA
ATOM     90  H   UNL A   1      41.486  33.278  34.514  1.00  0.00     0.293 HD
ENDBRANCH  85  89
BRANCH  86  91
ATOM     91  N   UNL A   1      42.481  34.971  28.781  1.00  0.00    -0.324 N 
ATOM     92  C   UNL A   1      43.639  34.870  28.044  1.00  0.00     0.091 A 
ATOM     93  C   UNL A   1      41.634  35.852  28.146  1.00  0.00     0.091 A 
ATOM     94  C   UNL A   1      43.518  35.673  26.930  1.00  0.00     0.020 A 
ATOM     95  C   UNL A   1      42.265  36.326  27.015  1.00  0.00     0.020 A 
ENDBRANCH  86  91
ENDBRANCH  81  83
ENDBRANCH  80  81
ENDBRANCH  79  80
ENDBRANCH  78  79
ENDBRANCH  77  78
ENDBRANCH  76  77
ENDBRANCH  75  76
ENDBRANCH  74  75
ENDBRANCH   1  74
TORSDOF 25
ENDMDL
MODEL 3
REMARK VINA RESULT:      -9.9      4.010      7.045
REMARK SMILES O=C(OCCOCCOCCOCCOC(=O)c1cc(-n2cccc2)ccc1O)c1ccc(-c2c3nc(c(-c4cccc(S(=O)(=O)[O-])c4F)c4ccc([nH]4)c(-c4cccc(S(=O)(=O)[O-])c4F)c4nc(c(-c5cccc(S(=O)(=O)[O-])c5F)c5ccc2[nH]5)C=C4)C=C3)cc1
REMARK SMILES IDX 8 1 7 2 6 3 5 4 4 5 3 6 2 7 1 8 30 9 31 10 92 11 32 12 91 13
REMARK SMILES IDX 33 14 34 15 35 16 85 17 36 18 90 19 84 20 86 21 37 22 89 23
REMARK SMILES IDX 83 24 82 25 38 27 70 28 50 29 69 30 51 31 54 32 68 33 87 34
REMARK SMILES IDX 52 35 53 36 67 38 88 39 55 40 39 41 40 42 48 43 41 44 43 45
REMARK SMILES IDX 49 46 42 47 44 48 45 49 46 50 47 51 71 52 72 53 80 54 73 55
REMARK SMILES IDX 75 56 81 57 74 58 76 59 77 60 78 61 79 62 56 63 57 64 65 65
REMARK SMILES IDX 58 66 60 67 66 68 59 69 61 70 62 71 63 72 64 73 9 74 10 75
REMARK SMILES IDX 11 76 12 77 13 78 14 79 15 80 16 81 17 82 18 83 19 84 28 85
REMARK SMILES IDX 20 86 27 87 26 88 29 89 21 91 22 92 25 93 23 94 24 95
REMARK H PARENT 86 26 54 37 29 90
REMARK Flexibility Score: inf
ROOT
ATOM      1  C   UNL A   1      33.756  35.347  30.786  1.00  0.00     0.188 C 
ENDROOT
BRANCH   1   2
ATOM      2  C   UNL A   1      33.170  34.821  29.468  1.00  0.00     0.188 C 
BRANCH   2   3
ATOM      3  O   UNL A   1      33.971  34.323  28.400  1.00  0.00    -0.376 OA
BRANCH   3   4
ATOM      4  C   UNL A   1      34.062  32.980  27.962  1.00  0.00     0.202 C 
BRANCH   4   5
ATOM      5  C   UNL A   1      35.010  31.952  28.599  1.00  0.00     0.261 C 
BRANCH   5   6
ATOM      6  O   UNL A   1      35.815  31.218  27.675  1.00  0.00    -0.460 OA
BRANCH   6   7
ATOM      7  C   UNL A   1      36.202  29.920  27.715  1.00  0.00     0.338 C 
ATOM      8  O   UNL A   1      35.359  29.057  27.481  1.00  0.00    -0.246 OA
BRANCH   7   9
ATOM      9  C   UNL A   1      37.599  29.505  28.007  1.00  0.00     0.060 A 
ATOM     10  C   UNL A   1      38.671  29.652  27.126  1.00  0.00     0.016 A 
ATOM     11  C   UNL A   1      37.839  28.944  29.273  1.00  0.00     0.016 A 
ATOM     12  C   UNL A   1      39.889  29.068  27.392  1.00  0.00     0.010 A 
ATOM     13  C   UNL A   1      39.085  28.412  29.580  1.00  0.00     0.010 A 
ATOM     14  C   UNL A   1      40.079  28.414  28.603  1.00  0.00    -0.014 A 
BRANCH  14  15
ATOM     15  C   UNL A   1      41.381  27.757  28.765  1.00  0.00     0.031 A 
ATOM     16  C   UNL A   1      41.332  26.298  28.325  1.00  0.00     0.074 A 
ATOM     17  C   UNL A   1      42.327  28.490  29.422  1.00  0.00     0.049 A 
ATOM     18  N   UNL A   1      41.812  25.244  28.917  1.00  0.00    -0.248 NA
ATOM     19  C   UNL A   1      40.482  25.929  27.163  1.00  0.00     0.031 C 
ATOM     20  C   UNL A   1      42.158  29.907  29.816  1.00  0.00     0.029 A 
ATOM     21  N   UNL A   1      43.590  28.223  29.907  1.00  0.00    -0.354 N 
ATOM     22  C   UNL A   1      41.548  24.150  28.064  1.00  0.00     0.074 A 
ATOM     23  C   UNL A   1      40.575  24.597  27.114  1.00  0.00     0.031 C 
ATOM     24  C   UNL A   1      43.228  30.347  30.506  1.00  0.00     0.029 A 
ATOM     25  C   UNL A   1      44.205  29.281  30.617  1.00  0.00     0.049 A 
ATOM     26  H   UNL A   1      44.034  27.355  29.768  1.00  0.00     0.167 HD
ATOM     27  C   UNL A   1      42.299  23.008  28.073  1.00  0.00     0.034 A 
ATOM     28  C   UNL A   1      45.402  29.304  31.280  1.00  0.00     0.034 A 
ATOM     29  C   UNL A   1      43.386  23.166  28.987  1.00  0.00     0.049 A 
ATOM     30  C   UNL A   1      46.035  28.001  31.029  1.00  0.00     0.074 A 
ATOM     31  C   UNL A   1      43.506  23.132  30.349  1.00  0.00     0.029 A 
ATOM     32  N   UNL A   1      44.523  23.713  28.439  1.00  0.00    -0.354 N 
ATOM     33  N   UNL A   1      46.547  27.640  29.893  1.00  0.00    -0.248 NA
ATOM     34  C   UNL A   1      46.031  26.986  32.091  1.00  0.00     0.031 C 
ATOM     35  C   UNL A   1      44.595  23.988  30.621  1.00  0.00     0.029 A 
ATOM     36  C   UNL A   1      45.154  24.435  29.417  1.00  0.00     0.049 A 
ATOM     37  H   UNL A   1      44.830  23.605  27.510  1.00  0.00     0.167 HD
ATOM     38  C   UNL A   1      46.556  26.271  30.000  1.00  0.00     0.074 A 
ATOM     39  C   UNL A   1      46.565  25.972  31.414  1.00  0.00     0.031 C 
ATOM     40  C   UNL A   1      46.004  25.531  29.002  1.00  0.00     0.034 A 
BRANCH  27  41
ATOM     41  C   UNL A   1      42.389  21.808  27.158  1.00  0.00     0.023 A 
ATOM     42  C   UNL A   1      41.534  20.721  27.503  1.00  0.00     0.012 A 
ATOM     43  C   UNL A   1      43.391  21.555  26.207  1.00  0.00     0.148 A 
ATOM     44  C   UNL A   1      41.733  19.426  27.028  1.00  0.00     0.002 A 
ATOM     45  C   UNL A   1      43.550  20.265  25.688  1.00  0.00     0.091 A 
ATOM     46  F   UNL A   1      44.250  22.523  25.874  1.00  0.00    -0.205 F 
ATOM     47  C   UNL A   1      42.752  19.197  26.124  1.00  0.00     0.022 A 
BRANCH  45  48
ATOM     48  S   UNL A   1      44.778  19.880  24.433  1.00  0.00     0.127 S 
ATOM     49  O   UNL A   1      44.509  20.896  23.420  1.00  0.00    -0.237 OA
ATOM     50  O   UNL A   1      46.035  20.070  25.162  1.00  0.00    -0.237 OA
ATOM     51  O   UNL A   1      44.522  18.496  24.058  1.00  0.00    -0.744 OA
ENDBRANCH  45  48
ENDBRANCH  27  41
BRANCH  28  52
ATOM     52  C   UNL A   1      46.122  30.247  32.216  1.00  0.00     0.023 A 
ATOM     53  C   UNL A   1      47.340  30.875  31.920  1.00  0.00     0.012 A 
ATOM     54  C   UNL A   1      45.519  30.619  33.455  1.00  0.00     0.148 A 
ATOM     55  C   UNL A   1      47.875  31.878  32.752  1.00  0.00     0.002 A 
ATOM     56  C   UNL A   1      45.984  31.685  34.216  1.00  0.00     0.091 A 
ATOM     57  F   UNL A   1      44.486  29.916  33.929  1.00  0.00    -0.205 F 
ATOM     58  C   UNL A   1      47.177  32.315  33.873  1.00  0.00     0.022 A 
BRANCH  56  59
ATOM     59  S   UNL A   1      45.010  32.393  35.558  1.00  0.00     0.127 S 
ATOM     60  O   UNL A   1      45.924  33.388  36.113  1.00  0.00    -0.237 OA
ATOM     61  O   UNL A   1      43.869  32.944  34.828  1.00  0.00    -0.237 OA
ATOM     62  O   UNL A   1      44.678  31.290  36.451  1.00  0.00    -0.744 OA
ENDBRANCH  56  59
ENDBRANCH  28  52
BRANCH  40  63
ATOM     63  C   UNL A   1      46.025  26.229  27.636  1.00  0.00     0.023 A 
ATOM     64  C   UNL A   1      44.788  26.608  27.074  1.00  0.00     0.012 A 
ATOM     65  C   UNL A   1      47.169  26.380  26.816  1.00  0.00     0.148 A 
ATOM     66  C   UNL A   1      44.687  27.069  25.757  1.00  0.00     0.002 A 
ATOM     67  C   UNL A   1      47.070  26.821  25.493  1.00  0.00     0.091 A 
ATOM     68  F   UNL A   1      48.358  26.098  27.335  1.00  0.00    -0.205 F 
ATOM     69  C   UNL A   1      45.825  27.165  24.963  1.00  0.00     0.022 A 
BRANCH  67  70
ATOM     70  S   UNL A   1      48.470  26.899  24.353  1.00  0.00     0.127 S 
ATOM     71  O   UNL A   1      49.348  25.838  24.852  1.00  0.00    -0.237 OA
ATOM     72  O   UNL A   1      47.839  26.600  23.070  1.00  0.00    -0.237 OA
ATOM     73  O   UNL A   1      49.038  28.234  24.479  1.00  0.00    -0.744 OA
ENDBRANCH  67  70
ENDBRANCH  40  63
ENDBRANCH  14  15
ENDBRANCH   7   9
ENDBRANCH   6   7
ENDBRANCH   5   6
ENDBRANCH   4   5
ENDBRANCH   3   4
ENDBRANCH   2   3
ENDBRANCH   1   2
BRANCH   1  74
ATOM     74  O   UNL A   1      33.356  34.656  31.953  1.00  0.00    -0.377 OA
BRANCH  74  75
ATOM     75  C   UNL A   1      34.187  33.580  32.323  1.00  0.00     0.188 C 
BRANCH  75  76
ATOM     76  C   UNL A   1      35.430  33.993  33.133  1.00  0.00     0.188 C 
BRANCH  76  77
ATOM     77  O   UNL A   1      36.710  34.155  32.531  1.00  0.00    -0.376 OA
BRANCH  77  78
ATOM     78  C   UNL A   1      36.882  33.950  31.140  1.00  0.00     0.202 C 
BRANCH  78  79
ATOM     79  C   UNL A   1      38.259  33.439  30.702  1.00  0.00     0.261 C 
BRANCH  79  80
ATOM     80  O   UNL A   1      38.718  32.260  31.383  1.00  0.00    -0.460 OA
BRANCH  80  81
ATOM     81  C   UNL A   1      39.998  32.281  31.834  1.00  0.00     0.342 C 
ATOM     82  O   UNL A   1      40.945  32.878  31.356  1.00  0.00    -0.246 OA
BRANCH  81  83
ATOM     83  C   UNL A   1      40.076  31.577  33.134  1.00  0.00     0.103 A 
ATOM     84  C   UNL A   1      40.765  30.356  33.189  1.00  0.00     0.046 A 
ATOM     85  C   UNL A   1      39.467  32.084  34.285  1.00  0.00     0.130 A 
ATOM     86  C   UNL A   1      40.810  29.646  34.392  1.00  0.00     0.046 A 
ATOM     87  C   UNL A   1      39.493  31.351  35.476  1.00  0.00     0.049 A 
ATOM     88  C   UNL A   1      40.148  30.116  35.527  1.00  0.00     0.030 A 
BRANCH  85  89
ATOM     89  O   UNL A   1      38.823  33.287  34.248  1.00  0.00    -0.507 OA
ATOM     90  H   UNL A   1      37.895  33.318  34.121  1.00  0.00     0.293 HD
ENDBRANCH  85  89
BRANCH  86  91
ATOM     91  N   UNL A   1      41.569  28.461  34.473  1.00  0.00    -0.324 N 
ATOM     92  C   UNL A   1      41.821  27.740  35.617  1.00  0.00     0.091 A 
ATOM     93  C   UNL A   1      42.241  27.870  33.426  1.00  0.00     0.091 A 
ATOM     94  C   UNL A   1      42.638  26.679  35.291  1.00  0.00     0.020 A 
ATOM     95  C   UNL A   1      42.937  26.784  33.912  1.00  0.00     0.020 A 
ENDBRANCH  86  91
ENDBRANCH  81  83
ENDBRANCH  80  81
ENDBRANCH  79  80
ENDBRANCH  78  79
ENDBRANCH  77  78
ENDBRANCH  76  77
ENDBRANCH  75  76
ENDBRANCH  74  75
ENDBRANCH   1  74
TORSDOF 25
ENDMDL
