MODEL 1
REMARK VINA RESULT:      -9.7      0.000      0.000
REMARK SMILES O=C(OCCOCCOCCOCCOC(=O)C1CCN(c2ccc(C(F)(F)F)cc2[N+](=O)[O-])CC1)c1ccc(-c2c3nc(c(-c4cccc(S(=O)(=O)[O-])c4F)c4ccc([nH]4)c(-c4cccc(S(=O)(=O)[O-])c4F)c4nc(c(-c5cccc(S(=O)(=O)[O-])c5F)c5ccc2[nH]5)C=C4)C=C3)cc1
REMARK SMILES IDX 8 1 7 2 6 3 5 4 4 5 3 6 2 7 1 8 37 9 38 10 99 11 39 12 98 13
REMARK SMILES IDX 40 14 41 15 42 16 92 17 43 18 97 19 91 20 93 21 44 22 96 23
REMARK SMILES IDX 90 24 89 25 45 27 77 28 57 29 76 30 58 31 61 32 75 33 94 34
REMARK SMILES IDX 59 35 60 36 74 38 95 39 62 40 46 41 47 42 55 43 48 44 50 45
REMARK SMILES IDX 56 46 49 47 51 48 52 49 53 50 54 51 78 52 79 53 87 54 80 55
REMARK SMILES IDX 82 56 88 57 81 58 83 59 84 60 85 61 86 62 63 63 64 64 72 65
REMARK SMILES IDX 65 66 67 67 73 68 66 69 68 70 69 71 70 72 71 73 9 74 10 75
REMARK SMILES IDX 11 76 12 77 13 78 14 79 15 80 16 81 17 82 18 83 19 84 36 85
REMARK SMILES IDX 20 86 35 87 21 88 22 89 23 90 31 91 24 92 30 93 25 94 32 95
REMARK SMILES IDX 33 96 34 97 26 98 27 99 28 100 29 101
REMARK H PARENT 93 26 61 37
REMARK Flexibility Score: inf
ROOT
ATOM      1  C   UNL A   1      40.085  22.449  26.770  1.00  0.00     0.188 C 
ENDROOT
BRANCH   1   2
ATOM      2  C   UNL A   1      40.629  21.073  26.431  1.00  0.00     0.188 C 
BRANCH   2   3
ATOM      3  O   UNL A   1      41.221  20.486  27.576  1.00  0.00    -0.376 OA
BRANCH   3   4
ATOM      4  C   UNL A   1      41.992  19.316  27.398  1.00  0.00     0.202 C 
BRANCH   4   5
ATOM      5  C   UNL A   1      42.104  18.910  25.926  1.00  0.00     0.261 C 
BRANCH   5   6
ATOM      6  O   UNL A   1      43.458  18.985  25.447  1.00  0.00    -0.460 OA
BRANCH   6   7
ATOM      7  C   UNL A   1      44.073  20.019  24.818  1.00  0.00     0.338 C 
ATOM      8  O   UNL A   1      44.670  19.786  23.767  1.00  0.00    -0.246 OA
BRANCH   7   9
ATOM      9  C   UNL A   1      44.068  21.436  25.314  1.00  0.00     0.060 A 
ATOM     10  C   UNL A   1      43.692  22.554  24.569  1.00  0.00     0.016 A 
ATOM     11  C   UNL A   1      44.415  21.643  26.661  1.00  0.00     0.016 A 
ATOM     12  C   UNL A   1      43.661  23.823  25.100  1.00  0.00     0.010 A 
ATOM     13  C   UNL A   1      44.444  22.932  27.203  1.00  0.00     0.010 A 
ATOM     14  C   UNL A   1      44.100  24.022  26.398  1.00  0.00    -0.014 A 
BRANCH  14  15
ATOM     15  C   UNL A   1      44.482  25.404  26.700  1.00  0.00     0.031 A 
ATOM     16  C   UNL A   1      43.449  26.251  27.379  1.00  0.00     0.074 A 
ATOM     17  C   UNL A   1      45.770  25.771  26.604  1.00  0.00     0.049 A 
ATOM     18  N   UNL A   1      43.535  27.479  27.804  1.00  0.00    -0.248 NA
ATOM     19  C   UNL A   1      42.143  25.614  27.648  1.00  0.00     0.031 C 
ATOM     20  C   UNL A   1      46.859  24.912  26.127  1.00  0.00     0.029 A 
ATOM     21  N   UNL A   1      46.386  26.941  26.941  1.00  0.00    -0.354 N 
ATOM     22  C   UNL A   1      42.278  27.783  28.312  1.00  0.00     0.074 A 
ATOM     23  C   UNL A   1      41.456  26.605  28.186  1.00  0.00     0.031 C 
ATOM     24  C   UNL A   1      48.014  25.594  26.197  1.00  0.00     0.029 A 
ATOM     25  C   UNL A   1      47.730  26.947  26.662  1.00  0.00     0.049 A 
ATOM     26  H   UNL A   1      45.913  27.704  27.344  1.00  0.00     0.167 HD
ATOM     27  C   UNL A   1      41.853  28.959  28.820  1.00  0.00     0.034 A 
ATOM     28  C   UNL A   1      48.611  27.961  26.740  1.00  0.00     0.034 A 
ATOM     29  C   UNL A   1      42.715  30.099  28.944  1.00  0.00     0.049 A 
ATOM     30  C   UNL A   1      48.094  29.282  27.242  1.00  0.00     0.074 A 
ATOM     31  C   UNL A   1      42.413  31.367  29.395  1.00  0.00     0.029 A 
ATOM     32  N   UNL A   1      44.061  30.098  28.598  1.00  0.00    -0.354 N 
ATOM     33  N   UNL A   1      46.896  29.584  27.690  1.00  0.00    -0.248 NA
ATOM     34  C   UNL A   1      49.044  30.399  27.265  1.00  0.00     0.031 C 
ATOM     35  C   UNL A   1      43.570  32.145  29.282  1.00  0.00     0.029 A 
ATOM     36  C   UNL A   1      44.605  31.347  28.813  1.00  0.00     0.049 A 
ATOM     37  H   UNL A   1      44.553  29.319  28.252  1.00  0.00     0.167 HD
ATOM     38  C   UNL A   1      46.956  30.914  28.082  1.00  0.00     0.074 A 
ATOM     39  C   UNL A   1      48.317  31.352  27.833  1.00  0.00     0.031 C 
ATOM     40  C   UNL A   1      45.982  31.710  28.589  1.00  0.00     0.034 A 
BRANCH  27  41
ATOM     41  C   UNL A   1      40.396  29.071  29.178  1.00  0.00     0.023 A 
ATOM     42  C   UNL A   1      39.427  29.349  28.194  1.00  0.00     0.012 A 
ATOM     43  C   UNL A   1      39.997  28.934  30.522  1.00  0.00     0.148 A 
ATOM     44  C   UNL A   1      38.089  29.532  28.549  1.00  0.00     0.002 A 
ATOM     45  C   UNL A   1      38.657  29.067  30.861  1.00  0.00     0.091 A 
ATOM     46  F   UNL A   1      40.939  28.707  31.447  1.00  0.00    -0.205 F 
ATOM     47  C   UNL A   1      37.704  29.383  29.879  1.00  0.00     0.022 A 
BRANCH  45  48
ATOM     48  S   UNL A   1      38.058  28.827  32.536  1.00  0.00     0.127 S 
ATOM     49  O   UNL A   1      38.270  27.390  32.721  1.00  0.00    -0.237 OA
ATOM     50  O   UNL A   1      38.966  29.680  33.306  1.00  0.00    -0.237 OA
ATOM     51  O   UNL A   1      36.671  29.256  32.537  1.00  0.00    -0.744 OA
ENDBRANCH  45  48
ENDBRANCH  27  41
BRANCH  28  52
ATOM     52  C   UNL A   1      50.027  27.772  26.318  1.00  0.00     0.023 A 
ATOM     53  C   UNL A   1      51.002  27.408  27.266  1.00  0.00     0.012 A 
ATOM     54  C   UNL A   1      50.413  27.942  24.972  1.00  0.00     0.148 A 
ATOM     55  C   UNL A   1      52.336  27.246  26.888  1.00  0.00     0.002 A 
ATOM     56  C   UNL A   1      51.732  27.725  24.592  1.00  0.00     0.091 A 
ATOM     57  F   UNL A   1      49.477  28.309  24.085  1.00  0.00    -0.205 F 
ATOM     58  C   UNL A   1      52.700  27.395  25.552  1.00  0.00     0.022 A 
BRANCH  56  59
ATOM     59  S   UNL A   1      52.263  27.784  22.877  1.00  0.00     0.127 S 
ATOM     60  O   UNL A   1      51.971  29.171  22.522  1.00  0.00    -0.237 OA
ATOM     61  O   UNL A   1      53.686  27.462  22.988  1.00  0.00    -0.237 OA
ATOM     62  O   UNL A   1      51.471  26.777  22.183  1.00  0.00    -0.744 OA
ENDBRANCH  56  59
ENDBRANCH  28  52
BRANCH  40  63
ATOM     63  C   UNL A   1      46.376  33.111  28.964  1.00  0.00     0.023 A 
ATOM     64  C   UNL A   1      46.847  33.394  30.260  1.00  0.00     0.012 A 
ATOM     65  C   UNL A   1      46.349  34.129  27.991  1.00  0.00     0.148 A 
ATOM     66  C   UNL A   1      47.248  34.684  30.594  1.00  0.00     0.002 A 
ATOM     67  C   UNL A   1      46.810  35.395  28.314  1.00  0.00     0.091 A 
ATOM     68  F   UNL A   1      45.878  33.836  26.770  1.00  0.00    -0.205 F 
ATOM     69  C   UNL A   1      47.244  35.680  29.619  1.00  0.00     0.022 A 
BRANCH  67  70
ATOM     70  S   UNL A   1      46.949  36.699  27.088  1.00  0.00     0.127 S 
ATOM     71  O   UNL A   1      47.636  36.010  25.998  1.00  0.00    -0.237 OA
ATOM     72  O   UNL A   1      45.548  37.023  26.821  1.00  0.00    -0.237 OA
ATOM     73  O   UNL A   1      47.703  37.769  27.726  1.00  0.00    -0.744 OA
ENDBRANCH  67  70
ENDBRANCH  40  63
ENDBRANCH  14  15
ENDBRANCH   7   9
ENDBRANCH   6   7
ENDBRANCH   5   6
ENDBRANCH   4   5
ENDBRANCH   3   4
ENDBRANCH   2   3
ENDBRANCH   1   2
BRANCH   1  74
ATOM     74  O   UNL A   1      38.797  22.768  26.235  1.00  0.00    -0.377 OA
BRANCH  74  75
ATOM     75  C   UNL A   1      38.158  21.779  25.418  1.00  0.00     0.188 C 
BRANCH  75  76
ATOM     76  C   UNL A   1      36.655  22.028  25.323  1.00  0.00     0.188 C 
BRANCH  76  77
ATOM     77  O   UNL A   1      36.232  22.835  24.229  1.00  0.00    -0.376 OA
BRANCH  77  78
ATOM     78  C   UNL A   1      34.933  22.603  23.702  1.00  0.00     0.202 C 
BRANCH  78  79
ATOM     79  C   UNL A   1      34.021  21.669  24.519  1.00  0.00     0.261 C 
BRANCH  79  80
ATOM     80  O   UNL A   1      32.922  22.301  25.231  1.00  0.00    -0.463 OA
BRANCH  80  81
ATOM     81  C   UNL A   1      33.227  22.932  26.394  1.00  0.00     0.309 C 
ATOM     82  O   UNL A   1      33.765  22.381  27.351  1.00  0.00    -0.252 OA
BRANCH  81  83
ATOM     83  C   UNL A   1      32.835  24.416  26.465  1.00  0.00     0.103 C 
ATOM     84  C   UNL A   1      31.335  24.720  26.463  1.00  0.00     0.037 C 
ATOM     85  C   UNL A   1      33.708  25.386  25.647  1.00  0.00     0.037 C 
ATOM     86  C   UNL A   1      30.802  25.373  25.194  1.00  0.00     0.117 C 
ATOM     87  C   UNL A   1      33.041  26.141  24.486  1.00  0.00     0.117 C 
ATOM     88  N   UNL A   1      31.661  26.490  24.812  1.00  0.00    -0.366 N 
BRANCH  88  89
ATOM     89  C   UNL A   1      31.068  27.624  24.266  1.00  0.00     0.116 A 
ATOM     90  C   UNL A   1      30.402  27.451  23.038  1.00  0.00     0.034 A 
ATOM     91  C   UNL A   1      31.023  28.930  24.787  1.00  0.00     0.293 A 
ATOM     92  C   UNL A   1      29.700  28.490  22.404  1.00  0.00     0.016 A 
ATOM     93  C   UNL A   1      30.286  29.972  24.182  1.00  0.00     0.101 A 
ATOM     94  C   UNL A   1      29.612  29.759  22.983  1.00  0.00     0.062 A 
BRANCH  91  95
ATOM     95  N   UNL A   1      31.837  29.361  25.902  1.00  0.00     0.064 N 
ATOM     96  O   UNL A   1      31.709  28.724  26.960  1.00  0.00    -0.258 OA
ATOM     97  O   UNL A   1      32.515  30.386  25.764  1.00  0.00    -0.258 OA
ENDBRANCH  91  95
BRANCH  94  98
ATOM     98  C   UNL A   1      28.861  30.884  22.317  1.00  0.00     0.416 C 
ATOM     99  F   UNL A   1      27.534  30.867  22.619  1.00  0.00    -0.166 F 
ATOM    100  F   UNL A   1      29.318  32.111  22.685  1.00  0.00    -0.166 F 
ATOM    101  F   UNL A   1      28.933  30.851  20.957  1.00  0.00    -0.166 F 
ENDBRANCH  94  98
ENDBRANCH  88  89
ENDBRANCH  81  83
ENDBRANCH  80  81
ENDBRANCH  79  80
ENDBRANCH  78  79
ENDBRANCH  77  78
ENDBRANCH  76  77
ENDBRANCH  75  76
ENDBRANCH  74  75
ENDBRANCH   1  74
TORSDOF 26
ENDMDL
MODEL 2
REMARK VINA RESULT:      -9.6      0.938      7.532
REMARK SMILES O=C(OCCOCCOCCOCCOC(=O)C1CCN(c2ccc(C(F)(F)F)cc2[N+](=O)[O-])CC1)c1ccc(-c2c3nc(c(-c4cccc(S(=O)(=O)[O-])c4F)c4ccc([nH]4)c(-c4cccc(S(=O)(=O)[O-])c4F)c4nc(c(-c5cccc(S(=O)(=O)[O-])c5F)c5ccc2[nH]5)C=C4)C=C3)cc1
REMARK SMILES IDX 8 1 7 2 6 3 5 4 4 5 3 6 2 7 1 8 37 9 38 10 99 11 39 12 98 13
REMARK SMILES IDX 40 14 41 15 42 16 92 17 43 18 97 19 91 20 93 21 44 22 96 23
REMARK SMILES IDX 90 24 89 25 45 27 77 28 57 29 76 30 58 31 61 32 75 33 94 34
REMARK SMILES IDX 59 35 60 36 74 38 95 39 62 40 46 41 47 42 55 43 48 44 50 45
REMARK SMILES IDX 56 46 49 47 51 48 52 49 53 50 54 51 78 52 79 53 87 54 80 55
REMARK SMILES IDX 82 56 88 57 81 58 83 59 84 60 85 61 86 62 63 63 64 64 72 65
REMARK SMILES IDX 65 66 67 67 73 68 66 69 68 70 69 71 70 72 71 73 9 74 10 75
REMARK SMILES IDX 11 76 12 77 13 78 14 79 15 80 16 81 17 82 18 83 19 84 36 85
REMARK SMILES IDX 20 86 35 87 21 88 22 89 23 90 31 91 24 92 30 93 25 94 32 95
REMARK SMILES IDX 33 96 34 97 26 98 27 99 28 100 29 101
REMARK H PARENT 93 26 61 37
REMARK Flexibility Score: inf
ROOT
ATOM      1  C   UNL A   1      39.091  23.697  26.832  1.00  0.00     0.188 C 
ENDROOT
BRANCH   1   2
ATOM      2  C   UNL A   1      40.179  22.749  26.360  1.00  0.00     0.188 C 
BRANCH   2   3
ATOM      3  O   UNL A   1      40.890  22.232  27.470  1.00  0.00    -0.376 OA
BRANCH   3   4
ATOM      4  C   UNL A   1      40.896  20.832  27.659  1.00  0.00     0.202 C 
BRANCH   4   5
ATOM      5  C   UNL A   1      40.824  20.064  26.337  1.00  0.00     0.261 C 
BRANCH   5   6
ATOM      6  O   UNL A   1      42.074  19.430  26.014  1.00  0.00    -0.460 OA
BRANCH   6   7
ATOM      7  C   UNL A   1      43.140  19.955  25.357  1.00  0.00     0.338 C 
ATOM      8  O   UNL A   1      43.656  19.286  24.461  1.00  0.00    -0.246 OA
BRANCH   7   9
ATOM      9  C   UNL A   1      43.730  21.305  25.642  1.00  0.00     0.060 A 
ATOM     10  C   UNL A   1      44.470  21.642  26.776  1.00  0.00     0.016 A 
ATOM     11  C   UNL A   1      43.571  22.293  24.654  1.00  0.00     0.016 A 
ATOM     12  C   UNL A   1      45.028  22.888  26.953  1.00  0.00     0.010 A 
ATOM     13  C   UNL A   1      44.082  23.582  24.843  1.00  0.00     0.010 A 
ATOM     14  C   UNL A   1      44.779  23.878  26.018  1.00  0.00    -0.014 A 
BRANCH  14  15
ATOM     15  C   UNL A   1      44.989  25.241  26.513  1.00  0.00     0.031 A 
ATOM     16  C   UNL A   1      46.341  25.841  26.270  1.00  0.00     0.074 A 
ATOM     17  C   UNL A   1      43.935  25.970  26.912  1.00  0.00     0.049 A 
ATOM     18  N   UNL A   1      46.779  27.034  26.551  1.00  0.00    -0.248 NA
ATOM     19  C   UNL A   1      47.330  24.986  25.582  1.00  0.00     0.031 C 
ATOM     20  C   UNL A   1      42.553  25.487  26.983  1.00  0.00     0.029 A 
ATOM     21  N   UNL A   1      43.855  27.278  27.291  1.00  0.00    -0.354 N 
ATOM     22  C   UNL A   1      48.110  27.043  26.150  1.00  0.00     0.074 A 
ATOM     23  C   UNL A   1      48.403  25.758  25.567  1.00  0.00     0.031 C 
ATOM     24  C   UNL A   1      41.760  26.492  27.390  1.00  0.00     0.029 A 
ATOM     25  C   UNL A   1      42.589  27.658  27.665  1.00  0.00     0.049 A 
ATOM     26  H   UNL A   1      44.627  27.889  27.295  1.00  0.00     0.167 HD
ATOM     27  C   UNL A   1      49.007  28.043  26.283  1.00  0.00     0.034 A 
ATOM     28  C   UNL A   1      42.175  28.817  28.210  1.00  0.00     0.034 A 
ATOM     29  C   UNL A   1      48.664  29.313  26.852  1.00  0.00     0.049 A 
ATOM     30  C   UNL A   1      43.211  29.889  28.414  1.00  0.00     0.074 A 
ATOM     31  C   UNL A   1      49.476  30.402  27.094  1.00  0.00     0.029 A 
ATOM     32  N   UNL A   1      47.386  29.655  27.280  1.00  0.00    -0.354 N 
ATOM     33  N   UNL A   1      44.479  29.888  28.069  1.00  0.00    -0.248 NA
ATOM     34  C   UNL A   1      42.766  31.125  29.066  1.00  0.00     0.031 C 
ATOM     35  C   UNL A   1      48.696  31.388  27.706  1.00  0.00     0.029 A 
ATOM     36  C   UNL A   1      47.386  30.934  27.796  1.00  0.00     0.049 A 
ATOM     37  H   UNL A   1      46.597  29.070  27.221  1.00  0.00     0.167 HD
ATOM     38  C   UNL A   1      44.976  31.133  28.429  1.00  0.00     0.074 A 
ATOM     39  C   UNL A   1      43.863  31.867  29.003  1.00  0.00     0.031 C 
ATOM     40  C   UNL A   1      46.233  31.629  28.312  1.00  0.00     0.034 A 
BRANCH  27  41
ATOM     41  C   UNL A   1      50.430  27.750  25.891  1.00  0.00     0.023 A 
ATOM     42  C   UNL A   1      51.423  27.541  26.869  1.00  0.00     0.012 A 
ATOM     43  C   UNL A   1      50.785  27.723  24.528  1.00  0.00     0.148 A 
ATOM     44  C   UNL A   1      52.756  27.352  26.496  1.00  0.00     0.002 A 
ATOM     45  C   UNL A   1      52.103  27.484  24.163  1.00  0.00     0.091 A 
ATOM     46  F   UNL A   1      49.833  27.961  23.616  1.00  0.00    -0.205 F 
ATOM     47  C   UNL A   1      53.093  27.315  25.145  1.00  0.00     0.022 A 
BRANCH  45  48
ATOM     48  S   UNL A   1      52.620  27.352  22.449  1.00  0.00     0.127 S 
ATOM     49  O   UNL A   1      53.068  28.718  22.171  1.00  0.00    -0.237 OA
ATOM     50  O   UNL A   1      53.698  26.364  22.534  1.00  0.00    -0.237 OA
ATOM     51  O   UNL A   1      51.451  26.918  21.705  1.00  0.00    -0.744 OA
ENDBRANCH  45  48
ENDBRANCH  27  41
BRANCH  28  52
ATOM     52  C   UNL A   1      40.752  29.002  28.612  1.00  0.00     0.023 A 
ATOM     53  C   UNL A   1      39.781  29.314  27.643  1.00  0.00     0.012 A 
ATOM     54  C   UNL A   1      40.353  28.859  29.958  1.00  0.00     0.148 A 
ATOM     55  C   UNL A   1      38.448  29.509  28.009  1.00  0.00     0.002 A 
ATOM     56  C   UNL A   1      39.016  28.999  30.308  1.00  0.00     0.091 A 
ATOM     57  F   UNL A   1      41.294  28.582  30.873  1.00  0.00    -0.205 F 
ATOM     58  C   UNL A   1      38.064  29.343  29.337  1.00  0.00     0.022 A 
BRANCH  56  59
ATOM     59  S   UNL A   1      38.418  28.690  31.973  1.00  0.00     0.127 S 
ATOM     60  O   UNL A   1      37.041  29.172  31.889  1.00  0.00    -0.237 OA
ATOM     61  O   UNL A   1      38.557  27.238  32.081  1.00  0.00    -0.237 OA
ATOM     62  O   UNL A   1      39.297  29.445  32.855  1.00  0.00    -0.744 OA
ENDBRANCH  56  59
ENDBRANCH  28  52
BRANCH  40  63
ATOM     63  C   UNL A   1      46.448  33.048  28.756  1.00  0.00     0.023 A 
ATOM     64  C   UNL A   1      46.978  33.321  30.031  1.00  0.00     0.012 A 
ATOM     65  C   UNL A   1      46.192  34.107  27.863  1.00  0.00     0.148 A 
ATOM     66  C   UNL A   1      47.213  34.635  30.427  1.00  0.00     0.002 A 
ATOM     67  C   UNL A   1      46.487  35.407  28.241  1.00  0.00     0.091 A 
ATOM     68  F   UNL A   1      45.669  33.819  26.662  1.00  0.00    -0.205 F 
ATOM     69  C   UNL A   1      46.982  35.676  29.529  1.00  0.00     0.022 A 
BRANCH  67  70
ATOM     70  S   UNL A   1      46.332  36.788  27.106  1.00  0.00     0.127 S 
ATOM     71  O   UNL A   1      46.862  37.891  27.904  1.00  0.00    -0.237 OA
ATOM     72  O   UNL A   1      47.187  36.371  25.994  1.00  0.00    -0.237 OA
ATOM     73  O   UNL A   1      44.917  36.877  26.775  1.00  0.00    -0.744 OA
ENDBRANCH  67  70
ENDBRANCH  40  63
ENDBRANCH  14  15
ENDBRANCH   7   9
ENDBRANCH   6   7
ENDBRANCH   5   6
ENDBRANCH   4   5
ENDBRANCH   3   4
ENDBRANCH   2   3
ENDBRANCH   1   2
BRANCH   1  74
ATOM     74  O   UNL A   1      37.801  23.525  26.236  1.00  0.00    -0.377 OA
BRANCH  74  75
ATOM     75  C   UNL A   1      37.654  22.471  25.276  1.00  0.00     0.188 C 
BRANCH  75  76
ATOM     76  C   UNL A   1      36.529  21.517  25.673  1.00  0.00     0.188 C 
BRANCH  76  77
ATOM     77  O   UNL A   1      35.346  22.132  26.171  1.00  0.00    -0.376 OA
BRANCH  77  78
ATOM     78  C   UNL A   1      34.115  21.451  25.971  1.00  0.00     0.202 C 
BRANCH  78  79
ATOM     79  C   UNL A   1      33.642  21.310  24.513  1.00  0.00     0.261 C 
BRANCH  79  80
ATOM     80  O   UNL A   1      32.526  22.152  24.112  1.00  0.00    -0.463 OA
BRANCH  80  81
ATOM     81  C   UNL A   1      31.857  22.797  25.103  1.00  0.00     0.309 C 
ATOM     82  O   UNL A   1      31.170  22.228  25.948  1.00  0.00    -0.252 OA
BRANCH  81  83
ATOM     83  C   UNL A   1      31.991  24.327  25.104  1.00  0.00     0.103 C 
ATOM     84  C   UNL A   1      30.941  25.097  25.908  1.00  0.00     0.037 C 
ATOM     85  C   UNL A   1      32.404  24.970  23.766  1.00  0.00     0.037 C 
ATOM     86  C   UNL A   1      29.941  25.895  25.082  1.00  0.00     0.117 C 
ATOM     87  C   UNL A   1      31.395  25.908  23.084  1.00  0.00     0.117 C 
ATOM     88  N   UNL A   1      30.646  26.680  24.071  1.00  0.00    -0.366 N 
BRANCH  88  89
ATOM     89  C   UNL A   1      30.164  27.948  23.764  1.00  0.00     0.116 A 
ATOM     90  C   UNL A   1      29.016  28.000  22.951  1.00  0.00     0.034 A 
ATOM     91  C   UNL A   1      30.658  29.200  24.175  1.00  0.00     0.293 A 
ATOM     92  C   UNL A   1      28.379  29.207  22.616  1.00  0.00     0.016 A 
ATOM     93  C   UNL A   1      30.003  30.416  23.882  1.00  0.00     0.101 A 
ATOM     94  C   UNL A   1      28.851  30.430  23.100  1.00  0.00     0.062 A 
BRANCH  91  95
ATOM     95  N   UNL A   1      31.947  29.368  24.808  1.00  0.00     0.064 N 
ATOM     96  O   UNL A   1      32.935  28.977  24.164  1.00  0.00    -0.258 OA
ATOM     97  O   UNL A   1      31.973  29.783  25.972  1.00  0.00    -0.258 OA
ENDBRANCH  91  95
BRANCH  94  98
ATOM     98  C   UNL A   1      28.177  31.733  22.752  1.00  0.00     0.416 C 
ATOM     99  F   UNL A   1      29.044  32.782  22.769  1.00  0.00    -0.166 F 
ATOM    100  F   UNL A   1      27.622  31.721  21.510  1.00  0.00    -0.166 F 
ATOM    101  F   UNL A   1      27.171  32.067  23.607  1.00  0.00    -0.166 F 
ENDBRANCH  94  98
ENDBRANCH  88  89
ENDBRANCH  81  83
ENDBRANCH  80  81
ENDBRANCH  79  80
ENDBRANCH  78  79
ENDBRANCH  77  78
ENDBRANCH  76  77
ENDBRANCH  75  76
ENDBRANCH  74  75
ENDBRANCH   1  74
TORSDOF 26
ENDMDL
MODEL 3
REMARK VINA RESULT:      -9.3      1.898      7.837
REMARK SMILES O=C(OCCOCCOCCOCCOC(=O)C1CCN(c2ccc(C(F)(F)F)cc2[N+](=O)[O-])CC1)c1ccc(-c2c3nc(c(-c4cccc(S(=O)(=O)[O-])c4F)c4ccc([nH]4)c(-c4cccc(S(=O)(=O)[O-])c4F)c4nc(c(-c5cccc(S(=O)(=O)[O-])c5F)c5ccc2[nH]5)C=C4)C=C3)cc1
REMARK SMILES IDX 8 1 7 2 6 3 5 4 4 5 3 6 2 7 1 8 37 9 38 10 99 11 39 12 98 13
REMARK SMILES IDX 40 14 41 15 42 16 92 17 43 18 97 19 91 20 93 21 44 22 96 23
REMARK SMILES IDX 90 24 89 25 45 27 77 28 57 29 76 30 58 31 61 32 75 33 94 34
REMARK SMILES IDX 59 35 60 36 74 38 95 39 62 40 46 41 47 42 55 43 48 44 50 45
REMARK SMILES IDX 56 46 49 47 51 48 52 49 53 50 54 51 78 52 79 53 87 54 80 55
REMARK SMILES IDX 82 56 88 57 81 58 83 59 84 60 85 61 86 62 63 63 64 64 72 65
REMARK SMILES IDX 65 66 67 67 73 68 66 69 68 70 69 71 70 72 71 73 9 74 10 75
REMARK SMILES IDX 11 76 12 77 13 78 14 79 15 80 16 81 17 82 18 83 19 84 36 85
REMARK SMILES IDX 20 86 35 87 21 88 22 89 23 90 31 91 24 92 30 93 25 94 32 95
REMARK SMILES IDX 33 96 34 97 26 98 27 99 28 100 29 101
REMARK H PARENT 93 26 61 37
REMARK Flexibility Score: inf
ROOT
ATOM      1  C   UNL A   1      39.266  23.622  26.968  1.00  0.00     0.188 C 
ENDROOT
BRANCH   1   2
ATOM      2  C   UNL A   1      40.408  22.725  26.524  1.00  0.00     0.188 C 
BRANCH   2   3
ATOM      3  O   UNL A   1      41.004  22.100  27.646  1.00  0.00    -0.376 OA
BRANCH   3   4
ATOM      4  C   UNL A   1      41.013  20.689  27.691  1.00  0.00     0.202 C 
BRANCH   4   5
ATOM      5  C   UNL A   1      40.938  20.060  26.298  1.00  0.00     0.261 C 
BRANCH   5   6
ATOM      6  O   UNL A   1      42.179  19.441  25.917  1.00  0.00    -0.460 OA
BRANCH   6   7
ATOM      7  C   UNL A   1      43.225  19.992  25.249  1.00  0.00     0.338 C 
ATOM      8  O   UNL A   1      43.724  19.352  24.323  1.00  0.00    -0.246 OA
BRANCH   7   9
ATOM      9  C   UNL A   1      43.812  21.338  25.558  1.00  0.00     0.060 A 
ATOM     10  C   UNL A   1      44.529  21.664  26.710  1.00  0.00     0.016 A 
ATOM     11  C   UNL A   1      43.678  22.335  24.576  1.00  0.00     0.016 A 
ATOM     12  C   UNL A   1      45.087  22.907  26.910  1.00  0.00     0.010 A 
ATOM     13  C   UNL A   1      44.189  23.621  24.785  1.00  0.00     0.010 A 
ATOM     14  C   UNL A   1      44.861  23.905  25.978  1.00  0.00    -0.014 A 
BRANCH  14  15
ATOM     15  C   UNL A   1      45.064  25.263  26.488  1.00  0.00     0.031 A 
ATOM     16  C   UNL A   1      46.428  25.855  26.293  1.00  0.00     0.074 A 
ATOM     17  C   UNL A   1      44.002  25.998  26.857  1.00  0.00     0.049 A 
ATOM     18  N   UNL A   1      46.864  27.043  26.596  1.00  0.00    -0.248 NA
ATOM     19  C   UNL A   1      47.432  24.997  25.632  1.00  0.00     0.031 C 
ATOM     20  C   UNL A   1      42.615  25.523  26.880  1.00  0.00     0.029 A 
ATOM     21  N   UNL A   1      43.919  27.304  27.242  1.00  0.00    -0.354 N 
ATOM     22  C   UNL A   1      48.207  27.045  26.240  1.00  0.00     0.074 A 
ATOM     23  C   UNL A   1      48.510  25.761  25.658  1.00  0.00     0.031 C 
ATOM     24  C   UNL A   1      41.817  26.531  27.268  1.00  0.00     0.029 A 
ATOM     25  C   UNL A   1      42.644  27.690  27.577  1.00  0.00     0.049 A 
ATOM     26  H   UNL A   1      44.695  27.909  27.275  1.00  0.00     0.167 HD
ATOM     27  C   UNL A   1      49.107  28.038  26.408  1.00  0.00     0.034 A 
ATOM     28  C   UNL A   1      42.221  28.848  28.116  1.00  0.00     0.034 A 
ATOM     29  C   UNL A   1      48.754  29.307  26.974  1.00  0.00     0.049 A 
ATOM     30  C   UNL A   1      43.257  29.912  28.361  1.00  0.00     0.074 A 
ATOM     31  C   UNL A   1      49.565  30.388  27.249  1.00  0.00     0.029 A 
ATOM     32  N   UNL A   1      47.465  29.655  27.362  1.00  0.00    -0.354 N 
ATOM     33  N   UNL A   1      44.536  29.904  28.057  1.00  0.00    -0.248 NA
ATOM     34  C   UNL A   1      42.799  31.147  29.006  1.00  0.00     0.031 C 
ATOM     35  C   UNL A   1      48.772  31.376  27.842  1.00  0.00     0.029 A 
ATOM     36  C   UNL A   1      47.457  30.931  27.886  1.00  0.00     0.049 A 
ATOM     37  H   UNL A   1      46.674  29.076  27.274  1.00  0.00     0.167 HD
ATOM     38  C   UNL A   1      45.029  31.143  28.441  1.00  0.00     0.074 A 
ATOM     39  C   UNL A   1      43.903  31.881  28.983  1.00  0.00     0.031 C 
ATOM     40  C   UNL A   1      46.293  31.631  28.368  1.00  0.00     0.034 A 
BRANCH  27  41
ATOM     41  C   UNL A   1      50.539  27.737  26.061  1.00  0.00     0.023 A 
ATOM     42  C   UNL A   1      51.494  27.495  27.069  1.00  0.00     0.012 A 
ATOM     43  C   UNL A   1      50.943  27.736  24.711  1.00  0.00     0.148 A 
ATOM     44  C   UNL A   1      52.837  27.298  26.740  1.00  0.00     0.002 A 
ATOM     45  C   UNL A   1      52.271  27.490  24.389  1.00  0.00     0.091 A 
ATOM     46  F   UNL A   1      50.027  28.005  23.771  1.00  0.00    -0.205 F 
ATOM     47  C   UNL A   1      53.223  27.288  25.401  1.00  0.00     0.022 A 
BRANCH  45  48
ATOM     48  S   UNL A   1      52.848  27.390  22.691  1.00  0.00     0.127 S 
ATOM     49  O   UNL A   1      51.753  26.660  22.051  1.00  0.00    -0.237 OA
ATOM     50  O   UNL A   1      52.935  28.804  22.319  1.00  0.00    -0.237 OA
ATOM     51  O   UNL A   1      54.120  26.691  22.735  1.00  0.00    -0.744 OA
ENDBRANCH  45  48
ENDBRANCH  27  41
BRANCH  28  52
ATOM     52  C   UNL A   1      40.787  29.041  28.473  1.00  0.00     0.023 A 
ATOM     53  C   UNL A   1      39.842  29.319  27.467  1.00  0.00     0.012 A 
ATOM     54  C   UNL A   1      40.351  28.939  29.811  1.00  0.00     0.148 A 
ATOM     55  C   UNL A   1      38.499  29.521  27.790  1.00  0.00     0.002 A 
ATOM     56  C   UNL A   1      39.004  29.086  30.118  1.00  0.00     0.091 A 
ATOM     57  F   UNL A   1      41.266  28.694  30.759  1.00  0.00    -0.205 F 
ATOM     58  C   UNL A   1      38.078  29.395  29.112  1.00  0.00     0.022 A 
BRANCH  56  59
ATOM     59  S   UNL A   1      38.361  28.827  31.775  1.00  0.00     0.127 S 
ATOM     60  O   UNL A   1      38.771  27.450  32.043  1.00  0.00    -0.237 OA
ATOM     61  O   UNL A   1      39.081  29.844  32.543  1.00  0.00    -0.237 OA
ATOM     62  O   UNL A   1      36.925  29.050  31.682  1.00  0.00    -0.744 OA
ENDBRANCH  56  59
ENDBRANCH  28  52
BRANCH  40  63
ATOM     63  C   UNL A   1      46.503  33.045  28.828  1.00  0.00     0.023 A 
ATOM     64  C   UNL A   1      46.812  33.316  30.175  1.00  0.00     0.012 A 
ATOM     65  C   UNL A   1      46.468  34.097  27.893  1.00  0.00     0.148 A 
ATOM     66  C   UNL A   1      47.044  34.623  30.592  1.00  0.00     0.002 A 
ATOM     67  C   UNL A   1      46.762  35.388  28.304  1.00  0.00     0.091 A 
ATOM     68  F   UNL A   1      46.152  33.813  26.621  1.00  0.00    -0.205 F 
ATOM     69  C   UNL A   1      47.035  35.657  29.656  1.00  0.00     0.022 A 
BRANCH  67  70
ATOM     70  S   UNL A   1      46.888  36.752  27.145  1.00  0.00     0.127 S 
ATOM     71  O   UNL A   1      45.528  37.288  27.168  1.00  0.00    -0.237 OA
ATOM     72  O   UNL A   1      47.893  37.605  27.778  1.00  0.00    -0.237 OA
ATOM     73  O   UNL A   1      47.308  36.164  25.880  1.00  0.00    -0.744 OA
ENDBRANCH  67  70
ENDBRANCH  40  63
ENDBRANCH  14  15
ENDBRANCH   7   9
ENDBRANCH   6   7
ENDBRANCH   5   6
ENDBRANCH   4   5
ENDBRANCH   3   4
ENDBRANCH   2   3
ENDBRANCH   1   2
BRANCH   1  74
ATOM     74  O   UNL A   1      37.985  23.345  26.394  1.00  0.00    -0.377 OA
BRANCH  74  75
ATOM     75  C   UNL A   1      37.931  22.377  25.339  1.00  0.00     0.188 C 
BRANCH  75  76
ATOM     76  C   UNL A   1      36.834  21.345  25.594  1.00  0.00     0.188 C 
BRANCH  76  77
ATOM     77  O   UNL A   1      35.656  21.840  26.221  1.00  0.00    -0.376 OA
BRANCH  77  78
ATOM     78  C   UNL A   1      34.409  21.552  25.602  1.00  0.00     0.202 C 
BRANCH  78  79
ATOM     79  C   UNL A   1      34.344  21.743  24.076  1.00  0.00     0.261 C 
BRANCH  79  80
ATOM     80  O   UNL A   1      34.669  23.070  23.577  1.00  0.00    -0.463 OA
BRANCH  80  81
ATOM     81  C   UNL A   1      33.712  23.704  22.853  1.00  0.00     0.309 C 
ATOM     82  O   UNL A   1      33.429  23.418  21.692  1.00  0.00    -0.252 OA
BRANCH  81  83
ATOM     83  C   UNL A   1      32.987  24.851  23.575  1.00  0.00     0.103 C 
ATOM     84  C   UNL A   1      33.136  26.242  22.955  1.00  0.00     0.037 C 
ATOM     85  C   UNL A   1      33.016  24.805  25.115  1.00  0.00     0.037 C 
ATOM     86  C   UNL A   1      33.984  27.225  23.752  1.00  0.00     0.117 C 
ATOM     87  C   UNL A   1      33.749  25.939  25.848  1.00  0.00     0.117 C 
ATOM     88  N   UNL A   1      33.575  27.212  25.154  1.00  0.00    -0.366 N 
BRANCH  88  89
ATOM     89  C   UNL A   1      33.585  28.412  25.856  1.00  0.00     0.116 A 
ATOM     90  C   UNL A   1      34.718  28.660  26.653  1.00  0.00     0.034 A 
ATOM     91  C   UNL A   1      32.618  29.434  25.865  1.00  0.00     0.293 A 
ATOM     92  C   UNL A   1      34.898  29.859  27.363  1.00  0.00     0.016 A 
ATOM     93  C   UNL A   1      32.804  30.661  26.540  1.00  0.00     0.101 A 
ATOM     94  C   UNL A   1      33.952  30.886  27.294  1.00  0.00     0.062 A 
BRANCH  91  95
ATOM     95  N   UNL A   1      31.293  29.269  25.309  1.00  0.00     0.064 N 
ATOM     96  O   UNL A   1      30.752  28.165  25.487  1.00  0.00    -0.258 OA
ATOM     97  O   UNL A   1      30.838  30.182  24.612  1.00  0.00    -0.258 OA
ENDBRANCH  91  95
BRANCH  94  98
ATOM     98  C   UNL A   1      34.130  32.180  28.049  1.00  0.00     0.416 C 
ATOM     99  F   UNL A   1      33.062  33.010  27.909  1.00  0.00    -0.166 F 
ATOM    100  F   UNL A   1      34.289  31.989  29.387  1.00  0.00    -0.166 F 
ATOM    101  F   UNL A   1      35.215  32.897  27.643  1.00  0.00    -0.166 F 
ENDBRANCH  94  98
ENDBRANCH  88  89
ENDBRANCH  81  83
ENDBRANCH  80  81
ENDBRANCH  79  80
ENDBRANCH  78  79
ENDBRANCH  77  78
ENDBRANCH  76  77
ENDBRANCH  75  76
ENDBRANCH  74  75
ENDBRANCH   1  74
TORSDOF 26
ENDMDL
