MODEL 1
REMARK VINA RESULT:     -10.2      0.000      0.000
REMARK SMILES Cc1cc(Cl)cc2c1O[C@H](C(F)(F)F)C(C(=O)OCCOCCOCCOCCOC(=O)c1ccc(-c3c4nc(c(-c5cccc(S(=O)(=O)[O-])c5F)c5ccc([nH]5)c(-c5cccc(S(=O)(=O)[O-])c5F)c5nc(c(-c6cccc(S(=O)(=O)[O-])c6F)c6ccc3[nH]6)C=C5)C=C4)cc1)=C2
REMARK SMILES IDX 25 1 24 2 23 3 22 4 21 5 20 6 19 7 18 8 16 9 17 10 15 11
REMARK SMILES IDX 1 12 2 13 3 14 8 15 4 16 7 17 9 18 5 19 6 20 96 21 10 22
REMARK SMILES IDX 11 23 12 24 13 25 14 26 26 27 27 28 28 29 29 30 30 31 31 32
REMARK SMILES IDX 32 33 33 34 34 35 95 36 35 37 94 38 36 39 37 40 38 41 88 42
REMARK SMILES IDX 39 43 93 44 87 45 89 46 40 47 92 48 86 49 85 50 41 52 73 53
REMARK SMILES IDX 53 54 72 55 54 56 57 57 71 58 90 59 55 60 56 61 70 63 91 64
REMARK SMILES IDX 58 65 42 66 43 67 51 68 44 69 46 70 52 71 45 72 47 73 48 74
REMARK SMILES IDX 49 75 50 76 74 77 75 78 83 79 76 80 78 81 84 82 77 83 79 84
REMARK SMILES IDX 80 85 81 86 82 87 59 88 60 89 68 90 61 91 63 92 69 93 62 94
REMARK SMILES IDX 64 95 65 96 66 97 67 98
REMARK H PARENT 89 51 57 62
REMARK Flexibility Score: inf
ROOT
ATOM      1  C   UNL A   1      35.626  22.413  25.330  1.00  0.00     0.188 C 
ENDROOT
BRANCH   1   2
ATOM      2  O   UNL A   1      35.229  21.726  26.516  1.00  0.00    -0.377 OA
BRANCH   2   3
ATOM      3  C   UNL A   1      33.864  21.372  26.657  1.00  0.00     0.188 C 
BRANCH   3   4
ATOM      4  C   UNL A   1      33.341  20.517  25.487  1.00  0.00     0.188 C 
BRANCH   4   5
ATOM      5  O   UNL A   1      32.163  21.024  24.887  1.00  0.00    -0.376 OA
BRANCH   5   6
ATOM      6  C   UNL A   1      32.205  21.785  23.690  1.00  0.00     0.202 C 
BRANCH   6   7
ATOM      7  C   UNL A   1      31.325  23.015  23.386  1.00  0.00     0.261 C 
BRANCH   7   8
ATOM      8  O   UNL A   1      31.704  24.260  23.970  1.00  0.00    -0.460 OA
BRANCH   8   9
ATOM      9  C   UNL A   1      32.301  25.170  23.182  1.00  0.00     0.338 C 
ATOM     10  O   UNL A   1      32.996  24.952  22.205  1.00  0.00    -0.246 OA
BRANCH   9  11
ATOM     11  C   UNL A   1      31.806  26.503  23.593  1.00  0.00     0.087 C 
ATOM     12  C   UNL A   1      31.048  31.101  25.785  1.00  0.00     0.048 C 
ATOM     13  C   UNL A   1      30.483  30.334  24.621  1.00  0.00    -0.007 A 
ATOM     14  C   UNL A   1      29.564  30.979  23.777  1.00  0.00     0.027 A 
ATOM     15  C   UNL A   1      30.872  29.016  24.326  1.00  0.00     0.131 A 
ATOM     16  C   UNL A   1      29.033  30.315  22.675  1.00  0.00     0.042 A 
ATOM     17  C   UNL A   1      30.372  28.374  23.188  1.00  0.00     0.019 A 
ATOM     18  O   UNL A   1      31.746  28.420  25.188  1.00  0.00    -0.475 OA
ATOM     19  Cl  UNL A   1      27.908  31.119  21.650  1.00  0.00    -0.084 Cl
ATOM     20  C   UNL A   1      29.429  29.015  22.377  1.00  0.00     0.032 A 
ATOM     21  C   UNL A   1      30.878  27.066  22.810  1.00  0.00     0.027 C 
ATOM     22  C   UNL A   1      32.298  27.111  24.882  1.00  0.00     0.316 C 
BRANCH  22  23
ATOM     23  C   UNL A   1      33.828  27.221  24.915  1.00  0.00     0.430 C 
ATOM     24  F   UNL A   1      34.320  27.626  23.723  1.00  0.00    -0.167 F 
ATOM     25  F   UNL A   1      34.252  28.104  25.847  1.00  0.00    -0.167 F 
ATOM     26  F   UNL A   1      34.398  26.026  25.205  1.00  0.00    -0.167 F 
ENDBRANCH  22  23
ENDBRANCH   9  11
ENDBRANCH   8   9
ENDBRANCH   7   8
ENDBRANCH   6   7
ENDBRANCH   5   6
ENDBRANCH   4   5
ENDBRANCH   3   4
ENDBRANCH   2   3
ENDBRANCH   1   2
BRANCH   1  27
ATOM     27  C   UNL A   1      36.733  23.496  25.349  1.00  0.00     0.188 C 
BRANCH  27  28
ATOM     28  O   UNL A   1      38.019  23.019  25.732  1.00  0.00    -0.376 OA
BRANCH  28  29
ATOM     29  C   UNL A   1      38.354  21.682  25.397  1.00  0.00     0.202 C 
BRANCH  29  30
ATOM     30  C   UNL A   1      39.346  20.988  26.341  1.00  0.00     0.261 C 
BRANCH  30  31
ATOM     31  O   UNL A   1      40.035  19.854  25.794  1.00  0.00    -0.460 OA
BRANCH  31  32
ATOM     32  C   UNL A   1      41.317  19.665  26.172  1.00  0.00     0.338 C 
ATOM     33  O   UNL A   1      41.944  18.620  26.147  1.00  0.00    -0.246 OA
BRANCH  32  34
ATOM     34  C   UNL A   1      41.905  20.995  26.432  1.00  0.00     0.060 A 
ATOM     35  C   UNL A   1      42.206  21.357  27.751  1.00  0.00     0.016 A 
ATOM     36  C   UNL A   1      42.171  21.870  25.376  1.00  0.00     0.016 A 
ATOM     37  C   UNL A   1      42.742  22.616  28.021  1.00  0.00     0.010 A 
ATOM     38  C   UNL A   1      42.685  23.140  25.650  1.00  0.00     0.010 A 
ATOM     39  C   UNL A   1      42.936  23.530  26.977  1.00  0.00    -0.014 A 
BRANCH  39  40
ATOM     40  C   UNL A   1      43.177  24.958  27.295  1.00  0.00     0.031 A 
ATOM     41  C   UNL A   1      44.533  25.529  26.979  1.00  0.00     0.074 A 
ATOM     42  C   UNL A   1      42.219  25.735  27.828  1.00  0.00     0.049 A 
ATOM     43  N   UNL A   1      44.990  26.737  27.179  1.00  0.00    -0.248 NA
ATOM     44  C   UNL A   1      45.503  24.614  26.352  1.00  0.00     0.031 C 
ATOM     45  C   UNL A   1      40.862  25.304  28.153  1.00  0.00     0.029 A 
ATOM     46  N   UNL A   1      42.253  27.055  28.206  1.00  0.00    -0.354 N 
ATOM     47  C   UNL A   1      46.300  26.723  26.718  1.00  0.00     0.074 A 
ATOM     48  C   UNL A   1      46.575  25.384  26.247  1.00  0.00     0.031 C 
ATOM     49  C   UNL A   1      40.196  26.336  28.699  1.00  0.00     0.029 A 
ATOM     50  C   UNL A   1      41.087  27.494  28.786  1.00  0.00     0.049 A 
ATOM     51  H   UNL A   1      43.040  27.632  28.073  1.00  0.00     0.167 HD
ATOM     52  C   UNL A   1      47.190  27.740  26.670  1.00  0.00     0.034 A 
ATOM     53  C   UNL A   1      40.783  28.687  29.339  1.00  0.00     0.034 A 
ATOM     54  C   UNL A   1      46.912  29.073  27.126  1.00  0.00     0.049 A 
ATOM     55  C   UNL A   1      41.814  29.789  29.327  1.00  0.00     0.074 A 
ATOM     56  C   UNL A   1      47.742  30.179  27.098  1.00  0.00     0.029 A 
ATOM     57  N   UNL A   1      45.719  29.481  27.703  1.00  0.00    -0.354 N 
ATOM     58  N   UNL A   1      43.015  29.792  28.799  1.00  0.00    -0.248 NA
ATOM     59  C   UNL A   1      41.441  31.061  29.965  1.00  0.00     0.031 C 
ATOM     60  C   UNL A   1      47.063  31.247  27.688  1.00  0.00     0.029 A 
ATOM     61  C   UNL A   1      45.796  30.818  28.050  1.00  0.00     0.049 A 
ATOM     62  H   UNL A   1      44.934  28.904  27.845  1.00  0.00     0.167 HD
ATOM     63  C   UNL A   1      43.526  31.070  29.012  1.00  0.00     0.074 A 
ATOM     64  C   UNL A   1      42.495  31.821  29.696  1.00  0.00     0.031 C 
ATOM     65  C   UNL A   1      44.744  31.570  28.687  1.00  0.00     0.034 A 
BRANCH  52  66
ATOM     66  C   UNL A   1      48.544  27.463  26.073  1.00  0.00     0.023 A 
ATOM     67  C   UNL A   1      49.575  26.961  26.895  1.00  0.00     0.012 A 
ATOM     68  C   UNL A   1      48.773  27.620  24.694  1.00  0.00     0.148 A 
ATOM     69  C   UNL A   1      50.818  26.637  26.354  1.00  0.00     0.002 A 
ATOM     70  C   UNL A   1      49.998  27.250  24.154  1.00  0.00     0.091 A 
ATOM     71  F   UNL A   1      47.787  28.123  23.937  1.00  0.00    -0.205 F 
ATOM     72  C   UNL A   1      51.024  26.768  24.983  1.00  0.00     0.022 A 
BRANCH  70  73
ATOM     73  S   UNL A   1      50.337  27.299  22.391  1.00  0.00     0.127 S 
ATOM     74  O   UNL A   1      49.283  26.433  21.864  1.00  0.00    -0.237 OA
ATOM     75  O   UNL A   1      50.167  28.720  22.087  1.00  0.00    -0.237 OA
ATOM     76  O   UNL A   1      51.694  26.796  22.226  1.00  0.00    -0.744 OA
ENDBRANCH  70  73
ENDBRANCH  52  66
BRANCH  53  77
ATOM     77  C   UNL A   1      39.425  28.918  29.914  1.00  0.00     0.023 A 
ATOM     78  C   UNL A   1      39.122  28.420  31.195  1.00  0.00     0.012 A 
ATOM     79  C   UNL A   1      38.445  29.646  29.211  1.00  0.00     0.148 A 
ATOM     80  C   UNL A   1      37.861  28.624  31.759  1.00  0.00     0.002 A 
ATOM     81  C   UNL A   1      37.211  29.897  29.802  1.00  0.00     0.091 A 
ATOM     82  F   UNL A   1      38.745  30.094  27.985  1.00  0.00    -0.205 F 
ATOM     83  C   UNL A   1      36.911  29.372  31.069  1.00  0.00     0.022 A 
BRANCH  81  84
ATOM     84  S   UNL A   1      35.974  30.959  29.049  1.00  0.00     0.127 S 
ATOM     85  O   UNL A   1      35.243  31.443  30.218  1.00  0.00    -0.237 OA
ATOM     86  O   UNL A   1      36.808  31.961  28.384  1.00  0.00    -0.237 OA
ATOM     87  O   UNL A   1      35.219  30.105  28.143  1.00  0.00    -0.744 OA
ENDBRANCH  81  84
ENDBRANCH  53  77
BRANCH  65  88
ATOM     88  C   UNL A   1      45.047  33.005  29.042  1.00  0.00     0.023 A 
ATOM     89  C   UNL A   1      45.822  33.291  30.183  1.00  0.00     0.012 A 
ATOM     90  C   UNL A   1      44.673  34.056  28.179  1.00  0.00     0.148 A 
ATOM     91  C   UNL A   1      46.201  34.601  30.473  1.00  0.00     0.002 A 
ATOM     92  C   UNL A   1      45.100  35.351  28.445  1.00  0.00     0.091 A 
ATOM     93  F   UNL A   1      43.926  33.765  27.105  1.00  0.00    -0.205 F 
ATOM     94  C   UNL A   1      45.853  35.628  29.597  1.00  0.00     0.022 A 
BRANCH  92  95
ATOM     95  S   UNL A   1      44.799  36.721  27.321  1.00  0.00     0.127 S 
ATOM     96  O   UNL A   1      44.731  37.854  28.243  1.00  0.00    -0.237 OA
ATOM     97  O   UNL A   1      45.992  36.694  26.476  1.00  0.00    -0.237 OA
ATOM     98  O   UNL A   1      43.557  36.409  26.628  1.00  0.00    -0.744 OA
ENDBRANCH  92  95
ENDBRANCH  65  88
ENDBRANCH  39  40
ENDBRANCH  32  34
ENDBRANCH  31  32
ENDBRANCH  30  31
ENDBRANCH  29  30
ENDBRANCH  28  29
ENDBRANCH  27  28
ENDBRANCH   1  27
TORSDOF 24
ENDMDL
MODEL 2
REMARK VINA RESULT:     -10.0      5.285     10.329
REMARK SMILES Cc1cc(Cl)cc2c1O[C@H](C(F)(F)F)C(C(=O)OCCOCCOCCOCCOC(=O)c1ccc(-c3c4nc(c(-c5cccc(S(=O)(=O)[O-])c5F)c5ccc([nH]5)c(-c5cccc(S(=O)(=O)[O-])c5F)c5nc(c(-c6cccc(S(=O)(=O)[O-])c6F)c6ccc3[nH]6)C=C5)C=C4)cc1)=C2
REMARK SMILES IDX 25 1 24 2 23 3 22 4 21 5 20 6 19 7 18 8 16 9 17 10 15 11
REMARK SMILES IDX 1 12 2 13 3 14 8 15 4 16 7 17 9 18 5 19 6 20 96 21 10 22
REMARK SMILES IDX 11 23 12 24 13 25 14 26 26 27 27 28 28 29 29 30 30 31 31 32
REMARK SMILES IDX 32 33 33 34 34 35 95 36 35 37 94 38 36 39 37 40 38 41 88 42
REMARK SMILES IDX 39 43 93 44 87 45 89 46 40 47 92 48 86 49 85 50 41 52 73 53
REMARK SMILES IDX 53 54 72 55 54 56 57 57 71 58 90 59 55 60 56 61 70 63 91 64
REMARK SMILES IDX 58 65 42 66 43 67 51 68 44 69 46 70 52 71 45 72 47 73 48 74
REMARK SMILES IDX 49 75 50 76 74 77 75 78 83 79 76 80 78 81 84 82 77 83 79 84
REMARK SMILES IDX 80 85 81 86 82 87 59 88 60 89 68 90 61 91 63 92 69 93 62 94
REMARK SMILES IDX 64 95 65 96 66 97 67 98
REMARK H PARENT 89 51 57 62
REMARK Flexibility Score: inf
ROOT
ATOM      1  C   UNL A   1      32.146  30.752  26.821  1.00  0.00     0.188 C 
ENDROOT
BRANCH   1   2
ATOM      2  O   UNL A   1      32.593  29.867  25.794  1.00  0.00    -0.377 OA
BRANCH   2   3
ATOM      3  C   UNL A   1      33.416  28.775  26.166  1.00  0.00     0.188 C 
BRANCH   3   4
ATOM      4  C   UNL A   1      32.882  27.421  25.666  1.00  0.00     0.188 C 
BRANCH   4   5
ATOM      5  O   UNL A   1      31.482  27.400  25.450  1.00  0.00    -0.376 OA
BRANCH   5   6
ATOM      6  C   UNL A   1      30.644  26.449  26.089  1.00  0.00     0.202 C 
BRANCH   6   7
ATOM      7  C   UNL A   1      30.488  24.974  25.667  1.00  0.00     0.261 C 
BRANCH   7   8
ATOM      8  O   UNL A   1      31.674  24.190  25.548  1.00  0.00    -0.460 OA
BRANCH   8   9
ATOM      9  C   UNL A   1      31.976  23.348  26.550  1.00  0.00     0.338 C 
ATOM     10  O   UNL A   1      31.232  22.962  27.434  1.00  0.00    -0.246 OA
BRANCH   9  11
ATOM     11  C   UNL A   1      33.328  22.808  26.282  1.00  0.00     0.087 C 
ATOM     12  C   UNL A   1      37.401  20.001  24.851  1.00  0.00     0.048 C 
ATOM     13  C   UNL A   1      37.157  21.383  25.392  1.00  0.00    -0.007 A 
ATOM     14  C   UNL A   1      38.244  22.267  25.487  1.00  0.00     0.027 A 
ATOM     15  C   UNL A   1      35.879  21.831  25.766  1.00  0.00     0.131 A 
ATOM     16  C   UNL A   1      38.060  23.563  25.961  1.00  0.00     0.042 A 
ATOM     17  C   UNL A   1      35.694  23.151  26.194  1.00  0.00     0.019 A 
ATOM     18  O   UNL A   1      34.857  20.930  25.683  1.00  0.00    -0.475 OA
ATOM     19  Cl  UNL A   1      39.402  24.634  26.071  1.00  0.00    -0.084 Cl
ATOM     20  C   UNL A   1      36.791  24.008  26.319  1.00  0.00     0.032 A 
ATOM     21  C   UNL A   1      34.354  23.651  26.449  1.00  0.00     0.027 C 
ATOM     22  C   UNL A   1      33.487  21.352  25.924  1.00  0.00     0.316 C 
BRANCH  22  23
ATOM     23  C   UNL A   1      32.651  20.971  24.695  1.00  0.00     0.430 C 
ATOM     24  F   UNL A   1      33.093  19.823  24.134  1.00  0.00    -0.167 F 
ATOM     25  F   UNL A   1      31.348  20.793  25.005  1.00  0.00    -0.167 F 
ATOM     26  F   UNL A   1      32.709  21.936  23.745  1.00  0.00    -0.167 F 
ENDBRANCH  22  23
ENDBRANCH   9  11
ENDBRANCH   8   9
ENDBRANCH   7   8
ENDBRANCH   6   7
ENDBRANCH   5   6
ENDBRANCH   4   5
ENDBRANCH   3   4
ENDBRANCH   2   3
ENDBRANCH   1   2
BRANCH   1  27
ATOM     27  C   UNL A   1      31.324  32.023  26.498  1.00  0.00     0.188 C 
BRANCH  27  28
ATOM     28  O   UNL A   1      31.674  33.166  27.272  1.00  0.00    -0.376 OA
BRANCH  28  29
ATOM     29  C   UNL A   1      33.051  33.482  27.399  1.00  0.00     0.202 C 
BRANCH  29  30
ATOM     30  C   UNL A   1      33.604  33.488  28.830  1.00  0.00     0.261 C 
BRANCH  30  31
ATOM     31  O   UNL A   1      34.740  32.642  29.061  1.00  0.00    -0.460 OA
BRANCH  31  32
ATOM     32  C   UNL A   1      35.043  32.347  30.343  1.00  0.00     0.338 C 
ATOM     33  O   UNL A   1      34.357  32.560  31.329  1.00  0.00    -0.246 OA
BRANCH  32  34
ATOM     34  C   UNL A   1      36.273  31.528  30.333  1.00  0.00     0.060 A 
ATOM     35  C   UNL A   1      36.281  30.310  31.023  1.00  0.00     0.016 A 
ATOM     36  C   UNL A   1      37.402  31.956  29.630  1.00  0.00     0.016 A 
ATOM     37  C   UNL A   1      37.438  29.531  31.044  1.00  0.00     0.010 A 
ATOM     38  C   UNL A   1      38.567  31.187  29.673  1.00  0.00     0.010 A 
ATOM     39  C   UNL A   1      38.600  29.991  30.411  1.00  0.00    -0.014 A 
BRANCH  39  40
ATOM     40  C   UNL A   1      39.899  29.345  30.714  1.00  0.00     0.031 A 
ATOM     41  C   UNL A   1      40.680  29.855  31.894  1.00  0.00     0.074 A 
ATOM     42  C   UNL A   1      40.368  28.322  29.979  1.00  0.00     0.049 A 
ATOM     43  N   UNL A   1      41.843  29.470  32.348  1.00  0.00    -0.248 NA
ATOM     44  C   UNL A   1      40.064  30.948  32.668  1.00  0.00     0.031 C 
ATOM     45  C   UNL A   1      39.692  27.723  28.831  1.00  0.00     0.029 A 
ATOM     46  N   UNL A   1      41.540  27.614  30.087  1.00  0.00    -0.354 N 
ATOM     47  C   UNL A   1      42.105  30.278  33.446  1.00  0.00     0.074 A 
ATOM     48  C   UNL A   1      40.992  31.191  33.582  1.00  0.00     0.031 C 
ATOM     49  C   UNL A   1      40.469  26.749  28.327  1.00  0.00     0.029 A 
ATOM     50  C   UNL A   1      41.709  26.672  29.101  1.00  0.00     0.049 A 
ATOM     51  H   UNL A   1      42.198  27.769  30.804  1.00  0.00     0.167 HD
ATOM     52  C   UNL A   1      43.167  30.251  34.282  1.00  0.00     0.034 A 
ATOM     53  C   UNL A   1      42.753  25.856  28.844  1.00  0.00     0.034 A 
ATOM     54  C   UNL A   1      44.266  29.335  34.155  1.00  0.00     0.049 A 
ATOM     55  C   UNL A   1      43.954  25.885  29.758  1.00  0.00     0.074 A 
ATOM     56  C   UNL A   1      45.379  29.215  34.968  1.00  0.00     0.029 A 
ATOM     57  N   UNL A   1      44.400  28.393  33.147  1.00  0.00    -0.354 N 
ATOM     58  N   UNL A   1      44.145  26.585  30.850  1.00  0.00    -0.248 NA
ATOM     59  C   UNL A   1      45.073  24.993  29.419  1.00  0.00     0.031 C 
ATOM     60  C   UNL A   1      46.202  28.221  34.432  1.00  0.00     0.029 A 
ATOM     61  C   UNL A   1      45.584  27.696  33.308  1.00  0.00     0.049 A 
ATOM     62  H   UNL A   1      43.749  28.242  32.425  1.00  0.00     0.167 HD
ATOM     63  C   UNL A   1      45.387  26.197  31.344  1.00  0.00     0.074 A 
ATOM     64  C   UNL A   1      45.893  25.182  30.445  1.00  0.00     0.031 C 
ATOM     65  C   UNL A   1      46.056  26.653  32.433  1.00  0.00     0.034 A 
BRANCH  52  66
ATOM     66  C   UNL A   1      43.181  31.220  35.435  1.00  0.00     0.023 A 
ATOM     67  C   UNL A   1      42.655  30.822  36.682  1.00  0.00     0.012 A 
ATOM     68  C   UNL A   1      43.787  32.484  35.310  1.00  0.00     0.148 A 
ATOM     69  C   UNL A   1      42.714  31.678  37.781  1.00  0.00     0.002 A 
ATOM     70  C   UNL A   1      43.885  33.311  36.421  1.00  0.00     0.091 A 
ATOM     71  F   UNL A   1      44.257  32.850  34.108  1.00  0.00    -0.205 F 
ATOM     72  C   UNL A   1      43.341  32.914  37.654  1.00  0.00     0.022 A 
BRANCH  70  73
ATOM     73  S   UNL A   1      44.747  34.887  36.386  1.00  0.00     0.127 S 
ATOM     74  O   UNL A   1      43.771  35.742  35.713  1.00  0.00    -0.237 OA
ATOM     75  O   UNL A   1      44.924  35.168  37.811  1.00  0.00    -0.237 OA
ATOM     76  O   UNL A   1      45.982  34.655  35.650  1.00  0.00    -0.744 OA
ENDBRANCH  70  73
ENDBRANCH  52  66
BRANCH  53  77
ATOM     77  C   UNL A   1      42.692  24.907  27.693  1.00  0.00     0.023 A 
ATOM     78  C   UNL A   1      43.125  25.331  26.422  1.00  0.00     0.012 A 
ATOM     79  C   UNL A   1      42.233  23.585  27.855  1.00  0.00     0.148 A 
ATOM     80  C   UNL A   1      43.082  24.465  25.329  1.00  0.00     0.002 A 
ATOM     81  C   UNL A   1      42.248  22.709  26.775  1.00  0.00     0.091 A 
ATOM     82  F   UNL A   1      41.806  23.206  29.067  1.00  0.00    -0.205 F 
ATOM     83  C   UNL A   1      42.656  23.152  25.507  1.00  0.00     0.022 A 
BRANCH  81  84
ATOM     84  S   UNL A   1      41.845  20.966  26.936  1.00  0.00     0.127 S 
ATOM     85  O   UNL A   1      42.059  20.482  25.574  1.00  0.00    -0.237 OA
ATOM     86  O   UNL A   1      42.838  20.520  27.913  1.00  0.00    -0.237 OA
ATOM     87  O   UNL A   1      40.469  20.921  27.410  1.00  0.00    -0.744 OA
ENDBRANCH  81  84
ENDBRANCH  53  77
BRANCH  65  88
ATOM     88  C   UNL A   1      47.407  26.057  32.744  1.00  0.00     0.023 A 
ATOM     89  C   UNL A   1      48.573  26.696  32.279  1.00  0.00     0.012 A 
ATOM     90  C   UNL A   1      47.524  24.941  33.599  1.00  0.00     0.148 A 
ATOM     91  C   UNL A   1      49.834  26.222  32.641  1.00  0.00     0.002 A 
ATOM     92  C   UNL A   1      48.783  24.509  33.999  1.00  0.00     0.091 A 
ATOM     93  F   UNL A   1      46.403  24.340  34.022  1.00  0.00    -0.205 F 
ATOM     94  C   UNL A   1      49.939  25.140  33.512  1.00  0.00     0.022 A 
BRANCH  92  95
ATOM     95  S   UNL A   1      49.019  23.195  35.203  1.00  0.00     0.127 S 
ATOM     96  O   UNL A   1      48.292  23.718  36.360  1.00  0.00    -0.237 OA
ATOM     97  O   UNL A   1      48.378  22.056  34.546  1.00  0.00    -0.237 OA
ATOM     98  O   UNL A   1      50.458  23.064  35.381  1.00  0.00    -0.744 OA
ENDBRANCH  92  95
ENDBRANCH  65  88
ENDBRANCH  39  40
ENDBRANCH  32  34
ENDBRANCH  31  32
ENDBRANCH  30  31
ENDBRANCH  29  30
ENDBRANCH  28  29
ENDBRANCH  27  28
ENDBRANCH   1  27
TORSDOF 24
ENDMDL
MODEL 3
REMARK VINA RESULT:      -9.9      2.870      8.713
REMARK SMILES Cc1cc(Cl)cc2c1O[C@H](C(F)(F)F)C(C(=O)OCCOCCOCCOCCOC(=O)c1ccc(-c3c4nc(c(-c5cccc(S(=O)(=O)[O-])c5F)c5ccc([nH]5)c(-c5cccc(S(=O)(=O)[O-])c5F)c5nc(c(-c6cccc(S(=O)(=O)[O-])c6F)c6ccc3[nH]6)C=C5)C=C4)cc1)=C2
REMARK SMILES IDX 25 1 24 2 23 3 22 4 21 5 20 6 19 7 18 8 16 9 17 10 15 11
REMARK SMILES IDX 1 12 2 13 3 14 8 15 4 16 7 17 9 18 5 19 6 20 96 21 10 22
REMARK SMILES IDX 11 23 12 24 13 25 14 26 26 27 27 28 28 29 29 30 30 31 31 32
REMARK SMILES IDX 32 33 33 34 34 35 95 36 35 37 94 38 36 39 37 40 38 41 88 42
REMARK SMILES IDX 39 43 93 44 87 45 89 46 40 47 92 48 86 49 85 50 41 52 73 53
REMARK SMILES IDX 53 54 72 55 54 56 57 57 71 58 90 59 55 60 56 61 70 63 91 64
REMARK SMILES IDX 58 65 42 66 43 67 51 68 44 69 46 70 52 71 45 72 47 73 48 74
REMARK SMILES IDX 49 75 50 76 74 77 75 78 83 79 76 80 78 81 84 82 77 83 79 84
REMARK SMILES IDX 80 85 81 86 82 87 59 88 60 89 68 90 61 91 63 92 69 93 62 94
REMARK SMILES IDX 64 95 65 96 66 97 67 98
REMARK H PARENT 89 51 57 62
REMARK Flexibility Score: inf
ROOT
ATOM      1  C   UNL A   1      34.779  34.549  28.461  1.00  0.00     0.188 C 
ENDROOT
BRANCH   1   2
ATOM      2  O   UNL A   1      34.471  33.480  27.565  1.00  0.00    -0.377 OA
BRANCH   2   3
ATOM      3  C   UNL A   1      35.271  32.311  27.622  1.00  0.00     0.188 C 
BRANCH   3   4
ATOM      4  C   UNL A   1      34.559  31.128  28.302  1.00  0.00     0.188 C 
BRANCH   4   5
ATOM      5  O   UNL A   1      34.755  29.887  27.649  1.00  0.00    -0.376 OA
BRANCH   5   6
ATOM      6  C   UNL A   1      33.925  29.470  26.576  1.00  0.00     0.202 C 
BRANCH   6   7
ATOM      7  C   UNL A   1      34.061  28.137  25.812  1.00  0.00     0.261 C 
BRANCH   7   8
ATOM      8  O   UNL A   1      33.758  28.141  24.417  1.00  0.00    -0.460 OA
BRANCH   8   9
ATOM      9  C   UNL A   1      33.135  27.066  23.905  1.00  0.00     0.338 C 
ATOM     10  O   UNL A   1      33.582  25.938  23.802  1.00  0.00    -0.246 OA
BRANCH   9  11
ATOM     11  C   UNL A   1      31.725  27.448  23.662  1.00  0.00     0.087 C 
ATOM     12  C   UNL A   1      26.601  27.952  23.704  1.00  0.00     0.048 C 
ATOM     13  C   UNL A   1      27.767  28.658  23.069  1.00  0.00    -0.007 A 
ATOM     14  C   UNL A   1      27.524  29.840  22.350  1.00  0.00     0.027 A 
ATOM     15  C   UNL A   1      29.089  28.202  23.205  1.00  0.00     0.131 A 
ATOM     16  C   UNL A   1      28.577  30.538  21.765  1.00  0.00     0.042 A 
ATOM     17  C   UNL A   1      30.146  28.937  22.656  1.00  0.00     0.019 A 
ATOM     18  O   UNL A   1      29.276  27.035  23.889  1.00  0.00    -0.475 OA
ATOM     19  Cl  UNL A   1      28.262  31.985  20.887  1.00  0.00    -0.084 Cl
ATOM     20  C   UNL A   1      29.886  30.091  21.911  1.00  0.00     0.032 A 
ATOM     21  C   UNL A   1      31.519  28.538  22.913  1.00  0.00     0.027 C 
ATOM     22  C   UNL A   1      30.619  26.568  24.186  1.00  0.00     0.316 C 
BRANCH  22  23
ATOM     23  C   UNL A   1      30.724  26.359  25.702  1.00  0.00     0.430 C 
ATOM     24  F   UNL A   1      31.688  25.464  26.012  1.00  0.00    -0.167 F 
ATOM     25  F   UNL A   1      31.015  27.507  26.353  1.00  0.00    -0.167 F 
ATOM     26  F   UNL A   1      29.558  25.892  26.213  1.00  0.00    -0.167 F 
ENDBRANCH  22  23
ENDBRANCH   9  11
ENDBRANCH   8   9
ENDBRANCH   7   8
ENDBRANCH   6   7
ENDBRANCH   5   6
ENDBRANCH   4   5
ENDBRANCH   3   4
ENDBRANCH   2   3
ENDBRANCH   1   2
BRANCH   1  27
ATOM     27  C   UNL A   1      33.694  35.541  28.944  1.00  0.00     0.188 C 
BRANCH  27  28
ATOM     28  O   UNL A   1      33.035  35.156  30.146  1.00  0.00    -0.376 OA
BRANCH  28  29
ATOM     29  C   UNL A   1      33.499  35.716  31.364  1.00  0.00     0.202 C 
BRANCH  29  30
ATOM     30  C   UNL A   1      34.283  34.764  32.277  1.00  0.00     0.261 C 
BRANCH  30  31
ATOM     31  O   UNL A   1      35.379  34.073  31.660  1.00  0.00    -0.460 OA
BRANCH  31  32
ATOM     32  C   UNL A   1      35.582  32.787  32.018  1.00  0.00     0.338 C 
ATOM     33  O   UNL A   1      34.771  32.027  32.519  1.00  0.00    -0.246 OA
BRANCH  32  34
ATOM     34  C   UNL A   1      36.908  32.386  31.506  1.00  0.00     0.060 A 
ATOM     35  C   UNL A   1      37.312  32.838  30.244  1.00  0.00     0.016 A 
ATOM     36  C   UNL A   1      37.752  31.584  32.278  1.00  0.00     0.016 A 
ATOM     37  C   UNL A   1      38.552  32.454  29.732  1.00  0.00     0.010 A 
ATOM     38  C   UNL A   1      38.982  31.181  31.755  1.00  0.00     0.010 A 
ATOM     39  C   UNL A   1      39.369  31.584  30.465  1.00  0.00    -0.014 A 
BRANCH  39  40
ATOM     40  C   UNL A   1      40.508  30.915  29.792  1.00  0.00     0.031 A 
ATOM     41  C   UNL A   1      41.789  31.690  29.640  1.00  0.00     0.074 A 
ATOM     42  C   UNL A   1      40.422  29.650  29.345  1.00  0.00     0.049 A 
ATOM     43  N   UNL A   1      42.912  31.333  29.075  1.00  0.00    -0.248 NA
ATOM     44  C   UNL A   1      41.805  33.052  30.203  1.00  0.00     0.031 C 
ATOM     45  C   UNL A   1      39.246  28.791  29.458  1.00  0.00     0.029 A 
ATOM     46  N   UNL A   1      41.345  28.874  28.689  1.00  0.00    -0.354 N 
ATOM     47  C   UNL A   1      43.760  32.425  29.201  1.00  0.00     0.074 A 
ATOM     48  C   UNL A   1      43.019  33.467  29.876  1.00  0.00     0.031 C 
ATOM     49  C   UNL A   1      39.512  27.610  28.874  1.00  0.00     0.029 A 
ATOM     50  C   UNL A   1      40.868  27.639  28.322  1.00  0.00     0.049 A 
ATOM     51  H   UNL A   1      42.263  29.176  28.499  1.00  0.00     0.167 HD
ATOM     52  C   UNL A   1      45.048  32.545  28.808  1.00  0.00     0.034 A 
ATOM     53  C   UNL A   1      41.454  26.654  27.609  1.00  0.00     0.034 A 
ATOM     54  C   UNL A   1      45.787  31.504  28.149  1.00  0.00     0.049 A 
ATOM     55  C   UNL A   1      42.873  26.835  27.130  1.00  0.00     0.074 A 
ATOM     56  C   UNL A   1      47.106  31.523  27.733  1.00  0.00     0.029 A 
ATOM     57  N   UNL A   1      45.272  30.266  27.799  1.00  0.00    -0.354 N 
ATOM     58  N   UNL A   1      43.697  27.834  27.341  1.00  0.00    -0.248 NA
ATOM     59  C   UNL A   1      43.455  25.742  26.336  1.00  0.00     0.031 C 
ATOM     60  C   UNL A   1      47.379  30.307  27.102  1.00  0.00     0.029 A 
ATOM     61  C   UNL A   1      46.242  29.516  27.158  1.00  0.00     0.049 A 
ATOM     62  H   UNL A   1      44.353  29.965  27.980  1.00  0.00     0.167 HD
ATOM     63  C   UNL A   1      44.898  27.478  26.736  1.00  0.00     0.074 A 
ATOM     64  C   UNL A   1      44.703  26.160  26.170  1.00  0.00     0.031 C 
ATOM     65  C   UNL A   1      46.052  28.185  26.642  1.00  0.00     0.034 A 
BRANCH  52  66
ATOM     66  C   UNL A   1      45.759  33.837  29.110  1.00  0.00     0.023 A 
ATOM     67  C   UNL A   1      46.469  33.973  30.320  1.00  0.00     0.012 A 
ATOM     68  C   UNL A   1      45.795  34.880  28.165  1.00  0.00     0.148 A 
ATOM     69  C   UNL A   1      47.188  35.136  30.594  1.00  0.00     0.002 A 
ATOM     70  C   UNL A   1      46.551  36.016  28.424  1.00  0.00     0.091 A 
ATOM     71  F   UNL A   1      45.091  34.740  27.032  1.00  0.00    -0.205 F 
ATOM     72  C   UNL A   1      47.240  36.149  29.642  1.00  0.00     0.022 A 
BRANCH  70  73
ATOM     73  S   UNL A   1      46.755  37.341  27.229  1.00  0.00     0.127 S 
ATOM     74  O   UNL A   1      45.389  37.851  27.120  1.00  0.00    -0.237 OA
ATOM     75  O   UNL A   1      47.686  38.234  27.920  1.00  0.00    -0.237 OA
ATOM     76  O   UNL A   1      47.284  36.720  26.023  1.00  0.00    -0.744 OA
ENDBRANCH  70  73
ENDBRANCH  52  66
BRANCH  53  77
ATOM     77  C   UNL A   1      40.712  25.387  27.339  1.00  0.00     0.023 A 
ATOM     78  C   UNL A   1      39.405  25.446  26.820  1.00  0.00     0.012 A 
ATOM     79  C   UNL A   1      41.302  24.128  27.569  1.00  0.00     0.148 A 
ATOM     80  C   UNL A   1      38.689  24.277  26.555  1.00  0.00     0.002 A 
ATOM     81  C   UNL A   1      40.606  22.967  27.248  1.00  0.00     0.091 A 
ATOM     82  F   UNL A   1      42.539  24.092  28.083  1.00  0.00    -0.205 F 
ATOM     83  C   UNL A   1      39.293  23.039  26.757  1.00  0.00     0.022 A 
BRANCH  81  84
ATOM     84  S   UNL A   1      41.348  21.335  27.348  1.00  0.00     0.127 S 
ATOM     85  O   UNL A   1      41.413  20.948  25.940  1.00  0.00    -0.237 OA
ATOM     86  O   UNL A   1      42.640  21.632  27.967  1.00  0.00    -0.237 OA
ATOM     87  O   UNL A   1      40.450  20.543  28.177  1.00  0.00    -0.744 OA
ENDBRANCH  81  84
ENDBRANCH  53  77
BRANCH  65  88
ATOM     88  C   UNL A   1      47.218  27.558  25.916  1.00  0.00     0.023 A 
ATOM     89  C   UNL A   1      47.377  27.779  24.535  1.00  0.00     0.012 A 
ATOM     90  C   UNL A   1      48.218  26.862  26.625  1.00  0.00     0.148 A 
ATOM     91  C   UNL A   1      48.502  27.297  23.864  1.00  0.00     0.002 A 
ATOM     92  C   UNL A   1      49.361  26.432  25.962  1.00  0.00     0.091 A 
ATOM     93  F   UNL A   1      48.043  26.653  27.938  1.00  0.00    -0.205 F 
ATOM     94  C   UNL A   1      49.500  26.638  24.579  1.00  0.00     0.022 A 
BRANCH  92  95
ATOM     95  S   UNL A   1      50.750  25.674  26.815  1.00  0.00     0.127 S 
ATOM     96  O   UNL A   1      50.141  24.459  27.352  1.00  0.00    -0.237 OA
ATOM     97  O   UNL A   1      51.697  25.450  25.723  1.00  0.00    -0.237 OA
ATOM     98  O   UNL A   1      51.189  26.642  27.810  1.00  0.00    -0.744 OA
ENDBRANCH  92  95
ENDBRANCH  65  88
ENDBRANCH  39  40
ENDBRANCH  32  34
ENDBRANCH  31  32
ENDBRANCH  30  31
ENDBRANCH  29  30
ENDBRANCH  28  29
ENDBRANCH  27  28
ENDBRANCH   1  27
TORSDOF 24
ENDMDL
