MODEL 1
REMARK VINA RESULT:      -9.0      0.000      0.000
REMARK SMILES CC(C)CN(C)c1cc2c(cc1Cl)C=C(C(=O)OCCOCCOCCOCCOC(=O)c1ccc(-c3c4nc(c(-c5cccc(S(=O)(=O)[O-])c5F)c5ccc([nH]5)c(-c5cccc(S(=O)(=O)[O-])c5F)c5nc(c(-c6cccc(S(=O)(=O)[O-])c6F)c6ccc3[nH]6)C=C5)C=C4)cc1)[C@@H](C(F)(F)F)O2
REMARK SMILES IDX 24 1 23 2 22 3 21 4 20 5 19 6 18 7 16 8 17 9 15 10 7 11 8 12
REMARK SMILES IDX 12 13 9 14 11 15 13 16 10 17 101 18 14 19 96 20 5 21 6 22
REMARK SMILES IDX 4 23 2 24 1 25 3 26 97 27 98 28 99 29 100 30 25 31 26 32
REMARK SMILES IDX 27 33 28 34 29 35 30 36 31 37 32 38 33 39 34 40 95 41 35 42
REMARK SMILES IDX 94 43 36 44 37 45 38 46 88 47 39 48 93 49 87 50 89 51 40 52
REMARK SMILES IDX 92 53 86 54 85 55 41 57 73 58 53 59 72 60 54 61 57 62 71 63
REMARK SMILES IDX 90 64 55 65 56 66 70 68 91 69 58 70 42 71 43 72 51 73 44 74
REMARK SMILES IDX 46 75 52 76 45 77 47 78 48 79 49 80 50 81 74 82 75 83 83 84
REMARK SMILES IDX 76 85 78 86 84 87 77 88 79 89 80 90 81 91 82 92 59 93 60 94
REMARK SMILES IDX 68 95 61 96 63 97 69 98 62 99 64 100 65 101 66 102 67 103
REMARK H PARENT 89 56 57 67
REMARK Flexibility Score: inf
ROOT
ATOM      1  O   UNL A   1      43.867  21.539  26.420  1.00  0.00    -0.377 OA
ENDROOT
BRANCH   1   2
ATOM      2  C   UNL A   1      42.664  20.902  26.028  1.00  0.00     0.188 C 
BRANCH   2   3
ATOM      3  C   UNL A   1      41.435  21.826  26.084  1.00  0.00     0.188 C 
BRANCH   3   4
ATOM      4  O   UNL A   1      40.214  21.119  26.265  1.00  0.00    -0.376 OA
BRANCH   4   5
ATOM      5  C   UNL A   1      38.994  21.848  26.199  1.00  0.00     0.202 C 
BRANCH   5   6
ATOM      6  C   UNL A   1      37.888  21.382  25.234  1.00  0.00     0.261 C 
BRANCH   6   7
ATOM      7  O   UNL A   1      36.901  22.367  24.893  1.00  0.00    -0.460 OA
BRANCH   7   8
ATOM      8  C   UNL A   1      35.692  22.228  25.460  1.00  0.00     0.338 C 
ATOM      9  O   UNL A   1      35.432  21.596  26.471  1.00  0.00    -0.246 OA
BRANCH   8  10
ATOM     10  C   UNL A   1      34.736  23.123  24.775  1.00  0.00     0.087 C 
ATOM     11  C   UNL A   1      31.263  26.660  23.968  1.00  0.00     0.059 A 
ATOM     12  C   UNL A   1      31.798  25.617  23.175  1.00  0.00     0.074 A 
ATOM     13  C   UNL A   1      31.883  26.894  25.216  1.00  0.00     0.065 A 
ATOM     14  C   UNL A   1      32.868  24.831  23.627  1.00  0.00     0.130 A 
ATOM     15  C   UNL A   1      33.029  26.202  25.600  1.00  0.00     0.034 A 
ATOM     16  Cl  UNL A   1      31.202  27.912  26.440  1.00  0.00    -0.082 Cl
ATOM     17  C   UNL A   1      33.497  25.147  24.827  1.00  0.00     0.019 A 
ATOM     18  O   UNL A   1      33.245  23.756  22.865  1.00  0.00    -0.475 OA
ATOM     19  C   UNL A   1      34.555  24.314  25.354  1.00  0.00     0.027 C 
ATOM     20  C   UNL A   1      34.017  22.692  23.523  1.00  0.00     0.316 C 
BRANCH  11  21
ATOM     21  N   UNL A   1      30.119  27.364  23.560  1.00  0.00    -0.373 N 
ATOM     22  C   UNL A   1      28.843  26.764  23.943  1.00  0.00     0.143 C 
BRANCH  21  23
ATOM     23  C   UNL A   1      30.144  28.112  22.284  1.00  0.00     0.119 C 
BRANCH  23  24
ATOM     24  C   UNL A   1      29.713  29.586  22.432  1.00  0.00     0.002 C 
ATOM     25  C   UNL A   1      28.233  29.780  22.091  1.00  0.00     0.009 C 
ATOM     26  C   UNL A   1      29.978  30.135  23.836  1.00  0.00     0.009 C 
ENDBRANCH  23  24
ENDBRANCH  21  23
ENDBRANCH  11  21
BRANCH  20  27
ATOM     27  C   UNL A   1      33.118  21.478  23.790  1.00  0.00     0.430 C 
ATOM     28  F   UNL A   1      32.327  21.200  22.727  1.00  0.00    -0.167 F 
ATOM     29  F   UNL A   1      33.846  20.366  24.045  1.00  0.00    -0.167 F 
ATOM     30  F   UNL A   1      32.306  21.680  24.855  1.00  0.00    -0.167 F 
ENDBRANCH  20  27
ENDBRANCH   8  10
ENDBRANCH   7   8
ENDBRANCH   6   7
ENDBRANCH   5   6
ENDBRANCH   4   5
ENDBRANCH   3   4
ENDBRANCH   2   3
ENDBRANCH   1   2
BRANCH   1  31
ATOM     31  C   UNL A   1      44.898  21.695  25.443  1.00  0.00     0.188 C 
BRANCH  31  32
ATOM     32  C   UNL A   1      45.105  23.010  24.652  1.00  0.00     0.188 C 
BRANCH  32  33
ATOM     33  O   UNL A   1      43.898  23.688  24.311  1.00  0.00    -0.376 OA
BRANCH  33  34
ATOM     34  C   UNL A   1      43.689  24.961  24.905  1.00  0.00     0.202 C 
BRANCH  34  35
ATOM     35  C   UNL A   1      42.843  24.928  26.182  1.00  0.00     0.261 C 
BRANCH  35  36
ATOM     36  O   UNL A   1      41.655  25.732  26.155  1.00  0.00    -0.460 OA
BRANCH  36  37
ATOM     37  C   UNL A   1      40.865  25.731  27.253  1.00  0.00     0.338 C 
ATOM     38  O   UNL A   1      40.234  24.790  27.702  1.00  0.00    -0.246 OA
BRANCH  37  39
ATOM     39  C   UNL A   1      41.071  27.028  27.932  1.00  0.00     0.060 A 
ATOM     40  C   UNL A   1      41.658  27.069  29.199  1.00  0.00     0.016 A 
ATOM     41  C   UNL A   1      40.618  28.204  27.321  1.00  0.00     0.016 A 
ATOM     42  C   UNL A   1      41.818  28.294  29.845  1.00  0.00     0.010 A 
ATOM     43  C   UNL A   1      40.772  29.431  27.974  1.00  0.00     0.010 A 
ATOM     44  C   UNL A   1      41.395  29.485  29.230  1.00  0.00    -0.014 A 
BRANCH  44  45
ATOM     45  C   UNL A   1      41.805  30.784  29.812  1.00  0.00     0.031 A 
ATOM     46  C   UNL A   1      41.035  31.465  30.901  1.00  0.00     0.074 A 
ATOM     47  C   UNL A   1      42.915  31.360  29.310  1.00  0.00     0.049 A 
ATOM     48  N   UNL A   1      41.352  32.546  31.565  1.00  0.00    -0.248 NA
ATOM     49  C   UNL A   1      39.749  30.870  31.294  1.00  0.00     0.031 C 
ATOM     50  C   UNL A   1      43.707  30.819  28.203  1.00  0.00     0.029 A 
ATOM     51  N   UNL A   1      43.564  32.516  29.655  1.00  0.00    -0.354 N 
ATOM     52  C   UNL A   1      40.307  32.775  32.449  1.00  0.00     0.074 A 
ATOM     53  C   UNL A   1      39.336  31.721  32.229  1.00  0.00     0.031 C 
ATOM     54  C   UNL A   1      44.743  31.637  27.966  1.00  0.00     0.029 A 
ATOM     55  C   UNL A   1      44.683  32.762  28.895  1.00  0.00     0.049 A 
ATOM     56  H   UNL A   1      43.258  33.113  30.375  1.00  0.00     0.167 HD
ATOM     57  C   UNL A   1      40.184  33.763  33.366  1.00  0.00     0.034 A 
ATOM     58  C   UNL A   1      45.571  33.772  28.943  1.00  0.00     0.034 A 
ATOM     59  C   UNL A   1      41.162  34.797  33.589  1.00  0.00     0.049 A 
ATOM     60  C   UNL A   1      45.426  34.835  29.988  1.00  0.00     0.074 A 
ATOM     61  C   UNL A   1      41.160  35.781  34.564  1.00  0.00     0.029 A 
ATOM     62  N   UNL A   1      42.299  34.997  32.824  1.00  0.00    -0.354 N 
ATOM     63  N   UNL A   1      44.518  34.939  30.926  1.00  0.00    -0.248 NA
ATOM     64  C   UNL A   1      46.440  35.899  30.006  1.00  0.00     0.031 C 
ATOM     65  C   UNL A   1      42.283  36.590  34.373  1.00  0.00     0.029 A 
ATOM     66  C   UNL A   1      42.996  36.099  33.291  1.00  0.00     0.049 A 
ATOM     67  H   UNL A   1      42.573  34.438  32.061  1.00  0.00     0.167 HD
ATOM     68  C   UNL A   1      44.856  36.071  31.657  1.00  0.00     0.074 A 
ATOM     69  C   UNL A   1      46.062  36.609  31.063  1.00  0.00     0.031 C 
ATOM     70  C   UNL A   1      44.213  36.614  32.719  1.00  0.00     0.034 A 
BRANCH  57  71
ATOM     71  C   UNL A   1      38.972  33.763  34.259  1.00  0.00     0.023 A 
ATOM     72  C   UNL A   1      37.761  34.291  33.767  1.00  0.00     0.012 A 
ATOM     73  C   UNL A   1      38.994  33.122  35.512  1.00  0.00     0.148 A 
ATOM     74  C   UNL A   1      36.589  34.183  34.513  1.00  0.00     0.002 A 
ATOM     75  C   UNL A   1      37.815  32.994  36.238  1.00  0.00     0.091 A 
ATOM     76  F   UNL A   1      40.160  32.634  35.959  1.00  0.00    -0.205 F 
ATOM     77  C   UNL A   1      36.613  33.527  35.741  1.00  0.00     0.022 A 
BRANCH  75  78
ATOM     78  S   UNL A   1      37.723  32.118  37.803  1.00  0.00     0.127 S 
ATOM     79  O   UNL A   1      37.663  30.726  37.357  1.00  0.00    -0.237 OA
ATOM     80  O   UNL A   1      38.980  32.500  38.444  1.00  0.00    -0.237 OA
ATOM     81  O   UNL A   1      36.523  32.604  38.469  1.00  0.00    -0.744 OA
ENDBRANCH  75  78
ENDBRANCH  57  71
BRANCH  58  82
ATOM     82  C   UNL A   1      46.720  33.751  28.000  1.00  0.00     0.023 A 
ATOM     83  C   UNL A   1      46.567  34.314  26.719  1.00  0.00     0.012 A 
ATOM     84  C   UNL A   1      47.983  33.286  28.411  1.00  0.00     0.148 A 
ATOM     85  C   UNL A   1      47.660  34.414  25.859  1.00  0.00     0.002 A 
ATOM     86  C   UNL A   1      49.075  33.425  27.564  1.00  0.00     0.091 A 
ATOM     87  F   UNL A   1      48.096  32.764  29.640  1.00  0.00    -0.205 F 
ATOM     88  C   UNL A   1      48.913  33.981  26.284  1.00  0.00     0.022 A 
BRANCH  86  89
ATOM     89  S   UNL A   1      50.748  33.002  28.060  1.00  0.00     0.127 S 
ATOM     90  O   UNL A   1      51.507  33.329  26.855  1.00  0.00    -0.237 OA
ATOM     91  O   UNL A   1      50.961  33.908  29.188  1.00  0.00    -0.237 OA
ATOM     92  O   UNL A   1      50.714  31.589  28.409  1.00  0.00    -0.744 OA
ENDBRANCH  86  89
ENDBRANCH  58  82
BRANCH  70  93
ATOM     93  C   UNL A   1      44.783  37.866  33.325  1.00  0.00     0.023 A 
ATOM     94  C   UNL A   1      45.779  37.761  34.316  1.00  0.00     0.012 A 
ATOM     95  C   UNL A   1      44.427  39.135  32.829  1.00  0.00     0.148 A 
ATOM     96  C   UNL A   1      46.408  38.902  34.809  1.00  0.00     0.002 A 
ATOM     97  C   UNL A   1      45.082  40.266  33.301  1.00  0.00     0.091 A 
ATOM     98  F   UNL A   1      43.470  39.207  31.893  1.00  0.00    -0.205 F 
ATOM     99  C   UNL A   1      46.069  40.152  34.295  1.00  0.00     0.022 A 
BRANCH  97 100
ATOM    100  S   UNL A   1      44.769  41.912  32.652  1.00  0.00     0.127 S 
ATOM    101  O   UNL A   1      45.664  42.730  33.469  1.00  0.00    -0.237 OA
ATOM    102  O   UNL A   1      45.175  41.773  31.253  1.00  0.00    -0.237 OA
ATOM    103  O   UNL A   1      43.347  42.163  32.852  1.00  0.00    -0.744 OA
ENDBRANCH  97 100
ENDBRANCH  70  93
ENDBRANCH  44  45
ENDBRANCH  37  39
ENDBRANCH  36  37
ENDBRANCH  35  36
ENDBRANCH  34  35
ENDBRANCH  33  34
ENDBRANCH  32  33
ENDBRANCH  31  32
ENDBRANCH   1  31
TORSDOF 27
ENDMDL
MODEL 2
REMARK VINA RESULT:      -8.9      2.126      2.791
REMARK SMILES CC(C)CN(C)c1cc2c(cc1Cl)C=C(C(=O)OCCOCCOCCOCCOC(=O)c1ccc(-c3c4nc(c(-c5cccc(S(=O)(=O)[O-])c5F)c5ccc([nH]5)c(-c5cccc(S(=O)(=O)[O-])c5F)c5nc(c(-c6cccc(S(=O)(=O)[O-])c6F)c6ccc3[nH]6)C=C5)C=C4)cc1)[C@@H](C(F)(F)F)O2
REMARK SMILES IDX 24 1 23 2 22 3 21 4 20 5 19 6 18 7 16 8 17 9 15 10 7 11 8 12
REMARK SMILES IDX 12 13 9 14 11 15 13 16 10 17 101 18 14 19 96 20 5 21 6 22
REMARK SMILES IDX 4 23 2 24 1 25 3 26 97 27 98 28 99 29 100 30 25 31 26 32
REMARK SMILES IDX 27 33 28 34 29 35 30 36 31 37 32 38 33 39 34 40 95 41 35 42
REMARK SMILES IDX 94 43 36 44 37 45 38 46 88 47 39 48 93 49 87 50 89 51 40 52
REMARK SMILES IDX 92 53 86 54 85 55 41 57 73 58 53 59 72 60 54 61 57 62 71 63
REMARK SMILES IDX 90 64 55 65 56 66 70 68 91 69 58 70 42 71 43 72 51 73 44 74
REMARK SMILES IDX 46 75 52 76 45 77 47 78 48 79 49 80 50 81 74 82 75 83 83 84
REMARK SMILES IDX 76 85 78 86 84 87 77 88 79 89 80 90 81 91 82 92 59 93 60 94
REMARK SMILES IDX 68 95 61 96 63 97 69 98 62 99 64 100 65 101 66 102 67 103
REMARK H PARENT 89 56 57 67
REMARK Flexibility Score: inf
ROOT
ATOM      1  O   UNL A   1      41.998  22.030  26.816  1.00  0.00    -0.377 OA
ENDROOT
BRANCH   1   2
ATOM      2  C   UNL A   1      40.994  23.029  26.765  1.00  0.00     0.188 C 
BRANCH   2   3
ATOM      3  C   UNL A   1      39.569  22.460  26.649  1.00  0.00     0.188 C 
BRANCH   3   4
ATOM      4  O   UNL A   1      39.485  21.345  25.770  1.00  0.00    -0.376 OA
BRANCH   4   5
ATOM      5  C   UNL A   1      38.207  20.976  25.266  1.00  0.00     0.202 C 
BRANCH   5   6
ATOM      6  C   UNL A   1      36.959  21.743  25.741  1.00  0.00     0.261 C 
BRANCH   6   7
ATOM      7  O   UNL A   1      35.776  20.953  25.933  1.00  0.00    -0.460 OA
BRANCH   7   8
ATOM      8  C   UNL A   1      34.684  21.600  26.371  1.00  0.00     0.338 C 
ATOM      9  O   UNL A   1      34.130  21.442  27.447  1.00  0.00    -0.246 OA
BRANCH   8  10
ATOM     10  C   UNL A   1      34.357  22.684  25.422  1.00  0.00     0.087 C 
ATOM     11  C   UNL A   1      32.544  26.968  23.526  1.00  0.00     0.059 A 
ATOM     12  C   UNL A   1      33.076  25.791  22.948  1.00  0.00     0.074 A 
ATOM     13  C   UNL A   1      32.633  27.083  24.932  1.00  0.00     0.065 A 
ATOM     14  C   UNL A   1      33.626  24.772  23.739  1.00  0.00     0.130 A 
ATOM     15  C   UNL A   1      33.303  26.132  25.699  1.00  0.00     0.034 A 
ATOM     16  Cl  UNL A   1      31.790  28.291  25.842  1.00  0.00    -0.082 Cl
ATOM     17  C   UNL A   1      33.763  24.961  25.110  1.00  0.00     0.019 A 
ATOM     18  O   UNL A   1      33.998  23.606  23.122  1.00  0.00    -0.475 OA
ATOM     19  C   UNL A   1      34.262  23.904  25.961  1.00  0.00     0.027 C 
ATOM     20  C   UNL A   1      34.134  22.405  23.958  1.00  0.00     0.316 C 
BRANCH  11  21
ATOM     21  N   UNL A   1      31.890  27.928  22.740  1.00  0.00    -0.373 N 
ATOM     22  C   UNL A   1      32.243  29.318  23.023  1.00  0.00     0.143 C 
BRANCH  21  23
ATOM     23  C   UNL A   1      30.503  27.676  22.290  1.00  0.00     0.119 C 
BRANCH  23  24
ATOM     24  C   UNL A   1      29.453  27.890  23.399  1.00  0.00     0.002 C 
ATOM     25  C   UNL A   1      28.310  28.795  22.929  1.00  0.00     0.009 C 
ATOM     26  C   UNL A   1      28.867  26.573  23.915  1.00  0.00     0.009 C 
ENDBRANCH  23  24
ENDBRANCH  21  23
ENDBRANCH  11  21
BRANCH  20  27
ATOM     27  C   UNL A   1      32.929  21.479  23.748  1.00  0.00     0.430 C 
ATOM     28  F   UNL A   1      31.927  21.760  24.614  1.00  0.00    -0.167 F 
ATOM     29  F   UNL A   1      32.420  21.600  22.500  1.00  0.00    -0.167 F 
ATOM     30  F   UNL A   1      33.261  20.178  23.923  1.00  0.00    -0.167 F 
ENDBRANCH  20  27
ENDBRANCH   8  10
ENDBRANCH   7   8
ENDBRANCH   6   7
ENDBRANCH   5   6
ENDBRANCH   4   5
ENDBRANCH   3   4
ENDBRANCH   2   3
ENDBRANCH   1   2
BRANCH   1  31
ATOM     31  C   UNL A   1      42.911  21.934  25.721  1.00  0.00     0.188 C 
BRANCH  31  32
ATOM     32  C   UNL A   1      43.517  23.179  25.030  1.00  0.00     0.188 C 
BRANCH  32  33
ATOM     33  O   UNL A   1      44.871  23.451  25.386  1.00  0.00    -0.376 OA
BRANCH  33  34
ATOM     34  C   UNL A   1      45.087  24.131  26.613  1.00  0.00     0.202 C 
BRANCH  34  35
ATOM     35  C   UNL A   1      44.129  25.301  26.860  1.00  0.00     0.261 C 
BRANCH  35  36
ATOM     36  O   UNL A   1      44.755  26.560  27.144  1.00  0.00    -0.460 OA
BRANCH  36  37
ATOM     37  C   UNL A   1      44.537  27.583  26.285  1.00  0.00     0.338 C 
ATOM     38  O   UNL A   1      44.365  27.506  25.081  1.00  0.00    -0.246 OA
BRANCH  37  39
ATOM     39  C   UNL A   1      44.341  28.798  27.104  1.00  0.00     0.060 A 
ATOM     40  C   UNL A   1      45.108  28.997  28.254  1.00  0.00     0.016 A 
ATOM     41  C   UNL A   1      43.341  29.712  26.750  1.00  0.00     0.016 A 
ATOM     42  C   UNL A   1      44.894  30.130  29.038  1.00  0.00     0.010 A 
ATOM     43  C   UNL A   1      43.121  30.844  27.542  1.00  0.00     0.010 A 
ATOM     44  C   UNL A   1      43.913  31.071  28.678  1.00  0.00    -0.014 A 
BRANCH  44  45
ATOM     45  C   UNL A   1      43.879  32.380  29.370  1.00  0.00     0.031 A 
ATOM     46  C   UNL A   1      43.057  32.628  30.597  1.00  0.00     0.074 A 
ATOM     47  C   UNL A   1      44.619  33.375  28.842  1.00  0.00     0.049 A 
ATOM     48  N   UNL A   1      43.030  33.695  31.353  1.00  0.00    -0.248 NA
ATOM     49  C   UNL A   1      42.148  31.557  31.030  1.00  0.00     0.031 C 
ATOM     50  C   UNL A   1      45.408  33.265  27.612  1.00  0.00     0.029 A 
ATOM     51  N   UNL A   1      44.828  34.662  29.262  1.00  0.00    -0.354 N 
ATOM     52  C   UNL A   1      42.097  33.437  32.348  1.00  0.00     0.074 A 
ATOM     53  C   UNL A   1      41.570  32.111  32.093  1.00  0.00     0.031 C 
ATOM     54  C   UNL A   1      46.023  34.433  27.382  1.00  0.00     0.029 A 
ATOM     55  C   UNL A   1      45.667  35.375  28.440  1.00  0.00     0.049 A 
ATOM     56  H   UNL A   1      44.416  35.040  30.073  1.00  0.00     0.167 HD
ATOM     57  C   UNL A   1      41.732  34.229  33.383  1.00  0.00     0.034 A 
ATOM     58  C   UNL A   1      46.112  36.643  28.526  1.00  0.00     0.034 A 
ATOM     59  C   UNL A   1      42.273  35.541  33.638  1.00  0.00     0.049 A 
ATOM     60  C   UNL A   1      45.715  37.486  29.699  1.00  0.00     0.074 A 
ATOM     61  C   UNL A   1      42.028  36.372  34.719  1.00  0.00     0.029 A 
ATOM     62  N   UNL A   1      43.145  36.219  32.803  1.00  0.00    -0.354 N 
ATOM     63  N   UNL A   1      44.962  37.163  30.720  1.00  0.00    -0.248 NA
ATOM     64  C   UNL A   1      46.251  38.854  29.752  1.00  0.00     0.031 C 
ATOM     65  C   UNL A   1      42.733  37.562  34.525  1.00  0.00     0.029 A 
ATOM     66  C   UNL A   1      43.433  37.466  33.333  1.00  0.00     0.049 A 
ATOM     67  H   UNL A   1      43.508  35.868  31.958  1.00  0.00     0.167 HD
ATOM     68  C   UNL A   1      44.943  38.279  31.547  1.00  0.00     0.074 A 
ATOM     69  C   UNL A   1      45.774  39.282  30.915  1.00  0.00     0.031 C 
ATOM     70  C   UNL A   1      44.286  38.451  32.718  1.00  0.00     0.034 A 
BRANCH  57  71
ATOM     71  C   UNL A   1      40.733  33.697  34.374  1.00  0.00     0.023 A 
ATOM     72  C   UNL A   1      41.190  33.243  35.628  1.00  0.00     0.012 A 
ATOM     73  C   UNL A   1      39.349  33.779  34.126  1.00  0.00     0.148 A 
ATOM     74  C   UNL A   1      40.282  32.873  36.619  1.00  0.00     0.002 A 
ATOM     75  C   UNL A   1      38.451  33.434  35.129  1.00  0.00     0.091 A 
ATOM     76  F   UNL A   1      38.941  34.209  32.923  1.00  0.00    -0.205 F 
ATOM     77  C   UNL A   1      38.915  32.978  36.375  1.00  0.00     0.022 A 
BRANCH  75  78
ATOM     78  S   UNL A   1      36.671  33.586  34.939  1.00  0.00     0.127 S 
ATOM     79  O   UNL A   1      36.223  33.553  36.332  1.00  0.00    -0.237 OA
ATOM     80  O   UNL A   1      36.541  34.889  34.289  1.00  0.00    -0.237 OA
ATOM     81  O   UNL A   1      36.252  32.452  34.128  1.00  0.00    -0.744 OA
ENDBRANCH  75  78
ENDBRANCH  57  71
BRANCH  58  82
ATOM     82  C   UNL A   1      47.054  37.136  27.489  1.00  0.00     0.023 A 
ATOM     83  C   UNL A   1      46.542  37.778  26.346  1.00  0.00     0.012 A 
ATOM     84  C   UNL A   1      48.446  37.076  27.690  1.00  0.00     0.148 A 
ATOM     85  C   UNL A   1      47.405  38.354  25.415  1.00  0.00     0.002 A 
ATOM     86  C   UNL A   1      49.298  37.687  26.779  1.00  0.00     0.091 A 
ATOM     87  F   UNL A   1      48.900  36.466  28.793  1.00  0.00    -0.205 F 
ATOM     88  C   UNL A   1      48.780  38.319  25.637  1.00  0.00     0.022 A 
BRANCH  86  89
ATOM     89  S   UNL A   1      51.073  37.793  27.032  1.00  0.00     0.127 S 
ATOM     90  O   UNL A   1      51.583  37.442  25.707  1.00  0.00    -0.237 OA
ATOM     91  O   UNL A   1      51.236  39.198  27.403  1.00  0.00    -0.237 OA
ATOM     92  O   UNL A   1      51.382  36.842  28.089  1.00  0.00    -0.744 OA
ENDBRANCH  86  89
ENDBRANCH  58  82
BRANCH  70  93
ATOM     93  C   UNL A   1      44.419  39.777  33.415  1.00  0.00     0.023 A 
ATOM     94  C   UNL A   1      45.477  39.975  34.323  1.00  0.00     0.012 A 
ATOM     95  C   UNL A   1      43.579  40.856  33.080  1.00  0.00     0.148 A 
ATOM     96  C   UNL A   1      45.694  41.228  34.892  1.00  0.00     0.002 A 
ATOM     97  C   UNL A   1      43.822  42.111  33.625  1.00  0.00     0.091 A 
ATOM     98  F   UNL A   1      42.574  40.638  32.219  1.00  0.00    -0.205 F 
ATOM     99  C   UNL A   1      44.876  42.298  34.535  1.00  0.00     0.022 A 
BRANCH  97 100
ATOM    100  S   UNL A   1      42.871  43.567  33.173  1.00  0.00     0.127 S 
ATOM    101  O   UNL A   1      41.910  43.647  34.272  1.00  0.00    -0.237 OA
ATOM    102  O   UNL A   1      43.892  44.616  33.177  1.00  0.00    -0.237 OA
ATOM    103  O   UNL A   1      42.293  43.284  31.866  1.00  0.00    -0.744 OA
ENDBRANCH  97 100
ENDBRANCH  70  93
ENDBRANCH  44  45
ENDBRANCH  37  39
ENDBRANCH  36  37
ENDBRANCH  35  36
ENDBRANCH  34  35
ENDBRANCH  33  34
ENDBRANCH  32  33
ENDBRANCH  31  32
ENDBRANCH   1  31
TORSDOF 27
ENDMDL
MODEL 3
REMARK VINA RESULT:      -8.6      7.003      9.366
REMARK SMILES CC(C)CN(C)c1cc2c(cc1Cl)C=C(C(=O)OCCOCCOCCOCCOC(=O)c1ccc(-c3c4nc(c(-c5cccc(S(=O)(=O)[O-])c5F)c5ccc([nH]5)c(-c5cccc(S(=O)(=O)[O-])c5F)c5nc(c(-c6cccc(S(=O)(=O)[O-])c6F)c6ccc3[nH]6)C=C5)C=C4)cc1)[C@@H](C(F)(F)F)O2
REMARK SMILES IDX 24 1 23 2 22 3 21 4 20 5 19 6 18 7 16 8 17 9 15 10 7 11 8 12
REMARK SMILES IDX 12 13 9 14 11 15 13 16 10 17 101 18 14 19 96 20 5 21 6 22
REMARK SMILES IDX 4 23 2 24 1 25 3 26 97 27 98 28 99 29 100 30 25 31 26 32
REMARK SMILES IDX 27 33 28 34 29 35 30 36 31 37 32 38 33 39 34 40 95 41 35 42
REMARK SMILES IDX 94 43 36 44 37 45 38 46 88 47 39 48 93 49 87 50 89 51 40 52
REMARK SMILES IDX 92 53 86 54 85 55 41 57 73 58 53 59 72 60 54 61 57 62 71 63
REMARK SMILES IDX 90 64 55 65 56 66 70 68 91 69 58 70 42 71 43 72 51 73 44 74
REMARK SMILES IDX 46 75 52 76 45 77 47 78 48 79 49 80 50 81 74 82 75 83 83 84
REMARK SMILES IDX 76 85 78 86 84 87 77 88 79 89 80 90 81 91 82 92 59 93 60 94
REMARK SMILES IDX 68 95 61 96 63 97 69 98 62 99 64 100 65 101 66 102 67 103
REMARK H PARENT 89 56 57 67
REMARK Flexibility Score: inf
ROOT
ATOM      1  O   UNL A   1      43.473  21.680  26.181  1.00  0.00    -0.377 OA
ENDROOT
BRANCH   1   2
ATOM      2  C   UNL A   1      42.237  20.989  26.160  1.00  0.00     0.188 C 
BRANCH   2   3
ATOM      3  C   UNL A   1      41.022  21.914  25.968  1.00  0.00     0.188 C 
BRANCH   3   4
ATOM      4  O   UNL A   1      39.805  21.338  26.427  1.00  0.00    -0.376 OA
BRANCH   4   5
ATOM      5  C   UNL A   1      38.579  21.919  26.001  1.00  0.00     0.202 C 
BRANCH   5   6
ATOM      6  C   UNL A   1      37.674  21.141  25.027  1.00  0.00     0.261 C 
BRANCH   6   7
ATOM      7  O   UNL A   1      36.547  21.864  24.509  1.00  0.00    -0.460 OA
BRANCH   7   8
ATOM      8  C   UNL A   1      35.352  21.259  24.596  1.00  0.00     0.338 C 
ATOM      9  O   UNL A   1      35.151  20.081  24.844  1.00  0.00    -0.246 OA
BRANCH   8  10
ATOM     10  C   UNL A   1      34.290  22.284  24.532  1.00  0.00     0.087 C 
ATOM     11  C   UNL A   1      31.910  26.633  23.727  1.00  0.00     0.059 A 
ATOM     12  C   UNL A   1      31.581  25.457  24.442  1.00  0.00     0.074 A 
ATOM     13  C   UNL A   1      33.085  26.595  22.943  1.00  0.00     0.065 A 
ATOM     14  C   UNL A   1      32.406  24.323  24.403  1.00  0.00     0.130 A 
ATOM     15  C   UNL A   1      33.826  25.423  22.800  1.00  0.00     0.034 A 
ATOM     16  Cl  UNL A   1      33.806  28.004  22.241  1.00  0.00    -0.082 Cl
ATOM     17  C   UNL A   1      33.510  24.303  23.558  1.00  0.00     0.019 A 
ATOM     18  O   UNL A   1      32.094  23.271  25.223  1.00  0.00    -0.475 OA
ATOM     19  C   UNL A   1      34.418  23.178  23.546  1.00  0.00     0.027 C 
ATOM     20  C   UNL A   1      33.161  22.308  25.531  1.00  0.00     0.316 C 
BRANCH  11  21
ATOM     21  N   UNL A   1      31.144  27.801  23.865  1.00  0.00    -0.373 N 
ATOM     22  C   UNL A   1      31.440  28.611  25.045  1.00  0.00     0.143 C 
BRANCH  21  23
ATOM     23  C   UNL A   1      29.742  27.811  23.390  1.00  0.00     0.119 C 
BRANCH  23  24
ATOM     24  C   UNL A   1      29.203  29.228  23.110  1.00  0.00     0.002 C 
ATOM     25  C   UNL A   1      29.909  29.877  21.916  1.00  0.00     0.009 C 
ATOM     26  C   UNL A   1      27.692  29.242  22.864  1.00  0.00     0.009 C 
ENDBRANCH  23  24
ENDBRANCH  21  23
ENDBRANCH  11  21
BRANCH  20  27
ATOM     27  C   UNL A   1      33.685  22.539  26.954  1.00  0.00     0.430 C 
ATOM     28  F   UNL A   1      34.114  21.386  27.520  1.00  0.00    -0.167 F 
ATOM     29  F   UNL A   1      34.730  23.400  26.966  1.00  0.00    -0.167 F 
ATOM     30  F   UNL A   1      32.730  23.055  27.763  1.00  0.00    -0.167 F 
ENDBRANCH  20  27
ENDBRANCH   8  10
ENDBRANCH   7   8
ENDBRANCH   6   7
ENDBRANCH   5   6
ENDBRANCH   4   5
ENDBRANCH   3   4
ENDBRANCH   2   3
ENDBRANCH   1   2
BRANCH   1  31
ATOM     31  C   UNL A   1      44.055  22.061  24.932  1.00  0.00     0.188 C 
BRANCH  31  32
ATOM     32  C   UNL A   1      44.145  23.535  24.470  1.00  0.00     0.188 C 
BRANCH  32  33
ATOM     33  O   UNL A   1      43.064  24.356  24.905  1.00  0.00    -0.376 OA
BRANCH  33  34
ATOM     34  C   UNL A   1      43.364  25.715  25.187  1.00  0.00     0.202 C 
BRANCH  34  35
ATOM     35  C   UNL A   1      44.304  25.916  26.381  1.00  0.00     0.261 C 
BRANCH  35  36
ATOM     36  O   UNL A   1      44.093  25.027  27.487  1.00  0.00    -0.460 OA
BRANCH  36  37
ATOM     37  C   UNL A   1      45.164  24.361  27.976  1.00  0.00     0.338 C 
ATOM     38  O   UNL A   1      45.978  23.714  27.342  1.00  0.00    -0.246 OA
BRANCH  37  39
ATOM     39  C   UNL A   1      45.286  24.733  29.402  1.00  0.00     0.060 A 
ATOM     40  C   UNL A   1      46.355  25.526  29.828  1.00  0.00     0.016 A 
ATOM     41  C   UNL A   1      44.360  24.234  30.326  1.00  0.00     0.016 A 
ATOM     42  C   UNL A   1      46.480  25.845  31.180  1.00  0.00     0.010 A 
ATOM     43  C   UNL A   1      44.491  24.548  31.683  1.00  0.00     0.010 A 
ATOM     44  C   UNL A   1      45.540  25.375  32.113  1.00  0.00    -0.014 A 
BRANCH  44  45
ATOM     45  C   UNL A   1      45.543  25.932  33.486  1.00  0.00     0.031 A 
ATOM     46  C   UNL A   1      46.074  25.178  34.666  1.00  0.00     0.074 A 
ATOM     47  C   UNL A   1      45.029  27.167  33.651  1.00  0.00     0.049 A 
ATOM     48  N   UNL A   1      46.232  25.600  35.894  1.00  0.00    -0.248 NA
ATOM     49  C   UNL A   1      46.472  23.779  34.452  1.00  0.00     0.031 C 
ATOM     50  C   UNL A   1      44.425  27.967  32.583  1.00  0.00     0.029 A 
ATOM     51  N   UNL A   1      44.927  27.959  34.764  1.00  0.00    -0.354 N 
ATOM     52  C   UNL A   1      46.737  24.523  36.609  1.00  0.00     0.074 A 
ATOM     53  C   UNL A   1      46.850  23.419  35.676  1.00  0.00     0.031 C 
ATOM     54  C   UNL A   1      44.024  29.141  33.091  1.00  0.00     0.029 A 
ATOM     55  C   UNL A   1      44.334  29.173  34.517  1.00  0.00     0.049 A 
ATOM     56  H   UNL A   1      45.247  27.684  35.654  1.00  0.00     0.167 HD
ATOM     57  C   UNL A   1      47.086  24.471  37.916  1.00  0.00     0.034 A 
ATOM     58  C   UNL A   1      44.074  30.206  35.340  1.00  0.00     0.034 A 
ATOM     59  C   UNL A   1      46.985  25.579  38.832  1.00  0.00     0.049 A 
ATOM     60  C   UNL A   1      44.499  30.133  36.775  1.00  0.00     0.074 A 
ATOM     61  C   UNL A   1      47.407  25.640  40.151  1.00  0.00     0.029 A 
ATOM     62  N   UNL A   1      46.410  26.805  38.541  1.00  0.00    -0.354 N 
ATOM     63  N   UNL A   1      45.130  29.165  37.391  1.00  0.00    -0.248 NA
ATOM     64  C   UNL A   1      44.211  31.301  37.619  1.00  0.00     0.031 C 
ATOM     65  C   UNL A   1      47.065  26.894  40.662  1.00  0.00     0.029 A 
ATOM     66  C   UNL A   1      46.447  27.622  39.658  1.00  0.00     0.049 A 
ATOM     67  H   UNL A   1      46.031  27.059  37.668  1.00  0.00     0.167 HD
ATOM     68  C   UNL A   1      45.328  29.608  38.692  1.00  0.00     0.074 A 
ATOM     69  C   UNL A   1      44.764  30.940  38.771  1.00  0.00     0.031 C 
ATOM     70  C   UNL A   1      45.915  28.959  39.726  1.00  0.00     0.034 A 
BRANCH  57  71
ATOM     71  C   UNL A   1      47.672  23.193  38.450  1.00  0.00     0.023 A 
ATOM     72  C   UNL A   1      49.070  23.091  38.599  1.00  0.00     0.012 A 
ATOM     73  C   UNL A   1      46.844  22.161  38.933  1.00  0.00     0.148 A 
ATOM     74  C   UNL A   1      49.636  21.978  39.217  1.00  0.00     0.002 A 
ATOM     75  C   UNL A   1      47.415  21.066  39.573  1.00  0.00     0.091 A 
ATOM     76  F   UNL A   1      45.518  22.279  38.774  1.00  0.00    -0.205 F 
ATOM     77  C   UNL A   1      48.810  20.972  39.713  1.00  0.00     0.022 A 
BRANCH  75  78
ATOM     78  S   UNL A   1      46.440  19.743  40.299  1.00  0.00     0.127 S 
ATOM     79  O   UNL A   1      45.530  20.491  41.166  1.00  0.00    -0.237 OA
ATOM     80  O   UNL A   1      45.808  19.146  39.123  1.00  0.00    -0.237 OA
ATOM     81  O   UNL A   1      47.384  18.879  40.992  1.00  0.00    -0.744 OA
ENDBRANCH  75  78
ENDBRANCH  57  71
BRANCH  58  82
ATOM     82  C   UNL A   1      43.443  31.426  34.771  1.00  0.00     0.023 A 
ATOM     83  C   UNL A   1      44.264  32.453  34.271  1.00  0.00     0.012 A 
ATOM     84  C   UNL A   1      42.046  31.512  34.620  1.00  0.00     0.148 A 
ATOM     85  C   UNL A   1      43.700  33.554  33.626  1.00  0.00     0.002 A 
ATOM     86  C   UNL A   1      41.495  32.592  33.942  1.00  0.00     0.091 A 
ATOM     87  F   UNL A   1      41.294  30.512  35.100  1.00  0.00    -0.205 F 
ATOM     88  C   UNL A   1      42.320  33.618  33.452  1.00  0.00     0.022 A 
BRANCH  86  89
ATOM     89  S   UNL A   1      39.743  32.710  33.569  1.00  0.00     0.127 S 
ATOM     90  O   UNL A   1      39.701  33.892  32.710  1.00  0.00    -0.237 OA
ATOM     91  O   UNL A   1      39.499  31.441  32.884  1.00  0.00    -0.237 OA
ATOM     92  O   UNL A   1      39.070  32.850  34.852  1.00  0.00    -0.744 OA
ENDBRANCH  86  89
ENDBRANCH  58  82
BRANCH  70  93
ATOM     93  C   UNL A   1      45.988  29.663  41.052  1.00  0.00     0.023 A 
ATOM     94  C   UNL A   1      46.984  30.637  41.263  1.00  0.00     0.012 A 
ATOM     95  C   UNL A   1      45.003  29.452  42.036  1.00  0.00     0.148 A 
ATOM     96  C   UNL A   1      47.001  31.387  42.437  1.00  0.00     0.002 A 
ATOM     97  C   UNL A   1      45.007  30.227  43.190  1.00  0.00     0.091 A 
ATOM     98  F   UNL A   1      44.072  28.512  41.815  1.00  0.00    -0.205 F 
ATOM     99  C   UNL A   1      46.008  31.192  43.394  1.00  0.00     0.022 A 
BRANCH  97 100
ATOM    100  S   UNL A   1      43.730  30.102  44.448  1.00  0.00     0.127 S 
ATOM    101  O   UNL A   1      43.676  28.659  44.674  1.00  0.00    -0.237 OA
ATOM    102  O   UNL A   1      44.308  30.872  45.551  1.00  0.00    -0.237 OA
ATOM    103  O   UNL A   1      42.528  30.682  43.865  1.00  0.00    -0.744 OA
ENDBRANCH  97 100
ENDBRANCH  70  93
ENDBRANCH  44  45
ENDBRANCH  37  39
ENDBRANCH  36  37
ENDBRANCH  35  36
ENDBRANCH  34  35
ENDBRANCH  33  34
ENDBRANCH  32  33
ENDBRANCH  31  32
ENDBRANCH   1  31
TORSDOF 27
ENDMDL
