MODEL 1
REMARK VINA RESULT:      -7.9      0.000      0.000
REMARK SMILES COc1ccc([C@@H]2C(C#N)=C(N)N3C(=O)[C@H](CC(=O)OCCOCCOCCOCCOC(=O)c4ccc(-c5c6nc(c(-c7cccc(S(=O)(=O)[O-])c7F)c7ccc([nH]7)c(-c7cccc(S(=O)(=O)[O-])c7F)c7nc(c(-c8cccc(S(=O)(=O)[O-])c8F)c8ccc5[nH]8)C=C7)C=C6)cc4)SC3=C2C#N)cc1
REMARK SMILES IDX 26 1 25 2 24 3 23 4 22 5 21 6 20 7 18 8 19 9 17 10 16 11
REMARK SMILES IDX 7 12 8 13 100 14 11 15 99 16 13 17 98 18 14 19 15 20 6 21
REMARK SMILES IDX 3 22 4 23 104 24 5 25 103 26 2 27 1 28 9 29 10 30 101 31
REMARK SMILES IDX 102 32 12 33 27 36 28 37 29 38 30 39 31 40 32 41 33 42 34 43
REMARK SMILES IDX 35 44 36 45 97 46 37 47 96 48 38 49 39 50 40 51 90 52 41 53
REMARK SMILES IDX 95 54 89 55 91 56 42 57 94 58 88 59 87 60 43 62 75 63 55 64
REMARK SMILES IDX 74 65 56 66 59 67 73 68 92 69 57 70 58 71 72 73 93 74 60 75
REMARK SMILES IDX 44 76 45 77 53 78 46 79 48 80 54 81 47 82 49 83 50 84 51 85
REMARK SMILES IDX 52 86 76 87 77 88 85 89 78 90 80 91 86 92 79 93 81 94 82 95
REMARK SMILES IDX 83 96 84 97 61 98 62 99 70 100 63 101 65 102 71 103 64 104
REMARK SMILES IDX 66 105 67 106 68 107 69 108
REMARK H PARENT 12 34 12 35 91 61 59 72
REMARK Flexibility Score: inf
ROOT
ATOM      1  O   UNL A   1      44.554  21.381  24.072  1.00  0.00    -0.377 OA
ENDROOT
BRANCH   1   2
ATOM      2  C   UNL A   1      45.656  22.259  23.965  1.00  0.00     0.188 C 
BRANCH   2   3
ATOM      3  C   UNL A   1      45.547  23.634  24.632  1.00  0.00     0.188 C 
BRANCH   3   4
ATOM      4  O   UNL A   1      44.551  24.534  24.203  1.00  0.00    -0.376 OA
BRANCH   4   5
ATOM      5  C   UNL A   1      43.800  25.324  25.111  1.00  0.00     0.202 C 
BRANCH   5   6
ATOM      6  C   UNL A   1      42.289  25.204  25.378  1.00  0.00     0.261 C 
BRANCH   6   7
ATOM      7  O   UNL A   1      41.518  26.411  25.376  1.00  0.00    -0.463 OA
BRANCH   7   8
ATOM      8  C   UNL A   1      42.224  27.555  25.502  1.00  0.00     0.307 C 
ATOM      9  O   UNL A   1      42.402  28.364  24.594  1.00  0.00    -0.252 OA
BRANCH   8  10
ATOM     10  C   UNL A   1      42.717  27.852  26.898  1.00  0.00     0.147 C 
BRANCH  10  11
ATOM     11  C   UNL A   1      41.714  28.057  28.009  1.00  0.00     0.154 C 
ATOM     12  C   UNL A   1      38.281  30.447  30.579  1.00  0.00     0.107 C 
ATOM     13  C   UNL A   1      39.585  30.772  31.288  1.00  0.00     0.083 C 
ATOM     14  C   UNL A   1      38.516  29.824  29.222  1.00  0.00     0.073 C 
ATOM     15  C   UNL A   1      40.782  30.265  30.880  1.00  0.00     0.126 C 
ATOM     16  C   UNL A   1      39.745  29.413  28.882  1.00  0.00     0.099 C 
ATOM     17  N   UNL A   1      40.861  29.523  29.693  1.00  0.00    -0.258 N 
ATOM     18  S   UNL A   1      40.155  28.743  27.340  1.00  0.00    -0.093 SA
ATOM     19  C   UNL A   1      42.057  28.961  29.178  1.00  0.00     0.247 C 
ATOM     20  O   UNL A   1      43.185  29.070  29.641  1.00  0.00    -0.273 OA
BRANCH  12  21
ATOM     21  C   UNL A   1      37.274  31.595  30.475  1.00  0.00    -0.034 A 
ATOM     22  C   UNL A   1      35.206  33.425  29.927  1.00  0.00     0.118 A 
ATOM     23  C   UNL A   1      34.991  32.368  30.809  1.00  0.00     0.047 A 
ATOM     24  C   UNL A   1      36.472  33.613  29.375  1.00  0.00     0.047 A 
ATOM     25  C   UNL A   1      36.011  31.455  31.078  1.00  0.00     0.008 A 
ATOM     26  C   UNL A   1      37.505  32.709  29.651  1.00  0.00     0.008 A 
BRANCH  22  27
ATOM     27  O   UNL A   1      34.132  34.245  29.709  1.00  0.00    -0.497 OA
ATOM     28  C   UNL A   1      33.537  34.116  28.421  1.00  0.00     0.278 C 
ENDBRANCH  22  27
ENDBRANCH  12  21
BRANCH  13  29
ATOM     29  C   UNL A   1      39.497  31.585  32.458  1.00  0.00     0.100 C 
ATOM     30  N   UNL A   1      39.453  32.273  33.395  1.00  0.00    -0.193 NA
ENDBRANCH  13  29
BRANCH  14  31
ATOM     31  C   UNL A   1      37.428  29.945  28.168  1.00  0.00     0.098 C 
ATOM     32  N   UNL A   1      36.525  30.046  27.293  1.00  0.00    -0.193 NA
ENDBRANCH  14  31
BRANCH  15  33
ATOM     33  N   UNL A   1      41.924  30.452  31.611  1.00  0.00    -0.384 N 
ATOM     34  H   UNL A   1      42.528  29.693  31.783  1.00  0.00     0.158 HD
ATOM     35  H   UNL A   1      42.142  31.344  31.964  1.00  0.00     0.158 HD
ENDBRANCH  15  33
ENDBRANCH  10  11
ENDBRANCH   8  10
ENDBRANCH   7   8
ENDBRANCH   6   7
ENDBRANCH   5   6
ENDBRANCH   4   5
ENDBRANCH   3   4
ENDBRANCH   2   3
ENDBRANCH   1   2
BRANCH   1  36
ATOM     36  C   UNL A   1      44.537  20.174  23.310  1.00  0.00     0.188 C 
BRANCH  36  37
ATOM     37  C   UNL A   1      44.645  18.790  23.993  1.00  0.00     0.188 C 
BRANCH  37  38
ATOM     38  O   UNL A   1      43.639  18.487  24.938  1.00  0.00    -0.376 OA
BRANCH  38  39
ATOM     39  C   UNL A   1      43.275  19.454  25.910  1.00  0.00     0.202 C 
BRANCH  39  40
ATOM     40  C   UNL A   1      41.804  19.606  26.339  1.00  0.00     0.261 C 
BRANCH  40  41
ATOM     41  O   UNL A   1      41.546  20.391  27.512  1.00  0.00    -0.460 OA
BRANCH  41  42
ATOM     42  C   UNL A   1      41.154  21.671  27.328  1.00  0.00     0.338 C 
ATOM     43  O   UNL A   1      40.036  22.054  27.038  1.00  0.00    -0.246 OA
BRANCH  42  44
ATOM     44  C   UNL A   1      42.267  22.553  27.741  1.00  0.00     0.060 A 
ATOM     45  C   UNL A   1      43.578  22.203  27.389  1.00  0.00     0.016 A 
ATOM     46  C   UNL A   1      42.021  23.706  28.488  1.00  0.00     0.016 A 
ATOM     47  C   UNL A   1      44.650  22.980  27.821  1.00  0.00     0.010 A 
ATOM     48  C   UNL A   1      43.099  24.471  28.942  1.00  0.00     0.010 A 
ATOM     49  C   UNL A   1      44.420  24.087  28.645  1.00  0.00    -0.014 A 
BRANCH  49  50
ATOM     50  C   UNL A   1      45.560  24.723  29.349  1.00  0.00     0.031 A 
ATOM     51  C   UNL A   1      45.469  24.916  30.838  1.00  0.00     0.074 A 
ATOM     52  C   UNL A   1      46.664  25.107  28.685  1.00  0.00     0.049 A 
ATOM     53  N   UNL A   1      46.313  25.490  31.654  1.00  0.00    -0.248 NA
ATOM     54  C   UNL A   1      44.259  24.395  31.495  1.00  0.00     0.031 C 
ATOM     55  C   UNL A   1      46.885  24.948  27.249  1.00  0.00     0.029 A 
ATOM     56  N   UNL A   1      47.798  25.737  29.135  1.00  0.00    -0.354 N 
ATOM     57  C   UNL A   1      45.720  25.439  32.910  1.00  0.00     0.074 A 
ATOM     58  C   UNL A   1      44.441  24.783  32.748  1.00  0.00     0.031 C 
ATOM     59  C   UNL A   1      48.070  25.497  26.929  1.00  0.00     0.029 A 
ATOM     60  C   UNL A   1      48.671  26.079  28.128  1.00  0.00     0.049 A 
ATOM     61  H   UNL A   1      47.970  25.927  30.086  1.00  0.00     0.167 HD
ATOM     62  C   UNL A   1      46.198  25.893  34.092  1.00  0.00     0.034 A 
ATOM     63  C   UNL A   1      49.803  26.809  28.166  1.00  0.00     0.034 A 
ATOM     64  C   UNL A   1      47.472  26.541  34.249  1.00  0.00     0.049 A 
ATOM     65  C   UNL A   1      50.291  27.347  29.486  1.00  0.00     0.074 A 
ATOM     66  C   UNL A   1      48.067  26.997  35.412  1.00  0.00     0.029 A 
ATOM     67  N   UNL A   1      48.334  26.854  33.210  1.00  0.00    -0.354 N 
ATOM     68  N   UNL A   1      49.768  27.209  30.680  1.00  0.00    -0.248 NA
ATOM     69  C   UNL A   1      51.544  28.117  29.468  1.00  0.00     0.031 C 
ATOM     70  C   UNL A   1      49.260  27.638  35.069  1.00  0.00     0.029 A 
ATOM     71  C   UNL A   1      49.445  27.520  33.701  1.00  0.00     0.049 A 
ATOM     72  H   UNL A   1      48.181  26.636  32.262  1.00  0.00     0.167 HD
ATOM     73  C   UNL A   1      50.646  27.836  31.559  1.00  0.00     0.074 A 
ATOM     74  C   UNL A   1      51.744  28.339  30.760  1.00  0.00     0.031 C 
ATOM     75  C   UNL A   1      50.551  27.983  32.903  1.00  0.00     0.034 A 
BRANCH  62  76
ATOM     76  C   UNL A   1      45.330  25.721  35.311  1.00  0.00     0.023 A 
ATOM     77  C   UNL A   1      45.800  24.992  36.424  1.00  0.00     0.012 A 
ATOM     78  C   UNL A   1      44.058  26.326  35.371  1.00  0.00     0.148 A 
ATOM     79  C   UNL A   1      45.002  24.833  37.557  1.00  0.00     0.002 A 
ATOM     80  C   UNL A   1      43.293  26.209  36.523  1.00  0.00     0.091 A 
ATOM     81  F   UNL A   1      43.621  26.999  34.297  1.00  0.00    -0.205 F 
ATOM     82  C   UNL A   1      43.756  25.451  37.611  1.00  0.00     0.022 A 
BRANCH  80  83
ATOM     83  S   UNL A   1      41.711  27.035  36.722  1.00  0.00     0.127 S 
ATOM     84  O   UNL A   1      42.128  28.417  36.951  1.00  0.00    -0.237 OA
ATOM     85  O   UNL A   1      41.077  26.796  35.425  1.00  0.00    -0.237 OA
ATOM     86  O   UNL A   1      41.056  26.388  37.850  1.00  0.00    -0.744 OA
ENDBRANCH  80  83
ENDBRANCH  62  76
BRANCH  63  87
ATOM     87  C   UNL A   1      50.558  27.080  26.909  1.00  0.00     0.023 A 
ATOM     88  C   UNL A   1      50.221  28.191  26.112  1.00  0.00     0.012 A 
ATOM     89  C   UNL A   1      51.610  26.236  26.504  1.00  0.00     0.148 A 
ATOM     90  C   UNL A   1      50.896  28.436  24.916  1.00  0.00     0.002 A 
ATOM     91  C   UNL A   1      52.318  26.521  25.344  1.00  0.00     0.091 A 
ATOM     92  F   UNL A   1      51.906  25.178  27.272  1.00  0.00    -0.205 F 
ATOM     93  C   UNL A   1      51.950  27.608  24.536  1.00  0.00     0.022 A 
BRANCH  91  94
ATOM     94  S   UNL A   1      53.768  25.587  24.846  1.00  0.00     0.127 S 
ATOM     95  O   UNL A   1      54.752  26.011  25.839  1.00  0.00    -0.237 OA
ATOM     96  O   UNL A   1      53.298  24.209  24.991  1.00  0.00    -0.237 OA
ATOM     97  O   UNL A   1      54.045  25.988  23.474  1.00  0.00    -0.744 OA
ENDBRANCH  91  94
ENDBRANCH  63  87
BRANCH  75  98
ATOM     98  C   UNL A   1      51.692  28.664  33.620  1.00  0.00     0.023 A 
ATOM     99  C   UNL A   1      51.660  30.052  33.863  1.00  0.00     0.012 A 
ATOM    100  C   UNL A   1      52.771  27.902  34.113  1.00  0.00     0.148 A 
ATOM    101  C   UNL A   1      52.704  30.675  34.547  1.00  0.00     0.002 A 
ATOM    102  C   UNL A   1      53.777  28.520  34.843  1.00  0.00     0.091 A 
ATOM    103  F   UNL A   1      52.791  26.586  33.861  1.00  0.00    -0.205 F 
ATOM    104  C   UNL A   1      53.754  29.909  35.047  1.00  0.00     0.022 A 
BRANCH 102 105
ATOM    105  S   UNL A   1      55.116  27.602  35.611  1.00  0.00     0.127 S 
ATOM    106  O   UNL A   1      55.846  27.109  34.443  1.00  0.00    -0.237 OA
ATOM    107  O   UNL A   1      55.809  28.644  36.368  1.00  0.00    -0.237 OA
ATOM    108  O   UNL A   1      54.487  26.574  36.428  1.00  0.00    -0.744 OA
ENDBRANCH 102 105
ENDBRANCH  75  98
ENDBRANCH  49  50
ENDBRANCH  42  44
ENDBRANCH  41  42
ENDBRANCH  40  41
ENDBRANCH  39  40
ENDBRANCH  38  39
ENDBRANCH  37  38
ENDBRANCH  36  37
ENDBRANCH   1  36
TORSDOF 29
ENDMDL
MODEL 2
REMARK VINA RESULT:      -7.4      7.262     12.107
REMARK SMILES COc1ccc([C@@H]2C(C#N)=C(N)N3C(=O)[C@H](CC(=O)OCCOCCOCCOCCOC(=O)c4ccc(-c5c6nc(c(-c7cccc(S(=O)(=O)[O-])c7F)c7ccc([nH]7)c(-c7cccc(S(=O)(=O)[O-])c7F)c7nc(c(-c8cccc(S(=O)(=O)[O-])c8F)c8ccc5[nH]8)C=C7)C=C6)cc4)SC3=C2C#N)cc1
REMARK SMILES IDX 26 1 25 2 24 3 23 4 22 5 21 6 20 7 18 8 19 9 17 10 16 11
REMARK SMILES IDX 7 12 8 13 100 14 11 15 99 16 13 17 98 18 14 19 15 20 6 21
REMARK SMILES IDX 3 22 4 23 104 24 5 25 103 26 2 27 1 28 9 29 10 30 101 31
REMARK SMILES IDX 102 32 12 33 27 36 28 37 29 38 30 39 31 40 32 41 33 42 34 43
REMARK SMILES IDX 35 44 36 45 97 46 37 47 96 48 38 49 39 50 40 51 90 52 41 53
REMARK SMILES IDX 95 54 89 55 91 56 42 57 94 58 88 59 87 60 43 62 75 63 55 64
REMARK SMILES IDX 74 65 56 66 59 67 73 68 92 69 57 70 58 71 72 73 93 74 60 75
REMARK SMILES IDX 44 76 45 77 53 78 46 79 48 80 54 81 47 82 49 83 50 84 51 85
REMARK SMILES IDX 52 86 76 87 77 88 85 89 78 90 80 91 86 92 79 93 81 94 82 95
REMARK SMILES IDX 83 96 84 97 61 98 62 99 70 100 63 101 65 102 71 103 64 104
REMARK SMILES IDX 66 105 67 106 68 107 69 108
REMARK H PARENT 12 34 12 35 91 61 59 72
REMARK Flexibility Score: inf
ROOT
ATOM      1  O   UNL A   1      44.963  29.753  26.240  1.00  0.00    -0.377 OA
ENDROOT
BRANCH   1   2
ATOM      2  C   UNL A   1      44.427  30.902  26.864  1.00  0.00     0.188 C 
BRANCH   2   3
ATOM      3  C   UNL A   1      44.660  32.259  26.192  1.00  0.00     0.188 C 
BRANCH   3   4
ATOM      4  O   UNL A   1      45.979  32.715  25.994  1.00  0.00    -0.376 OA
BRANCH   4   5
ATOM      5  C   UNL A   1      46.658  33.511  26.954  1.00  0.00     0.202 C 
BRANCH   5   6
ATOM      6  C   UNL A   1      46.120  33.913  28.339  1.00  0.00     0.261 C 
BRANCH   6   7
ATOM      7  O   UNL A   1      46.530  35.181  28.865  1.00  0.00    -0.463 OA
BRANCH   7   8
ATOM      8  C   UNL A   1      47.095  35.150  30.091  1.00  0.00     0.307 C 
ATOM      9  O   UNL A   1      48.307  35.145  30.295  1.00  0.00    -0.252 OA
BRANCH   8  10
ATOM     10  C   UNL A   1      46.125  35.228  31.245  1.00  0.00     0.147 C 
BRANCH  10  11
ATOM     11  C   UNL A   1      45.677  36.583  31.744  1.00  0.00     0.154 C 
ATOM     12  C   UNL A   1      44.971  41.437  31.539  1.00  0.00     0.107 C 
ATOM     13  C   UNL A   1      46.298  41.274  32.262  1.00  0.00     0.083 C 
ATOM     14  C   UNL A   1      44.527  40.153  30.876  1.00  0.00     0.073 C 
ATOM     15  C   UNL A   1      46.832  40.051  32.536  1.00  0.00     0.126 C 
ATOM     16  C   UNL A   1      45.156  39.005  31.160  1.00  0.00     0.099 C 
ATOM     17  N   UNL A   1      46.225  38.892  32.033  1.00  0.00    -0.258 N 
ATOM     18  S   UNL A   1      44.785  37.484  30.424  1.00  0.00    -0.093 SA
ATOM     19  C   UNL A   1      46.704  37.575  32.253  1.00  0.00     0.247 C 
ATOM     20  O   UNL A   1      47.720  37.249  32.855  1.00  0.00    -0.273 OA
BRANCH  12  21
ATOM     21  C   UNL A   1      44.886  42.606  30.554  1.00  0.00    -0.034 A 
ATOM     22  C   UNL A   1      45.136  44.931  28.987  1.00  0.00     0.118 A 
ATOM     23  C   UNL A   1      45.885  43.797  28.681  1.00  0.00     0.047 A 
ATOM     24  C   UNL A   1      44.209  44.884  30.028  1.00  0.00     0.047 A 
ATOM     25  C   UNL A   1      45.769  42.645  29.460  1.00  0.00     0.008 A 
ATOM     26  C   UNL A   1      44.077  43.726  30.804  1.00  0.00     0.008 A 
BRANCH  22  27
ATOM     27  O   UNL A   1      45.345  46.016  28.180  1.00  0.00    -0.497 OA
ATOM     28  C   UNL A   1      46.675  46.142  27.685  1.00  0.00     0.278 C 
ENDBRANCH  22  27
ENDBRANCH  12  21
BRANCH  13  29
ATOM     29  C   UNL A   1      46.938  42.468  32.709  1.00  0.00     0.100 C 
ATOM     30  N   UNL A   1      47.454  43.429  33.112  1.00  0.00    -0.193 NA
ENDBRANCH  13  29
BRANCH  14  31
ATOM     31  C   UNL A   1      43.579  40.236  29.691  1.00  0.00     0.098 C 
ATOM     32  N   UNL A   1      42.793  40.305  28.707  1.00  0.00    -0.193 NA
ENDBRANCH  14  31
BRANCH  15  33
ATOM     33  N   UNL A   1      47.953  39.918  33.309  1.00  0.00    -0.384 N 
ATOM     34  H   UNL A   1      48.814  40.275  32.992  1.00  0.00     0.158 HD
ATOM     35  H   UNL A   1      47.898  39.467  34.183  1.00  0.00     0.158 HD
ENDBRANCH  15  33
ENDBRANCH  10  11
ENDBRANCH   8  10
ENDBRANCH   7   8
ENDBRANCH   6   7
ENDBRANCH   5   6
ENDBRANCH   4   5
ENDBRANCH   3   4
ENDBRANCH   2   3
ENDBRANCH   1   2
BRANCH   1  36
ATOM     36  C   UNL A   1      45.066  28.535  26.977  1.00  0.00     0.188 C 
BRANCH  36  37
ATOM     37  C   UNL A   1      43.937  27.478  26.946  1.00  0.00     0.188 C 
BRANCH  37  38
ATOM     38  O   UNL A   1      44.281  26.221  26.397  1.00  0.00    -0.376 OA
BRANCH  38  39
ATOM     39  C   UNL A   1      43.488  25.084  26.696  1.00  0.00     0.202 C 
BRANCH  39  40
ATOM     40  C   UNL A   1      42.157  24.850  25.959  1.00  0.00     0.261 C 
BRANCH  40  41
ATOM     41  O   UNL A   1      41.099  24.233  26.705  1.00  0.00    -0.460 OA
BRANCH  41  42
ATOM     42  C   UNL A   1      39.865  24.773  26.595  1.00  0.00     0.338 C 
ATOM     43  O   UNL A   1      38.905  24.285  26.027  1.00  0.00    -0.246 OA
BRANCH  42  44
ATOM     44  C   UNL A   1      39.814  25.973  27.458  1.00  0.00     0.060 A 
ATOM     45  C   UNL A   1      40.194  27.212  26.924  1.00  0.00     0.016 A 
ATOM     46  C   UNL A   1      39.412  25.872  28.791  1.00  0.00     0.016 A 
ATOM     47  C   UNL A   1      40.218  28.346  27.733  1.00  0.00     0.010 A 
ATOM     48  C   UNL A   1      39.461  27.006  29.609  1.00  0.00     0.010 A 
ATOM     49  C   UNL A   1      39.905  28.238  29.092  1.00  0.00    -0.014 A 
BRANCH  49  50
ATOM     50  C   UNL A   1      40.224  29.361  30.006  1.00  0.00     0.031 A 
ATOM     51  C   UNL A   1      41.638  29.506  30.502  1.00  0.00     0.074 A 
ATOM     52  C   UNL A   1      39.285  30.247  30.379  1.00  0.00     0.049 A 
ATOM     53  N   UNL A   1      42.138  30.372  31.341  1.00  0.00    -0.248 NA
ATOM     54  C   UNL A   1      42.618  28.538  29.981  1.00  0.00     0.031 C 
ATOM     55  C   UNL A   1      37.889  30.232  29.946  1.00  0.00     0.029 A 
ATOM     56  N   UNL A   1      39.362  31.320  31.233  1.00  0.00    -0.354 N 
ATOM     57  C   UNL A   1      43.477  30.031  31.485  1.00  0.00     0.074 A 
ATOM     58  C   UNL A   1      43.711  28.873  30.649  1.00  0.00     0.031 C 
ATOM     59  C   UNL A   1      37.232  31.230  30.562  1.00  0.00     0.029 A 
ATOM     60  C   UNL A   1      38.151  31.928  31.460  1.00  0.00     0.049 A 
ATOM     61  H   UNL A   1      40.205  31.624  31.643  1.00  0.00     0.167 HD
ATOM     62  C   UNL A   1      44.428  30.629  32.240  1.00  0.00     0.034 A 
ATOM     63  C   UNL A   1      37.814  32.908  32.322  1.00  0.00     0.034 A 
ATOM     64  C   UNL A   1      44.193  31.781  33.066  1.00  0.00     0.049 A 
ATOM     65  C   UNL A   1      38.880  33.527  33.189  1.00  0.00     0.074 A 
ATOM     66  C   UNL A   1      45.101  32.489  33.834  1.00  0.00     0.029 A 
ATOM     67  N   UNL A   1      42.957  32.379  33.258  1.00  0.00    -0.354 N 
ATOM     68  N   UNL A   1      40.162  33.256  33.244  1.00  0.00    -0.248 NA
ATOM     69  C   UNL A   1      38.459  34.607  34.093  1.00  0.00     0.031 C 
ATOM     70  C   UNL A   1      44.404  33.475  34.536  1.00  0.00     0.029 A 
ATOM     71  C   UNL A   1      43.073  33.430  34.152  1.00  0.00     0.049 A 
ATOM     72  H   UNL A   1      42.119  32.098  32.823  1.00  0.00     0.167 HD
ATOM     73  C   UNL A   1      40.706  34.158  34.153  1.00  0.00     0.074 A 
ATOM     74  C   UNL A   1      39.616  34.994  34.611  1.00  0.00     0.031 C 
ATOM     75  C   UNL A   1      41.990  34.281  34.572  1.00  0.00     0.034 A 
BRANCH  62  76
ATOM     76  C   UNL A   1      45.813  30.035  32.222  1.00  0.00     0.023 A 
ATOM     77  C   UNL A   1      46.207  29.114  33.215  1.00  0.00     0.012 A 
ATOM     78  C   UNL A   1      46.712  30.358  31.186  1.00  0.00     0.148 A 
ATOM     79  C   UNL A   1      47.486  28.558  33.200  1.00  0.00     0.002 A 
ATOM     80  C   UNL A   1      47.965  29.759  31.148  1.00  0.00     0.091 A 
ATOM     81  F   UNL A   1      46.327  31.249  30.262  1.00  0.00    -0.205 F 
ATOM     82  C   UNL A   1      48.359  28.871  32.162  1.00  0.00     0.022 A 
BRANCH  80  83
ATOM     83  S   UNL A   1      49.129  30.033  29.809  1.00  0.00     0.127 S 
ATOM     84  O   UNL A   1      50.307  29.316  30.293  1.00  0.00    -0.237 OA
ATOM     85  O   UNL A   1      48.450  29.396  28.679  1.00  0.00    -0.237 OA
ATOM     86  O   UNL A   1      49.282  31.476  29.694  1.00  0.00    -0.744 OA
ENDBRANCH  80  83
ENDBRANCH  62  76
BRANCH  63  87
ATOM     87  C   UNL A   1      36.400  33.370  32.412  1.00  0.00     0.023 A 
ATOM     88  C   UNL A   1      35.680  33.201  33.610  1.00  0.00     0.012 A 
ATOM     89  C   UNL A   1      35.767  33.976  31.309  1.00  0.00     0.148 A 
ATOM     90  C   UNL A   1      34.345  33.596  33.698  1.00  0.00     0.002 A 
ATOM     91  C   UNL A   1      34.458  34.423  31.422  1.00  0.00     0.091 A 
ATOM     92  F   UNL A   1      36.467  34.116  30.174  1.00  0.00    -0.205 F 
ATOM     93  C   UNL A   1      33.737  34.215  32.609  1.00  0.00     0.022 A 
BRANCH  91  94
ATOM     94  S   UNL A   1      33.637  35.344  30.117  1.00  0.00     0.127 S 
ATOM     95  O   UNL A   1      34.770  35.804  29.318  1.00  0.00    -0.237 OA
ATOM     96  O   UNL A   1      32.820  34.305  29.490  1.00  0.00    -0.237 OA
ATOM     97  O   UNL A   1      32.874  36.387  30.788  1.00  0.00    -0.744 OA
ENDBRANCH  91  94
ENDBRANCH  63  87
BRANCH  75  98
ATOM     98  C   UNL A   1      42.313  35.400  35.533  1.00  0.00     0.023 A 
ATOM     99  C   UNL A   1      42.003  35.281  36.902  1.00  0.00     0.012 A 
ATOM    100  C   UNL A   1      42.992  36.549  35.076  1.00  0.00     0.148 A 
ATOM    101  C   UNL A   1      42.325  36.306  37.792  1.00  0.00     0.002 A 
ATOM    102  C   UNL A   1      43.361  37.537  35.978  1.00  0.00     0.091 A 
ATOM    103  F   UNL A   1      43.268  36.649  33.768  1.00  0.00    -0.205 F 
ATOM    104  C   UNL A   1      43.014  37.426  37.333  1.00  0.00     0.022 A 
BRANCH 102 105
ATOM    105  S   UNL A   1      44.336  38.967  35.497  1.00  0.00     0.127 S 
ATOM    106  O   UNL A   1      44.209  39.823  36.677  1.00  0.00    -0.237 OA
ATOM    107  O   UNL A   1      45.664  38.384  35.306  1.00  0.00    -0.237 OA
ATOM    108  O   UNL A   1      43.721  39.488  34.284  1.00  0.00    -0.744 OA
ENDBRANCH 102 105
ENDBRANCH  75  98
ENDBRANCH  49  50
ENDBRANCH  42  44
ENDBRANCH  41  42
ENDBRANCH  40  41
ENDBRANCH  39  40
ENDBRANCH  38  39
ENDBRANCH  37  38
ENDBRANCH  36  37
ENDBRANCH   1  36
TORSDOF 29
ENDMDL
MODEL 3
REMARK VINA RESULT:      -7.3      5.888     13.321
REMARK SMILES COc1ccc([C@@H]2C(C#N)=C(N)N3C(=O)[C@H](CC(=O)OCCOCCOCCOCCOC(=O)c4ccc(-c5c6nc(c(-c7cccc(S(=O)(=O)[O-])c7F)c7ccc([nH]7)c(-c7cccc(S(=O)(=O)[O-])c7F)c7nc(c(-c8cccc(S(=O)(=O)[O-])c8F)c8ccc5[nH]8)C=C7)C=C6)cc4)SC3=C2C#N)cc1
REMARK SMILES IDX 26 1 25 2 24 3 23 4 22 5 21 6 20 7 18 8 19 9 17 10 16 11
REMARK SMILES IDX 7 12 8 13 100 14 11 15 99 16 13 17 98 18 14 19 15 20 6 21
REMARK SMILES IDX 3 22 4 23 104 24 5 25 103 26 2 27 1 28 9 29 10 30 101 31
REMARK SMILES IDX 102 32 12 33 27 36 28 37 29 38 30 39 31 40 32 41 33 42 34 43
REMARK SMILES IDX 35 44 36 45 97 46 37 47 96 48 38 49 39 50 40 51 90 52 41 53
REMARK SMILES IDX 95 54 89 55 91 56 42 57 94 58 88 59 87 60 43 62 75 63 55 64
REMARK SMILES IDX 74 65 56 66 59 67 73 68 92 69 57 70 58 71 72 73 93 74 60 75
REMARK SMILES IDX 44 76 45 77 53 78 46 79 48 80 54 81 47 82 49 83 50 84 51 85
REMARK SMILES IDX 52 86 76 87 77 88 85 89 78 90 80 91 86 92 79 93 81 94 82 95
REMARK SMILES IDX 83 96 84 97 61 98 62 99 70 100 63 101 65 102 71 103 64 104
REMARK SMILES IDX 66 105 67 106 68 107 69 108
REMARK H PARENT 12 34 12 35 91 61 59 72
REMARK Flexibility Score: inf
ROOT
ATOM      1  O   UNL A   1      49.097  27.138  38.689  1.00  0.00    -0.377 OA
ENDROOT
BRANCH   1   2
ATOM      2  C   UNL A   1      50.427  27.492  39.008  1.00  0.00     0.188 C 
BRANCH   2   3
ATOM      3  C   UNL A   1      51.377  26.379  39.464  1.00  0.00     0.188 C 
BRANCH   3   4
ATOM      4  O   UNL A   1      51.862  25.453  38.520  1.00  0.00    -0.376 OA
BRANCH   4   5
ATOM      5  C   UNL A   1      51.511  24.078  38.555  1.00  0.00     0.202 C 
BRANCH   5   6
ATOM      6  C   UNL A   1      50.091  23.512  38.734  1.00  0.00     0.261 C 
BRANCH   6   7
ATOM      7  O   UNL A   1      49.700  22.426  37.884  1.00  0.00    -0.463 OA
BRANCH   7   8
ATOM      8  C   UNL A   1      50.535  21.365  37.871  1.00  0.00     0.307 C 
ATOM      9  O   UNL A   1      51.368  21.150  36.994  1.00  0.00    -0.252 OA
BRANCH   8  10
ATOM     10  C   UNL A   1      50.462  20.477  39.090  1.00  0.00     0.147 C 
BRANCH  10  11
ATOM     11  C   UNL A   1      49.124  20.241  39.753  1.00  0.00     0.154 C 
ATOM     12  C   UNL A   1      45.738  17.729  42.268  1.00  0.00     0.107 C 
ATOM     13  C   UNL A   1      45.400  17.471  40.809  1.00  0.00     0.083 C 
ATOM     14  C   UNL A   1      47.109  18.345  42.430  1.00  0.00     0.073 C 
ATOM     15  C   UNL A   1      46.111  18.026  39.788  1.00  0.00     0.126 C 
ATOM     16  C   UNL A   1      47.762  18.808  41.355  1.00  0.00     0.099 C 
ATOM     17  N   UNL A   1      47.275  18.757  40.060  1.00  0.00    -0.258 N 
ATOM     18  S   UNL A   1      49.357  19.477  41.400  1.00  0.00    -0.093 SA
ATOM     19  C   UNL A   1      48.089  19.367  39.071  1.00  0.00     0.247 C 
ATOM     20  O   UNL A   1      47.942  19.314  37.857  1.00  0.00    -0.273 OA
BRANCH  12  21
ATOM     21  C   UNL A   1      45.572  16.535  43.212  1.00  0.00    -0.034 A 
ATOM     22  C   UNL A   1      45.022  14.127  44.564  1.00  0.00     0.118 A 
ATOM     23  C   UNL A   1      46.132  14.223  43.728  1.00  0.00     0.047 A 
ATOM     24  C   UNL A   1      44.227  15.252  44.783  1.00  0.00     0.047 A 
ATOM     25  C   UNL A   1      46.405  15.413  43.051  1.00  0.00     0.008 A 
ATOM     26  C   UNL A   1      44.503  16.453  44.119  1.00  0.00     0.008 A 
BRANCH  22  27
ATOM     27  O   UNL A   1      44.828  12.910  45.156  1.00  0.00    -0.497 OA
ATOM     28  C   UNL A   1      45.679  11.872  44.677  1.00  0.00     0.278 C 
ENDBRANCH  22  27
ENDBRANCH  12  21
BRANCH  13  29
ATOM     29  C   UNL A   1      44.250  16.668  40.546  1.00  0.00     0.100 C 
ATOM     30  N   UNL A   1      43.336  15.988  40.310  1.00  0.00    -0.193 NA
ENDBRANCH  13  29
BRANCH  14  31
ATOM     31  C   UNL A   1      47.837  18.163  43.751  1.00  0.00     0.098 C 
ATOM     32  N   UNL A   1      48.442  18.012  44.848  1.00  0.00    -0.193 NA
ENDBRANCH  14  31
BRANCH  15  33
ATOM     33  N   UNL A   1      45.709  17.899  38.486  1.00  0.00    -0.384 N 
ATOM     34  H   UNL A   1      45.912  18.611  37.837  1.00  0.00     0.158 HD
ATOM     35  H   UNL A   1      45.218  17.096  38.197  1.00  0.00     0.158 HD
ENDBRANCH  15  33
ENDBRANCH  10  11
ENDBRANCH   8  10
ENDBRANCH   7   8
ENDBRANCH   6   7
ENDBRANCH   5   6
ENDBRANCH   4   5
ENDBRANCH   3   4
ENDBRANCH   2   3
ENDBRANCH   1   2
BRANCH   1  36
ATOM     36  C   UNL A   1      48.072  28.131  38.741  1.00  0.00     0.188 C 
BRANCH  36  37
ATOM     37  C   UNL A   1      46.612  27.762  39.094  1.00  0.00     0.188 C 
BRANCH  37  38
ATOM     38  O   UNL A   1      46.288  26.388  39.028  1.00  0.00    -0.376 OA
BRANCH  38  39
ATOM     39  C   UNL A   1      45.448  25.914  37.988  1.00  0.00     0.202 C 
BRANCH  39  40
ATOM     40  C   UNL A   1      44.053  26.531  37.776  1.00  0.00     0.261 C 
BRANCH  40  41
ATOM     41  O   UNL A   1      42.929  25.645  37.868  1.00  0.00    -0.460 OA
BRANCH  41  42
ATOM     42  C   UNL A   1      42.008  25.708  36.881  1.00  0.00     0.338 C 
ATOM     43  O   UNL A   1      40.820  25.939  37.009  1.00  0.00    -0.246 OA
BRANCH  42  44
ATOM     44  C   UNL A   1      42.721  25.651  35.587  1.00  0.00     0.060 A 
ATOM     45  C   UNL A   1      43.479  24.513  35.278  1.00  0.00     0.016 A 
ATOM     46  C   UNL A   1      42.659  26.721  34.693  1.00  0.00     0.016 A 
ATOM     47  C   UNL A   1      44.215  24.460  34.096  1.00  0.00     0.010 A 
ATOM     48  C   UNL A   1      43.417  26.677  33.519  1.00  0.00     0.010 A 
ATOM     49  C   UNL A   1      44.230  25.564  33.237  1.00  0.00    -0.014 A 
BRANCH  49  50
ATOM     50  C   UNL A   1      45.239  25.630  32.152  1.00  0.00     0.031 A 
ATOM     51  C   UNL A   1      46.527  26.363  32.411  1.00  0.00     0.074 A 
ATOM     52  C   UNL A   1      45.027  25.038  30.964  1.00  0.00     0.049 A 
ATOM     53  N   UNL A   1      47.527  26.595  31.603  1.00  0.00    -0.248 NA
ATOM     54  C   UNL A   1      46.709  26.914  33.764  1.00  0.00     0.031 C 
ATOM     55  C   UNL A   1      43.834  24.275  30.601  1.00  0.00     0.029 A 
ATOM     56  N   UNL A   1      45.803  25.012  29.832  1.00  0.00    -0.354 N 
ATOM     57  C   UNL A   1      48.436  27.351  32.332  1.00  0.00     0.074 A 
ATOM     58  C   UNL A   1      47.866  27.546  33.647  1.00  0.00     0.031 C 
ATOM     59  C   UNL A   1      43.944  23.882  29.320  1.00  0.00     0.029 A 
ATOM     60  C   UNL A   1      45.194  24.397  28.763  1.00  0.00     0.049 A 
ATOM     61  H   UNL A   1      46.709  25.396  29.789  1.00  0.00     0.167 HD
ATOM     62  C   UNL A   1      49.638  27.838  31.944  1.00  0.00     0.034 A 
ATOM     63  C   UNL A   1      45.582  24.297  27.477  1.00  0.00     0.034 A 
ATOM     64  C   UNL A   1      50.203  27.639  30.637  1.00  0.00     0.049 A 
ATOM     65  C   UNL A   1      46.903  24.888  27.056  1.00  0.00     0.074 A 
ATOM     66  C   UNL A   1      51.435  28.051  30.161  1.00  0.00     0.029 A 
ATOM     67  N   UNL A   1      49.564  26.997  29.588  1.00  0.00    -0.354 N 
ATOM     68  N   UNL A   1      47.795  25.519  27.780  1.00  0.00    -0.248 NA
ATOM     69  C   UNL A   1      47.284  24.727  25.645  1.00  0.00     0.031 C 
ATOM     70  C   UNL A   1      51.515  27.713  28.808  1.00  0.00     0.029 A 
ATOM     71  C   UNL A   1      50.364  27.026  28.458  1.00  0.00     0.049 A 
ATOM     72  H   UNL A   1      48.673  26.582  29.637  1.00  0.00     0.167 HD
ATOM     73  C   UNL A   1      48.859  25.793  26.926  1.00  0.00     0.074 A 
ATOM     74  C   UNL A   1      48.506  25.242  25.633  1.00  0.00     0.031 C 
ATOM     75  C   UNL A   1      50.021  26.441  27.187  1.00  0.00     0.034 A 
BRANCH  62  76
ATOM     76  C   UNL A   1      50.421  28.651  32.943  1.00  0.00     0.023 A 
ATOM     77  C   UNL A   1      51.361  28.028  33.790  1.00  0.00     0.012 A 
ATOM     78  C   UNL A   1      50.255  30.049  33.007  1.00  0.00     0.148 A 
ATOM     79  C   UNL A   1      52.091  28.776  34.713  1.00  0.00     0.002 A 
ATOM     80  C   UNL A   1      51.024  30.794  33.891  1.00  0.00     0.091 A 
ATOM     81  F   UNL A   1      49.344  30.621  32.208  1.00  0.00    -0.205 F 
ATOM     82  C   UNL A   1      51.931  30.159  34.755  1.00  0.00     0.022 A 
BRANCH  80  83
ATOM     83  S   UNL A   1      50.952  32.587  33.964  1.00  0.00     0.127 S 
ATOM     84  O   UNL A   1      51.825  32.870  35.102  1.00  0.00    -0.237 OA
ATOM     85  O   UNL A   1      51.505  32.967  32.662  1.00  0.00    -0.237 OA
ATOM     86  O   UNL A   1      49.551  32.929  34.155  1.00  0.00    -0.744 OA
ENDBRANCH  80  83
ENDBRANCH  62  76
BRANCH  63  87
ATOM     87  C   UNL A   1      44.708  23.608  26.485  1.00  0.00     0.023 A 
ATOM     88  C   UNL A   1      43.613  24.288  25.920  1.00  0.00     0.012 A 
ATOM     89  C   UNL A   1      44.963  22.276  26.102  1.00  0.00     0.148 A 
ATOM     90  C   UNL A   1      42.766  23.644  25.018  1.00  0.00     0.002 A 
ATOM     91  C   UNL A   1      44.153  21.661  25.157  1.00  0.00     0.091 A 
ATOM     92  F   UNL A   1      46.004  21.643  26.661  1.00  0.00    -0.205 F 
ATOM     93  C   UNL A   1      43.040  22.335  24.629  1.00  0.00     0.022 A 
BRANCH  91  94
ATOM     94  S   UNL A   1      44.505  20.027  24.502  1.00  0.00     0.127 S 
ATOM     95  O   UNL A   1      45.745  19.688  25.196  1.00  0.00    -0.237 OA
ATOM     96  O   UNL A   1      43.328  19.273  24.936  1.00  0.00    -0.237 OA
ATOM     97  O   UNL A   1      44.615  20.193  23.060  1.00  0.00    -0.744 OA
ENDBRANCH  91  94
ENDBRANCH  63  87
BRANCH  75  98
ATOM     98  C   UNL A   1      51.035  26.545  26.074  1.00  0.00     0.023 A 
ATOM     99  C   UNL A   1      52.026  25.557  25.913  1.00  0.00     0.012 A 
ATOM    100  C   UNL A   1      50.956  27.601  25.142  1.00  0.00     0.148 A 
ATOM    101  C   UNL A   1      52.948  25.642  24.868  1.00  0.00     0.002 A 
ATOM    102  C   UNL A   1      51.839  27.646  24.073  1.00  0.00     0.091 A 
ATOM    103  F   UNL A   1      50.014  28.538  25.319  1.00  0.00    -0.205 F 
ATOM    104  C   UNL A   1      52.847  26.678  23.943  1.00  0.00     0.022 A 
BRANCH 102 105
ATOM    105  S   UNL A   1      51.723  28.885  22.777  1.00  0.00     0.127 S 
ATOM    106  O   UNL A   1      50.423  28.575  22.184  1.00  0.00    -0.237 OA
ATOM    107  O   UNL A   1      51.764  30.133  23.540  1.00  0.00    -0.237 OA
ATOM    108  O   UNL A   1      52.870  28.669  21.905  1.00  0.00    -0.744 OA
ENDBRANCH 102 105
ENDBRANCH  75  98
ENDBRANCH  49  50
ENDBRANCH  42  44
ENDBRANCH  41  42
ENDBRANCH  40  41
ENDBRANCH  39  40
ENDBRANCH  38  39
ENDBRANCH  37  38
ENDBRANCH  36  37
ENDBRANCH   1  36
TORSDOF 29
ENDMDL
