MODEL 1
REMARK VINA RESULT:     -10.9      0.000      0.000
REMARK SMILES C[C@@H]1CC[C@@H](C(=O)OCCOCCOCCOCCOC(=O)c2ccc(-c3c4nc(c(-c5cccc(S(=O)(=O)[O-])c5F)c5ccc([nH]5)c(-c5cccc(S(=O)(=O)[O-])c5F)c5nc(c(-c6cccc(S(=O)(=O)[O-])c6F)c6ccc3[nH]6)C=C5)C=C4)cc2)[C@H]2C(=O)N(c3ccccc3)C(=O)[C@@H]21
REMARK SMILES IDX 15 1 14 2 13 3 12 4 11 5 10 6 9 7 8 8 6 9 7 10 5 11 1 12
REMARK SMILES IDX 2 13 3 14 98 15 4 16 86 17 96 18 87 19 89 20 97 21 88 22
REMARK SMILES IDX 90 23 91 24 95 25 92 26 94 27 93 28 16 29 17 30 18 31 19 32
REMARK SMILES IDX 20 33 21 34 22 35 23 36 24 37 85 38 25 39 84 40 26 41 27 42
REMARK SMILES IDX 28 43 78 44 29 45 83 46 77 47 79 48 30 49 82 50 76 51 75 52
REMARK SMILES IDX 31 54 63 55 43 56 62 57 44 58 47 59 61 60 80 61 45 62 46 63
REMARK SMILES IDX 60 65 81 66 48 67 32 68 33 69 41 70 34 71 36 72 42 73 35 74
REMARK SMILES IDX 37 75 38 76 39 77 40 78 64 79 65 80 73 81 66 82 68 83 74 84
REMARK SMILES IDX 67 85 69 86 70 87 71 88 72 89 49 90 50 91 58 92 51 93 53 94
REMARK SMILES IDX 59 95 52 96 54 97 55 98 56 99 57 100
REMARK H PARENT 79 53 47 64
REMARK Flexibility Score: inf
ROOT
ATOM      1  C   UNL A   1      33.803  28.476  26.608  1.00  0.00     0.188 C 
ENDROOT
BRANCH   1   2
ATOM      2  O   UNL A   1      34.109  28.845  25.282  1.00  0.00    -0.377 OA
BRANCH   2   3
ATOM      3  C   UNL A   1      33.090  28.880  24.306  1.00  0.00     0.188 C 
BRANCH   3   4
ATOM      4  C   UNL A   1      31.730  28.181  24.312  1.00  0.00     0.188 C 
BRANCH   4   5
ATOM      5  O   UNL A   1      31.345  27.402  23.214  1.00  0.00    -0.376 OA
BRANCH   5   6
ATOM      6  C   UNL A   1      32.241  26.823  22.293  1.00  0.00     0.202 C 
BRANCH   6   7
ATOM      7  C   UNL A   1      32.177  25.401  21.703  1.00  0.00     0.261 C 
BRANCH   7   8
ATOM      8  O   UNL A   1      32.563  24.266  22.501  1.00  0.00    -0.463 OA
BRANCH   8   9
ATOM      9  C   UNL A   1      31.736  23.986  23.549  1.00  0.00     0.309 C 
ATOM     10  O   UNL A   1      30.511  24.020  23.470  1.00  0.00    -0.252 OA
BRANCH   9  11
ATOM     11  C   UNL A   1      32.444  23.727  24.886  1.00  0.00     0.112 C 
ATOM     12  C   UNL A   1      35.903  23.306  26.434  1.00  0.00     0.008 C 
ATOM     13  C   UNL A   1      35.477  23.399  24.963  1.00  0.00    -0.001 C 
ATOM     14  C   UNL A   1      34.819  24.761  24.652  1.00  0.00     0.005 C 
ATOM     15  C   UNL A   1      34.509  22.304  24.532  1.00  0.00     0.095 C 
ATOM     16  C   UNL A   1      33.382  24.919  25.195  1.00  0.00     0.016 C 
ATOM     17  C   UNL A   1      33.180  22.429  25.235  1.00  0.00     0.106 C 
ATOM     18  C   UNL A   1      34.883  20.870  24.812  1.00  0.00     0.237 C 
ATOM     19  C   UNL A   1      32.614  21.031  25.105  1.00  0.00     0.238 C 
ATOM     20  N   UNL A   1      33.696  20.162  24.983  1.00  0.00    -0.250 N 
ATOM     21  O   UNL A   1      36.035  20.466  24.790  1.00  0.00    -0.274 OA
ATOM     22  O   UNL A   1      31.421  20.782  25.204  1.00  0.00    -0.274 OA
BRANCH  20  23
ATOM     23  C   UNL A   1      33.632  18.731  24.921  1.00  0.00     0.052 A 
ATOM     24  C   UNL A   1      34.212  18.022  23.852  1.00  0.00     0.027 A 
ATOM     25  C   UNL A   1      32.893  17.982  25.850  1.00  0.00     0.027 A 
ATOM     26  C   UNL A   1      33.982  16.655  23.659  1.00  0.00     0.002 A 
ATOM     27  C   UNL A   1      32.637  16.615  25.643  1.00  0.00     0.002 A 
ATOM     28  C   UNL A   1      33.166  15.956  24.537  1.00  0.00     0.000 A 
ENDBRANCH  20  23
ENDBRANCH   9  11
ENDBRANCH   8   9
ENDBRANCH   7   8
ENDBRANCH   6   7
ENDBRANCH   5   6
ENDBRANCH   4   5
ENDBRANCH   3   4
ENDBRANCH   2   3
ENDBRANCH   1   2
BRANCH   1  29
ATOM     29  C   UNL A   1      34.029  29.597  27.624  1.00  0.00     0.188 C 
BRANCH  29  30
ATOM     30  O   UNL A   1      33.794  30.898  27.116  1.00  0.00    -0.376 OA
BRANCH  30  31
ATOM     31  C   UNL A   1      32.509  31.498  27.223  1.00  0.00     0.202 C 
BRANCH  31  32
ATOM     32  C   UNL A   1      32.231  33.013  27.255  1.00  0.00     0.261 C 
BRANCH  32  33
ATOM     33  O   UNL A   1      33.301  33.897  27.558  1.00  0.00    -0.460 OA
BRANCH  33  34
ATOM     34  C   UNL A   1      33.367  34.431  28.792  1.00  0.00     0.338 C 
ATOM     35  O   UNL A   1      32.557  35.133  29.348  1.00  0.00    -0.246 OA
BRANCH  34  36
ATOM     36  C   UNL A   1      34.566  33.809  29.389  1.00  0.00     0.060 A 
ATOM     37  C   UNL A   1      34.392  32.762  30.301  1.00  0.00     0.016 A 
ATOM     38  C   UNL A   1      35.844  34.192  28.967  1.00  0.00     0.016 A 
ATOM     39  C   UNL A   1      35.503  32.101  30.808  1.00  0.00     0.010 A 
ATOM     40  C   UNL A   1      36.958  33.550  29.500  1.00  0.00     0.010 A 
ATOM     41  C   UNL A   1      36.788  32.520  30.439  1.00  0.00    -0.014 A 
BRANCH  41  42
ATOM     42  C   UNL A   1      37.949  32.002  31.188  1.00  0.00     0.031 A 
ATOM     43  C   UNL A   1      38.717  30.864  30.586  1.00  0.00     0.074 A 
ATOM     44  C   UNL A   1      38.307  32.550  32.360  1.00  0.00     0.049 A 
ATOM     45  N   UNL A   1      39.756  30.228  31.056  1.00  0.00    -0.248 NA
ATOM     46  C   UNL A   1      38.254  30.378  29.274  1.00  0.00     0.031 C 
ATOM     47  C   UNL A   1      37.629  33.671  33.010  1.00  0.00     0.029 A 
ATOM     48  N   UNL A   1      39.318  32.219  33.224  1.00  0.00    -0.354 N 
ATOM     49  C   UNL A   1      40.053  29.252  30.113  1.00  0.00     0.074 A 
ATOM     50  C   UNL A   1      39.085  29.373  29.048  1.00  0.00     0.031 C 
ATOM     51  C   UNL A   1      38.226  33.915  34.190  1.00  0.00     0.029 A 
ATOM     52  C   UNL A   1      39.301  32.947  34.390  1.00  0.00     0.049 A 
ATOM     53  H   UNL A   1      39.991  31.527  33.028  1.00  0.00     0.167 HD
ATOM     54  C   UNL A   1      41.052  28.341  30.136  1.00  0.00     0.034 A 
ATOM     55  C   UNL A   1      40.052  32.814  35.501  1.00  0.00     0.034 A 
ATOM     56  C   UNL A   1      42.001  28.234  31.208  1.00  0.00     0.049 A 
ATOM     57  C   UNL A   1      41.121  31.753  35.526  1.00  0.00     0.074 A 
ATOM     58  C   UNL A   1      43.078  27.378  31.322  1.00  0.00     0.029 A 
ATOM     59  N   UNL A   1      41.965  28.995  32.369  1.00  0.00    -0.354 N 
ATOM     60  N   UNL A   1      41.473  30.914  34.580  1.00  0.00    -0.248 NA
ATOM     61  C   UNL A   1      41.911  31.631  36.758  1.00  0.00     0.031 C 
ATOM     62  C   UNL A   1      43.668  27.589  32.572  1.00  0.00     0.029 A 
ATOM     63  C   UNL A   1      42.983  28.607  33.220  1.00  0.00     0.049 A 
ATOM     64  H   UNL A   1      41.311  29.706  32.558  1.00  0.00     0.167 HD
ATOM     65  C   UNL A   1      42.536  30.180  35.092  1.00  0.00     0.074 A 
ATOM     66  C   UNL A   1      42.790  30.696  36.423  1.00  0.00     0.031 C 
ATOM     67  C   UNL A   1      43.231  29.163  34.526  1.00  0.00     0.034 A 
BRANCH  54  68
ATOM     68  C   UNL A   1      41.156  27.388  28.975  1.00  0.00     0.023 A 
ATOM     69  C   UNL A   1      40.363  26.223  28.946  1.00  0.00     0.012 A 
ATOM     70  C   UNL A   1      42.016  27.667  27.896  1.00  0.00     0.148 A 
ATOM     71  C   UNL A   1      40.448  25.334  27.875  1.00  0.00     0.002 A 
ATOM     72  C   UNL A   1      42.060  26.800  26.810  1.00  0.00     0.091 A 
ATOM     73  F   UNL A   1      42.781  28.765  27.955  1.00  0.00    -0.205 F 
ATOM     74  C   UNL A   1      41.287  25.628  26.804  1.00  0.00     0.022 A 
BRANCH  72  75
ATOM     75  S   UNL A   1      43.052  27.127  25.349  1.00  0.00     0.127 S 
ATOM     76  O   UNL A   1      42.991  25.839  24.657  1.00  0.00    -0.237 OA
ATOM     77  O   UNL A   1      42.298  28.201  24.703  1.00  0.00    -0.237 OA
ATOM     78  O   UNL A   1      44.370  27.510  25.832  1.00  0.00    -0.744 OA
ENDBRANCH  72  75
ENDBRANCH  54  68
BRANCH  55  79
ATOM     79  C   UNL A   1      39.817  33.704  36.673  1.00  0.00     0.023 A 
ATOM     80  C   UNL A   1      40.224  35.051  36.623  1.00  0.00     0.012 A 
ATOM     81  C   UNL A   1      39.169  33.226  37.832  1.00  0.00     0.148 A 
ATOM     82  C   UNL A   1      40.018  35.898  37.714  1.00  0.00     0.002 A 
ATOM     83  C   UNL A   1      38.914  34.089  38.890  1.00  0.00     0.091 A 
ATOM     84  F   UNL A   1      38.803  31.938  37.868  1.00  0.00    -0.205 F 
ATOM     85  C   UNL A   1      39.354  35.420  38.842  1.00  0.00     0.022 A 
BRANCH  83  86
ATOM     86  S   UNL A   1      37.949  33.599  40.324  1.00  0.00     0.127 S 
ATOM     87  O   UNL A   1      37.871  34.849  41.076  1.00  0.00    -0.237 OA
ATOM     88  O   UNL A   1      36.693  33.170  39.707  1.00  0.00    -0.237 OA
ATOM     89  O   UNL A   1      38.701  32.525  40.958  1.00  0.00    -0.744 OA
ENDBRANCH  83  86
ENDBRANCH  55  79
BRANCH  67  90
ATOM     90  C   UNL A   1      44.342  28.545  35.333  1.00  0.00     0.023 A 
ATOM     91  C   UNL A   1      45.649  29.061  35.232  1.00  0.00     0.012 A 
ATOM     92  C   UNL A   1      44.071  27.519  36.259  1.00  0.00     0.148 A 
ATOM     93  C   UNL A   1      46.676  28.543  36.020  1.00  0.00     0.002 A 
ATOM     94  C   UNL A   1      45.086  27.047  37.080  1.00  0.00     0.091 A 
ATOM     95  F   UNL A   1      42.821  27.038  36.330  1.00  0.00    -0.205 F 
ATOM     96  C   UNL A   1      46.392  27.547  36.952  1.00  0.00     0.022 A 
BRANCH  94  97
ATOM     97  S   UNL A   1      44.798  25.838  38.376  1.00  0.00     0.127 S 
ATOM     98  O   UNL A   1      46.164  25.510  38.785  1.00  0.00    -0.237 OA
ATOM     99  O   UNL A   1      44.037  26.613  39.356  1.00  0.00    -0.237 OA
ATOM    100  O   UNL A   1      44.060  24.746  37.757  1.00  0.00    -0.744 OA
ENDBRANCH  94  97
ENDBRANCH  67  90
ENDBRANCH  41  42
ENDBRANCH  34  36
ENDBRANCH  33  34
ENDBRANCH  32  33
ENDBRANCH  31  32
ENDBRANCH  30  31
ENDBRANCH  29  30
ENDBRANCH   1  29
TORSDOF 24
ENDMDL
MODEL 2
REMARK VINA RESULT:     -10.3      1.456      7.457
REMARK SMILES C[C@@H]1CC[C@@H](C(=O)OCCOCCOCCOCCOC(=O)c2ccc(-c3c4nc(c(-c5cccc(S(=O)(=O)[O-])c5F)c5ccc([nH]5)c(-c5cccc(S(=O)(=O)[O-])c5F)c5nc(c(-c6cccc(S(=O)(=O)[O-])c6F)c6ccc3[nH]6)C=C5)C=C4)cc2)[C@H]2C(=O)N(c3ccccc3)C(=O)[C@@H]21
REMARK SMILES IDX 15 1 14 2 13 3 12 4 11 5 10 6 9 7 8 8 6 9 7 10 5 11 1 12
REMARK SMILES IDX 2 13 3 14 98 15 4 16 86 17 96 18 87 19 89 20 97 21 88 22
REMARK SMILES IDX 90 23 91 24 95 25 92 26 94 27 93 28 16 29 17 30 18 31 19 32
REMARK SMILES IDX 20 33 21 34 22 35 23 36 24 37 85 38 25 39 84 40 26 41 27 42
REMARK SMILES IDX 28 43 78 44 29 45 83 46 77 47 79 48 30 49 82 50 76 51 75 52
REMARK SMILES IDX 31 54 63 55 43 56 62 57 44 58 47 59 61 60 80 61 45 62 46 63
REMARK SMILES IDX 60 65 81 66 48 67 32 68 33 69 41 70 34 71 36 72 42 73 35 74
REMARK SMILES IDX 37 75 38 76 39 77 40 78 64 79 65 80 73 81 66 82 68 83 74 84
REMARK SMILES IDX 67 85 69 86 70 87 71 88 72 89 49 90 50 91 58 92 51 93 53 94
REMARK SMILES IDX 59 95 52 96 54 97 55 98 56 99 57 100
REMARK H PARENT 79 53 47 64
REMARK Flexibility Score: inf
ROOT
ATOM      1  C   UNL A   1      33.916  29.051  26.380  1.00  0.00     0.188 C 
ENDROOT
BRANCH   1   2
ATOM      2  O   UNL A   1      33.793  29.617  25.095  1.00  0.00    -0.377 OA
BRANCH   2   3
ATOM      3  C   UNL A   1      32.693  29.279  24.278  1.00  0.00     0.188 C 
BRANCH   3   4
ATOM      4  C   UNL A   1      31.626  28.208  24.500  1.00  0.00     0.188 C 
BRANCH   4   5
ATOM      5  O   UNL A   1      30.593  28.051  23.566  1.00  0.00    -0.376 OA
BRANCH   5   6
ATOM      6  C   UNL A   1      30.281  26.839  22.918  1.00  0.00     0.202 C 
BRANCH   6   7
ATOM      7  C   UNL A   1      29.865  25.511  23.580  1.00  0.00     0.261 C 
BRANCH   7   8
ATOM      8  O   UNL A   1      30.846  24.693  24.244  1.00  0.00    -0.463 OA
BRANCH   8   9
ATOM      9  C   UNL A   1      30.796  24.719  25.608  1.00  0.00     0.309 C 
ATOM     10  O   UNL A   1      29.840  25.163  26.239  1.00  0.00    -0.252 OA
BRANCH   9  11
ATOM     11  C   UNL A   1      32.073  24.249  26.316  1.00  0.00     0.112 C 
ATOM     12  C   UNL A   1      35.869  24.180  25.957  1.00  0.00     0.008 C 
ATOM     13  C   UNL A   1      34.783  24.596  24.955  1.00  0.00    -0.001 C 
ATOM     14  C   UNL A   1      33.976  25.808  25.471  1.00  0.00     0.005 C 
ATOM     15  C   UNL A   1      33.794  23.485  24.622  1.00  0.00     0.095 C 
ATOM     16  C   UNL A   1      32.971  25.479  26.596  1.00  0.00     0.016 C 
ATOM     17  C   UNL A   1      32.962  23.104  25.822  1.00  0.00     0.106 C 
ATOM     18  C   UNL A   1      34.342  22.152  24.178  1.00  0.00     0.237 C 
ATOM     19  C   UNL A   1      32.488  21.713  25.456  1.00  0.00     0.238 C 
ATOM     20  N   UNL A   1      33.429  21.180  24.577  1.00  0.00    -0.250 N 
ATOM     21  O   UNL A   1      35.364  22.038  23.518  1.00  0.00    -0.274 OA
ATOM     22  O   UNL A   1      31.507  21.188  25.963  1.00  0.00    -0.274 OA
BRANCH  20  23
ATOM     23  C   UNL A   1      33.428  19.851  24.039  1.00  0.00     0.052 A 
ATOM     24  C   UNL A   1      32.474  19.451  23.084  1.00  0.00     0.027 A 
ATOM     25  C   UNL A   1      34.295  18.857  24.520  1.00  0.00     0.027 A 
ATOM     26  C   UNL A   1      32.321  18.112  22.705  1.00  0.00     0.002 A 
ATOM     27  C   UNL A   1      34.126  17.508  24.163  1.00  0.00     0.002 A 
ATOM     28  C   UNL A   1      33.125  17.134  23.270  1.00  0.00     0.000 A 
ENDBRANCH  20  23
ENDBRANCH   9  11
ENDBRANCH   8   9
ENDBRANCH   7   8
ENDBRANCH   6   7
ENDBRANCH   5   6
ENDBRANCH   4   5
ENDBRANCH   3   4
ENDBRANCH   2   3
ENDBRANCH   1   2
BRANCH   1  29
ATOM     29  C   UNL A   1      34.103  30.086  27.491  1.00  0.00     0.188 C 
BRANCH  29  30
ATOM     30  O   UNL A   1      33.775  31.411  27.112  1.00  0.00    -0.376 OA
BRANCH  30  31
ATOM     31  C   UNL A   1      32.463  31.920  27.315  1.00  0.00     0.202 C 
BRANCH  31  32
ATOM     32  C   UNL A   1      32.090  33.410  27.426  1.00  0.00     0.261 C 
BRANCH  32  33
ATOM     33  O   UNL A   1      33.127  34.359  27.640  1.00  0.00    -0.460 OA
BRANCH  33  34
ATOM     34  C   UNL A   1      33.372  34.775  28.896  1.00  0.00     0.338 C 
ATOM     35  O   UNL A   1      32.728  35.543  29.568  1.00  0.00    -0.246 OA
BRANCH  34  36
ATOM     36  C   UNL A   1      34.502  33.934  29.339  1.00  0.00     0.060 A 
ATOM     37  C   UNL A   1      34.287  33.019  30.376  1.00  0.00     0.016 A 
ATOM     38  C   UNL A   1      35.726  33.983  28.663  1.00  0.00     0.016 A 
ATOM     39  C   UNL A   1      35.308  32.155  30.751  1.00  0.00     0.010 A 
ATOM     40  C   UNL A   1      36.758  33.138  29.060  1.00  0.00     0.010 A 
ATOM     41  C   UNL A   1      36.556  32.240  30.121  1.00  0.00    -0.014 A 
BRANCH  41  42
ATOM     42  C   UNL A   1      37.701  31.519  30.709  1.00  0.00     0.031 A 
ATOM     43  C   UNL A   1      38.042  31.798  32.142  1.00  0.00     0.074 A 
ATOM     44  C   UNL A   1      38.400  30.633  29.981  1.00  0.00     0.049 A 
ATOM     45  N   UNL A   1      39.005  31.309  32.873  1.00  0.00    -0.248 NA
ATOM     46  C   UNL A   1      37.174  32.757  32.849  1.00  0.00     0.031 C 
ATOM     47  C   UNL A   1      38.128  30.286  28.586  1.00  0.00     0.029 A 
ATOM     48  N   UNL A   1      39.497  29.881  30.309  1.00  0.00    -0.354 N 
ATOM     49  C   UNL A   1      38.879  31.919  34.115  1.00  0.00     0.074 A 
ATOM     50  C   UNL A   1      37.750  32.818  34.040  1.00  0.00     0.031 C 
ATOM     51  C   UNL A   1      39.057  29.410  28.167  1.00  0.00     0.029 A 
ATOM     52  C   UNL A   1      40.004  29.164  29.252  1.00  0.00     0.049 A 
ATOM     53  H   UNL A   1      39.884  29.857  31.214  1.00  0.00     0.167 HD
ATOM     54  C   UNL A   1      39.636  31.736  35.220  1.00  0.00     0.034 A 
ATOM     55  C   UNL A   1      41.127  28.424  29.171  1.00  0.00     0.034 A 
ATOM     56  C   UNL A   1      40.757  30.841  35.271  1.00  0.00     0.049 A 
ATOM     57  C   UNL A   1      41.987  28.282  30.400  1.00  0.00     0.074 A 
ATOM     58  C   UNL A   1      41.573  30.544  36.346  1.00  0.00     0.029 A 
ATOM     59  N   UNL A   1      41.237  30.119  34.188  1.00  0.00    -0.354 N 
ATOM     60  N   UNL A   1      41.791  28.767  31.604  1.00  0.00    -0.248 NA
ATOM     61  C   UNL A   1      43.209  27.477  30.270  1.00  0.00     0.031 C 
ATOM     62  C   UNL A   1      42.575  29.677  35.901  1.00  0.00     0.029 A 
ATOM     63  C   UNL A   1      42.359  29.400  34.559  1.00  0.00     0.049 A 
ATOM     64  H   UNL A   1      40.838  30.118  33.288  1.00  0.00     0.167 HD
ATOM     65  C   UNL A   1      42.850  28.309  32.380  1.00  0.00     0.074 A 
ATOM     66  C   UNL A   1      43.669  27.484  31.513  1.00  0.00     0.031 C 
ATOM     67  C   UNL A   1      43.133  28.559  33.682  1.00  0.00     0.034 A 
BRANCH  54  68
ATOM     68  C   UNL A   1      39.279  32.527  36.451  1.00  0.00     0.023 A 
ATOM     69  C   UNL A   1      39.832  33.809  36.649  1.00  0.00     0.012 A 
ATOM     70  C   UNL A   1      38.368  32.013  37.392  1.00  0.00     0.148 A 
ATOM     71  C   UNL A   1      39.509  34.553  37.783  1.00  0.00     0.002 A 
ATOM     72  C   UNL A   1      38.014  32.780  38.496  1.00  0.00     0.091 A 
ATOM     73  F   UNL A   1      37.875  30.783  37.199  1.00  0.00    -0.205 F 
ATOM     74  C   UNL A   1      38.592  34.044  38.699  1.00  0.00     0.022 A 
BRANCH  72  75
ATOM     75  S   UNL A   1      36.787  32.246  39.694  1.00  0.00     0.127 S 
ATOM     76  O   UNL A   1      37.355  30.978  40.153  1.00  0.00    -0.237 OA
ATOM     77  O   UNL A   1      36.834  33.326  40.679  1.00  0.00    -0.237 OA
ATOM     78  O   UNL A   1      35.532  32.136  38.966  1.00  0.00    -0.744 OA
ENDBRANCH  72  75
ENDBRANCH  54  68
BRANCH  55  79
ATOM     79  C   UNL A   1      41.499  27.767  27.885  1.00  0.00     0.023 A 
ATOM     80  C   UNL A   1      41.881  28.552  26.781  1.00  0.00     0.012 A 
ATOM     81  C   UNL A   1      41.496  26.362  27.759  1.00  0.00     0.148 A 
ATOM     82  C   UNL A   1      42.226  27.955  25.568  1.00  0.00     0.002 A 
ATOM     83  C   UNL A   1      41.898  25.772  26.567  1.00  0.00     0.091 A 
ATOM     84  F   UNL A   1      41.114  25.631  28.815  1.00  0.00    -0.205 F 
ATOM     85  C   UNL A   1      42.245  26.566  25.464  1.00  0.00     0.022 A 
BRANCH  83  86
ATOM     86  S   UNL A   1      42.081  23.994  26.384  1.00  0.00     0.127 S 
ATOM     87  O   UNL A   1      42.708  23.890  25.069  1.00  0.00    -0.237 OA
ATOM     88  O   UNL A   1      42.953  23.665  27.512  1.00  0.00    -0.237 OA
ATOM     89  O   UNL A   1      40.736  23.445  26.488  1.00  0.00    -0.744 OA
ENDBRANCH  83  86
ENDBRANCH  55  79
BRANCH  67  90
ATOM     90  C   UNL A   1      44.371  27.924  34.259  1.00  0.00     0.023 A 
ATOM     91  C   UNL A   1      45.598  28.615  34.209  1.00  0.00     0.012 A 
ATOM     92  C   UNL A   1      44.297  26.689  34.931  1.00  0.00     0.148 A 
ATOM     93  C   UNL A   1      46.740  28.071  34.796  1.00  0.00     0.002 A 
ATOM     94  C   UNL A   1      45.424  26.180  35.561  1.00  0.00     0.091 A 
ATOM     95  F   UNL A   1      43.120  26.046  34.957  1.00  0.00    -0.205 F 
ATOM     96  C   UNL A   1      46.650  26.862  35.482  1.00  0.00     0.022 A 
BRANCH  94  97
ATOM     97  S   UNL A   1      45.386  24.682  36.551  1.00  0.00     0.127 S 
ATOM     98  O   UNL A   1      44.437  25.046  37.603  1.00  0.00    -0.237 OA
ATOM     99  O   UNL A   1      44.887  23.694  35.594  1.00  0.00    -0.237 OA
ATOM    100  O   UNL A   1      46.753  24.458  37.001  1.00  0.00    -0.744 OA
ENDBRANCH  94  97
ENDBRANCH  67  90
ENDBRANCH  41  42
ENDBRANCH  34  36
ENDBRANCH  33  34
ENDBRANCH  32  33
ENDBRANCH  31  32
ENDBRANCH  30  31
ENDBRANCH  29  30
ENDBRANCH   1  29
TORSDOF 24
ENDMDL
MODEL 3
REMARK VINA RESULT:     -10.2      1.684      2.426
REMARK SMILES C[C@@H]1CC[C@@H](C(=O)OCCOCCOCCOCCOC(=O)c2ccc(-c3c4nc(c(-c5cccc(S(=O)(=O)[O-])c5F)c5ccc([nH]5)c(-c5cccc(S(=O)(=O)[O-])c5F)c5nc(c(-c6cccc(S(=O)(=O)[O-])c6F)c6ccc3[nH]6)C=C5)C=C4)cc2)[C@H]2C(=O)N(c3ccccc3)C(=O)[C@@H]21
REMARK SMILES IDX 15 1 14 2 13 3 12 4 11 5 10 6 9 7 8 8 6 9 7 10 5 11 1 12
REMARK SMILES IDX 2 13 3 14 98 15 4 16 86 17 96 18 87 19 89 20 97 21 88 22
REMARK SMILES IDX 90 23 91 24 95 25 92 26 94 27 93 28 16 29 17 30 18 31 19 32
REMARK SMILES IDX 20 33 21 34 22 35 23 36 24 37 85 38 25 39 84 40 26 41 27 42
REMARK SMILES IDX 28 43 78 44 29 45 83 46 77 47 79 48 30 49 82 50 76 51 75 52
REMARK SMILES IDX 31 54 63 55 43 56 62 57 44 58 47 59 61 60 80 61 45 62 46 63
REMARK SMILES IDX 60 65 81 66 48 67 32 68 33 69 41 70 34 71 36 72 42 73 35 74
REMARK SMILES IDX 37 75 38 76 39 77 40 78 64 79 65 80 73 81 66 82 68 83 74 84
REMARK SMILES IDX 67 85 69 86 70 87 71 88 72 89 49 90 50 91 58 92 51 93 53 94
REMARK SMILES IDX 59 95 52 96 54 97 55 98 56 99 57 100
REMARK H PARENT 79 53 47 64
REMARK Flexibility Score: inf
ROOT
ATOM      1  C   UNL A   1      34.364  29.061  27.455  1.00  0.00     0.188 C 
ENDROOT
BRANCH   1   2
ATOM      2  O   UNL A   1      33.177  28.987  26.697  1.00  0.00    -0.377 OA
BRANCH   2   3
ATOM      3  C   UNL A   1      33.157  29.465  25.369  1.00  0.00     0.188 C 
BRANCH   3   4
ATOM      4  C   UNL A   1      31.968  29.604  24.418  1.00  0.00     0.188 C 
BRANCH   4   5
ATOM      5  O   UNL A   1      30.821  28.826  24.620  1.00  0.00    -0.376 OA
BRANCH   5   6
ATOM      6  C   UNL A   1      30.449  27.729  23.817  1.00  0.00     0.202 C 
BRANCH   6   7
ATOM      7  C   UNL A   1      30.783  27.511  22.329  1.00  0.00     0.261 C 
BRANCH   7   8
ATOM      8  O   UNL A   1      31.767  26.534  21.941  1.00  0.00    -0.463 OA
BRANCH   8   9
ATOM      9  C   UNL A   1      32.459  25.967  22.970  1.00  0.00     0.309 C 
ATOM     10  O   UNL A   1      33.329  26.558  23.605  1.00  0.00    -0.252 OA
BRANCH   9  11
ATOM     11  C   UNL A   1      32.155  24.484  23.221  1.00  0.00     0.112 C 
ATOM     12  C   UNL A   1      30.996  22.058  25.925  1.00  0.00     0.008 C 
ATOM     13  C   UNL A   1      31.384  23.540  26.019  1.00  0.00    -0.001 C 
ATOM     14  C   UNL A   1      30.439  24.424  25.175  1.00  0.00     0.005 C 
ATOM     15  C   UNL A   1      32.813  23.832  25.578  1.00  0.00     0.095 C 
ATOM     16  C   UNL A   1      30.675  24.342  23.651  1.00  0.00     0.016 C 
ATOM     17  C   UNL A   1      33.006  23.566  24.105  1.00  0.00     0.106 C 
ATOM     18  C   UNL A   1      33.929  23.026  26.194  1.00  0.00     0.237 C 
ATOM     19  C   UNL A   1      34.505  23.385  24.004  1.00  0.00     0.238 C 
ATOM     20  N   UNL A   1      34.948  22.946  25.250  1.00  0.00    -0.250 N 
ATOM     21  O   UNL A   1      33.902  22.624  27.348  1.00  0.00    -0.274 OA
ATOM     22  O   UNL A   1      35.124  23.518  22.958  1.00  0.00    -0.274 OA
BRANCH  20  23
ATOM     23  C   UNL A   1      36.288  22.564  25.587  1.00  0.00     0.052 A 
ATOM     24  C   UNL A   1      37.194  23.492  26.135  1.00  0.00     0.027 A 
ATOM     25  C   UNL A   1      36.796  21.292  25.280  1.00  0.00     0.027 A 
ATOM     26  C   UNL A   1      38.557  23.205  26.274  1.00  0.00     0.002 A 
ATOM     27  C   UNL A   1      38.168  21.009  25.392  1.00  0.00     0.002 A 
ATOM     28  C   UNL A   1      39.052  21.973  25.870  1.00  0.00     0.000 A 
ENDBRANCH  20  23
ENDBRANCH   9  11
ENDBRANCH   8   9
ENDBRANCH   7   8
ENDBRANCH   6   7
ENDBRANCH   5   6
ENDBRANCH   4   5
ENDBRANCH   3   4
ENDBRANCH   2   3
ENDBRANCH   1   2
BRANCH   1  29
ATOM     29  C   UNL A   1      34.999  30.453  27.465  1.00  0.00     0.188 C 
BRANCH  29  30
ATOM     30  O   UNL A   1      34.204  31.450  28.082  1.00  0.00    -0.376 OA
BRANCH  30  31
ATOM     31  C   UNL A   1      33.349  32.280  27.306  1.00  0.00     0.202 C 
BRANCH  31  32
ATOM     32  C   UNL A   1      32.904  33.705  27.684  1.00  0.00     0.261 C 
BRANCH  32  33
ATOM     33  O   UNL A   1      32.604  33.988  29.045  1.00  0.00    -0.460 OA
BRANCH  33  34
ATOM     34  C   UNL A   1      33.289  34.965  29.667  1.00  0.00     0.338 C 
ATOM     35  O   UNL A   1      32.938  36.099  29.890  1.00  0.00    -0.246 OA
BRANCH  34  36
ATOM     36  C   UNL A   1      34.492  34.286  30.187  1.00  0.00     0.060 A 
ATOM     37  C   UNL A   1      34.328  33.251  31.113  1.00  0.00     0.016 A 
ATOM     38  C   UNL A   1      35.757  34.606  29.680  1.00  0.00     0.016 A 
ATOM     39  C   UNL A   1      35.437  32.537  31.550  1.00  0.00     0.010 A 
ATOM     40  C   UNL A   1      36.871  33.910  30.142  1.00  0.00     0.010 A 
ATOM     41  C   UNL A   1      36.713  32.891  31.096  1.00  0.00    -0.014 A 
BRANCH  41  42
ATOM     42  C   UNL A   1      37.894  32.319  31.769  1.00  0.00     0.031 A 
ATOM     43  C   UNL A   1      38.617  31.201  31.081  1.00  0.00     0.074 A 
ATOM     44  C   UNL A   1      38.309  32.801  32.952  1.00  0.00     0.049 A 
ATOM     45  N   UNL A   1      39.663  30.525  31.475  1.00  0.00    -0.248 NA
ATOM     46  C   UNL A   1      38.093  30.789  29.766  1.00  0.00     0.031 C 
ATOM     47  C   UNL A   1      37.677  33.898  33.684  1.00  0.00     0.029 A 
ATOM     48  N   UNL A   1      39.348  32.411  33.756  1.00  0.00    -0.354 N 
ATOM     49  C   UNL A   1      39.904  29.593  30.473  1.00  0.00     0.074 A 
ATOM     50  C   UNL A   1      38.896  29.783  29.456  1.00  0.00     0.031 C 
ATOM     51  C   UNL A   1      38.325  34.073  34.849  1.00  0.00     0.029 A 
ATOM     52  C   UNL A   1      39.391  33.079  34.955  1.00  0.00     0.049 A 
ATOM     53  H   UNL A   1      40.000  31.719  33.498  1.00  0.00     0.167 HD
ATOM     54  C   UNL A   1      40.886  28.667  30.410  1.00  0.00     0.034 A 
ATOM     55  C   UNL A   1      40.183  32.879  36.027  1.00  0.00     0.034 A 
ATOM     56  C   UNL A   1      41.876  28.492  31.435  1.00  0.00     0.049 A 
ATOM     57  C   UNL A   1      41.233  31.801  35.955  1.00  0.00     0.074 A 
ATOM     58  C   UNL A   1      42.942  27.614  31.461  1.00  0.00     0.029 A 
ATOM     59  N   UNL A   1      41.901  29.194  32.632  1.00  0.00    -0.354 N 
ATOM     60  N   UNL A   1      41.532  31.006  34.954  1.00  0.00    -0.248 NA
ATOM     61  C   UNL A   1      42.070  31.605  37.146  1.00  0.00     0.031 C 
ATOM     62  C   UNL A   1      43.586  27.752  32.695  1.00  0.00     0.029 A 
ATOM     63  C   UNL A   1      42.946  28.747  33.420  1.00  0.00     0.049 A 
ATOM     64  H   UNL A   1      41.267  29.904  32.884  1.00  0.00     0.167 HD
ATOM     65  C   UNL A   1      42.602  30.231  35.385  1.00  0.00     0.074 A 
ATOM     66  C   UNL A   1      42.918  30.674  36.729  1.00  0.00     0.031 C 
ATOM     67  C   UNL A   1      43.256  29.232  34.741  1.00  0.00     0.034 A 
BRANCH  54  68
ATOM     68  C   UNL A   1      40.927  27.773  29.199  1.00  0.00     0.023 A 
ATOM     69  C   UNL A   1      40.076  26.651  29.123  1.00  0.00     0.012 A 
ATOM     70  C   UNL A   1      41.785  28.065  28.122  1.00  0.00     0.148 A 
ATOM     71  C   UNL A   1      40.101  25.816  28.006  1.00  0.00     0.002 A 
ATOM     72  C   UNL A   1      41.771  27.255  26.992  1.00  0.00     0.091 A 
ATOM     73  F   UNL A   1      42.605  29.119  28.226  1.00  0.00    -0.205 F 
ATOM     74  C   UNL A   1      40.940  26.124  26.938  1.00  0.00     0.022 A 
BRANCH  72  75
ATOM     75  S   UNL A   1      42.758  27.608  25.535  1.00  0.00     0.127 S 
ATOM     76  O   UNL A   1      42.105  28.812  25.020  1.00  0.00    -0.237 OA
ATOM     77  O   UNL A   1      44.083  27.834  26.112  1.00  0.00    -0.237 OA
ATOM     78  O   UNL A   1      42.655  26.434  24.681  1.00  0.00    -0.744 OA
ENDBRANCH  72  75
ENDBRANCH  54  68
BRANCH  55  79
ATOM     79  C   UNL A   1      40.011  33.713  37.251  1.00  0.00     0.023 A 
ATOM     80  C   UNL A   1      40.625  34.977  37.330  1.00  0.00     0.012 A 
ATOM     81  C   UNL A   1      39.222  33.265  38.331  1.00  0.00     0.148 A 
ATOM     82  C   UNL A   1      40.480  35.768  38.470  1.00  0.00     0.002 A 
ATOM     83  C   UNL A   1      39.033  34.083  39.438  1.00  0.00     0.091 A 
ATOM     84  F   UNL A   1      38.658  32.052  38.245  1.00  0.00    -0.205 F 
ATOM     85  C   UNL A   1      39.677  35.327  39.519  1.00  0.00     0.022 A 
BRANCH  83  86
ATOM     86  S   UNL A   1      37.910  33.656  40.774  1.00  0.00     0.127 S 
ATOM     87  O   UNL A   1      36.699  33.293  40.045  1.00  0.00    -0.237 OA
ATOM     88  O   UNL A   1      38.610  32.537  41.406  1.00  0.00    -0.237 OA
ATOM     89  O   UNL A   1      37.815  34.848  41.606  1.00  0.00    -0.744 OA
ENDBRANCH  83  86
ENDBRANCH  55  79
BRANCH  67  90
ATOM     90  C   UNL A   1      44.387  28.557  35.470  1.00  0.00     0.023 A 
ATOM     91  C   UNL A   1      45.710  29.001  35.272  1.00  0.00     0.012 A 
ATOM     92  C   UNL A   1      44.129  27.550  36.419  1.00  0.00     0.148 A 
ATOM     93  C   UNL A   1      46.761  28.431  35.988  1.00  0.00     0.002 A 
ATOM     94  C   UNL A   1      45.173  27.025  37.168  1.00  0.00     0.091 A 
ATOM     95  F   UNL A   1      42.863  27.137  36.583  1.00  0.00    -0.205 F 
ATOM     96  C   UNL A   1      46.492  27.454  36.944  1.00  0.00     0.022 A 
BRANCH  94  97
ATOM     97  S   UNL A   1      44.916  25.836  38.489  1.00  0.00     0.127 S 
ATOM     98  O   UNL A   1      43.978  26.552  39.354  1.00  0.00    -0.237 OA
ATOM     99  O   UNL A   1      44.338  24.699  37.771  1.00  0.00    -0.237 OA
ATOM    100  O   UNL A   1      46.226  25.586  39.071  1.00  0.00    -0.744 OA
ENDBRANCH  94  97
ENDBRANCH  67  90
ENDBRANCH  41  42
ENDBRANCH  34  36
ENDBRANCH  33  34
ENDBRANCH  32  33
ENDBRANCH  31  32
ENDBRANCH  30  31
ENDBRANCH  29  30
ENDBRANCH   1  29
TORSDOF 24
ENDMDL
