MODEL 1
REMARK VINA RESULT:      -8.9      0.000      0.000
REMARK SMILES COc1ccccc1-c1nnc(S[C@@H](C)C(=O)OCCOCCOCCOCCOC(=O)c2ccc(-c3c4nc(c(-c5cccc(S(=O)(=O)[O-])c5F)c5ccc([nH]5)c(-c5cccc(S(=O)(=O)[O-])c5F)c5nc(c(-c6cccc(S(=O)(=O)[O-])c6F)c6ccc3[nH]6)C=C5)C=C4)cc2)n1-c1ccccc1
REMARK SMILES IDX 23 1 22 2 21 3 20 4 19 5 18 6 16 7 17 8 14 9 15 10 13 11
REMARK SMILES IDX 12 12 9 13 10 14 96 15 11 16 8 17 3 18 4 19 5 20 7 21 6 22
REMARK SMILES IDX 2 23 1 24 97 25 98 26 102 27 99 28 101 29 100 30 24 31 25 32
REMARK SMILES IDX 26 33 27 34 28 35 29 36 30 37 31 38 32 39 33 40 34 41 95 42
REMARK SMILES IDX 35 43 94 44 36 45 37 46 38 47 88 48 39 49 93 50 87 51 89 52
REMARK SMILES IDX 40 53 92 54 86 55 85 56 41 58 73 59 53 60 72 61 54 62 57 63
REMARK SMILES IDX 71 64 90 65 55 66 56 67 70 69 91 70 58 71 42 72 43 73 51 74
REMARK SMILES IDX 44 75 46 76 52 77 45 78 47 79 48 80 49 81 50 82 74 83 75 84
REMARK SMILES IDX 83 85 76 86 78 87 84 88 77 89 79 90 80 91 81 92 82 93 59 94
REMARK SMILES IDX 60 95 68 96 61 97 63 98 69 99 62 100 64 101 65 102 66 103
REMARK SMILES IDX 67 104
REMARK H PARENT 89 57 57 68
REMARK Flexibility Score: inf
ROOT
ATOM      1  C   UNL A   1      32.748  25.651  24.622  1.00  0.00     0.188 C 
ENDROOT
BRANCH   1   2
ATOM      2  C   UNL A   1      31.919  25.309  25.882  1.00  0.00     0.188 C 
BRANCH   2   3
ATOM      3  O   UNL A   1      31.959  23.997  26.443  1.00  0.00    -0.376 OA
BRANCH   3   4
ATOM      4  C   UNL A   1      32.959  23.090  25.997  1.00  0.00     0.202 C 
BRANCH   4   5
ATOM      5  C   UNL A   1      34.215  22.959  26.859  1.00  0.00     0.261 C 
BRANCH   5   6
ATOM      6  O   UNL A   1      34.819  21.648  26.805  1.00  0.00    -0.462 OA
BRANCH   6   7
ATOM      7  C   UNL A   1      35.583  21.381  25.715  1.00  0.00     0.319 C 
ATOM      8  O   UNL A   1      35.267  20.550  24.865  1.00  0.00    -0.251 OA
BRANCH   7   9
ATOM      9  C   UNL A   1      36.742  22.352  25.519  1.00  0.00     0.161 C 
ATOM     10  C   UNL A   1      36.605  23.048  24.154  1.00  0.00     0.032 C 
BRANCH   9  11
ATOM     11  S   UNL A   1      38.472  21.851  25.587  1.00  0.00    -0.071 SA
BRANCH  11  12
ATOM     12  C   UNL A   1      39.403  22.699  26.760  1.00  0.00     0.196 A 
ATOM     13  C   UNL A   1      41.099  23.661  27.772  1.00  0.00     0.173 A 
ATOM     14  N   UNL A   1      40.029  24.409  27.957  1.00  0.00    -0.129 NA
ATOM     15  N   UNL A   1      40.728  22.499  27.096  1.00  0.00    -0.270 N 
ATOM     16  N   UNL A   1      38.979  23.822  27.298  1.00  0.00    -0.122 NA
BRANCH  13  17
ATOM     17  C   UNL A   1      42.464  24.010  28.176  1.00  0.00     0.062 A 
ATOM     18  C   UNL A   1      43.259  24.941  27.479  1.00  0.00     0.129 A 
ATOM     19  C   UNL A   1      44.630  25.022  27.731  1.00  0.00     0.047 A 
ATOM     20  C   UNL A   1      45.204  24.253  28.742  1.00  0.00     0.004 A 
ATOM     21  C   UNL A   1      43.041  23.299  29.239  1.00  0.00     0.016 A 
ATOM     22  C   UNL A   1      44.404  23.417  29.517  1.00  0.00     0.001 A 
BRANCH  18  23
ATOM     23  O   UNL A   1      42.803  25.712  26.438  1.00  0.00    -0.496 OA
ATOM     24  C   UNL A   1      43.334  25.306  25.177  1.00  0.00     0.278 C 
ENDBRANCH  18  23
ENDBRANCH  13  17
BRANCH  15  25
ATOM     25  C   UNL A   1      41.534  21.351  26.895  1.00  0.00     0.050 A 
ATOM     26  C   UNL A   1      42.503  21.316  25.891  1.00  0.00     0.027 A 
ATOM     27  C   UNL A   1      41.289  20.215  27.679  1.00  0.00     0.027 A 
ATOM     28  C   UNL A   1      43.151  20.116  25.605  1.00  0.00     0.002 A 
ATOM     29  C   UNL A   1      41.943  19.020  27.389  1.00  0.00     0.002 A 
ATOM     30  C   UNL A   1      42.853  18.965  26.336  1.00  0.00     0.000 A 
ENDBRANCH  15  25
ENDBRANCH  11  12
ENDBRANCH   9  11
ENDBRANCH   7   9
ENDBRANCH   6   7
ENDBRANCH   5   6
ENDBRANCH   4   5
ENDBRANCH   3   4
ENDBRANCH   2   3
ENDBRANCH   1   2
BRANCH   1  31
ATOM     31  O   UNL A   1      33.033  27.032  24.464  1.00  0.00    -0.377 OA
BRANCH  31  32
ATOM     32  C   UNL A   1      32.243  27.661  23.461  1.00  0.00     0.188 C 
BRANCH  32  33
ATOM     33  C   UNL A   1      31.312  28.786  23.967  1.00  0.00     0.188 C 
BRANCH  33  34
ATOM     34  O   UNL A   1      31.338  28.978  25.386  1.00  0.00    -0.376 OA
BRANCH  34  35
ATOM     35  C   UNL A   1      31.982  30.138  25.900  1.00  0.00     0.202 C 
BRANCH  35  36
ATOM     36  C   UNL A   1      33.440  29.907  26.310  1.00  0.00     0.261 C 
BRANCH  36  37
ATOM     37  O   UNL A   1      33.729  30.389  27.614  1.00  0.00    -0.460 OA
BRANCH  37  38
ATOM     38  C   UNL A   1      34.909  31.028  27.737  1.00  0.00     0.338 C 
ATOM     39  O   UNL A   1      35.130  32.209  27.539  1.00  0.00    -0.246 OA
BRANCH  38  40
ATOM     40  C   UNL A   1      35.947  30.065  28.122  1.00  0.00     0.060 A 
ATOM     41  C   UNL A   1      35.984  29.774  29.485  1.00  0.00     0.016 A 
ATOM     42  C   UNL A   1      37.041  29.866  27.269  1.00  0.00     0.016 A 
ATOM     43  C   UNL A   1      37.221  29.684  30.063  1.00  0.00     0.010 A 
ATOM     44  C   UNL A   1      38.278  29.775  27.847  1.00  0.00     0.010 A 
ATOM     45  C   UNL A   1      38.335  29.843  29.237  1.00  0.00    -0.014 A 
BRANCH  45  46
ATOM     46  C   UNL A   1      39.548  30.276  29.882  1.00  0.00     0.031 A 
ATOM     47  C   UNL A   1      40.517  29.208  30.142  1.00  0.00     0.074 A 
ATOM     48  C   UNL A   1      39.763  31.576  30.154  1.00  0.00     0.049 A 
ATOM     49  N   UNL A   1      40.950  28.801  31.288  1.00  0.00    -0.248 NA
ATOM     50  C   UNL A   1      40.963  28.417  28.989  1.00  0.00     0.031 C 
ATOM     51  C   UNL A   1      39.004  32.729  29.656  1.00  0.00     0.029 A 
ATOM     52  N   UNL A   1      40.818  32.147  30.798  1.00  0.00    -0.354 N 
ATOM     53  C   UNL A   1      41.908  27.848  30.980  1.00  0.00     0.074 A 
ATOM     54  C   UNL A   1      41.746  27.521  29.586  1.00  0.00     0.031 C 
ATOM     55  C   UNL A   1      39.773  33.833  29.769  1.00  0.00     0.029 A 
ATOM     56  C   UNL A   1      41.008  33.475  30.446  1.00  0.00     0.049 A 
ATOM     57  H   UNL A   1      41.387  31.667  31.442  1.00  0.00     0.167 HD
ATOM     58  C   UNL A   1      42.939  27.584  31.819  1.00  0.00     0.034 A 
ATOM     59  C   UNL A   1      42.156  34.177  30.584  1.00  0.00     0.034 A 
ATOM     60  C   UNL A   1      42.703  28.055  33.157  1.00  0.00     0.049 A 
ATOM     61  C   UNL A   1      42.998  33.474  31.584  1.00  0.00     0.074 A 
ATOM     62  C   UNL A   1      41.726  27.844  34.108  1.00  0.00     0.029 A 
ATOM     63  N   UNL A   1      43.405  29.159  33.572  1.00  0.00    -0.354 N 
ATOM     64  N   UNL A   1      42.716  33.387  32.856  1.00  0.00    -0.248 NA
ATOM     65  C   UNL A   1      44.004  32.538  31.106  1.00  0.00     0.031 C 
ATOM     66  C   UNL A   1      41.622  29.071  34.824  1.00  0.00     0.029 A 
ATOM     67  C   UNL A   1      42.540  29.965  34.265  1.00  0.00     0.049 A 
ATOM     68  H   UNL A   1      44.358  29.340  33.402  1.00  0.00     0.167 HD
ATOM     69  C   UNL A   1      43.180  32.133  33.236  1.00  0.00     0.074 A 
ATOM     70  C   UNL A   1      44.082  31.728  32.164  1.00  0.00     0.031 C 
ATOM     71  C   UNL A   1      42.565  31.414  34.224  1.00  0.00     0.034 A 
BRANCH  58  72
ATOM     72  C   UNL A   1      44.301  27.185  31.332  1.00  0.00     0.023 A 
ATOM     73  C   UNL A   1      44.963  26.146  32.012  1.00  0.00     0.012 A 
ATOM     74  C   UNL A   1      45.052  27.931  30.394  1.00  0.00     0.148 A 
ATOM     75  C   UNL A   1      46.312  25.869  31.775  1.00  0.00     0.002 A 
ATOM     76  C   UNL A   1      46.361  27.584  30.090  1.00  0.00     0.091 A 
ATOM     77  F   UNL A   1      44.559  29.064  29.880  1.00  0.00    -0.205 F 
ATOM     78  C   UNL A   1      47.007  26.573  30.797  1.00  0.00     0.022 A 
BRANCH  76  79
ATOM     79  S   UNL A   1      47.219  28.421  28.753  1.00  0.00     0.127 S 
ATOM     80  O   UNL A   1      47.355  29.773  29.283  1.00  0.00    -0.237 OA
ATOM     81  O   UNL A   1      48.468  27.664  28.659  1.00  0.00    -0.237 OA
ATOM     82  O   UNL A   1      46.338  28.251  27.603  1.00  0.00    -0.744 OA
ENDBRANCH  76  79
ENDBRANCH  58  72
BRANCH  59  83
ATOM     83  C   UNL A   1      42.674  35.265  29.723  1.00  0.00     0.023 A 
ATOM     84  C   UNL A   1      42.288  35.319  28.371  1.00  0.00     0.012 A 
ATOM     85  C   UNL A   1      43.372  36.375  30.255  1.00  0.00     0.148 A 
ATOM     86  C   UNL A   1      42.575  36.440  27.581  1.00  0.00     0.002 A 
ATOM     87  C   UNL A   1      43.689  37.470  29.457  1.00  0.00     0.091 A 
ATOM     88  F   UNL A   1      43.645  36.413  31.566  1.00  0.00    -0.205 F 
ATOM     89  C   UNL A   1      43.280  37.512  28.121  1.00  0.00     0.022 A 
BRANCH  87  90
ATOM     90  S   UNL A   1      44.641  38.847  30.114  1.00  0.00     0.127 S 
ATOM     91  O   UNL A   1      44.992  38.378  31.456  1.00  0.00    -0.237 OA
ATOM     92  O   UNL A   1      45.761  38.924  29.182  1.00  0.00    -0.237 OA
ATOM     93  O   UNL A   1      43.716  39.975  30.109  1.00  0.00    -0.744 OA
ENDBRANCH  87  90
ENDBRANCH  59  83
BRANCH  71  94
ATOM     94  C   UNL A   1      41.566  32.117  35.116  1.00  0.00     0.023 A 
ATOM     95  C   UNL A   1      41.978  32.827  36.263  1.00  0.00     0.012 A 
ATOM     96  C   UNL A   1      40.228  32.235  34.696  1.00  0.00     0.148 A 
ATOM     97  C   UNL A   1      41.076  33.608  36.989  1.00  0.00     0.002 A 
ATOM     98  C   UNL A   1      39.344  33.054  35.395  1.00  0.00     0.091 A 
ATOM     99  F   UNL A   1      39.841  31.567  33.596  1.00  0.00    -0.205 F 
ATOM    100  C   UNL A   1      39.762  33.732  36.549  1.00  0.00     0.022 A 
BRANCH  98 101
ATOM    101  S   UNL A   1      37.681  33.367  34.789  1.00  0.00     0.127 S 
ATOM    102  O   UNL A   1      37.590  34.822  34.873  1.00  0.00    -0.237 OA
ATOM    103  O   UNL A   1      37.727  32.836  33.425  1.00  0.00    -0.237 OA
ATOM    104  O   UNL A   1      36.797  32.622  35.679  1.00  0.00    -0.744 OA
ENDBRANCH  98 101
ENDBRANCH  71  94
ENDBRANCH  45  46
ENDBRANCH  38  40
ENDBRANCH  37  38
ENDBRANCH  36  37
ENDBRANCH  35  36
ENDBRANCH  34  35
ENDBRANCH  33  34
ENDBRANCH  32  33
ENDBRANCH  31  32
ENDBRANCH   1  31
TORSDOF 28
ENDMDL
MODEL 2
REMARK VINA RESULT:      -8.5      1.827      2.096
REMARK SMILES COc1ccccc1-c1nnc(S[C@@H](C)C(=O)OCCOCCOCCOCCOC(=O)c2ccc(-c3c4nc(c(-c5cccc(S(=O)(=O)[O-])c5F)c5ccc([nH]5)c(-c5cccc(S(=O)(=O)[O-])c5F)c5nc(c(-c6cccc(S(=O)(=O)[O-])c6F)c6ccc3[nH]6)C=C5)C=C4)cc2)n1-c1ccccc1
REMARK SMILES IDX 23 1 22 2 21 3 20 4 19 5 18 6 16 7 17 8 14 9 15 10 13 11
REMARK SMILES IDX 12 12 9 13 10 14 96 15 11 16 8 17 3 18 4 19 5 20 7 21 6 22
REMARK SMILES IDX 2 23 1 24 97 25 98 26 102 27 99 28 101 29 100 30 24 31 25 32
REMARK SMILES IDX 26 33 27 34 28 35 29 36 30 37 31 38 32 39 33 40 34 41 95 42
REMARK SMILES IDX 35 43 94 44 36 45 37 46 38 47 88 48 39 49 93 50 87 51 89 52
REMARK SMILES IDX 40 53 92 54 86 55 85 56 41 58 73 59 53 60 72 61 54 62 57 63
REMARK SMILES IDX 71 64 90 65 55 66 56 67 70 69 91 70 58 71 42 72 43 73 51 74
REMARK SMILES IDX 44 75 46 76 52 77 45 78 47 79 48 80 49 81 50 82 74 83 75 84
REMARK SMILES IDX 83 85 76 86 78 87 84 88 77 89 79 90 80 91 81 92 82 93 59 94
REMARK SMILES IDX 60 95 68 96 61 97 63 98 69 99 62 100 64 101 65 102 66 103
REMARK SMILES IDX 67 104
REMARK H PARENT 89 57 57 68
REMARK Flexibility Score: inf
ROOT
ATOM      1  C   UNL A   1      32.653  25.624  24.899  1.00  0.00     0.188 C 
ENDROOT
BRANCH   1   2
ATOM      2  C   UNL A   1      31.607  25.209  25.960  1.00  0.00     0.188 C 
BRANCH   2   3
ATOM      3  O   UNL A   1      31.464  23.841  26.342  1.00  0.00    -0.376 OA
BRANCH   3   4
ATOM      4  C   UNL A   1      32.482  22.917  25.979  1.00  0.00     0.202 C 
BRANCH   4   5
ATOM      5  C   UNL A   1      33.576  22.644  27.012  1.00  0.00     0.261 C 
BRANCH   5   6
ATOM      6  O   UNL A   1      34.329  21.440  26.752  1.00  0.00    -0.462 OA
BRANCH   6   7
ATOM      7  C   UNL A   1      35.122  21.450  25.649  1.00  0.00     0.319 C 
ATOM      8  O   UNL A   1      34.888  20.768  24.652  1.00  0.00    -0.251 OA
BRANCH   7   9
ATOM      9  C   UNL A   1      36.187  22.539  25.664  1.00  0.00     0.161 C 
ATOM     10  C   UNL A   1      35.913  23.545  24.533  1.00  0.00     0.032 C 
BRANCH   9  11
ATOM     11  S   UNL A   1      37.952  22.195  25.529  1.00  0.00    -0.071 SA
BRANCH  11  12
ATOM     12  C   UNL A   1      38.933  23.137  26.583  1.00  0.00     0.196 A 
ATOM     13  C   UNL A   1      40.654  24.228  27.404  1.00  0.00     0.173 A 
ATOM     14  N   UNL A   1      39.563  24.922  27.663  1.00  0.00    -0.129 NA
ATOM     15  N   UNL A   1      40.294  23.023  26.801  1.00  0.00    -0.270 N 
ATOM     16  N   UNL A   1      38.494  24.253  27.124  1.00  0.00    -0.122 NA
BRANCH  13  17
ATOM     17  C   UNL A   1      42.027  24.668  27.668  1.00  0.00     0.062 A 
ATOM     18  C   UNL A   1      42.759  25.482  26.781  1.00  0.00     0.129 A 
ATOM     19  C   UNL A   1      44.138  25.633  26.942  1.00  0.00     0.047 A 
ATOM     20  C   UNL A   1      44.784  25.059  28.035  1.00  0.00     0.004 A 
ATOM     21  C   UNL A   1      42.677  24.161  28.804  1.00  0.00     0.016 A 
ATOM     22  C   UNL A   1      44.048  24.352  28.984  1.00  0.00     0.001 A 
BRANCH  18  23
ATOM     23  O   UNL A   1      42.230  26.056  25.651  1.00  0.00    -0.496 OA
ATOM     24  C   UNL A   1      42.989  27.175  25.194  1.00  0.00     0.278 C 
ENDBRANCH  18  23
ENDBRANCH  13  17
BRANCH  15  25
ATOM     25  C   UNL A   1      41.144  21.917  26.562  1.00  0.00     0.050 A 
ATOM     26  C   UNL A   1      42.441  22.094  26.076  1.00  0.00     0.027 A 
ATOM     27  C   UNL A   1      40.633  20.625  26.753  1.00  0.00     0.027 A 
ATOM     28  C   UNL A   1      43.184  20.983  25.684  1.00  0.00     0.002 A 
ATOM     29  C   UNL A   1      41.384  19.519  26.362  1.00  0.00     0.002 A 
ATOM     30  C   UNL A   1      42.647  19.701  25.804  1.00  0.00     0.000 A 
ENDBRANCH  15  25
ENDBRANCH  11  12
ENDBRANCH   9  11
ENDBRANCH   7   9
ENDBRANCH   6   7
ENDBRANCH   5   6
ENDBRANCH   4   5
ENDBRANCH   3   4
ENDBRANCH   2   3
ENDBRANCH   1   2
BRANCH   1  31
ATOM     31  O   UNL A   1      32.939  27.014  24.868  1.00  0.00    -0.377 OA
BRANCH  31  32
ATOM     32  C   UNL A   1      32.089  27.746  23.992  1.00  0.00     0.188 C 
BRANCH  32  33
ATOM     33  C   UNL A   1      31.226  28.834  24.671  1.00  0.00     0.188 C 
BRANCH  33  34
ATOM     34  O   UNL A   1      31.492  29.010  26.067  1.00  0.00    -0.376 OA
BRANCH  34  35
ATOM     35  C   UNL A   1      32.010  30.261  26.504  1.00  0.00     0.202 C 
BRANCH  35  36
ATOM     36  C   UNL A   1      33.521  30.251  26.760  1.00  0.00     0.261 C 
BRANCH  36  37
ATOM     37  O   UNL A   1      33.886  30.965  27.932  1.00  0.00    -0.460 OA
BRANCH  37  38
ATOM     38  C   UNL A   1      35.129  31.485  27.918  1.00  0.00     0.338 C 
ATOM     39  O   UNL A   1      35.451  32.615  27.599  1.00  0.00    -0.246 OA
BRANCH  38  40
ATOM     40  C   UNL A   1      36.092  30.454  28.321  1.00  0.00     0.060 A 
ATOM     41  C   UNL A   1      36.097  30.175  29.687  1.00  0.00     0.016 A 
ATOM     42  C   UNL A   1      37.176  30.169  27.480  1.00  0.00     0.016 A 
ATOM     43  C   UNL A   1      37.320  30.002  30.277  1.00  0.00     0.010 A 
ATOM     44  C   UNL A   1      38.399  29.995  28.069  1.00  0.00     0.010 A 
ATOM     45  C   UNL A   1      38.450  30.073  29.459  1.00  0.00    -0.014 A 
BRANCH  45  46
ATOM     46  C   UNL A   1      39.686  30.425  30.110  1.00  0.00     0.031 A 
ATOM     47  C   UNL A   1      40.570  29.292  30.395  1.00  0.00     0.074 A 
ATOM     48  C   UNL A   1      39.993  31.710  30.367  1.00  0.00     0.049 A 
ATOM     49  N   UNL A   1      40.961  28.872  31.551  1.00  0.00    -0.248 NA
ATOM     50  C   UNL A   1      40.968  28.454  29.258  1.00  0.00     0.031 C 
ATOM     51  C   UNL A   1      39.326  32.908  29.845  1.00  0.00     0.029 A 
ATOM     52  N   UNL A   1      41.082  32.210  31.013  1.00  0.00    -0.354 N 
ATOM     53  C   UNL A   1      41.849  27.846  31.266  1.00  0.00     0.074 A 
ATOM     54  C   UNL A   1      41.677  27.512  29.875  1.00  0.00     0.031 C 
ATOM     55  C   UNL A   1      40.173  33.954  29.950  1.00  0.00     0.029 A 
ATOM     56  C   UNL A   1      41.372  33.515  30.645  1.00  0.00     0.049 A 
ATOM     57  H   UNL A   1      41.608  31.699  31.670  1.00  0.00     0.167 HD
ATOM     58  C   UNL A   1      42.850  27.519  32.119  1.00  0.00     0.034 A 
ATOM     59  C   UNL A   1      42.568  34.133  30.785  1.00  0.00     0.034 A 
ATOM     60  C   UNL A   1      42.638  28.026  33.448  1.00  0.00     0.049 A 
ATOM     61  C   UNL A   1      43.346  33.384  31.804  1.00  0.00     0.074 A 
ATOM     62  C   UNL A   1      41.639  27.901  34.392  1.00  0.00     0.029 A 
ATOM     63  N   UNL A   1      43.416  29.081  33.855  1.00  0.00    -0.354 N 
ATOM     64  N   UNL A   1      43.047  33.337  33.073  1.00  0.00    -0.248 NA
ATOM     65  C   UNL A   1      44.285  32.370  31.349  1.00  0.00     0.031 C 
ATOM     66  C   UNL A   1      41.620  29.143  35.089  1.00  0.00     0.029 A 
ATOM     67  C   UNL A   1      42.606  29.958  34.528  1.00  0.00     0.049 A 
ATOM     68  H   UNL A   1      44.381  29.189  33.693  1.00  0.00     0.167 HD
ATOM     69  C   UNL A   1      43.413  32.058  33.475  1.00  0.00     0.074 A 
ATOM     70  C   UNL A   1      44.293  31.571  32.419  1.00  0.00     0.031 C 
ATOM     71  C   UNL A   1      42.738  31.401  34.467  1.00  0.00     0.034 A 
BRANCH  58  72
ATOM     72  C   UNL A   1      44.183  27.014  31.652  1.00  0.00     0.023 A 
ATOM     73  C   UNL A   1      44.686  25.840  32.244  1.00  0.00     0.012 A 
ATOM     74  C   UNL A   1      45.065  27.757  30.833  1.00  0.00     0.148 A 
ATOM     75  C   UNL A   1      46.006  25.431  32.037  1.00  0.00     0.002 A 
ATOM     76  C   UNL A   1      46.341  27.291  30.550  1.00  0.00     0.091 A 
ATOM     77  F   UNL A   1      44.733  28.988  30.423  1.00  0.00    -0.205 F 
ATOM     78  C   UNL A   1      46.829  26.144  31.172  1.00  0.00     0.022 A 
BRANCH  76  79
ATOM     79  S   UNL A   1      47.361  28.153  29.351  1.00  0.00     0.127 S 
ATOM     80  O   UNL A   1      48.522  27.275  29.257  1.00  0.00    -0.237 OA
ATOM     81  O   UNL A   1      46.502  28.174  28.165  1.00  0.00    -0.237 OA
ATOM     82  O   UNL A   1      47.576  29.468  29.945  1.00  0.00    -0.744 OA
ENDBRANCH  76  79
ENDBRANCH  58  72
BRANCH  59  83
ATOM     83  C   UNL A   1      43.173  35.167  29.914  1.00  0.00     0.023 A 
ATOM     84  C   UNL A   1      43.191  36.507  30.343  1.00  0.00     0.012 A 
ATOM     85  C   UNL A   1      43.924  34.832  28.762  1.00  0.00     0.148 A 
ATOM     86  C   UNL A   1      43.938  37.475  29.658  1.00  0.00     0.002 A 
ATOM     87  C   UNL A   1      44.632  35.804  28.063  1.00  0.00     0.091 A 
ATOM     88  F   UNL A   1      44.030  33.547  28.398  1.00  0.00    -0.205 F 
ATOM     89  C   UNL A   1      44.653  37.126  28.516  1.00  0.00     0.022 A 
BRANCH  87  90
ATOM     90  S   UNL A   1      45.525  35.392  26.557  1.00  0.00     0.127 S 
ATOM     91  O   UNL A   1      46.531  34.441  27.035  1.00  0.00    -0.237 OA
ATOM     92  O   UNL A   1      44.479  34.806  25.726  1.00  0.00    -0.237 OA
ATOM     93  O   UNL A   1      46.085  36.657  26.097  1.00  0.00    -0.744 OA
ENDBRANCH  87  90
ENDBRANCH  59  83
BRANCH  71  94
ATOM     94  C   UNL A   1      41.786  32.188  35.339  1.00  0.00     0.023 A 
ATOM     95  C   UNL A   1      40.463  32.452  34.928  1.00  0.00     0.012 A 
ATOM     96  C   UNL A   1      42.154  32.496  36.663  1.00  0.00     0.148 A 
ATOM     97  C   UNL A   1      39.540  33.035  35.800  1.00  0.00     0.002 A 
ATOM     98  C   UNL A   1      41.217  33.032  37.543  1.00  0.00     0.091 A 
ATOM     99  F   UNL A   1      43.411  32.233  37.055  1.00  0.00    -0.205 F 
ATOM    100  C   UNL A   1      39.912  33.314  37.111  1.00  0.00     0.022 A 
BRANCH  98 101
ATOM    101  S   UNL A   1      41.600  33.273  39.282  1.00  0.00     0.127 S 
ATOM    102  O   UNL A   1      42.897  33.941  39.225  1.00  0.00    -0.237 OA
ATOM    103  O   UNL A   1      40.497  34.121  39.742  1.00  0.00    -0.237 OA
ATOM    104  O   UNL A   1      41.597  31.938  39.869  1.00  0.00    -0.744 OA
ENDBRANCH  98 101
ENDBRANCH  71  94
ENDBRANCH  45  46
ENDBRANCH  38  40
ENDBRANCH  37  38
ENDBRANCH  36  37
ENDBRANCH  35  36
ENDBRANCH  34  35
ENDBRANCH  33  34
ENDBRANCH  32  33
ENDBRANCH  31  32
ENDBRANCH   1  31
TORSDOF 28
ENDMDL
MODEL 3
REMARK VINA RESULT:      -8.4      2.779      3.354
REMARK SMILES COc1ccccc1-c1nnc(S[C@@H](C)C(=O)OCCOCCOCCOCCOC(=O)c2ccc(-c3c4nc(c(-c5cccc(S(=O)(=O)[O-])c5F)c5ccc([nH]5)c(-c5cccc(S(=O)(=O)[O-])c5F)c5nc(c(-c6cccc(S(=O)(=O)[O-])c6F)c6ccc3[nH]6)C=C5)C=C4)cc2)n1-c1ccccc1
REMARK SMILES IDX 23 1 22 2 21 3 20 4 19 5 18 6 16 7 17 8 14 9 15 10 13 11
REMARK SMILES IDX 12 12 9 13 10 14 96 15 11 16 8 17 3 18 4 19 5 20 7 21 6 22
REMARK SMILES IDX 2 23 1 24 97 25 98 26 102 27 99 28 101 29 100 30 24 31 25 32
REMARK SMILES IDX 26 33 27 34 28 35 29 36 30 37 31 38 32 39 33 40 34 41 95 42
REMARK SMILES IDX 35 43 94 44 36 45 37 46 38 47 88 48 39 49 93 50 87 51 89 52
REMARK SMILES IDX 40 53 92 54 86 55 85 56 41 58 73 59 53 60 72 61 54 62 57 63
REMARK SMILES IDX 71 64 90 65 55 66 56 67 70 69 91 70 58 71 42 72 43 73 51 74
REMARK SMILES IDX 44 75 46 76 52 77 45 78 47 79 48 80 49 81 50 82 74 83 75 84
REMARK SMILES IDX 83 85 76 86 78 87 84 88 77 89 79 90 80 91 81 92 82 93 59 94
REMARK SMILES IDX 60 95 68 96 61 97 63 98 69 99 62 100 64 101 65 102 66 103
REMARK SMILES IDX 67 104
REMARK H PARENT 89 57 57 68
REMARK Flexibility Score: inf
ROOT
ATOM      1  C   UNL A   1      32.469  25.962  24.713  1.00  0.00     0.188 C 
ENDROOT
BRANCH   1   2
ATOM      2  C   UNL A   1      31.675  25.483  25.950  1.00  0.00     0.188 C 
BRANCH   2   3
ATOM      3  O   UNL A   1      31.927  24.200  26.523  1.00  0.00    -0.376 OA
BRANCH   3   4
ATOM      4  C   UNL A   1      33.004  23.423  26.017  1.00  0.00     0.202 C 
BRANCH   4   5
ATOM      5  C   UNL A   1      34.152  23.112  26.979  1.00  0.00     0.261 C 
BRANCH   5   6
ATOM      6  O   UNL A   1      34.708  21.791  26.806  1.00  0.00    -0.462 OA
BRANCH   6   7
ATOM      7  C   UNL A   1      35.347  21.554  25.632  1.00  0.00     0.319 C 
ATOM      8  O   UNL A   1      35.016  20.654  24.861  1.00  0.00    -0.251 OA
BRANCH   7   9
ATOM      9  C   UNL A   1      36.354  22.631  25.248  1.00  0.00     0.161 C 
ATOM     10  C   UNL A   1      36.020  23.174  23.848  1.00  0.00     0.032 C 
BRANCH   9  11
ATOM     11  S   UNL A   1      38.133  22.347  25.196  1.00  0.00    -0.071 SA
BRANCH  11  12
ATOM     12  C   UNL A   1      38.998  23.068  26.498  1.00  0.00     0.196 A 
ATOM     13  C   UNL A   1      40.633  23.925  27.689  1.00  0.00     0.173 A 
ATOM     14  N   UNL A   1      39.546  24.641  27.903  1.00  0.00    -0.129 NA
ATOM     15  N   UNL A   1      40.309  22.841  26.873  1.00  0.00    -0.270 N 
ATOM     16  N   UNL A   1      38.535  24.122  27.135  1.00  0.00    -0.122 NA
BRANCH  13  17
ATOM     17  C   UNL A   1      41.973  24.237  28.193  1.00  0.00     0.062 A 
ATOM     18  C   UNL A   1      42.735  25.328  27.731  1.00  0.00     0.129 A 
ATOM     19  C   UNL A   1      44.096  25.412  28.031  1.00  0.00     0.047 A 
ATOM     20  C   UNL A   1      44.689  24.470  28.870  1.00  0.00     0.004 A 
ATOM     21  C   UNL A   1      42.565  23.341  29.097  1.00  0.00     0.016 A 
ATOM     22  C   UNL A   1      43.917  23.455  29.429  1.00  0.00     0.001 A 
BRANCH  18  23
ATOM     23  O   UNL A   1      42.261  26.284  26.866  1.00  0.00    -0.496 OA
ATOM     24  C   UNL A   1      42.391  25.902  25.497  1.00  0.00     0.278 C 
ENDBRANCH  18  23
ENDBRANCH  13  17
BRANCH  15  25
ATOM     25  C   UNL A   1      41.137  21.728  26.587  1.00  0.00     0.050 A 
ATOM     26  C   UNL A   1      40.851  20.464  27.106  1.00  0.00     0.027 A 
ATOM     27  C   UNL A   1      42.299  21.934  25.830  1.00  0.00     0.027 A 
ATOM     28  C   UNL A   1      41.779  19.436  26.955  1.00  0.00     0.002 A 
ATOM     29  C   UNL A   1      43.219  20.900  25.679  1.00  0.00     0.002 A 
ATOM     30  C   UNL A   1      42.971  19.661  26.265  1.00  0.00     0.000 A 
ENDBRANCH  15  25
ENDBRANCH  11  12
ENDBRANCH   9  11
ENDBRANCH   7   9
ENDBRANCH   6   7
ENDBRANCH   5   6
ENDBRANCH   4   5
ENDBRANCH   3   4
ENDBRANCH   2   3
ENDBRANCH   1   2
BRANCH   1  31
ATOM     31  O   UNL A   1      32.786  27.345  24.718  1.00  0.00    -0.377 OA
BRANCH  31  32
ATOM     32  C   UNL A   1      31.941  28.122  23.876  1.00  0.00     0.188 C 
BRANCH  32  33
ATOM     33  C   UNL A   1      31.164  29.252  24.588  1.00  0.00     0.188 C 
BRANCH  33  34
ATOM     34  O   UNL A   1      31.629  29.544  25.910  1.00  0.00    -0.376 OA
BRANCH  34  35
ATOM     35  C   UNL A   1      31.835  30.905  26.270  1.00  0.00     0.202 C 
BRANCH  35  36
ATOM     36  C   UNL A   1      33.276  31.227  26.678  1.00  0.00     0.261 C 
BRANCH  36  37
ATOM     37  O   UNL A   1      33.356  31.939  27.904  1.00  0.00    -0.460 OA
BRANCH  37  38
ATOM     38  C   UNL A   1      34.574  32.436  28.195  1.00  0.00     0.338 C 
ATOM     39  O   UNL A   1      35.104  33.417  27.707  1.00  0.00    -0.246 OA
BRANCH  38  40
ATOM     40  C   UNL A   1      35.222  31.582  29.197  1.00  0.00     0.060 A 
ATOM     41  C   UNL A   1      35.316  32.154  30.465  1.00  0.00     0.016 A 
ATOM     42  C   UNL A   1      36.052  30.538  28.767  1.00  0.00     0.016 A 
ATOM     43  C   UNL A   1      36.493  31.971  31.138  1.00  0.00     0.010 A 
ATOM     44  C   UNL A   1      37.229  30.354  29.440  1.00  0.00     0.010 A 
ATOM     45  C   UNL A   1      37.478  31.194  30.524  1.00  0.00    -0.014 A 
BRANCH  45  46
ATOM     46  C   UNL A   1      38.834  31.437  30.942  1.00  0.00     0.031 A 
ATOM     47  C   UNL A   1      39.502  30.285  31.553  1.00  0.00     0.074 A 
ATOM     48  C   UNL A   1      39.426  32.626  30.719  1.00  0.00     0.049 A 
ATOM     49  N   UNL A   1      39.950  30.184  32.759  1.00  0.00    -0.248 NA
ATOM     50  C   UNL A   1      39.567  29.054  30.757  1.00  0.00     0.031 C 
ATOM     51  C   UNL A   1      38.951  33.710  29.852  1.00  0.00     0.029 A 
ATOM     52  N   UNL A   1      40.669  33.038  31.090  1.00  0.00    -0.354 N 
ATOM     53  C   UNL A   1      40.566  28.943  32.798  1.00  0.00     0.074 A 
ATOM     54  C   UNL A   1      40.147  28.225  31.621  1.00  0.00     0.031 C 
ATOM     55  C   UNL A   1      39.998  34.503  29.540  1.00  0.00     0.029 A 
ATOM     56  C   UNL A   1      41.166  34.046  30.276  1.00  0.00     0.049 A 
ATOM     57  H   UNL A   1      41.164  32.661  31.853  1.00  0.00     0.167 HD
ATOM     58  C   UNL A   1      41.585  28.687  33.655  1.00  0.00     0.034 A 
ATOM     59  C   UNL A   1      42.469  34.376  30.126  1.00  0.00     0.034 A 
ATOM     60  C   UNL A   1      41.658  29.633  34.735  1.00  0.00     0.049 A 
ATOM     61  C   UNL A   1      43.208  33.839  31.296  1.00  0.00     0.074 A 
ATOM     62  C   UNL A   1      40.789  30.060  35.718  1.00  0.00     0.029 A 
ATOM     63  N   UNL A   1      42.680  30.549  34.705  1.00  0.00    -0.354 N 
ATOM     64  N   UNL A   1      43.077  34.279  32.517  1.00  0.00    -0.248 NA
ATOM     65  C   UNL A   1      43.854  32.542  31.170  1.00  0.00     0.031 C 
ATOM     66  C   UNL A   1      41.113  31.430  35.940  1.00  0.00     0.029 A 
ATOM     67  C   UNL A   1      42.160  31.762  35.077  1.00  0.00     0.049 A 
ATOM     68  H   UNL A   1      43.617  30.368  34.462  1.00  0.00     0.167 HD
ATOM     69  C   UNL A   1      43.228  33.153  33.317  1.00  0.00     0.074 A 
ATOM     70  C   UNL A   1      43.843  32.156  32.448  1.00  0.00     0.031 C 
ATOM     71  C   UNL A   1      42.572  33.032  34.512  1.00  0.00     0.034 A 
BRANCH  58  72
ATOM     72  C   UNL A   1      42.715  27.758  33.318  1.00  0.00     0.023 A 
ATOM     73  C   UNL A   1      43.456  28.022  32.151  1.00  0.00     0.012 A 
ATOM     74  C   UNL A   1      42.935  26.518  33.961  1.00  0.00     0.148 A 
ATOM     75  C   UNL A   1      44.366  27.090  31.644  1.00  0.00     0.002 A 
ATOM     76  C   UNL A   1      43.912  25.643  33.511  1.00  0.00     0.091 A 
ATOM     77  F   UNL A   1      42.115  26.107  34.936  1.00  0.00    -0.205 F 
ATOM     78  C   UNL A   1      44.612  25.909  32.336  1.00  0.00     0.022 A 
BRANCH  76  79
ATOM     79  S   UNL A   1      44.304  24.173  34.464  1.00  0.00     0.127 S 
ATOM     80  O   UNL A   1      43.016  23.855  35.069  1.00  0.00    -0.237 OA
ATOM     81  O   UNL A   1      44.752  23.238  33.430  1.00  0.00    -0.237 OA
ATOM     82  O   UNL A   1      45.366  24.606  35.366  1.00  0.00    -0.744 OA
ENDBRANCH  76  79
ENDBRANCH  58  72
BRANCH  59  83
ATOM     83  C   UNL A   1      43.149  34.897  28.918  1.00  0.00     0.023 A 
ATOM     84  C   UNL A   1      43.464  36.266  28.839  1.00  0.00     0.012 A 
ATOM     85  C   UNL A   1      43.686  34.038  27.930  1.00  0.00     0.148 A 
ATOM     86  C   UNL A   1      44.292  36.760  27.822  1.00  0.00     0.002 A 
ATOM     87  C   UNL A   1      44.476  34.540  26.900  1.00  0.00     0.091 A 
ATOM     88  F   UNL A   1      43.511  32.715  28.043  1.00  0.00    -0.205 F 
ATOM     89  C   UNL A   1      44.793  35.899  26.850  1.00  0.00     0.022 A 
BRANCH  87  90
ATOM     90  S   UNL A   1      45.097  33.459  25.603  1.00  0.00     0.127 S 
ATOM     91  O   UNL A   1      43.983  32.529  25.405  1.00  0.00    -0.237 OA
ATOM     92  O   UNL A   1      45.317  34.390  24.501  1.00  0.00    -0.237 OA
ATOM     93  O   UNL A   1      46.286  32.837  26.173  1.00  0.00    -0.744 OA
ENDBRANCH  87  90
ENDBRANCH  59  83
BRANCH  71  94
ATOM     94  C   UNL A   1      41.922  34.261  35.107  1.00  0.00     0.023 A 
ATOM     95  C   UNL A   1      40.655  34.703  34.676  1.00  0.00     0.012 A 
ATOM     96  C   UNL A   1      42.494  34.863  36.245  1.00  0.00     0.148 A 
ATOM     97  C   UNL A   1      39.988  35.737  35.338  1.00  0.00     0.002 A 
ATOM     98  C   UNL A   1      41.804  35.859  36.931  1.00  0.00     0.091 A 
ATOM     99  F   UNL A   1      43.695  34.431  36.661  1.00  0.00    -0.205 F 
ATOM    100  C   UNL A   1      40.556  36.307  36.473  1.00  0.00     0.022 A 
BRANCH  98 101
ATOM    101  S   UNL A   1      42.421  36.525  38.482  1.00  0.00     0.127 S 
ATOM    102  O   UNL A   1      43.650  37.194  38.066  1.00  0.00    -0.237 OA
ATOM    103  O   UNL A   1      41.345  37.428  38.897  1.00  0.00    -0.237 OA
ATOM    104  O   UNL A   1      42.589  35.372  39.360  1.00  0.00    -0.744 OA
ENDBRANCH  98 101
ENDBRANCH  71  94
ENDBRANCH  45  46
ENDBRANCH  38  40
ENDBRANCH  37  38
ENDBRANCH  36  37
ENDBRANCH  35  36
ENDBRANCH  34  35
ENDBRANCH  33  34
ENDBRANCH  32  33
ENDBRANCH  31  32
ENDBRANCH   1  31
TORSDOF 28
ENDMDL
