MODEL 1
REMARK VINA RESULT:      -9.9      0.000      0.000
REMARK SMILES Cc1ccc(Nc2c(Cl)cc(Cl)cc2Cl)c(CC(=O)OCCOCCOCCOCCOC(=O)c2ccc(-c3c4nc(c(-c5cccc(S(=O)(=O)[O-])c5F)c5ccc([nH]5)c(-c5cccc(S(=O)(=O)[O-])c5F)c5nc(c(-c6cccc(S(=O)(=O)[O-])c6F)c6ccc3[nH]6)C=C5)C=C4)cc2)c1
REMARK SMILES IDX 26 1 25 2 24 3 23 4 22 5 21 6 20 7 18 8 19 9 17 10 16 11
REMARK SMILES IDX 1 12 2 13 3 14 98 15 4 16 5 17 6 18 7 20 8 21 14 22 9 23
REMARK SMILES IDX 10 24 13 25 15 26 11 27 12 28 27 29 28 30 29 31 30 32 31 33
REMARK SMILES IDX 32 34 33 35 34 36 35 37 36 38 97 39 37 40 96 41 38 42 39 43
REMARK SMILES IDX 40 44 90 45 41 46 95 47 89 48 91 49 42 50 94 51 88 52 87 53
REMARK SMILES IDX 43 55 75 56 55 57 74 58 56 59 59 60 73 61 92 62 57 63 58 64
REMARK SMILES IDX 72 66 93 67 60 68 44 69 45 70 53 71 46 72 48 73 54 74 47 75
REMARK SMILES IDX 49 76 50 77 51 78 52 79 76 80 77 81 85 82 78 83 80 84 86 85
REMARK SMILES IDX 79 86 81 87 82 88 83 89 84 90 61 91 62 92 70 93 63 94 65 95
REMARK SMILES IDX 71 96 64 97 66 98 67 99 68 100 69 101
REMARK H PARENT 6 19 91 54 59 65
REMARK Flexibility Score: inf
ROOT
ATOM      1  O   UNL A   1      40.812  19.201  25.973  1.00  0.00    -0.377 OA
ENDROOT
BRANCH   1   2
ATOM      2  C   UNL A   1      40.695  20.465  26.650  1.00  0.00     0.188 C 
BRANCH   2   3
ATOM      3  C   UNL A   1      39.865  21.403  25.816  1.00  0.00     0.188 C 
BRANCH   3   4
ATOM      4  O   UNL A   1      38.548  21.704  26.195  1.00  0.00    -0.376 OA
BRANCH   4   5
ATOM      5  C   UNL A   1      37.834  22.695  25.475  1.00  0.00     0.202 C 
BRANCH   5   6
ATOM      6  C   UNL A   1      36.919  23.763  26.132  1.00  0.00     0.261 C 
BRANCH   6   7
ATOM      7  O   UNL A   1      35.611  23.359  26.552  1.00  0.00    -0.463 OA
BRANCH   7   8
ATOM      8  C   UNL A   1      34.608  23.893  25.819  1.00  0.00     0.310 C 
ATOM      9  O   UNL A   1      33.700  24.575  26.282  1.00  0.00    -0.252 OA
BRANCH   8  10
ATOM     10  C   UNL A   1      34.636  23.482  24.367  1.00  0.00     0.160 C 
BRANCH  10  11
ATOM     11  C   UNL A   1      33.781  22.318  23.883  1.00  0.00    -0.013 A 
ATOM     12  C   UNL A   1      33.535  18.621  24.945  1.00  0.00     0.044 C 
ATOM     13  C   UNL A   1      33.303  19.913  24.220  1.00  0.00    -0.051 A 
ATOM     14  C   UNL A   1      32.288  20.007  23.279  1.00  0.00     0.005 A 
ATOM     15  C   UNL A   1      34.057  21.058  24.491  1.00  0.00     0.009 A 
ATOM     16  C   UNL A   1      32.049  21.217  22.617  1.00  0.00     0.026 A 
ATOM     17  C   UNL A   1      32.748  22.409  22.903  1.00  0.00     0.042 A 
BRANCH  17  18
ATOM     18  N   UNL A   1      32.427  23.631  22.203  1.00  0.00    -0.353 N 
ATOM     19  H   UNL A   1      32.677  23.664  21.252  1.00  0.00     0.167 HD
BRANCH  18  20
ATOM     20  C   UNL A   1      31.785  24.813  22.729  1.00  0.00     0.076 A 
ATOM     21  C   UNL A   1      30.794  24.754  23.727  1.00  0.00     0.067 A 
ATOM     22  C   UNL A   1      31.984  26.091  22.142  1.00  0.00     0.067 A 
ATOM     23  Cl  UNL A   1      30.680  23.403  24.809  1.00  0.00    -0.082 Cl
ATOM     24  C   UNL A   1      29.916  25.822  23.960  1.00  0.00     0.043 A 
ATOM     25  C   UNL A   1      31.084  27.153  22.338  1.00  0.00     0.043 A 
ATOM     26  Cl  UNL A   1      33.423  26.474  21.264  1.00  0.00    -0.082 Cl
ATOM     27  C   UNL A   1      30.032  26.996  23.225  1.00  0.00     0.044 A 
ATOM     28  Cl  UNL A   1      28.905  28.273  23.473  1.00  0.00    -0.084 Cl
ENDBRANCH  18  20
ENDBRANCH  17  18
ENDBRANCH  10  11
ENDBRANCH   8  10
ENDBRANCH   7   8
ENDBRANCH   6   7
ENDBRANCH   5   6
ENDBRANCH   4   5
ENDBRANCH   3   4
ENDBRANCH   2   3
ENDBRANCH   1   2
BRANCH   1  29
ATOM     29  C   UNL A   1      42.142  18.681  26.009  1.00  0.00     0.188 C 
BRANCH  29  30
ATOM     30  C   UNL A   1      43.200  19.733  25.743  1.00  0.00     0.188 C 
BRANCH  30  31
ATOM     31  O   UNL A   1      44.241  19.126  25.003  1.00  0.00    -0.376 OA
BRANCH  31  32
ATOM     32  C   UNL A   1      45.130  19.978  24.305  1.00  0.00     0.202 C 
BRANCH  32  33
ATOM     33  C   UNL A   1      45.922  20.762  25.344  1.00  0.00     0.261 C 
BRANCH  33  34
ATOM     34  O   UNL A   1      45.868  22.163  24.993  1.00  0.00    -0.460 OA
BRANCH  34  35
ATOM     35  C   UNL A   1      44.713  22.526  24.361  1.00  0.00     0.338 C 
ATOM     36  O   UNL A   1      44.464  22.266  23.189  1.00  0.00    -0.246 OA
BRANCH  35  37
ATOM     37  C   UNL A   1      43.907  23.452  25.212  1.00  0.00     0.060 A 
ATOM     38  C   UNL A   1      43.356  24.606  24.634  1.00  0.00     0.016 A 
ATOM     39  C   UNL A   1      43.896  23.320  26.600  1.00  0.00     0.016 A 
ATOM     40  C   UNL A   1      42.966  25.692  25.435  1.00  0.00     0.010 A 
ATOM     41  C   UNL A   1      43.508  24.404  27.384  1.00  0.00     0.010 A 
ATOM     42  C   UNL A   1      43.130  25.638  26.814  1.00  0.00    -0.014 A 
BRANCH  42  43
ATOM     43  C   UNL A   1      43.110  26.831  27.709  1.00  0.00     0.031 A 
ATOM     44  C   UNL A   1      42.000  27.833  27.545  1.00  0.00     0.074 A 
ATOM     45  C   UNL A   1      43.698  26.680  28.926  1.00  0.00     0.049 A 
ATOM     46  N   UNL A   1      41.703  28.792  28.367  1.00  0.00    -0.248 NA
ATOM     47  C   UNL A   1      41.160  27.863  26.343  1.00  0.00     0.031 C 
ATOM     48  C   UNL A   1      43.064  26.771  30.228  1.00  0.00     0.029 A 
ATOM     49  N   UNL A   1      45.009  26.380  29.277  1.00  0.00    -0.354 N 
ATOM     50  C   UNL A   1      40.465  29.306  27.981  1.00  0.00     0.074 A 
ATOM     51  C   UNL A   1      40.252  28.794  26.653  1.00  0.00     0.031 C 
ATOM     52  C   UNL A   1      43.948  26.793  31.222  1.00  0.00     0.029 A 
ATOM     53  C   UNL A   1      45.234  26.793  30.602  1.00  0.00     0.049 A 
ATOM     54  H   UNL A   1      45.673  25.949  28.691  1.00  0.00     0.167 HD
ATOM     55  C   UNL A   1      39.669  29.979  28.870  1.00  0.00     0.034 A 
ATOM     56  C   UNL A   1      46.290  27.471  31.104  1.00  0.00     0.034 A 
ATOM     57  C   UNL A   1      40.357  30.307  30.153  1.00  0.00     0.049 A 
ATOM     58  C   UNL A   1      45.870  28.901  31.424  1.00  0.00     0.074 A 
ATOM     59  C   UNL A   1      39.975  30.449  31.480  1.00  0.00     0.029 A 
ATOM     60  N   UNL A   1      41.734  30.539  30.166  1.00  0.00    -0.354 N 
ATOM     61  N   UNL A   1      44.635  29.332  31.571  1.00  0.00    -0.248 NA
ATOM     62  C   UNL A   1      46.843  29.982  31.530  1.00  0.00     0.031 C 
ATOM     63  C   UNL A   1      41.125  30.741  32.273  1.00  0.00     0.029 A 
ATOM     64  C   UNL A   1      42.205  30.860  31.421  1.00  0.00     0.049 A 
ATOM     65  H   UNL A   1      42.306  30.478  29.367  1.00  0.00     0.167 HD
ATOM     66  C   UNL A   1      44.631  30.712  31.591  1.00  0.00     0.074 A 
ATOM     67  C   UNL A   1      46.046  31.059  31.601  1.00  0.00     0.031 C 
ATOM     68  C   UNL A   1      43.505  31.498  31.532  1.00  0.00     0.034 A 
BRANCH  55  69
ATOM     69  C   UNL A   1      38.141  30.236  28.689  1.00  0.00     0.023 A 
ATOM     70  C   UNL A   1      37.339  29.116  28.354  1.00  0.00     0.012 A 
ATOM     71  C   UNL A   1      37.449  31.483  28.687  1.00  0.00     0.148 A 
ATOM     72  C   UNL A   1      36.008  29.219  27.921  1.00  0.00     0.002 A 
ATOM     73  C   UNL A   1      36.078  31.568  28.368  1.00  0.00     0.091 A 
ATOM     74  F   UNL A   1      38.110  32.620  28.921  1.00  0.00    -0.205 F 
ATOM     75  C   UNL A   1      35.373  30.446  27.933  1.00  0.00     0.022 A 
BRANCH  73  76
ATOM     76  S   UNL A   1      35.100  33.082  28.535  1.00  0.00     0.127 S 
ATOM     77  O   UNL A   1      35.389  33.497  29.907  1.00  0.00    -0.237 OA
ATOM     78  O   UNL A   1      35.690  33.947  27.509  1.00  0.00    -0.237 OA
ATOM     79  O   UNL A   1      33.716  32.706  28.278  1.00  0.00    -0.744 OA
ENDBRANCH  73  76
ENDBRANCH  55  69
BRANCH  56  80
ATOM     80  C   UNL A   1      47.570  26.881  30.608  1.00  0.00     0.023 A 
ATOM     81  C   UNL A   1      48.184  27.679  29.602  1.00  0.00     0.012 A 
ATOM     82  C   UNL A   1      48.390  26.202  31.516  1.00  0.00     0.148 A 
ATOM     83  C   UNL A   1      49.533  28.031  29.700  1.00  0.00     0.002 A 
ATOM     84  C   UNL A   1      49.726  26.595  31.635  1.00  0.00     0.091 A 
ATOM     85  F   UNL A   1      47.809  25.385  32.405  1.00  0.00    -0.205 F 
ATOM     86  C   UNL A   1      50.286  27.542  30.761  1.00  0.00     0.022 A 
BRANCH  84  87
ATOM     87  S   UNL A   1      50.623  26.196  33.144  1.00  0.00     0.127 S 
ATOM     88  O   UNL A   1      50.658  24.739  33.101  1.00  0.00    -0.237 OA
ATOM     89  O   UNL A   1      51.912  26.859  32.946  1.00  0.00    -0.237 OA
ATOM     90  O   UNL A   1      49.805  26.808  34.184  1.00  0.00    -0.744 OA
ENDBRANCH  84  87
ENDBRANCH  56  80
BRANCH  68  91
ATOM     91  C   UNL A   1      43.493  33.026  31.510  1.00  0.00     0.023 A 
ATOM     92  C   UNL A   1      43.503  33.785  32.691  1.00  0.00     0.012 A 
ATOM     93  C   UNL A   1      43.366  33.756  30.287  1.00  0.00     0.148 A 
ATOM     94  C   UNL A   1      43.530  35.184  32.666  1.00  0.00     0.002 A 
ATOM     95  C   UNL A   1      43.299  35.145  30.271  1.00  0.00     0.091 A 
ATOM     96  F   UNL A   1      43.325  33.110  29.118  1.00  0.00    -0.205 F 
ATOM     97  C   UNL A   1      43.431  35.865  31.458  1.00  0.00     0.022 A 
BRANCH  95  98
ATOM     98  S   UNL A   1      42.958  36.089  28.775  1.00  0.00     0.127 S 
ATOM     99  O   UNL A   1      41.583  35.683  28.478  1.00  0.00    -0.237 OA
ATOM    100  O   UNL A   1      43.096  37.464  29.253  1.00  0.00    -0.237 OA
ATOM    101  O   UNL A   1      43.936  35.664  27.784  1.00  0.00    -0.744 OA
ENDBRANCH  95  98
ENDBRANCH  68  91
ENDBRANCH  42  43
ENDBRANCH  35  37
ENDBRANCH  34  35
ENDBRANCH  33  34
ENDBRANCH  32  33
ENDBRANCH  31  32
ENDBRANCH  30  31
ENDBRANCH  29  30
ENDBRANCH   1  29
TORSDOF 26
ENDMDL
MODEL 2
REMARK VINA RESULT:      -9.7      3.862      9.498
REMARK SMILES Cc1ccc(Nc2c(Cl)cc(Cl)cc2Cl)c(CC(=O)OCCOCCOCCOCCOC(=O)c2ccc(-c3c4nc(c(-c5cccc(S(=O)(=O)[O-])c5F)c5ccc([nH]5)c(-c5cccc(S(=O)(=O)[O-])c5F)c5nc(c(-c6cccc(S(=O)(=O)[O-])c6F)c6ccc3[nH]6)C=C5)C=C4)cc2)c1
REMARK SMILES IDX 26 1 25 2 24 3 23 4 22 5 21 6 20 7 18 8 19 9 17 10 16 11
REMARK SMILES IDX 1 12 2 13 3 14 98 15 4 16 5 17 6 18 7 20 8 21 14 22 9 23
REMARK SMILES IDX 10 24 13 25 15 26 11 27 12 28 27 29 28 30 29 31 30 32 31 33
REMARK SMILES IDX 32 34 33 35 34 36 35 37 36 38 97 39 37 40 96 41 38 42 39 43
REMARK SMILES IDX 40 44 90 45 41 46 95 47 89 48 91 49 42 50 94 51 88 52 87 53
REMARK SMILES IDX 43 55 75 56 55 57 74 58 56 59 59 60 73 61 92 62 57 63 58 64
REMARK SMILES IDX 72 66 93 67 60 68 44 69 45 70 53 71 46 72 48 73 54 74 47 75
REMARK SMILES IDX 49 76 50 77 51 78 52 79 76 80 77 81 85 82 78 83 80 84 86 85
REMARK SMILES IDX 79 86 81 87 82 88 83 89 84 90 61 91 62 92 70 93 63 94 65 95
REMARK SMILES IDX 71 96 64 97 66 98 67 99 68 100 69 101
REMARK H PARENT 6 19 91 54 59 65
REMARK Flexibility Score: inf
ROOT
ATOM      1  O   UNL A   1      35.905  34.226  29.369  1.00  0.00    -0.377 OA
ENDROOT
BRANCH   1   2
ATOM      2  C   UNL A   1      34.601  34.763  29.086  1.00  0.00     0.188 C 
BRANCH   2   3
ATOM      3  C   UNL A   1      33.828  33.784  28.246  1.00  0.00     0.188 C 
BRANCH   3   4
ATOM      4  O   UNL A   1      33.828  32.420  28.575  1.00  0.00    -0.376 OA
BRANCH   4   5
ATOM      5  C   UNL A   1      34.357  31.488  27.647  1.00  0.00     0.202 C 
BRANCH   5   6
ATOM      6  C   UNL A   1      33.706  30.117  27.319  1.00  0.00     0.261 C 
BRANCH   6   7
ATOM      7  O   UNL A   1      32.280  30.059  27.215  1.00  0.00    -0.463 OA
BRANCH   7   8
ATOM      8  C   UNL A   1      31.782  30.675  26.119  1.00  0.00     0.310 C 
ATOM      9  O   UNL A   1      31.153  31.727  26.142  1.00  0.00    -0.252 OA
BRANCH   8  10
ATOM     10  C   UNL A   1      31.975  29.889  24.845  1.00  0.00     0.160 C 
BRANCH  10  11
ATOM     11  C   UNL A   1      30.846  29.024  24.299  1.00  0.00    -0.013 A 
ATOM     12  C   UNL A   1      27.740  29.808  22.155  1.00  0.00     0.044 C 
ATOM     13  C   UNL A   1      28.757  29.068  22.971  1.00  0.00    -0.051 A 
ATOM     14  C   UNL A   1      28.689  27.686  23.078  1.00  0.00     0.005 A 
ATOM     15  C   UNL A   1      29.816  29.725  23.606  1.00  0.00     0.009 A 
ATOM     16  C   UNL A   1      29.650  26.986  23.816  1.00  0.00     0.026 A 
ATOM     17  C   UNL A   1      30.765  27.605  24.423  1.00  0.00     0.042 A 
BRANCH  17  18
ATOM     18  N   UNL A   1      31.737  26.817  25.143  1.00  0.00    -0.353 N 
ATOM     19  H   UNL A   1      32.026  27.176  26.013  1.00  0.00     0.167 HD
BRANCH  18  20
ATOM     20  C   UNL A   1      32.338  25.566  24.744  1.00  0.00     0.076 A 
ATOM     21  C   UNL A   1      32.060  24.351  25.398  1.00  0.00     0.067 A 
ATOM     22  C   UNL A   1      33.385  25.517  23.784  1.00  0.00     0.067 A 
ATOM     23  Cl  UNL A   1      30.593  24.123  26.295  1.00  0.00    -0.082 Cl
ATOM     24  C   UNL A   1      32.904  23.237  25.277  1.00  0.00     0.043 A 
ATOM     25  C   UNL A   1      34.260  24.422  23.687  1.00  0.00     0.043 A 
ATOM     26  Cl  UNL A   1      33.566  26.737  22.573  1.00  0.00    -0.082 Cl
ATOM     27  C   UNL A   1      34.029  23.297  24.463  1.00  0.00     0.044 A 
ATOM     28  Cl  UNL A   1      35.092  21.947  24.377  1.00  0.00    -0.084 Cl
ENDBRANCH  18  20
ENDBRANCH  17  18
ENDBRANCH  10  11
ENDBRANCH   8  10
ENDBRANCH   7   8
ENDBRANCH   6   7
ENDBRANCH   5   6
ENDBRANCH   4   5
ENDBRANCH   3   4
ENDBRANCH   2   3
ENDBRANCH   1   2
BRANCH   1  29
ATOM     29  C   UNL A   1      36.072  33.886  30.746  1.00  0.00     0.188 C 
BRANCH  29  30
ATOM     30  C   UNL A   1      37.079  32.774  30.967  1.00  0.00     0.188 C 
BRANCH  30  31
ATOM     31  O   UNL A   1      36.994  32.373  32.320  1.00  0.00    -0.376 OA
BRANCH  31  32
ATOM     32  C   UNL A   1      36.850  30.990  32.583  1.00  0.00     0.202 C 
BRANCH  32  33
ATOM     33  C   UNL A   1      36.324  30.335  31.312  1.00  0.00     0.261 C 
BRANCH  33  34
ATOM     34  O   UNL A   1      37.277  29.333  30.890  1.00  0.00    -0.460 OA
BRANCH  34  35
ATOM     35  C   UNL A   1      37.339  29.170  29.536  1.00  0.00     0.338 C 
ATOM     36  O   UNL A   1      36.427  29.462  28.770  1.00  0.00    -0.246 OA
BRANCH  35  37
ATOM     37  C   UNL A   1      38.558  28.399  29.145  1.00  0.00     0.060 A 
ATOM     38  C   UNL A   1      38.969  27.319  29.942  1.00  0.00     0.016 A 
ATOM     39  C   UNL A   1      39.418  28.876  28.157  1.00  0.00     0.016 A 
ATOM     40  C   UNL A   1      40.288  26.843  29.875  1.00  0.00     0.010 A 
ATOM     41  C   UNL A   1      40.724  28.396  28.101  1.00  0.00     0.010 A 
ATOM     42  C   UNL A   1      41.207  27.442  29.022  1.00  0.00    -0.014 A 
BRANCH  42  43
ATOM     43  C   UNL A   1      42.685  27.281  29.133  1.00  0.00     0.031 A 
ATOM     44  C   UNL A   1      43.464  28.313  29.902  1.00  0.00     0.074 A 
ATOM     45  C   UNL A   1      43.159  26.008  29.056  1.00  0.00     0.049 A 
ATOM     46  N   UNL A   1      44.700  28.215  30.284  1.00  0.00    -0.248 NA
ATOM     47  C   UNL A   1      42.889  29.620  30.237  1.00  0.00     0.031 C 
ATOM     48  C   UNL A   1      43.872  25.271  30.083  1.00  0.00     0.029 A 
ATOM     49  N   UNL A   1      43.086  25.066  28.037  1.00  0.00    -0.354 N 
ATOM     50  C   UNL A   1      44.943  29.254  31.184  1.00  0.00     0.074 A 
ATOM     51  C   UNL A   1      43.841  30.162  31.003  1.00  0.00     0.031 C 
ATOM     52  C   UNL A   1      44.389  24.135  29.623  1.00  0.00     0.029 A 
ATOM     53  C   UNL A   1      44.100  24.109  28.225  1.00  0.00     0.049 A 
ATOM     54  H   UNL A   1      42.430  25.068  27.303  1.00  0.00     0.167 HD
ATOM     55  C   UNL A   1      45.958  29.174  32.101  1.00  0.00     0.034 A 
ATOM     56  C   UNL A   1      44.949  23.594  27.309  1.00  0.00     0.034 A 
ATOM     57  C   UNL A   1      46.882  28.026  31.865  1.00  0.00     0.049 A 
ATOM     58  C   UNL A   1      46.346  24.158  27.537  1.00  0.00     0.074 A 
ATOM     59  C   UNL A   1      47.654  27.190  32.660  1.00  0.00     0.029 A 
ATOM     60  N   UNL A   1      47.106  27.567  30.566  1.00  0.00    -0.354 N 
ATOM     61  N   UNL A   1      46.779  24.734  28.638  1.00  0.00    -0.248 NA
ATOM     62  C   UNL A   1      47.350  24.174  26.480  1.00  0.00     0.031 C 
ATOM     63  C   UNL A   1      48.311  26.229  31.835  1.00  0.00     0.029 A 
ATOM     64  C   UNL A   1      48.008  26.526  30.521  1.00  0.00     0.049 A 
ATOM     65  H   UNL A   1      46.666  27.944  29.769  1.00  0.00     0.167 HD
ATOM     66  C   UNL A   1      47.991  25.347  28.388  1.00  0.00     0.074 A 
ATOM     67  C   UNL A   1      48.314  24.927  27.032  1.00  0.00     0.031 C 
ATOM     68  C   UNL A   1      48.633  26.204  29.249  1.00  0.00     0.034 A 
BRANCH  55  69
ATOM     69  C   UNL A   1      46.074  30.049  33.387  1.00  0.00     0.023 A 
ATOM     70  C   UNL A   1      46.883  31.209  33.300  1.00  0.00     0.012 A 
ATOM     71  C   UNL A   1      45.574  29.771  34.693  1.00  0.00     0.148 A 
ATOM     72  C   UNL A   1      47.284  31.959  34.417  1.00  0.00     0.002 A 
ATOM     73  C   UNL A   1      45.881  30.595  35.795  1.00  0.00     0.091 A 
ATOM     74  F   UNL A   1      44.855  28.667  34.917  1.00  0.00    -0.205 F 
ATOM     75  C   UNL A   1      46.779  31.656  35.668  1.00  0.00     0.022 A 
BRANCH  73  76
ATOM     76  S   UNL A   1      45.128  30.409  37.430  1.00  0.00     0.127 S 
ATOM     77  O   UNL A   1      45.683  31.546  38.166  1.00  0.00    -0.237 OA
ATOM     78  O   UNL A   1      43.699  30.529  37.130  1.00  0.00    -0.237 OA
ATOM     79  O   UNL A   1      45.531  29.097  37.919  1.00  0.00    -0.744 OA
ENDBRANCH  73  76
ENDBRANCH  55  69
BRANCH  56  80
ATOM     80  C   UNL A   1      44.206  23.204  26.072  1.00  0.00     0.023 A 
ATOM     81  C   UNL A   1      44.689  23.874  24.913  1.00  0.00     0.012 A 
ATOM     82  C   UNL A   1      43.763  21.883  25.945  1.00  0.00     0.148 A 
ATOM     83  C   UNL A   1      45.008  23.154  23.759  1.00  0.00     0.002 A 
ATOM     84  C   UNL A   1      44.129  21.161  24.805  1.00  0.00     0.091 A 
ATOM     85  F   UNL A   1      43.230  21.289  27.021  1.00  0.00    -0.205 F 
ATOM     86  C   UNL A   1      44.792  21.782  23.733  1.00  0.00     0.022 A 
BRANCH  84  87
ATOM     87  S   UNL A   1      44.111  19.362  24.868  1.00  0.00     0.127 S 
ATOM     88  O   UNL A   1      44.582  19.006  23.536  1.00  0.00    -0.237 OA
ATOM     89  O   UNL A   1      45.038  19.062  25.960  1.00  0.00    -0.237 OA
ATOM     90  O   UNL A   1      42.720  19.058  25.183  1.00  0.00    -0.744 OA
ENDBRANCH  84  87
ENDBRANCH  56  80
BRANCH  68  91
ATOM     91  C   UNL A   1      49.952  26.921  28.964  1.00  0.00     0.023 A 
ATOM     92  C   UNL A   1      51.149  26.553  29.600  1.00  0.00     0.012 A 
ATOM     93  C   UNL A   1      50.012  28.068  28.113  1.00  0.00     0.148 A 
ATOM     94  C   UNL A   1      52.362  27.188  29.308  1.00  0.00     0.002 A 
ATOM     95  C   UNL A   1      51.203  28.754  27.897  1.00  0.00     0.091 A 
ATOM     96  F   UNL A   1      48.914  28.500  27.486  1.00  0.00    -0.205 F 
ATOM     97  C   UNL A   1      52.391  28.285  28.456  1.00  0.00     0.022 A 
BRANCH  95  98
ATOM     98  S   UNL A   1      51.285  30.303  26.981  1.00  0.00     0.127 S 
ATOM     99  O   UNL A   1      52.677  30.701  27.202  1.00  0.00    -0.237 OA
ATOM    100  O   UNL A   1      50.987  29.860  25.620  1.00  0.00    -0.237 OA
ATOM    101  O   UNL A   1      50.304  31.194  27.584  1.00  0.00    -0.744 OA
ENDBRANCH  95  98
ENDBRANCH  68  91
ENDBRANCH  42  43
ENDBRANCH  35  37
ENDBRANCH  34  35
ENDBRANCH  33  34
ENDBRANCH  32  33
ENDBRANCH  31  32
ENDBRANCH  30  31
ENDBRANCH  29  30
ENDBRANCH   1  29
TORSDOF 26
ENDMDL
MODEL 3
REMARK VINA RESULT:      -9.5      5.103      9.375
REMARK SMILES Cc1ccc(Nc2c(Cl)cc(Cl)cc2Cl)c(CC(=O)OCCOCCOCCOCCOC(=O)c2ccc(-c3c4nc(c(-c5cccc(S(=O)(=O)[O-])c5F)c5ccc([nH]5)c(-c5cccc(S(=O)(=O)[O-])c5F)c5nc(c(-c6cccc(S(=O)(=O)[O-])c6F)c6ccc3[nH]6)C=C5)C=C4)cc2)c1
REMARK SMILES IDX 26 1 25 2 24 3 23 4 22 5 21 6 20 7 18 8 19 9 17 10 16 11
REMARK SMILES IDX 1 12 2 13 3 14 98 15 4 16 5 17 6 18 7 20 8 21 14 22 9 23
REMARK SMILES IDX 10 24 13 25 15 26 11 27 12 28 27 29 28 30 29 31 30 32 31 33
REMARK SMILES IDX 32 34 33 35 34 36 35 37 36 38 97 39 37 40 96 41 38 42 39 43
REMARK SMILES IDX 40 44 90 45 41 46 95 47 89 48 91 49 42 50 94 51 88 52 87 53
REMARK SMILES IDX 43 55 75 56 55 57 74 58 56 59 59 60 73 61 92 62 57 63 58 64
REMARK SMILES IDX 72 66 93 67 60 68 44 69 45 70 53 71 46 72 48 73 54 74 47 75
REMARK SMILES IDX 49 76 50 77 51 78 52 79 76 80 77 81 85 82 78 83 80 84 86 85
REMARK SMILES IDX 79 86 81 87 82 88 83 89 84 90 61 91 62 92 70 93 63 94 65 95
REMARK SMILES IDX 71 96 64 97 66 98 67 99 68 100 69 101
REMARK H PARENT 6 19 91 54 59 65
REMARK Flexibility Score: inf
ROOT
ATOM      1  O   UNL A   1      41.701  25.721  27.271  1.00  0.00    -0.377 OA
ENDROOT
BRANCH   1   2
ATOM      2  C   UNL A   1      40.294  25.605  27.547  1.00  0.00     0.188 C 
BRANCH   2   3
ATOM      3  C   UNL A   1      39.676  24.624  26.590  1.00  0.00     0.188 C 
BRANCH   3   4
ATOM      4  O   UNL A   1      38.400  24.099  26.845  1.00  0.00    -0.376 OA
BRANCH   4   5
ATOM      5  C   UNL A   1      37.764  23.320  25.846  1.00  0.00     0.202 C 
BRANCH   5   6
ATOM      6  C   UNL A   1      36.225  23.184  25.692  1.00  0.00     0.261 C 
BRANCH   6   7
ATOM      7  O   UNL A   1      35.407  23.496  26.825  1.00  0.00    -0.463 OA
BRANCH   7   8
ATOM      8  C   UNL A   1      34.425  22.597  27.060  1.00  0.00     0.310 C 
ATOM      9  O   UNL A   1      34.564  21.579  27.729  1.00  0.00    -0.252 OA
BRANCH   8  10
ATOM     10  C   UNL A   1      33.142  22.900  26.326  1.00  0.00     0.160 C 
BRANCH  10  11
ATOM     11  C   UNL A   1      32.944  22.416  24.895  1.00  0.00    -0.013 A 
ATOM     12  C   UNL A   1      32.007  18.994  23.388  1.00  0.00     0.044 C 
ATOM     13  C   UNL A   1      32.389  20.439  23.513  1.00  0.00    -0.051 A 
ATOM     14  C   UNL A   1      32.420  21.248  22.386  1.00  0.00     0.005 A 
ATOM     15  C   UNL A   1      32.679  21.022  24.749  1.00  0.00     0.009 A 
ATOM     16  C   UNL A   1      32.751  22.604  22.498  1.00  0.00     0.026 A 
ATOM     17  C   UNL A   1      32.994  23.242  23.734  1.00  0.00     0.042 A 
BRANCH  17  18
ATOM     18  N   UNL A   1      33.298  24.653  23.780  1.00  0.00    -0.353 N 
ATOM     19  H   UNL A   1      34.240  24.888  23.937  1.00  0.00     0.167 HD
BRANCH  18  20
ATOM     20  C   UNL A   1      32.387  25.764  23.623  1.00  0.00     0.076 A 
ATOM     21  C   UNL A   1      31.781  26.404  24.721  1.00  0.00     0.067 A 
ATOM     22  C   UNL A   1      31.908  26.159  22.346  1.00  0.00     0.067 A 
ATOM     23  Cl  UNL A   1      32.487  26.345  26.304  1.00  0.00    -0.082 Cl
ATOM     24  C   UNL A   1      30.636  27.199  24.572  1.00  0.00     0.043 A 
ATOM     25  C   UNL A   1      30.737  26.919  22.189  1.00  0.00     0.043 A 
ATOM     26  Cl  UNL A   1      32.809  25.854  20.902  1.00  0.00    -0.082 Cl
ATOM     27  C   UNL A   1      30.088  27.408  23.311  1.00  0.00     0.044 A 
ATOM     28  Cl  UNL A   1      28.644  28.329  23.150  1.00  0.00    -0.084 Cl
ENDBRANCH  18  20
ENDBRANCH  17  18
ENDBRANCH  10  11
ENDBRANCH   8  10
ENDBRANCH   7   8
ENDBRANCH   6   7
ENDBRANCH   5   6
ENDBRANCH   4   5
ENDBRANCH   3   4
ENDBRANCH   2   3
ENDBRANCH   1   2
BRANCH   1  29
ATOM     29  C   UNL A   1      42.089  25.011  26.093  1.00  0.00     0.188 C 
BRANCH  29  30
ATOM     30  C   UNL A   1      42.759  25.896  25.059  1.00  0.00     0.188 C 
BRANCH  30  31
ATOM     31  O   UNL A   1      44.110  26.065  25.440  1.00  0.00    -0.376 OA
BRANCH  31  32
ATOM     32  C   UNL A   1      44.681  27.349  25.267  1.00  0.00     0.202 C 
BRANCH  32  33
ATOM     33  C   UNL A   1      44.530  28.098  26.586  1.00  0.00     0.261 C 
BRANCH  33  34
ATOM     34  O   UNL A   1      43.690  29.252  26.357  1.00  0.00    -0.460 OA
BRANCH  34  35
ATOM     35  C   UNL A   1      42.471  29.173  26.965  1.00  0.00     0.338 C 
ATOM     36  O   UNL A   1      41.409  29.082  26.359  1.00  0.00    -0.246 OA
BRANCH  35  37
ATOM     37  C   UNL A   1      42.587  29.427  28.433  1.00  0.00     0.060 A 
ATOM     38  C   UNL A   1      41.813  28.665  29.322  1.00  0.00     0.016 A 
ATOM     39  C   UNL A   1      43.257  30.552  28.912  1.00  0.00     0.016 A 
ATOM     40  C   UNL A   1      41.564  29.123  30.626  1.00  0.00     0.010 A 
ATOM     41  C   UNL A   1      43.001  30.996  30.207  1.00  0.00     0.010 A 
ATOM     42  C   UNL A   1      42.077  30.343  31.050  1.00  0.00    -0.014 A 
BRANCH  42  43
ATOM     43  C   UNL A   1      41.585  31.091  32.242  1.00  0.00     0.031 A 
ATOM     44  C   UNL A   1      42.284  30.887  33.558  1.00  0.00     0.074 A 
ATOM     45  C   UNL A   1      40.964  32.276  31.994  1.00  0.00     0.049 A 
ATOM     46  N   UNL A   1      42.139  31.609  34.626  1.00  0.00    -0.248 NA
ATOM     47  C   UNL A   1      43.180  29.748  33.785  1.00  0.00     0.031 C 
ATOM     48  C   UNL A   1      41.387  33.598  32.418  1.00  0.00     0.029 A 
ATOM     49  N   UNL A   1      39.812  32.571  31.274  1.00  0.00    -0.354 N 
ATOM     50  C   UNL A   1      43.152  31.249  35.516  1.00  0.00     0.074 A 
ATOM     51  C   UNL A   1      43.667  30.007  35.003  1.00  0.00     0.031 C 
ATOM     52  C   UNL A   1      40.454  34.521  32.204  1.00  0.00     0.029 A 
ATOM     53  C   UNL A   1      39.321  33.822  31.690  1.00  0.00     0.049 A 
ATOM     54  H   UNL A   1      39.406  31.997  30.585  1.00  0.00     0.167 HD
ATOM     55  C   UNL A   1      43.565  32.105  36.503  1.00  0.00     0.034 A 
ATOM     56  C   UNL A   1      38.048  34.170  31.983  1.00  0.00     0.034 A 
ATOM     57  C   UNL A   1      42.676  33.292  36.670  1.00  0.00     0.049 A 
ATOM     58  C   UNL A   1      37.905  34.348  33.490  1.00  0.00     0.074 A 
ATOM     59  C   UNL A   1      42.844  34.616  37.051  1.00  0.00     0.029 A 
ATOM     60  N   UNL A   1      41.311  33.186  36.391  1.00  0.00    -0.354 N 
ATOM     61  N   UNL A   1      38.889  34.526  34.347  1.00  0.00    -0.248 NA
ATOM     62  C   UNL A   1      36.610  34.262  34.154  1.00  0.00     0.031 C 
ATOM     63  C   UNL A   1      41.589  35.292  36.977  1.00  0.00     0.029 A 
ATOM     64  C   UNL A   1      40.630  34.361  36.627  1.00  0.00     0.049 A 
ATOM     65  H   UNL A   1      40.883  32.363  36.061  1.00  0.00     0.167 HD
ATOM     66  C   UNL A   1      38.407  34.385  35.633  1.00  0.00     0.074 A 
ATOM     67  C   UNL A   1      36.967  34.261  35.448  1.00  0.00     0.031 C 
ATOM     68  C   UNL A   1      39.185  34.311  36.763  1.00  0.00     0.034 A 
BRANCH  55  69
ATOM     69  C   UNL A   1      44.916  31.997  37.274  1.00  0.00     0.023 A 
ATOM     70  C   UNL A   1      46.077  31.748  36.501  1.00  0.00     0.012 A 
ATOM     71  C   UNL A   1      45.129  31.987  38.685  1.00  0.00     0.148 A 
ATOM     72  C   UNL A   1      47.314  31.385  37.056  1.00  0.00     0.002 A 
ATOM     73  C   UNL A   1      46.402  31.739  39.239  1.00  0.00     0.091 A 
ATOM     74  F   UNL A   1      44.100  32.141  39.522  1.00  0.00    -0.205 F 
ATOM     75  C   UNL A   1      47.480  31.385  38.428  1.00  0.00     0.022 A 
BRANCH  73  76
ATOM     76  S   UNL A   1      46.779  31.902  41.002  1.00  0.00     0.127 S 
ATOM     77  O   UNL A   1      48.221  31.660  41.041  1.00  0.00    -0.237 OA
ATOM     78  O   UNL A   1      46.394  33.289  41.276  1.00  0.00    -0.237 OA
ATOM     79  O   UNL A   1      45.963  30.907  41.688  1.00  0.00    -0.744 OA
ENDBRANCH  73  76
ENDBRANCH  55  69
BRANCH  56  80
ATOM     80  C   UNL A   1      37.115  33.662  30.933  1.00  0.00     0.023 A 
ATOM     81  C   UNL A   1      37.405  34.191  29.644  1.00  0.00     0.012 A 
ATOM     82  C   UNL A   1      36.655  32.344  31.026  1.00  0.00     0.148 A 
ATOM     83  C   UNL A   1      37.534  33.343  28.541  1.00  0.00     0.002 A 
ATOM     84  C   UNL A   1      36.831  31.494  29.930  1.00  0.00     0.091 A 
ATOM     85  F   UNL A   1      36.301  31.881  32.233  1.00  0.00    -0.205 F 
ATOM     86  C   UNL A   1      37.314  31.980  28.703  1.00  0.00     0.022 A 
BRANCH  84  87
ATOM     87  S   UNL A   1      36.821  29.713  30.195  1.00  0.00     0.127 S 
ATOM     88  O   UNL A   1      36.056  29.239  29.048  1.00  0.00    -0.237 OA
ATOM     89  O   UNL A   1      38.243  29.371  30.183  1.00  0.00    -0.237 OA
ATOM     90  O   UNL A   1      36.199  29.580  31.507  1.00  0.00    -0.744 OA
ENDBRANCH  84  87
ENDBRANCH  56  80
BRANCH  68  91
ATOM     91  C   UNL A   1      38.664  34.111  38.185  1.00  0.00     0.023 A 
ATOM     92  C   UNL A   1      39.073  34.934  39.247  1.00  0.00     0.012 A 
ATOM     93  C   UNL A   1      37.813  33.013  38.524  1.00  0.00     0.148 A 
ATOM     94  C   UNL A   1      38.565  34.772  40.541  1.00  0.00     0.002 A 
ATOM     95  C   UNL A   1      37.384  32.800  39.830  1.00  0.00     0.091 A 
ATOM     96  F   UNL A   1      37.396  32.167  37.577  1.00  0.00    -0.205 F 
ATOM     97  C   UNL A   1      37.719  33.708  40.833  1.00  0.00     0.022 A 
BRANCH  95  98
ATOM     98  S   UNL A   1      36.465  31.332  40.328  1.00  0.00     0.127 S 
ATOM     99  O   UNL A   1      37.388  30.263  39.941  1.00  0.00    -0.237 OA
ATOM    100  O   UNL A   1      36.339  31.535  41.770  1.00  0.00    -0.237 OA
ATOM    101  O   UNL A   1      35.218  31.348  39.576  1.00  0.00    -0.744 OA
ENDBRANCH  95  98
ENDBRANCH  68  91
ENDBRANCH  42  43
ENDBRANCH  35  37
ENDBRANCH  34  35
ENDBRANCH  33  34
ENDBRANCH  32  33
ENDBRANCH  31  32
ENDBRANCH  30  31
ENDBRANCH  29  30
ENDBRANCH   1  29
TORSDOF 26
ENDMDL
