MODEL 1
REMARK VINA RESULT:      -9.6      0.000      0.000
REMARK SMILES O=C(OCCOCCOCCOCCOC(=O)c1nnn(-c2ccc(C(F)(F)F)cc2)c1-c1cccc(Cl)c1)c1ccc(-c2c3nc(c(-c4cccc(S(=O)(=O)[O-])c4F)c4ccc([nH]4)c(-c4cccc(S(=O)(=O)[O-])c4F)c4nc(c(-c5cccc(S(=O)(=O)[O-])c5F)c5ccc2[nH]5)C=C4)C=C3)cc1
REMARK SMILES IDX 8 1 7 2 6 3 5 4 4 5 3 6 2 7 1 8 40 9 41 10 102 11 42 12
REMARK SMILES IDX 101 13 43 14 44 15 45 16 95 17 46 18 100 19 94 20 96 21
REMARK SMILES IDX 47 22 99 23 93 24 92 25 48 27 80 28 60 29 79 30 61 31 64 32
REMARK SMILES IDX 78 33 97 34 62 35 63 36 77 38 98 39 65 40 49 41 50 42 58 43
REMARK SMILES IDX 51 44 53 45 59 46 52 47 54 48 55 49 56 50 57 51 81 52 82 53
REMARK SMILES IDX 90 54 83 55 85 56 91 57 84 58 86 59 87 60 88 61 89 62 66 63
REMARK SMILES IDX 67 64 75 65 68 66 70 67 76 68 69 69 71 70 72 71 73 72 74 73
REMARK SMILES IDX 9 74 10 75 11 76 12 77 13 78 14 79 15 80 16 81 17 82 18 83
REMARK SMILES IDX 19 84 32 85 20 86 21 87 33 88 34 89 39 90 35 91 37 92 36 93
REMARK SMILES IDX 38 94 22 95 23 96 31 97 24 98 30 99 25 100 26 101 27 102
REMARK SMILES IDX 28 103 29 104
REMARK H PARENT 96 26 64 37
REMARK Flexibility Score: inf
ROOT
ATOM      1  C   UNL A   1      42.168  26.249  26.250  1.00  0.00     0.188 C 
ENDROOT
BRANCH   1   2
ATOM      2  C   UNL A   1      43.033  25.528  25.201  1.00  0.00     0.188 C 
BRANCH   2   3
ATOM      3  O   UNL A   1      44.450  25.484  25.241  1.00  0.00    -0.376 OA
BRANCH   3   4
ATOM      4  C   UNL A   1      45.326  24.779  26.100  1.00  0.00     0.202 C 
BRANCH   4   5
ATOM      5  C   UNL A   1      46.353  25.388  27.057  1.00  0.00     0.261 C 
BRANCH   5   6
ATOM      6  O   UNL A   1      47.197  26.386  26.510  1.00  0.00    -0.460 OA
BRANCH   6   7
ATOM      7  C   UNL A   1      46.956  27.707  26.397  1.00  0.00     0.338 C 
ATOM      8  O   UNL A   1      47.790  28.389  25.806  1.00  0.00    -0.246 OA
BRANCH   7   9
ATOM      9  C   UNL A   1      45.791  28.395  27.024  1.00  0.00     0.060 A 
ATOM     10  C   UNL A   1      44.631  28.832  26.375  1.00  0.00     0.016 A 
ATOM     11  C   UNL A   1      45.899  28.594  28.412  1.00  0.00     0.016 A 
ATOM     12  C   UNL A   1      43.713  29.620  27.030  1.00  0.00     0.010 A 
ATOM     13  C   UNL A   1      44.964  29.350  29.090  1.00  0.00     0.010 A 
ATOM     14  C   UNL A   1      43.937  29.932  28.360  1.00  0.00    -0.014 A 
BRANCH  14  15
ATOM     15  C   UNL A   1      43.066  30.932  28.933  1.00  0.00     0.031 A 
ATOM     16  C   UNL A   1      43.656  32.288  29.030  1.00  0.00     0.074 A 
ATOM     17  C   UNL A   1      41.828  30.577  29.321  1.00  0.00     0.049 A 
ATOM     18  N   UNL A   1      43.872  32.986  30.097  1.00  0.00    -0.248 NA
ATOM     19  C   UNL A   1      44.213  32.874  27.802  1.00  0.00     0.031 C 
ATOM     20  C   UNL A   1      41.133  29.314  29.044  1.00  0.00     0.029 A 
ATOM     21  N   UNL A   1      40.867  31.335  29.906  1.00  0.00    -0.354 N 
ATOM     22  C   UNL A   1      44.367  34.206  29.639  1.00  0.00     0.074 A 
ATOM     23  C   UNL A   1      44.730  34.012  28.260  1.00  0.00     0.031 C 
ATOM     24  C   UNL A   1      39.805  29.506  29.187  1.00  0.00     0.029 A 
ATOM     25  C   UNL A   1      39.584  30.847  29.692  1.00  0.00     0.049 A 
ATOM     26  H   UNL A   1      41.059  32.148  30.429  1.00  0.00     0.167 HD
ATOM     27  C   UNL A   1      44.185  35.355  30.345  1.00  0.00     0.034 A 
ATOM     28  C   UNL A   1      38.433  31.551  29.804  1.00  0.00     0.034 A 
ATOM     29  C   UNL A   1      43.904  35.095  31.729  1.00  0.00     0.049 A 
ATOM     30  C   UNL A   1      38.723  32.743  30.634  1.00  0.00     0.074 A 
ATOM     31  C   UNL A   1      44.573  34.453  32.752  1.00  0.00     0.029 A 
ATOM     32  N   UNL A   1      42.598  35.205  32.140  1.00  0.00    -0.354 N 
ATOM     33  N   UNL A   1      39.040  32.679  31.898  1.00  0.00    -0.248 NA
ATOM     34  C   UNL A   1      39.102  33.973  29.956  1.00  0.00     0.031 C 
ATOM     35  C   UNL A   1      43.554  33.790  33.495  1.00  0.00     0.029 A 
ATOM     36  C   UNL A   1      42.323  34.116  32.923  1.00  0.00     0.049 A 
ATOM     37  H   UNL A   1      41.976  35.934  31.914  1.00  0.00     0.167 HD
ATOM     38  C   UNL A   1      40.038  33.632  32.053  1.00  0.00     0.074 A 
ATOM     39  C   UNL A   1      39.953  34.469  30.857  1.00  0.00     0.031 C 
ATOM     40  C   UNL A   1      41.028  33.475  32.983  1.00  0.00     0.034 A 
BRANCH  27  41
ATOM     41  C   UNL A   1      43.886  36.687  29.701  1.00  0.00     0.023 A 
ATOM     42  C   UNL A   1      42.807  36.753  28.795  1.00  0.00     0.012 A 
ATOM     43  C   UNL A   1      44.770  37.792  29.729  1.00  0.00     0.148 A 
ATOM     44  C   UNL A   1      42.639  37.846  27.936  1.00  0.00     0.002 A 
ATOM     45  C   UNL A   1      44.548  38.913  28.939  1.00  0.00     0.091 A 
ATOM     46  F   UNL A   1      45.915  37.717  30.412  1.00  0.00    -0.205 F 
ATOM     47  C   UNL A   1      43.503  38.933  28.017  1.00  0.00     0.022 A 
BRANCH  45  48
ATOM     48  S   UNL A   1      45.606  40.360  29.058  1.00  0.00     0.127 S 
ATOM     49  O   UNL A   1      45.031  41.228  28.035  1.00  0.00    -0.237 OA
ATOM     50  O   UNL A   1      45.374  40.787  30.438  1.00  0.00    -0.237 OA
ATOM     51  O   UNL A   1      46.958  39.874  28.806  1.00  0.00    -0.744 OA
ENDBRANCH  45  48
ENDBRANCH  27  41
BRANCH  28  52
ATOM     52  C   UNL A   1      37.207  31.432  28.982  1.00  0.00     0.023 A 
ATOM     53  C   UNL A   1      36.812  30.168  28.506  1.00  0.00     0.012 A 
ATOM     54  C   UNL A   1      36.286  32.501  28.882  1.00  0.00     0.148 A 
ATOM     55  C   UNL A   1      35.535  29.969  27.969  1.00  0.00     0.002 A 
ATOM     56  C   UNL A   1      35.025  32.302  28.333  1.00  0.00     0.091 A 
ATOM     57  F   UNL A   1      36.612  33.689  29.408  1.00  0.00    -0.205 F 
ATOM     58  C   UNL A   1      34.640  31.033  27.886  1.00  0.00     0.022 A 
BRANCH  56  59
ATOM     59  S   UNL A   1      33.815  33.628  28.210  1.00  0.00     0.127 S 
ATOM     60  O   UNL A   1      34.534  34.620  27.410  1.00  0.00    -0.237 OA
ATOM     61  O   UNL A   1      32.712  32.967  27.520  1.00  0.00    -0.237 OA
ATOM     62  O   UNL A   1      33.546  34.048  29.580  1.00  0.00    -0.744 OA
ENDBRANCH  56  59
ENDBRANCH  28  52
BRANCH  40  63
ATOM     63  C   UNL A   1      40.883  32.363  33.993  1.00  0.00     0.023 A 
ATOM     64  C   UNL A   1      40.110  32.506  35.166  1.00  0.00     0.012 A 
ATOM     65  C   UNL A   1      41.381  31.092  33.662  1.00  0.00     0.148 A 
ATOM     66  C   UNL A   1      39.863  31.412  36.000  1.00  0.00     0.002 A 
ATOM     67  C   UNL A   1      41.092  29.997  34.469  1.00  0.00     0.091 A 
ATOM     68  F   UNL A   1      42.108  30.968  32.541  1.00  0.00    -0.205 F 
ATOM     69  C   UNL A   1      40.342  30.155  35.644  1.00  0.00     0.022 A 
BRANCH  67  70
ATOM     70  S   UNL A   1      41.567  28.334  33.993  1.00  0.00     0.127 S 
ATOM     71  O   UNL A   1      43.023  28.435  33.941  1.00  0.00    -0.237 OA
ATOM     72  O   UNL A   1      41.048  27.529  35.101  1.00  0.00    -0.237 OA
ATOM     73  O   UNL A   1      40.907  28.080  32.718  1.00  0.00    -0.744 OA
ENDBRANCH  67  70
ENDBRANCH  40  63
ENDBRANCH  14  15
ENDBRANCH   7   9
ENDBRANCH   6   7
ENDBRANCH   5   6
ENDBRANCH   4   5
ENDBRANCH   3   4
ENDBRANCH   2   3
ENDBRANCH   1   2
BRANCH   1  74
ATOM     74  O   UNL A   1      42.260  25.761  27.579  1.00  0.00    -0.377 OA
BRANCH  74  75
ATOM     75  C   UNL A   1      41.672  24.493  27.757  1.00  0.00     0.188 C 
BRANCH  75  76
ATOM     76  C   UNL A   1      40.125  24.484  27.761  1.00  0.00     0.188 C 
BRANCH  76  77
ATOM     77  O   UNL A   1      39.336  23.548  27.031  1.00  0.00    -0.376 OA
BRANCH  77  78
ATOM     78  C   UNL A   1      39.656  22.171  26.975  1.00  0.00     0.202 C 
BRANCH  78  79
ATOM     79  C   UNL A   1      39.032  21.351  25.846  1.00  0.00     0.261 C 
BRANCH  79  80
ATOM     80  O   UNL A   1      38.171  22.095  24.983  1.00  0.00    -0.458 OA
BRANCH  80  81
ATOM     81  C   UNL A   1      36.934  21.567  24.762  1.00  0.00     0.361 C 
ATOM     82  O   UNL A   1      36.533  20.484  25.169  1.00  0.00    -0.244 OA
BRANCH  81  83
ATOM     83  C   UNL A   1      36.141  22.451  23.932  1.00  0.00     0.198 A 
ATOM     84  N   UNL A   1      36.451  22.837  22.650  1.00  0.00    -0.122 NA
ATOM     85  C   UNL A   1      34.911  22.961  24.282  1.00  0.00     0.109 A 
ATOM     86  N   UNL A   1      35.425  23.532  22.169  1.00  0.00    -0.061 NA
ATOM     87  N   UNL A   1      34.564  23.732  23.189  1.00  0.00    -0.212 N 
BRANCH  85  88
ATOM     88  C   UNL A   1      34.159  22.804  25.519  1.00  0.00     0.004 A 
ATOM     89  C   UNL A   1      34.790  22.827  26.769  1.00  0.00     0.010 A 
ATOM     90  C   UNL A   1      32.767  22.662  25.451  1.00  0.00     0.031 A 
ATOM     91  C   UNL A   1      34.033  22.696  27.935  1.00  0.00     0.002 A 
ATOM     92  C   UNL A   1      32.020  22.545  26.615  1.00  0.00     0.041 A 
ATOM     93  C   UNL A   1      32.647  22.557  27.858  1.00  0.00     0.020 A 
ATOM     94  Cl  UNL A   1      30.311  22.384  26.509  1.00  0.00    -0.084 Cl
ENDBRANCH  85  88
BRANCH  87  95
ATOM     95  C   UNL A   1      33.622  24.774  23.177  1.00  0.00     0.067 A 
ATOM     96  C   UNL A   1      32.439  24.662  22.450  1.00  0.00     0.029 A 
ATOM     97  C   UNL A   1      33.866  25.871  24.010  1.00  0.00     0.029 A 
ATOM     98  C   UNL A   1      31.437  25.615  22.669  1.00  0.00     0.015 A 
ATOM     99  C   UNL A   1      32.882  26.826  24.199  1.00  0.00     0.015 A 
ATOM    100  C   UNL A   1      31.641  26.685  23.565  1.00  0.00     0.056 A 
BRANCH 100 101
ATOM    101  C   UNL A   1      30.529  27.652  23.884  1.00  0.00     0.416 C 
ATOM    102  F   UNL A   1      30.305  28.548  22.887  1.00  0.00    -0.166 F 
ATOM    103  F   UNL A   1      29.342  27.020  24.102  1.00  0.00    -0.166 F 
ATOM    104  F   UNL A   1      30.762  28.391  25.007  1.00  0.00    -0.166 F 
ENDBRANCH 100 101
ENDBRANCH  87  95
ENDBRANCH  81  83
ENDBRANCH  80  81
ENDBRANCH  79  80
ENDBRANCH  78  79
ENDBRANCH  77  78
ENDBRANCH  76  77
ENDBRANCH  75  76
ENDBRANCH  74  75
ENDBRANCH   1  74
TORSDOF 26
ENDMDL
MODEL 2
REMARK VINA RESULT:      -9.2      6.812     14.548
REMARK SMILES O=C(OCCOCCOCCOCCOC(=O)c1nnn(-c2ccc(C(F)(F)F)cc2)c1-c1cccc(Cl)c1)c1ccc(-c2c3nc(c(-c4cccc(S(=O)(=O)[O-])c4F)c4ccc([nH]4)c(-c4cccc(S(=O)(=O)[O-])c4F)c4nc(c(-c5cccc(S(=O)(=O)[O-])c5F)c5ccc2[nH]5)C=C4)C=C3)cc1
REMARK SMILES IDX 8 1 7 2 6 3 5 4 4 5 3 6 2 7 1 8 40 9 41 10 102 11 42 12
REMARK SMILES IDX 101 13 43 14 44 15 45 16 95 17 46 18 100 19 94 20 96 21
REMARK SMILES IDX 47 22 99 23 93 24 92 25 48 27 80 28 60 29 79 30 61 31 64 32
REMARK SMILES IDX 78 33 97 34 62 35 63 36 77 38 98 39 65 40 49 41 50 42 58 43
REMARK SMILES IDX 51 44 53 45 59 46 52 47 54 48 55 49 56 50 57 51 81 52 82 53
REMARK SMILES IDX 90 54 83 55 85 56 91 57 84 58 86 59 87 60 88 61 89 62 66 63
REMARK SMILES IDX 67 64 75 65 68 66 70 67 76 68 69 69 71 70 72 71 73 72 74 73
REMARK SMILES IDX 9 74 10 75 11 76 12 77 13 78 14 79 15 80 16 81 17 82 18 83
REMARK SMILES IDX 19 84 32 85 20 86 21 87 33 88 34 89 39 90 35 91 37 92 36 93
REMARK SMILES IDX 38 94 22 95 23 96 31 97 24 98 30 99 25 100 26 101 27 102
REMARK SMILES IDX 28 103 29 104
REMARK H PARENT 96 26 64 37
REMARK Flexibility Score: inf
ROOT
ATOM      1  C   UNL A   1      50.660  41.413  30.679  1.00  0.00     0.188 C 
ENDROOT
BRANCH   1   2
ATOM      2  C   UNL A   1      49.864  40.105  30.532  1.00  0.00     0.188 C 
BRANCH   2   3
ATOM      3  O   UNL A   1      49.069  39.787  29.401  1.00  0.00    -0.376 OA
BRANCH   3   4
ATOM      4  C   UNL A   1      48.015  38.856  29.248  1.00  0.00     0.202 C 
BRANCH   4   5
ATOM      5  C   UNL A   1      47.604  37.771  30.246  1.00  0.00     0.261 C 
BRANCH   5   6
ATOM      6  O   UNL A   1      46.561  38.114  31.142  1.00  0.00    -0.460 OA
BRANCH   6   7
ATOM      7  C   UNL A   1      46.115  37.414  32.204  1.00  0.00     0.338 C 
ATOM      8  O   UNL A   1      46.865  37.309  33.172  1.00  0.00    -0.246 OA
BRANCH   7   9
ATOM      9  C   UNL A   1      44.813  36.688  32.232  1.00  0.00     0.060 A 
ATOM     10  C   UNL A   1      43.782  36.858  33.163  1.00  0.00     0.016 A 
ATOM     11  C   UNL A   1      44.631  35.759  31.191  1.00  0.00     0.016 A 
ATOM     12  C   UNL A   1      42.710  35.997  33.191  1.00  0.00     0.010 A 
ATOM     13  C   UNL A   1      43.540  34.914  31.185  1.00  0.00     0.010 A 
ATOM     14  C   UNL A   1      42.648  34.986  32.245  1.00  0.00    -0.014 A 
BRANCH  14  15
ATOM     15  C   UNL A   1      41.627  33.986  32.452  1.00  0.00     0.031 A 
ATOM     16  C   UNL A   1      40.393  34.184  31.655  1.00  0.00     0.074 A 
ATOM     17  C   UNL A   1      41.858  32.982  33.317  1.00  0.00     0.049 A 
ATOM     18  N   UNL A   1      39.190  34.381  32.087  1.00  0.00    -0.248 NA
ATOM     19  C   UNL A   1      40.544  34.332  30.200  1.00  0.00     0.031 C 
ATOM     20  C   UNL A   1      43.133  32.628  33.954  1.00  0.00     0.029 A 
ATOM     21  N   UNL A   1      41.037  31.967  33.686  1.00  0.00    -0.354 N 
ATOM     22  C   UNL A   1      38.396  34.430  30.943  1.00  0.00     0.074 A 
ATOM     23  C   UNL A   1      39.290  34.584  29.826  1.00  0.00     0.031 C 
ATOM     24  C   UNL A   1      43.072  31.346  34.369  1.00  0.00     0.029 A 
ATOM     25  C   UNL A   1      41.725  30.853  34.150  1.00  0.00     0.049 A 
ATOM     26  H   UNL A   1      40.055  32.014  33.630  1.00  0.00     0.167 HD
ATOM     27  C   UNL A   1      37.087  34.062  30.973  1.00  0.00     0.034 A 
ATOM     28  C   UNL A   1      41.244  29.590  34.223  1.00  0.00     0.034 A 
ATOM     29  C   UNL A   1      36.546  34.111  32.303  1.00  0.00     0.049 A 
ATOM     30  C   UNL A   1      39.765  29.678  34.190  1.00  0.00     0.074 A 
ATOM     31  C   UNL A   1      36.395  35.101  33.254  1.00  0.00     0.029 A 
ATOM     32  N   UNL A   1      36.396  32.920  32.968  1.00  0.00    -0.354 N 
ATOM     33  N   UNL A   1      39.055  30.217  35.142  1.00  0.00    -0.248 NA
ATOM     34  C   UNL A   1      39.103  29.576  32.897  1.00  0.00     0.031 C 
ATOM     35  C   UNL A   1      36.645  34.453  34.498  1.00  0.00     0.029 A 
ATOM     36  C   UNL A   1      36.870  33.098  34.240  1.00  0.00     0.049 A 
ATOM     37  H   UNL A   1      36.016  32.090  32.598  1.00  0.00     0.167 HD
ATOM     38  C   UNL A   1      38.061  30.922  34.476  1.00  0.00     0.074 A 
ATOM     39  C   UNL A   1      38.075  30.400  33.110  1.00  0.00     0.031 C 
ATOM     40  C   UNL A   1      37.528  32.063  35.007  1.00  0.00     0.034 A 
BRANCH  27  41
ATOM     41  C   UNL A   1      36.412  33.298  29.860  1.00  0.00     0.023 A 
ATOM     42  C   UNL A   1      35.201  33.811  29.350  1.00  0.00     0.012 A 
ATOM     43  C   UNL A   1      36.757  31.977  29.488  1.00  0.00     0.148 A 
ATOM     44  C   UNL A   1      34.361  33.035  28.542  1.00  0.00     0.002 A 
ATOM     45  C   UNL A   1      35.965  31.244  28.614  1.00  0.00     0.091 A 
ATOM     46  F   UNL A   1      37.780  31.358  30.084  1.00  0.00    -0.205 F 
ATOM     47  C   UNL A   1      34.750  31.754  28.163  1.00  0.00     0.022 A 
BRANCH  45  48
ATOM     48  S   UNL A   1      36.462  29.611  28.053  1.00  0.00     0.127 S 
ATOM     49  O   UNL A   1      35.212  29.097  27.503  1.00  0.00    -0.237 OA
ATOM     50  O   UNL A   1      37.491  29.934  27.065  1.00  0.00    -0.237 OA
ATOM     51  O   UNL A   1      36.972  28.932  29.239  1.00  0.00    -0.744 OA
ENDBRANCH  45  48
ENDBRANCH  27  41
BRANCH  28  52
ATOM     52  C   UNL A   1      41.971  28.320  33.993  1.00  0.00     0.023 A 
ATOM     53  C   UNL A   1      42.784  28.185  32.853  1.00  0.00     0.012 A 
ATOM     54  C   UNL A   1      42.078  27.344  35.010  1.00  0.00     0.148 A 
ATOM     55  C   UNL A   1      43.691  27.125  32.739  1.00  0.00     0.002 A 
ATOM     56  C   UNL A   1      42.969  26.284  34.886  1.00  0.00     0.091 A 
ATOM     57  F   UNL A   1      41.375  27.503  36.140  1.00  0.00    -0.205 F 
ATOM     58  C   UNL A   1      43.787  26.178  33.755  1.00  0.00     0.022 A 
BRANCH  56  59
ATOM     59  S   UNL A   1      43.155  25.035  36.166  1.00  0.00     0.127 S 
ATOM     60  O   UNL A   1      41.876  24.328  36.088  1.00  0.00    -0.237 OA
ATOM     61  O   UNL A   1      44.305  24.276  35.683  1.00  0.00    -0.237 OA
ATOM     62  O   UNL A   1      43.356  25.768  37.410  1.00  0.00    -0.744 OA
ENDBRANCH  56  59
ENDBRANCH  28  52
BRANCH  40  63
ATOM     63  C   UNL A   1      37.874  32.413  36.434  1.00  0.00     0.023 A 
ATOM     64  C   UNL A   1      37.196  31.843  37.534  1.00  0.00     0.012 A 
ATOM     65  C   UNL A   1      39.024  33.183  36.672  1.00  0.00     0.148 A 
ATOM     66  C   UNL A   1      37.641  32.059  38.841  1.00  0.00     0.002 A 
ATOM     67  C   UNL A   1      39.491  33.355  37.971  1.00  0.00     0.091 A 
ATOM     68  F   UNL A   1      39.662  33.711  35.618  1.00  0.00    -0.205 F 
ATOM     69  C   UNL A   1      38.797  32.804  39.058  1.00  0.00     0.022 A 
BRANCH  67  70
ATOM     70  S   UNL A   1      41.044  34.190  38.301  1.00  0.00     0.127 S 
ATOM     71  O   UNL A   1      41.745  34.049  37.028  1.00  0.00    -0.237 OA
ATOM     72  O   UNL A   1      40.609  35.553  38.612  1.00  0.00    -0.237 OA
ATOM     73  O   UNL A   1      41.642  33.487  39.431  1.00  0.00    -0.744 OA
ENDBRANCH  67  70
ENDBRANCH  40  63
ENDBRANCH  14  15
ENDBRANCH   7   9
ENDBRANCH   6   7
ENDBRANCH   5   6
ENDBRANCH   4   5
ENDBRANCH   3   4
ENDBRANCH   2   3
ENDBRANCH   1   2
BRANCH   1  74
ATOM     74  O   UNL A   1      50.251  42.281  31.724  1.00  0.00    -0.377 OA
BRANCH  74  75
ATOM     75  C   UNL A   1      50.381  41.718  33.009  1.00  0.00     0.188 C 
BRANCH  75  76
ATOM     76  C   UNL A   1      49.777  42.562  34.157  1.00  0.00     0.188 C 
BRANCH  76  77
ATOM     77  O   UNL A   1      49.301  43.896  33.994  1.00  0.00    -0.376 OA
BRANCH  77  78
ATOM     78  C   UNL A   1      47.973  44.268  34.308  1.00  0.00     0.202 C 
BRANCH  78  79
ATOM     79  C   UNL A   1      46.852  43.347  33.824  1.00  0.00     0.261 C 
BRANCH  79  80
ATOM     80  O   UNL A   1      45.658  43.411  34.605  1.00  0.00    -0.458 OA
BRANCH  80  81
ATOM     81  C   UNL A   1      44.580  43.997  34.013  1.00  0.00     0.361 C 
ATOM     82  O   UNL A   1      44.332  45.196  34.001  1.00  0.00    -0.244 OA
BRANCH  81  83
ATOM     83  C   UNL A   1      43.719  42.997  33.415  1.00  0.00     0.198 A 
ATOM     84  N   UNL A   1      42.834  42.194  34.093  1.00  0.00    -0.122 NA
ATOM     85  C   UNL A   1      43.599  42.774  32.061  1.00  0.00     0.109 A 
ATOM     86  N   UNL A   1      42.128  41.509  33.198  1.00  0.00    -0.061 NA
ATOM     87  N   UNL A   1      42.679  41.745  31.989  1.00  0.00    -0.212 N 
BRANCH  85  88
ATOM     88  C   UNL A   1      44.304  43.401  30.952  1.00  0.00     0.004 A 
ATOM     89  C   UNL A   1      43.843  44.587  30.366  1.00  0.00     0.010 A 
ATOM     90  C   UNL A   1      45.490  42.818  30.488  1.00  0.00     0.031 A 
ATOM     91  C   UNL A   1      44.558  45.172  29.320  1.00  0.00     0.002 A 
ATOM     92  C   UNL A   1      46.202  43.413  29.455  1.00  0.00     0.041 A 
ATOM     93  C   UNL A   1      45.739  44.585  28.865  1.00  0.00     0.020 A 
ATOM     94  Cl  UNL A   1      47.662  42.686  28.909  1.00  0.00    -0.084 Cl
ENDBRANCH  85  88
BRANCH  87  95
ATOM     95  C   UNL A   1      42.499  40.872  30.903  1.00  0.00     0.067 A 
ATOM     96  C   UNL A   1      41.495  41.096  29.963  1.00  0.00     0.029 A 
ATOM     97  C   UNL A   1      43.433  39.843  30.742  1.00  0.00     0.029 A 
ATOM     98  C   UNL A   1      41.516  40.345  28.783  1.00  0.00     0.015 A 
ATOM     99  C   UNL A   1      43.429  39.084  29.585  1.00  0.00     0.015 A 
ATOM    100  C   UNL A   1      42.500  39.355  28.574  1.00  0.00     0.056 A 
BRANCH 100 101
ATOM    101  C   UNL A   1      42.591  38.619  27.262  1.00  0.00     0.416 C 
ATOM    102  F   UNL A   1      41.728  37.572  27.181  1.00  0.00    -0.166 F 
ATOM    103  F   UNL A   1      42.315  39.423  26.198  1.00  0.00    -0.166 F 
ATOM    104  F   UNL A   1      43.830  38.102  27.018  1.00  0.00    -0.166 F 
ENDBRANCH 100 101
ENDBRANCH  87  95
ENDBRANCH  81  83
ENDBRANCH  80  81
ENDBRANCH  79  80
ENDBRANCH  78  79
ENDBRANCH  77  78
ENDBRANCH  76  77
ENDBRANCH  75  76
ENDBRANCH  74  75
ENDBRANCH   1  74
TORSDOF 26
ENDMDL
MODEL 3
REMARK VINA RESULT:      -9.0      5.777     10.783
REMARK SMILES O=C(OCCOCCOCCOCCOC(=O)c1nnn(-c2ccc(C(F)(F)F)cc2)c1-c1cccc(Cl)c1)c1ccc(-c2c3nc(c(-c4cccc(S(=O)(=O)[O-])c4F)c4ccc([nH]4)c(-c4cccc(S(=O)(=O)[O-])c4F)c4nc(c(-c5cccc(S(=O)(=O)[O-])c5F)c5ccc2[nH]5)C=C4)C=C3)cc1
REMARK SMILES IDX 8 1 7 2 6 3 5 4 4 5 3 6 2 7 1 8 40 9 41 10 102 11 42 12
REMARK SMILES IDX 101 13 43 14 44 15 45 16 95 17 46 18 100 19 94 20 96 21
REMARK SMILES IDX 47 22 99 23 93 24 92 25 48 27 80 28 60 29 79 30 61 31 64 32
REMARK SMILES IDX 78 33 97 34 62 35 63 36 77 38 98 39 65 40 49 41 50 42 58 43
REMARK SMILES IDX 51 44 53 45 59 46 52 47 54 48 55 49 56 50 57 51 81 52 82 53
REMARK SMILES IDX 90 54 83 55 85 56 91 57 84 58 86 59 87 60 88 61 89 62 66 63
REMARK SMILES IDX 67 64 75 65 68 66 70 67 76 68 69 69 71 70 72 71 73 72 74 73
REMARK SMILES IDX 9 74 10 75 11 76 12 77 13 78 14 79 15 80 16 81 17 82 18 83
REMARK SMILES IDX 19 84 32 85 20 86 21 87 33 88 34 89 39 90 35 91 37 92 36 93
REMARK SMILES IDX 38 94 22 95 23 96 31 97 24 98 30 99 25 100 26 101 27 102
REMARK SMILES IDX 28 103 29 104
REMARK H PARENT 96 26 64 37
REMARK Flexibility Score: inf
ROOT
ATOM      1  C   UNL A   1      37.609  30.635  28.533  1.00  0.00     0.188 C 
ENDROOT
BRANCH   1   2
ATOM      2  C   UNL A   1      36.407  31.232  27.780  1.00  0.00     0.188 C 
BRANCH   2   3
ATOM      3  O   UNL A   1      35.970  32.574  27.927  1.00  0.00    -0.376 OA
BRANCH   3   4
ATOM      4  C   UNL A   1      34.798  33.102  28.515  1.00  0.00     0.202 C 
BRANCH   4   5
ATOM      5  C   UNL A   1      34.266  32.802  29.918  1.00  0.00     0.261 C 
BRANCH   5   6
ATOM      6  O   UNL A   1      34.180  33.908  30.800  1.00  0.00    -0.460 OA
BRANCH   6   7
ATOM      7  C   UNL A   1      34.320  33.914  32.140  1.00  0.00     0.338 C 
ATOM      8  O   UNL A   1      33.295  33.930  32.819  1.00  0.00    -0.246 OA
BRANCH   7   9
ATOM      9  C   UNL A   1      35.635  33.995  32.838  1.00  0.00     0.060 A 
ATOM     10  C   UNL A   1      36.733  34.778  32.463  1.00  0.00     0.016 A 
ATOM     11  C   UNL A   1      35.740  33.202  33.995  1.00  0.00     0.016 A 
ATOM     12  C   UNL A   1      37.951  34.622  33.080  1.00  0.00     0.010 A 
ATOM     13  C   UNL A   1      36.948  33.068  34.648  1.00  0.00     0.010 A 
ATOM     14  C   UNL A   1      38.058  33.708  34.115  1.00  0.00    -0.014 A 
BRANCH  14  15
ATOM     15  C   UNL A   1      39.396  33.427  34.578  1.00  0.00     0.031 A 
ATOM     16  C   UNL A   1      39.815  34.197  35.773  1.00  0.00     0.074 A 
ATOM     17  C   UNL A   1      40.141  32.519  33.920  1.00  0.00     0.049 A 
ATOM     18  N   UNL A   1      40.793  35.037  35.876  1.00  0.00    -0.248 NA
ATOM     19  C   UNL A   1      38.943  34.138  36.956  1.00  0.00     0.031 C 
ATOM     20  C   UNL A   1      39.695  31.584  32.880  1.00  0.00     0.029 A 
ATOM     21  N   UNL A   1      41.418  32.129  34.158  1.00  0.00    -0.354 N 
ATOM     22  C   UNL A   1      40.803  35.422  37.215  1.00  0.00     0.074 A 
ATOM     23  C   UNL A   1      39.549  34.995  37.776  1.00  0.00     0.031 C 
ATOM     24  C   UNL A   1      40.577  30.566  32.801  1.00  0.00     0.029 A 
ATOM     25  C   UNL A   1      41.696  30.856  33.676  1.00  0.00     0.049 A 
ATOM     26  H   UNL A   1      42.080  32.690  34.624  1.00  0.00     0.167 HD
ATOM     27  C   UNL A   1      41.951  35.814  37.831  1.00  0.00     0.034 A 
ATOM     28  C   UNL A   1      42.712  30.055  34.077  1.00  0.00     0.034 A 
ATOM     29  C   UNL A   1      42.947  36.239  36.888  1.00  0.00     0.049 A 
ATOM     30  C   UNL A   1      43.724  30.918  34.729  1.00  0.00     0.074 A 
ATOM     31  C   UNL A   1      43.011  37.220  35.917  1.00  0.00     0.029 A 
ATOM     32  N   UNL A   1      43.967  35.363  36.609  1.00  0.00    -0.354 N 
ATOM     33  N   UNL A   1      44.419  31.819  34.092  1.00  0.00    -0.248 NA
ATOM     34  C   UNL A   1      43.643  31.095  36.171  1.00  0.00     0.031 C 
ATOM     35  C   UNL A   1      43.743  36.629  34.848  1.00  0.00     0.029 A 
ATOM     36  C   UNL A   1      44.136  35.350  35.250  1.00  0.00     0.049 A 
ATOM     37  H   UNL A   1      44.483  34.842  37.266  1.00  0.00     0.167 HD
ATOM     38  C   UNL A   1      44.473  32.897  34.966  1.00  0.00     0.074 A 
ATOM     39  C   UNL A   1      44.078  32.354  36.264  1.00  0.00     0.031 C 
ATOM     40  C   UNL A   1      44.539  34.181  34.500  1.00  0.00     0.034 A 
BRANCH  27  41
ATOM     41  C   UNL A   1      42.296  35.453  39.255  1.00  0.00     0.023 A 
ATOM     42  C   UNL A   1      42.654  36.500  40.131  1.00  0.00     0.012 A 
ATOM     43  C   UNL A   1      42.551  34.133  39.694  1.00  0.00     0.148 A 
ATOM     44  C   UNL A   1      43.268  36.244  41.363  1.00  0.00     0.002 A 
ATOM     45  C   UNL A   1      43.078  33.881  40.954  1.00  0.00     0.091 A 
ATOM     46  F   UNL A   1      42.423  33.108  38.847  1.00  0.00    -0.205 F 
ATOM     47  C   UNL A   1      43.468  34.933  41.781  1.00  0.00     0.022 A 
BRANCH  45  48
ATOM     48  S   UNL A   1      43.296  32.202  41.555  1.00  0.00     0.127 S 
ATOM     49  O   UNL A   1      43.560  32.429  42.972  1.00  0.00    -0.237 OA
ATOM     50  O   UNL A   1      41.996  31.605  41.251  1.00  0.00    -0.237 OA
ATOM     51  O   UNL A   1      44.398  31.651  40.773  1.00  0.00    -0.744 OA
ENDBRANCH  45  48
ENDBRANCH  27  41
BRANCH  28  52
ATOM     52  C   UNL A   1      42.711  28.581  34.219  1.00  0.00     0.023 A 
ATOM     53  C   UNL A   1      43.461  27.798  33.324  1.00  0.00     0.012 A 
ATOM     54  C   UNL A   1      42.191  27.958  35.378  1.00  0.00     0.148 A 
ATOM     55  C   UNL A   1      43.708  26.445  33.584  1.00  0.00     0.002 A 
ATOM     56  C   UNL A   1      42.425  26.611  35.624  1.00  0.00     0.091 A 
ATOM     57  F   UNL A   1      41.548  28.707  36.284  1.00  0.00    -0.205 F 
ATOM     58  C   UNL A   1      43.194  25.852  34.734  1.00  0.00     0.022 A 
BRANCH  56  59
ATOM     59  S   UNL A   1      41.805  25.786  37.098  1.00  0.00     0.127 S 
ATOM     60  O   UNL A   1      42.966  25.845  37.988  1.00  0.00    -0.237 OA
ATOM     61  O   UNL A   1      40.694  26.649  37.483  1.00  0.00    -0.237 OA
ATOM     62  O   UNL A   1      41.446  24.437  36.677  1.00  0.00    -0.744 OA
ENDBRANCH  56  59
ENDBRANCH  28  52
BRANCH  40  63
ATOM     63  C   UNL A   1      44.789  34.391  33.026  1.00  0.00     0.023 A 
ATOM     64  C   UNL A   1      46.091  34.442  32.483  1.00  0.00     0.012 A 
ATOM     65  C   UNL A   1      43.691  34.347  32.151  1.00  0.00     0.148 A 
ATOM     66  C   UNL A   1      46.291  34.475  31.100  1.00  0.00     0.002 A 
ATOM     67  C   UNL A   1      43.896  34.332  30.776  1.00  0.00     0.091 A 
ATOM     68  F   UNL A   1      42.461  34.291  32.681  1.00  0.00    -0.205 F 
ATOM     69  C   UNL A   1      45.194  34.406  30.246  1.00  0.00     0.022 A 
BRANCH  67  70
ATOM     70  S   UNL A   1      42.533  34.109  29.631  1.00  0.00     0.127 S 
ATOM     71  O   UNL A   1      42.512  32.659  29.458  1.00  0.00    -0.237 OA
ATOM     72  O   UNL A   1      41.399  34.653  30.382  1.00  0.00    -0.237 OA
ATOM     73  O   UNL A   1      42.880  34.881  28.443  1.00  0.00    -0.744 OA
ENDBRANCH  67  70
ENDBRANCH  40  63
ENDBRANCH  14  15
ENDBRANCH   7   9
ENDBRANCH   6   7
ENDBRANCH   5   6
ENDBRANCH   4   5
ENDBRANCH   3   4
ENDBRANCH   2   3
ENDBRANCH   1   2
BRANCH   1  74
ATOM     74  O   UNL A   1      37.498  29.271  28.907  1.00  0.00    -0.377 OA
BRANCH  74  75
ATOM     75  C   UNL A   1      38.710  28.558  28.807  1.00  0.00     0.188 C 
BRANCH  75  76
ATOM     76  C   UNL A   1      39.522  28.462  30.121  1.00  0.00     0.188 C 
BRANCH  76  77
ATOM     77  O   UNL A   1      40.710  27.687  30.263  1.00  0.00    -0.376 OA
BRANCH  77  78
ATOM     78  C   UNL A   1      41.412  27.169  29.150  1.00  0.00     0.202 C 
BRANCH  78  79
ATOM     79  C   UNL A   1      42.783  27.774  28.841  1.00  0.00     0.261 C 
BRANCH  79  80
ATOM     80  O   UNL A   1      42.869  28.420  27.570  1.00  0.00    -0.458 OA
BRANCH  80  81
ATOM     81  C   UNL A   1      43.888  28.023  26.759  1.00  0.00     0.361 C 
ATOM     82  O   UNL A   1      44.963  28.595  26.624  1.00  0.00    -0.244 OA
BRANCH  81  83
ATOM     83  C   UNL A   1      43.523  26.828  26.025  1.00  0.00     0.198 A 
ATOM     84  N   UNL A   1      42.312  26.600  25.418  1.00  0.00    -0.122 NA
ATOM     85  C   UNL A   1      44.378  25.781  25.756  1.00  0.00     0.109 A 
ATOM     86  N   UNL A   1      42.400  25.464  24.733  1.00  0.00    -0.061 NA
ATOM     87  N   UNL A   1      43.585  24.898  25.048  1.00  0.00    -0.212 N 
BRANCH  85  88
ATOM     88  C   UNL A   1      45.763  25.587  26.159  1.00  0.00     0.004 A 
ATOM     89  C   UNL A   1      46.095  25.003  27.387  1.00  0.00     0.010 A 
ATOM     90  C   UNL A   1      46.783  25.965  25.276  1.00  0.00     0.031 A 
ATOM     91  C   UNL A   1      47.435  24.811  27.729  1.00  0.00     0.002 A 
ATOM     92  C   UNL A   1      48.113  25.760  25.618  1.00  0.00     0.041 A 
ATOM     93  C   UNL A   1      48.444  25.189  26.843  1.00  0.00     0.020 A 
ATOM     94  Cl  UNL A   1      49.349  26.220  24.515  1.00  0.00    -0.084 Cl
ENDBRANCH  85  88
BRANCH  87  95
ATOM     95  C   UNL A   1      43.823  23.524  24.881  1.00  0.00     0.067 A 
ATOM     96  C   UNL A   1      44.710  23.063  23.910  1.00  0.00     0.029 A 
ATOM     97  C   UNL A   1      43.226  22.651  25.797  1.00  0.00     0.029 A 
ATOM     98  C   UNL A   1      45.092  21.718  23.951  1.00  0.00     0.015 A 
ATOM     99  C   UNL A   1      43.587  21.316  25.812  1.00  0.00     0.015 A 
ATOM    100  C   UNL A   1      44.556  20.843  24.919  1.00  0.00     0.056 A 
BRANCH 100 101
ATOM    101  C   UNL A   1      45.044  19.421  25.033  1.00  0.00     0.416 C 
ATOM    102  F   UNL A   1      46.112  19.293  25.863  1.00  0.00    -0.166 F 
ATOM    103  F   UNL A   1      44.084  18.583  25.515  1.00  0.00    -0.166 F 
ATOM    104  F   UNL A   1      45.431  18.886  23.839  1.00  0.00    -0.166 F 
ENDBRANCH 100 101
ENDBRANCH  87  95
ENDBRANCH  81  83
ENDBRANCH  80  81
ENDBRANCH  79  80
ENDBRANCH  78  79
ENDBRANCH  77  78
ENDBRANCH  76  77
ENDBRANCH  75  76
ENDBRANCH  74  75
ENDBRANCH   1  74
TORSDOF 26
ENDMDL
