MODEL 1
REMARK VINA RESULT:      -8.5      0.000      0.000
REMARK SMILES [NH3+][C@@H](Cc1c[nH]c2ccccc12)C(=O)N[C@@H](CS)C(=O)N[C@@H](CO)C(=O)OCCOCCOCCOCCOC(=O)c1ccc(-c2c3nc(c(-c4cccc(S(=O)(=O)[O-])c4F)c4ccc([nH]4)c(-c4cccc(S(=O)(=O)[O-])c4F)c4nc(c(-c5cccc(S(=O)(=O)[O-])c5F)c5ccc2[nH]5)C=C4)C=C3)cc1
REMARK SMILES IDX 31 1 30 2 29 3 28 4 27 5 25 6 26 7 22 8 21 9 19 10 20 11
REMARK SMILES IDX 16 13 15 14 13 15 14 16 2 18 1 19 3 23 4 24 5 25 12 26 6 27
REMARK SMILES IDX 7 28 11 29 8 31 10 32 9 33 17 34 18 35 23 37 24 38 32 40
REMARK SMILES IDX 33 41 34 42 35 43 36 44 37 45 38 46 39 47 40 48 41 49 42 50
REMARK SMILES IDX 43 51 104 52 44 53 103 54 45 55 46 56 47 57 97 58 48 59
REMARK SMILES IDX 102 60 96 61 98 62 49 63 101 64 95 65 94 66 50 68 82 69
REMARK SMILES IDX 62 70 81 71 63 72 66 73 80 74 99 75 64 76 65 77 79 79 100 80
REMARK SMILES IDX 67 81 51 82 52 83 60 84 53 85 55 86 61 87 54 88 56 89 57 90
REMARK SMILES IDX 58 91 59 92 83 93 84 94 92 95 85 96 87 97 93 98 86 99 88 100
REMARK SMILES IDX 89 101 90 102 91 103 68 104 69 105 77 106 70 107 72 108
REMARK SMILES IDX 78 109 71 110 73 111 74 112 75 113 76 114
REMARK H PARENT 21 12 15 17 1 20 1 21 1 22 6 30 18 36 24 39 98 67 66 78
REMARK Flexibility Score: inf
ROOT
ATOM      1  C   UNL A   1      40.343  22.066  27.115  1.00  0.00     0.188 C 
ENDROOT
BRANCH   1   2
ATOM      2  O   UNL A   1      39.399  21.164  26.558  1.00  0.00    -0.376 OA
BRANCH   2   3
ATOM      3  C   UNL A   1      38.444  21.612  25.603  1.00  0.00     0.202 C 
BRANCH   3   4
ATOM      4  C   UNL A   1      37.643  22.919  25.750  1.00  0.00     0.261 C 
BRANCH   4   5
ATOM      5  O   UNL A   1      36.923  23.343  24.591  1.00  0.00    -0.462 OA
BRANCH   5   6
ATOM      6  C   UNL A   1      35.578  23.491  24.713  1.00  0.00     0.331 C 
ATOM      7  O   UNL A   1      35.014  24.138  25.589  1.00  0.00    -0.250 OA
BRANCH   6   8
ATOM      8  C   UNL A   1      34.820  22.721  23.624  1.00  0.00     0.218 C 
BRANCH   8   9
ATOM      9  N   UNL A   1      33.851  21.741  24.125  1.00  0.00    -0.339 N 
ATOM     10  C   UNL A   1      33.322  21.814  25.374  1.00  0.00     0.244 C 
ATOM     11  O   UNL A   1      33.815  21.100  26.247  1.00  0.00    -0.273 OA
ATOM     12  H   UNL A   1      33.574  21.004  23.535  1.00  0.00     0.164 HD
BRANCH  10  13
ATOM     13  C   UNL A   1      32.212  22.839  25.710  1.00  0.00     0.181 C 
BRANCH  13  14
ATOM     14  N   UNL A   1      31.250  22.875  24.624  1.00  0.00    -0.338 N 
ATOM     15  C   UNL A   1      30.939  23.926  23.812  1.00  0.00     0.279 C 
ATOM     16  O   UNL A   1      30.439  23.636  22.718  1.00  0.00    -0.268 OA
ATOM     17  H   UNL A   1      30.761  22.038  24.453  1.00  0.00     0.164 HD
BRANCH  15  18
ATOM     18  C   UNL A   1      31.090  25.420  24.231  1.00  0.00     0.275 C 
BRANCH  18  19
ATOM     19  N   UNL A   1      32.346  25.628  24.990  1.00  0.00    -0.347 N 
ATOM     20  H   UNL A   1      32.929  26.308  24.503  1.00  0.00     0.345 HD
ATOM     21  H   UNL A   1      32.847  24.742  25.066  1.00  0.00     0.345 HD
ATOM     22  H   UNL A   1      32.125  25.974  25.923  1.00  0.00     0.345 HD
ENDBRANCH  18  19
BRANCH  18  23
ATOM     23  C   UNL A   1      30.709  26.522  23.208  1.00  0.00     0.113 C 
BRANCH  23  24
ATOM     24  C   UNL A   1      30.638  27.960  23.660  1.00  0.00    -0.016 A 
ATOM     25  C   UNL A   1      31.624  28.733  24.251  1.00  0.00     0.087 A 
ATOM     26  C   UNL A   1      29.483  28.815  23.546  1.00  0.00     0.003 A 
ATOM     27  N   UNL A   1      31.176  30.027  24.325  1.00  0.00    -0.361 N 
ATOM     28  C   UNL A   1      29.885  30.112  23.866  1.00  0.00     0.046 A 
ATOM     29  C   UNL A   1      28.150  28.614  23.132  1.00  0.00     0.010 A 
ATOM     30  H   UNL A   1      31.706  30.788  24.658  1.00  0.00     0.166 HD
ATOM     31  C   UNL A   1      29.050  31.226  23.709  1.00  0.00     0.026 A 
ATOM     32  C   UNL A   1      27.292  29.712  23.002  1.00  0.00     0.001 A 
ATOM     33  C   UNL A   1      27.745  31.001  23.263  1.00  0.00     0.002 A 
ENDBRANCH  23  24
ENDBRANCH  18  23
ENDBRANCH  15  18
ENDBRANCH  13  14
BRANCH  13  34
ATOM     34  C   UNL A   1      31.624  22.971  27.115  1.00  0.00     0.101 C 
BRANCH  34  35
ATOM     35  S   UNL A   1      29.816  22.956  27.308  1.00  0.00    -0.177 SA
ATOM     36  H   UNL A   1      29.408  21.704  27.646  1.00  0.00     0.102 HD
ENDBRANCH  34  35
ENDBRANCH  13  34
ENDBRANCH  10  13
ENDBRANCH   8   9
BRANCH   8  37
ATOM     37  C   UNL A   1      34.094  23.744  22.744  1.00  0.00     0.193 C 
BRANCH  37  38
ATOM     38  O   UNL A   1      34.401  25.069  23.167  1.00  0.00    -0.394 OA
ATOM     39  H   UNL A   1      35.358  25.214  23.107  1.00  0.00     0.210 HD
ENDBRANCH  37  38
ENDBRANCH   8  37
ENDBRANCH   6   8
ENDBRANCH   5   6
ENDBRANCH   4   5
ENDBRANCH   3   4
ENDBRANCH   2   3
ENDBRANCH   1   2
BRANCH   1  40
ATOM     40  C   UNL A   1      41.854  21.850  26.913  1.00  0.00     0.188 C 
BRANCH  40  41
ATOM     41  O   UNL A   1      42.192  21.499  25.592  1.00  0.00    -0.377 OA
BRANCH  41  42
ATOM     42  C   UNL A   1      43.577  21.278  25.366  1.00  0.00     0.188 C 
BRANCH  42  43
ATOM     43  C   UNL A   1      44.436  22.497  24.949  1.00  0.00     0.188 C 
BRANCH  43  44
ATOM     44  O   UNL A   1      43.675  23.648  24.593  1.00  0.00    -0.376 OA
BRANCH  44  45
ATOM     45  C   UNL A   1      43.607  24.734  25.502  1.00  0.00     0.202 C 
BRANCH  45  46
ATOM     46  C   UNL A   1      42.981  26.049  25.014  1.00  0.00     0.261 C 
BRANCH  46  47
ATOM     47  O   UNL A   1      41.552  26.122  25.001  1.00  0.00    -0.460 OA
BRANCH  47  48
ATOM     48  C   UNL A   1      40.911  26.016  26.191  1.00  0.00     0.338 C 
ATOM     49  O   UNL A   1      40.291  25.060  26.595  1.00  0.00    -0.246 OA
BRANCH  48  50
ATOM     50  C   UNL A   1      41.303  27.196  27.001  1.00  0.00     0.060 A 
ATOM     51  C   UNL A   1      40.859  28.464  26.601  1.00  0.00     0.016 A 
ATOM     52  C   UNL A   1      42.047  27.046  28.174  1.00  0.00     0.016 A 
ATOM     53  C   UNL A   1      41.160  29.587  27.373  1.00  0.00     0.010 A 
ATOM     54  C   UNL A   1      42.376  28.177  28.926  1.00  0.00     0.010 A 
ATOM     55  C   UNL A   1      41.950  29.453  28.521  1.00  0.00    -0.014 A 
BRANCH  55  56
ATOM     56  C   UNL A   1      42.469  30.657  29.212  1.00  0.00     0.031 A 
ATOM     57  C   UNL A   1      41.703  31.189  30.392  1.00  0.00     0.074 A 
ATOM     58  C   UNL A   1      43.580  31.283  28.785  1.00  0.00     0.049 A 
ATOM     59  N   UNL A   1      41.905  32.273  31.090  1.00  0.00    -0.248 NA
ATOM     60  C   UNL A   1      40.551  30.387  30.841  1.00  0.00     0.031 C 
ATOM     61  C   UNL A   1      44.418  30.852  27.669  1.00  0.00     0.029 A 
ATOM     62  N   UNL A   1      44.171  32.443  29.224  1.00  0.00    -0.354 N 
ATOM     63  C   UNL A   1      40.892  32.304  32.040  1.00  0.00     0.074 A 
ATOM     64  C   UNL A   1      40.074  31.130  31.827  1.00  0.00     0.031 C 
ATOM     65  C   UNL A   1      45.393  31.760  27.482  1.00  0.00     0.029 A 
ATOM     66  C   UNL A   1      45.224  32.850  28.440  1.00  0.00     0.049 A 
ATOM     67  H   UNL A   1      43.869  32.934  30.022  1.00  0.00     0.167 HD
ATOM     68  C   UNL A   1      40.666  33.225  33.005  1.00  0.00     0.034 A 
ATOM     69  C   UNL A   1      45.941  33.993  28.469  1.00  0.00     0.034 A 
ATOM     70  C   UNL A   1      41.483  34.388  33.215  1.00  0.00     0.049 A 
ATOM     71  C   UNL A   1      45.627  35.035  29.514  1.00  0.00     0.074 A 
ATOM     72  C   UNL A   1      41.363  35.356  34.196  1.00  0.00     0.029 A 
ATOM     73  N   UNL A   1      42.554  34.757  32.417  1.00  0.00    -0.354 N 
ATOM     74  N   UNL A   1      44.741  34.996  30.480  1.00  0.00    -0.248 NA
ATOM     75  C   UNL A   1      46.427  36.269  29.485  1.00  0.00     0.031 C 
ATOM     76  C   UNL A   1      42.335  36.334  33.965  1.00  0.00     0.029 A 
ATOM     77  C   UNL A   1      43.087  35.953  32.865  1.00  0.00     0.049 A 
ATOM     78  H   UNL A   1      42.887  34.244  31.646  1.00  0.00     0.167 HD
ATOM     79  C   UNL A   1      44.895  36.184  31.188  1.00  0.00     0.074 A 
ATOM     80  C   UNL A   1      45.978  36.909  30.556  1.00  0.00     0.031 C 
ATOM     81  C   UNL A   1      44.194  36.643  32.254  1.00  0.00     0.034 A 
BRANCH  68  82
ATOM     82  C   UNL A   1      39.486  33.009  33.915  1.00  0.00     0.023 A 
ATOM     83  C   UNL A   1      39.656  32.322  35.134  1.00  0.00     0.012 A 
ATOM     84  C   UNL A   1      38.224  33.543  33.592  1.00  0.00     0.148 A 
ATOM     85  C   UNL A   1      38.582  32.144  36.004  1.00  0.00     0.002 A 
ATOM     86  C   UNL A   1      37.168  33.401  34.484  1.00  0.00     0.091 A 
ATOM     87  F   UNL A   1      38.079  34.173  32.418  1.00  0.00    -0.205 F 
ATOM     88  C   UNL A   1      37.342  32.693  35.685  1.00  0.00     0.022 A 
BRANCH  86  89
ATOM     89  S   UNL A   1      35.554  34.136  34.202  1.00  0.00     0.127 S 
ATOM     90  O   UNL A   1      35.148  34.485  35.562  1.00  0.00    -0.237 OA
ATOM     91  O   UNL A   1      35.885  35.280  33.351  1.00  0.00    -0.237 OA
ATOM     92  O   UNL A   1      34.749  33.108  33.558  1.00  0.00    -0.744 OA
ENDBRANCH  86  89
ENDBRANCH  68  82
BRANCH  69  93
ATOM     93  C   UNL A   1      47.023  34.226  27.470  1.00  0.00     0.023 A 
ATOM     94  C   UNL A   1      46.719  34.848  26.243  1.00  0.00     0.012 A 
ATOM     95  C   UNL A   1      48.350  33.824  27.725  1.00  0.00     0.148 A 
ATOM     96  C   UNL A   1      47.710  35.036  25.278  1.00  0.00     0.002 A 
ATOM     97  C   UNL A   1      49.341  34.065  26.782  1.00  0.00     0.091 A 
ATOM     98  F   UNL A   1      48.615  33.214  28.890  1.00  0.00    -0.205 F 
ATOM     99  C   UNL A   1      49.020  34.654  25.550  1.00  0.00     0.022 A 
BRANCH  97 100
ATOM    100  S   UNL A   1      51.074  33.715  27.096  1.00  0.00     0.127 S 
ATOM    101  O   UNL A   1      51.165  32.304  26.734  1.00  0.00    -0.237 OA
ATOM    102  O   UNL A   1      51.738  34.633  26.170  1.00  0.00    -0.237 OA
ATOM    103  O   UNL A   1      51.290  34.021  28.505  1.00  0.00    -0.744 OA
ENDBRANCH  97 100
ENDBRANCH  69  93
BRANCH  81 104
ATOM    104  C   UNL A   1      44.582  37.982  32.830  1.00  0.00     0.023 A 
ATOM    105  C   UNL A   1      45.567  38.055  33.834  1.00  0.00     0.012 A 
ATOM    106  C   UNL A   1      44.035  39.173  32.310  1.00  0.00     0.148 A 
ATOM    107  C   UNL A   1      45.979  39.290  34.335  1.00  0.00     0.002 A 
ATOM    108  C   UNL A   1      44.488  40.401  32.777  1.00  0.00     0.091 A 
ATOM    109  F   UNL A   1      43.091  39.082  31.361  1.00  0.00    -0.205 F 
ATOM    110  C   UNL A   1      45.450  40.461  33.798  1.00  0.00     0.022 A 
BRANCH 108 111
ATOM    111  S   UNL A   1      43.938  41.965  32.083  1.00  0.00     0.127 S 
ATOM    112  O   UNL A   1      43.485  41.557  30.753  1.00  0.00    -0.237 OA
ATOM    113  O   UNL A   1      42.868  42.350  33.002  1.00  0.00    -0.237 OA
ATOM    114  O   UNL A   1      45.099  42.844  32.096  1.00  0.00    -0.744 OA
ENDBRANCH 108 111
ENDBRANCH  81 104
ENDBRANCH  55  56
ENDBRANCH  48  50
ENDBRANCH  47  48
ENDBRANCH  46  47
ENDBRANCH  45  46
ENDBRANCH  44  45
ENDBRANCH  43  44
ENDBRANCH  42  43
ENDBRANCH  41  42
ENDBRANCH  40  41
ENDBRANCH   1  40
TORSDOF 34
ENDMDL
MODEL 2
REMARK VINA RESULT:      -7.7      1.731      2.006
REMARK SMILES [NH3+][C@@H](Cc1c[nH]c2ccccc12)C(=O)N[C@@H](CS)C(=O)N[C@@H](CO)C(=O)OCCOCCOCCOCCOC(=O)c1ccc(-c2c3nc(c(-c4cccc(S(=O)(=O)[O-])c4F)c4ccc([nH]4)c(-c4cccc(S(=O)(=O)[O-])c4F)c4nc(c(-c5cccc(S(=O)(=O)[O-])c5F)c5ccc2[nH]5)C=C4)C=C3)cc1
REMARK SMILES IDX 31 1 30 2 29 3 28 4 27 5 25 6 26 7 22 8 21 9 19 10 20 11
REMARK SMILES IDX 16 13 15 14 13 15 14 16 2 18 1 19 3 23 4 24 5 25 12 26 6 27
REMARK SMILES IDX 7 28 11 29 8 31 10 32 9 33 17 34 18 35 23 37 24 38 32 40
REMARK SMILES IDX 33 41 34 42 35 43 36 44 37 45 38 46 39 47 40 48 41 49 42 50
REMARK SMILES IDX 43 51 104 52 44 53 103 54 45 55 46 56 47 57 97 58 48 59
REMARK SMILES IDX 102 60 96 61 98 62 49 63 101 64 95 65 94 66 50 68 82 69
REMARK SMILES IDX 62 70 81 71 63 72 66 73 80 74 99 75 64 76 65 77 79 79 100 80
REMARK SMILES IDX 67 81 51 82 52 83 60 84 53 85 55 86 61 87 54 88 56 89 57 90
REMARK SMILES IDX 58 91 59 92 83 93 84 94 92 95 85 96 87 97 93 98 86 99 88 100
REMARK SMILES IDX 89 101 90 102 91 103 68 104 69 105 77 106 70 107 72 108
REMARK SMILES IDX 78 109 71 110 73 111 74 112 75 113 76 114
REMARK H PARENT 21 12 15 17 1 20 1 21 1 22 6 30 18 36 24 39 98 67 66 78
REMARK Flexibility Score: inf
ROOT
ATOM      1  C   UNL A   1      40.453  22.172  27.208  1.00  0.00     0.188 C 
ENDROOT
BRANCH   1   2
ATOM      2  O   UNL A   1      39.492  21.242  26.731  1.00  0.00    -0.376 OA
BRANCH   2   3
ATOM      3  C   UNL A   1      38.521  21.632  25.767  1.00  0.00     0.202 C 
BRANCH   3   4
ATOM      4  C   UNL A   1      37.779  22.982  25.806  1.00  0.00     0.261 C 
BRANCH   4   5
ATOM      5  O   UNL A   1      37.052  23.328  24.626  1.00  0.00    -0.462 OA
BRANCH   5   6
ATOM      6  C   UNL A   1      35.717  23.542  24.759  1.00  0.00     0.331 C 
ATOM      7  O   UNL A   1      35.183  24.120  25.699  1.00  0.00    -0.250 OA
BRANCH   6   8
ATOM      8  C   UNL A   1      34.926  22.948  23.586  1.00  0.00     0.218 C 
BRANCH   8   9
ATOM      9  N   UNL A   1      33.921  21.950  23.966  1.00  0.00    -0.339 N 
ATOM     10  C   UNL A   1      33.377  21.901  25.209  1.00  0.00     0.244 C 
ATOM     11  O   UNL A   1      33.837  21.080  26.004  1.00  0.00    -0.273 OA
ATOM     12  H   UNL A   1      33.630  21.291  23.295  1.00  0.00     0.164 HD
BRANCH  10  13
ATOM     13  C   UNL A   1      32.293  22.918  25.645  1.00  0.00     0.181 C 
BRANCH  13  14
ATOM     14  N   UNL A   1      31.343  23.096  24.564  1.00  0.00    -0.338 N 
ATOM     15  C   UNL A   1      31.070  24.236  23.866  1.00  0.00     0.279 C 
ATOM     16  O   UNL A   1      30.572  24.077  22.744  1.00  0.00    -0.268 OA
ATOM     17  H   UNL A   1      30.833  22.296  24.301  1.00  0.00     0.164 HD
BRANCH  15  18
ATOM     18  C   UNL A   1      31.258  25.672  24.441  1.00  0.00     0.275 C 
BRANCH  18  19
ATOM     19  N   UNL A   1      32.153  25.649  25.623  1.00  0.00    -0.347 N 
ATOM     20  H   UNL A   1      32.800  26.436  25.574  1.00  0.00     0.345 HD
ATOM     21  H   UNL A   1      32.680  24.776  25.633  1.00  0.00     0.345 HD
ATOM     22  H   UNL A   1      31.594  25.719  26.473  1.00  0.00     0.345 HD
ENDBRANCH  18  19
BRANCH  18  23
ATOM     23  C   UNL A   1      31.446  26.851  23.452  1.00  0.00     0.113 C 
BRANCH  23  24
ATOM     24  C   UNL A   1      31.035  28.242  23.871  1.00  0.00    -0.016 A 
ATOM     25  C   UNL A   1      31.730  29.154  24.649  1.00  0.00     0.087 A 
ATOM     26  C   UNL A   1      29.798  28.890  23.516  1.00  0.00     0.003 A 
ATOM     27  N   UNL A   1      31.058  30.350  24.620  1.00  0.00    -0.361 N 
ATOM     28  C   UNL A   1      29.894  30.226  23.903  1.00  0.00     0.046 A 
ATOM     29  C   UNL A   1      28.633  28.476  22.836  1.00  0.00     0.010 A 
ATOM     30  H   UNL A   1      31.368  31.180  25.051  1.00  0.00     0.166 HD
ATOM     31  C   UNL A   1      28.928  31.185  23.570  1.00  0.00     0.026 A 
ATOM     32  C   UNL A   1      27.643  29.414  22.524  1.00  0.00     0.001 A 
ATOM     33  C   UNL A   1      27.802  30.754  22.865  1.00  0.00     0.002 A 
ENDBRANCH  23  24
ENDBRANCH  18  23
ENDBRANCH  15  18
ENDBRANCH  13  14
BRANCH  13  34
ATOM     34  C   UNL A   1      31.697  22.918  27.053  1.00  0.00     0.101 C 
BRANCH  34  35
ATOM     35  S   UNL A   1      29.890  22.838  27.233  1.00  0.00    -0.177 SA
ATOM     36  H   UNL A   1      29.571  21.964  28.224  1.00  0.00     0.102 HD
ENDBRANCH  34  35
ENDBRANCH  13  34
ENDBRANCH  10  13
ENDBRANCH   8   9
BRANCH   8  37
ATOM     37  C   UNL A   1      34.236  24.102  22.850  1.00  0.00     0.193 C 
BRANCH  37  38
ATOM     38  O   UNL A   1      33.547  23.616  21.702  1.00  0.00    -0.394 OA
ATOM     39  H   UNL A   1      32.609  23.860  21.761  1.00  0.00     0.210 HD
ENDBRANCH  37  38
ENDBRANCH   8  37
ENDBRANCH   6   8
ENDBRANCH   5   6
ENDBRANCH   4   5
ENDBRANCH   3   4
ENDBRANCH   2   3
ENDBRANCH   1   2
BRANCH   1  40
ATOM     40  C   UNL A   1      41.959  21.886  27.077  1.00  0.00     0.188 C 
BRANCH  40  41
ATOM     41  O   UNL A   1      42.318  21.374  25.815  1.00  0.00    -0.377 OA
BRANCH  41  42
ATOM     42  C   UNL A   1      43.645  20.871  25.727  1.00  0.00     0.188 C 
BRANCH  42  43
ATOM     43  C   UNL A   1      44.767  21.874  25.366  1.00  0.00     0.188 C 
BRANCH  43  44
ATOM     44  O   UNL A   1      44.291  23.112  24.840  1.00  0.00    -0.376 OA
BRANCH  44  45
ATOM     45  C   UNL A   1      44.345  24.270  25.656  1.00  0.00     0.202 C 
BRANCH  45  46
ATOM     46  C   UNL A   1      44.123  25.635  24.990  1.00  0.00     0.261 C 
BRANCH  46  47
ATOM     47  O   UNL A   1      42.769  26.009  24.713  1.00  0.00    -0.460 OA
BRANCH  47  48
ATOM     48  C   UNL A   1      41.900  26.022  25.754  1.00  0.00     0.338 C 
ATOM     49  O   UNL A   1      41.132  25.142  26.066  1.00  0.00    -0.246 OA
BRANCH  48  50
ATOM     50  C   UNL A   1      42.226  27.214  26.576  1.00  0.00     0.060 A 
ATOM     51  C   UNL A   1      41.738  28.464  26.171  1.00  0.00     0.016 A 
ATOM     52  C   UNL A   1      42.952  27.090  27.763  1.00  0.00     0.016 A 
ATOM     53  C   UNL A   1      41.975  29.596  26.953  1.00  0.00     0.010 A 
ATOM     54  C   UNL A   1      43.219  28.231  28.525  1.00  0.00     0.010 A 
ATOM     55  C   UNL A   1      42.747  29.491  28.116  1.00  0.00    -0.014 A 
BRANCH  55  56
ATOM     56  C   UNL A   1      43.202  30.712  28.821  1.00  0.00     0.031 A 
ATOM     57  C   UNL A   1      42.330  31.274  29.910  1.00  0.00     0.074 A 
ATOM     58  C   UNL A   1      44.349  31.327  28.483  1.00  0.00     0.049 A 
ATOM     59  N   UNL A   1      42.468  32.376  30.595  1.00  0.00    -0.248 NA
ATOM     60  C   UNL A   1      41.140  30.483  30.270  1.00  0.00     0.031 C 
ATOM     61  C   UNL A   1      45.287  30.868  27.462  1.00  0.00     0.029 A 
ATOM     62  N   UNL A   1      44.898  32.499  28.946  1.00  0.00    -0.354 N 
ATOM     63  C   UNL A   1      41.370  32.431  31.445  1.00  0.00     0.074 A 
ATOM     64  C   UNL A   1      40.573  31.251  31.187  1.00  0.00     0.031 C 
ATOM     65  C   UNL A   1      46.277  31.771  27.344  1.00  0.00     0.029 A 
ATOM     66  C   UNL A   1      46.022  32.886  28.253  1.00  0.00     0.049 A 
ATOM     67  H   UNL A   1      44.525  33.010  29.699  1.00  0.00     0.167 HD
ATOM     68  C   UNL A   1      41.057  33.376  32.361  1.00  0.00     0.034 A 
ATOM     69  C   UNL A   1      46.734  34.029  28.320  1.00  0.00     0.034 A 
ATOM     70  C   UNL A   1      41.852  34.545  32.616  1.00  0.00     0.049 A 
ATOM     71  C   UNL A   1      46.326  35.098  29.304  1.00  0.00     0.074 A 
ATOM     72  C   UNL A   1      41.643  35.538  33.556  1.00  0.00     0.029 A 
ATOM     73  N   UNL A   1      42.994  34.894  31.913  1.00  0.00    -0.354 N 
ATOM     74  N   UNL A   1      45.354  35.084  30.184  1.00  0.00    -0.248 NA
ATOM     75  C   UNL A   1      47.127  36.331  29.317  1.00  0.00     0.031 C 
ATOM     76  C   UNL A   1      42.634  36.510  33.392  1.00  0.00     0.029 A 
ATOM     77  C   UNL A   1      43.486  36.101  32.378  1.00  0.00     0.049 A 
ATOM     78  H   UNL A   1      43.397  34.361  31.190  1.00  0.00     0.167 HD
ATOM     79  C   UNL A   1      45.443  36.290  30.871  1.00  0.00     0.074 A 
ATOM     80  C   UNL A   1      46.582  36.998  30.325  1.00  0.00     0.031 C 
ATOM     81  C   UNL A   1      44.646  36.776  31.855  1.00  0.00     0.034 A 
BRANCH  68  82
ATOM     82  C   UNL A   1      39.797  33.184  33.162  1.00  0.00     0.023 A 
ATOM     83  C   UNL A   1      38.553  33.562  32.617  1.00  0.00     0.012 A 
ATOM     84  C   UNL A   1      39.840  32.569  34.429  1.00  0.00     0.148 A 
ATOM     85  C   UNL A   1      37.374  33.359  33.333  1.00  0.00     0.002 A 
ATOM     86  C   UNL A   1      38.657  32.328  35.116  1.00  0.00     0.091 A 
ATOM     87  F   UNL A   1      41.034  32.238  34.937  1.00  0.00    -0.205 F 
ATOM     88  C   UNL A   1      37.425  32.732  34.575  1.00  0.00     0.022 A 
BRANCH  86  89
ATOM     89  S   UNL A   1      38.608  31.460  36.687  1.00  0.00     0.127 S 
ATOM     90  O   UNL A   1      38.697  30.066  36.255  1.00  0.00    -0.237 OA
ATOM     91  O   UNL A   1      39.806  31.970  37.355  1.00  0.00    -0.237 OA
ATOM     92  O   UNL A   1      37.350  31.836  37.318  1.00  0.00    -0.744 OA
ENDBRANCH  86  89
ENDBRANCH  68  82
BRANCH  69  93
ATOM     93  C   UNL A   1      47.906  34.237  27.421  1.00  0.00     0.023 A 
ATOM     94  C   UNL A   1      47.705  34.711  26.110  1.00  0.00     0.012 A 
ATOM     95  C   UNL A   1      49.217  33.957  27.855  1.00  0.00     0.148 A 
ATOM     96  C   UNL A   1      48.784  34.871  25.239  1.00  0.00     0.002 A 
ATOM     97  C   UNL A   1      50.291  34.171  27.001  1.00  0.00     0.091 A 
ATOM     98  F   UNL A   1      49.386  33.485  29.100  1.00  0.00    -0.205 F 
ATOM     99  C   UNL A   1      50.076  34.611  25.687  1.00  0.00     0.022 A 
BRANCH  97 100
ATOM    100  S   UNL A   1      51.996  33.977  27.531  1.00  0.00     0.127 S 
ATOM    101  O   UNL A   1      52.639  35.126  26.899  1.00  0.00    -0.237 OA
ATOM    102  O   UNL A   1      51.870  34.064  28.986  1.00  0.00    -0.237 OA
ATOM    103  O   UNL A   1      52.415  32.670  27.040  1.00  0.00    -0.744 OA
ENDBRANCH  97 100
ENDBRANCH  69  93
BRANCH  81 104
ATOM    104  C   UNL A   1      44.981  38.129  32.430  1.00  0.00     0.023 A 
ATOM    105  C   UNL A   1      44.413  39.290  31.868  1.00  0.00     0.012 A 
ATOM    106  C   UNL A   1      45.785  38.241  33.582  1.00  0.00     0.148 A 
ATOM    107  C   UNL A   1      44.665  40.544  32.425  1.00  0.00     0.002 A 
ATOM    108  C   UNL A   1      45.990  39.487  34.162  1.00  0.00     0.091 A 
ATOM    109  F   UNL A   1      46.325  37.126  34.096  1.00  0.00    -0.205 F 
ATOM    110  C   UNL A   1      45.442  40.641  33.577  1.00  0.00     0.022 A 
BRANCH 108 111
ATOM    111  S   UNL A   1      46.895  39.705  35.699  1.00  0.00     0.127 S 
ATOM    112  O   UNL A   1      48.107  40.381  35.237  1.00  0.00    -0.237 OA
ATOM    113  O   UNL A   1      45.985  40.547  36.475  1.00  0.00    -0.237 OA
ATOM    114  O   UNL A   1      47.101  38.369  36.241  1.00  0.00    -0.744 OA
ENDBRANCH 108 111
ENDBRANCH  81 104
ENDBRANCH  55  56
ENDBRANCH  48  50
ENDBRANCH  47  48
ENDBRANCH  46  47
ENDBRANCH  45  46
ENDBRANCH  44  45
ENDBRANCH  43  44
ENDBRANCH  42  43
ENDBRANCH  41  42
ENDBRANCH  40  41
ENDBRANCH   1  40
TORSDOF 34
ENDMDL
MODEL 3
REMARK VINA RESULT:      -7.6      1.893      2.512
REMARK SMILES [NH3+][C@@H](Cc1c[nH]c2ccccc12)C(=O)N[C@@H](CS)C(=O)N[C@@H](CO)C(=O)OCCOCCOCCOCCOC(=O)c1ccc(-c2c3nc(c(-c4cccc(S(=O)(=O)[O-])c4F)c4ccc([nH]4)c(-c4cccc(S(=O)(=O)[O-])c4F)c4nc(c(-c5cccc(S(=O)(=O)[O-])c5F)c5ccc2[nH]5)C=C4)C=C3)cc1
REMARK SMILES IDX 31 1 30 2 29 3 28 4 27 5 25 6 26 7 22 8 21 9 19 10 20 11
REMARK SMILES IDX 16 13 15 14 13 15 14 16 2 18 1 19 3 23 4 24 5 25 12 26 6 27
REMARK SMILES IDX 7 28 11 29 8 31 10 32 9 33 17 34 18 35 23 37 24 38 32 40
REMARK SMILES IDX 33 41 34 42 35 43 36 44 37 45 38 46 39 47 40 48 41 49 42 50
REMARK SMILES IDX 43 51 104 52 44 53 103 54 45 55 46 56 47 57 97 58 48 59
REMARK SMILES IDX 102 60 96 61 98 62 49 63 101 64 95 65 94 66 50 68 82 69
REMARK SMILES IDX 62 70 81 71 63 72 66 73 80 74 99 75 64 76 65 77 79 79 100 80
REMARK SMILES IDX 67 81 51 82 52 83 60 84 53 85 55 86 61 87 54 88 56 89 57 90
REMARK SMILES IDX 58 91 59 92 83 93 84 94 92 95 85 96 87 97 93 98 86 99 88 100
REMARK SMILES IDX 89 101 90 102 91 103 68 104 69 105 77 106 70 107 72 108
REMARK SMILES IDX 78 109 71 110 73 111 74 112 75 113 76 114
REMARK H PARENT 21 12 15 17 1 20 1 21 1 22 6 30 18 36 24 39 98 67 66 78
REMARK Flexibility Score: inf
ROOT
ATOM      1  C   UNL A   1      40.676  22.880  27.326  1.00  0.00     0.188 C 
ENDROOT
BRANCH   1   2
ATOM      2  O   UNL A   1      39.578  22.212  26.725  1.00  0.00    -0.376 OA
BRANCH   2   3
ATOM      3  C   UNL A   1      38.548  22.948  26.074  1.00  0.00     0.202 C 
BRANCH   3   4
ATOM      4  C   UNL A   1      38.015  24.299  26.588  1.00  0.00     0.261 C 
BRANCH   4   5
ATOM      5  O   UNL A   1      36.730  24.689  26.099  1.00  0.00    -0.462 OA
BRANCH   5   6
ATOM      6  C   UNL A   1      35.852  23.696  25.797  1.00  0.00     0.331 C 
ATOM      7  O   UNL A   1      35.280  22.985  26.615  1.00  0.00    -0.250 OA
BRANCH   6   8
ATOM      8  C   UNL A   1      35.668  23.542  24.282  1.00  0.00     0.218 C 
BRANCH   8   9
ATOM      9  N   UNL A   1      35.525  22.158  23.818  1.00  0.00    -0.339 N 
ATOM     10  C   UNL A   1      35.241  21.133  24.663  1.00  0.00     0.244 C 
ATOM     11  O   UNL A   1      36.177  20.431  25.046  1.00  0.00    -0.273 OA
ATOM     12  H   UNL A   1      35.639  21.966  22.860  1.00  0.00     0.164 HD
BRANCH  10  13
ATOM     13  C   UNL A   1      33.807  20.925  25.209  1.00  0.00     0.181 C 
BRANCH  13  14
ATOM     14  N   UNL A   1      32.848  21.270  24.177  1.00  0.00    -0.338 N 
ATOM     15  C   UNL A   1      31.955  22.302  24.172  1.00  0.00     0.279 C 
ATOM     16  O   UNL A   1      31.555  22.666  23.058  1.00  0.00    -0.268 OA
ATOM     17  H   UNL A   1      32.840  20.689  23.382  1.00  0.00     0.164 HD
BRANCH  15  18
ATOM     18  C   UNL A   1      31.366  22.946  25.463  1.00  0.00     0.275 C 
BRANCH  18  19
ATOM     19  N   UNL A   1      32.405  23.054  26.515  1.00  0.00    -0.347 N 
ATOM     20  H   UNL A   1      33.329  22.992  26.088  1.00  0.00     0.345 HD
ATOM     21  H   UNL A   1      32.289  22.295  27.186  1.00  0.00     0.345 HD
ATOM     22  H   UNL A   1      32.311  23.949  26.994  1.00  0.00     0.345 HD
ENDBRANCH  18  19
BRANCH  18  23
ATOM     23  C   UNL A   1      30.398  24.150  25.320  1.00  0.00     0.113 C 
BRANCH  23  24
ATOM     24  C   UNL A   1      30.925  25.552  25.508  1.00  0.00    -0.016 A 
ATOM     25  C   UNL A   1      31.892  26.002  26.391  1.00  0.00     0.087 A 
ATOM     26  C   UNL A   1      30.497  26.711  24.767  1.00  0.00     0.003 A 
ATOM     27  N   UNL A   1      32.180  27.310  26.090  1.00  0.00    -0.361 N 
ATOM     28  C   UNL A   1      31.368  27.755  25.077  1.00  0.00     0.046 A 
ATOM     29  C   UNL A   1      29.490  26.946  23.808  1.00  0.00     0.010 A 
ATOM     30  H   UNL A   1      32.872  27.851  26.536  1.00  0.00     0.166 HD
ATOM     31  C   UNL A   1      31.339  28.990  24.415  1.00  0.00     0.026 A 
ATOM     32  C   UNL A   1      29.424  28.185  23.161  1.00  0.00     0.001 A 
ATOM     33  C   UNL A   1      30.353  29.183  23.444  1.00  0.00     0.002 A 
ENDBRANCH  23  24
ENDBRANCH  18  23
ENDBRANCH  15  18
ENDBRANCH  13  14
BRANCH  13  34
ATOM     34  C   UNL A   1      33.434  19.725  26.080  1.00  0.00     0.101 C 
BRANCH  34  35
ATOM     35  S   UNL A   1      32.941  18.177  25.264  1.00  0.00    -0.177 SA
ATOM     36  H   UNL A   1      34.009  17.338  25.202  1.00  0.00     0.102 HD
ENDBRANCH  34  35
ENDBRANCH  13  34
ENDBRANCH  10  13
ENDBRANCH   8   9
BRANCH   8  37
ATOM     37  C   UNL A   1      34.424  24.341  23.875  1.00  0.00     0.193 C 
BRANCH  37  38
ATOM     38  O   UNL A   1      34.483  25.658  24.416  1.00  0.00    -0.394 OA
ATOM     39  H   UNL A   1      34.568  25.608  25.381  1.00  0.00     0.210 HD
ENDBRANCH  37  38
ENDBRANCH   8  37
ENDBRANCH   6   8
ENDBRANCH   5   6
ENDBRANCH   4   5
ENDBRANCH   3   4
ENDBRANCH   2   3
ENDBRANCH   1   2
BRANCH   1  40
ATOM     40  C   UNL A   1      42.120  22.412  27.072  1.00  0.00     0.188 C 
BRANCH  40  41
ATOM     41  O   UNL A   1      42.402  22.203  25.708  1.00  0.00    -0.377 OA
BRANCH  41  42
ATOM     42  C   UNL A   1      43.643  21.563  25.444  1.00  0.00     0.188 C 
BRANCH  42  43
ATOM     43  C   UNL A   1      44.892  22.464  25.287  1.00  0.00     0.188 C 
BRANCH  43  44
ATOM     44  O   UNL A   1      44.592  23.844  25.093  1.00  0.00    -0.376 OA
BRANCH  44  45
ATOM     45  C   UNL A   1      45.017  24.782  26.069  1.00  0.00     0.202 C 
BRANCH  45  46
ATOM     46  C   UNL A   1      45.068  26.265  25.672  1.00  0.00     0.261 C 
BRANCH  46  47
ATOM     47  O   UNL A   1      43.827  26.886  25.321  1.00  0.00    -0.460 OA
BRANCH  47  48
ATOM     48  C   UNL A   1      42.872  26.956  26.280  1.00  0.00     0.338 C 
ATOM     49  O   UNL A   1      42.034  26.121  26.529  1.00  0.00    -0.246 OA
BRANCH  48  50
ATOM     50  C   UNL A   1      43.186  28.140  27.119  1.00  0.00     0.060 A 
ATOM     51  C   UNL A   1      43.872  27.946  28.325  1.00  0.00     0.016 A 
ATOM     52  C   UNL A   1      42.862  29.429  26.689  1.00  0.00     0.016 A 
ATOM     53  C   UNL A   1      44.236  29.043  29.108  1.00  0.00     0.010 A 
ATOM     54  C   UNL A   1      43.195  30.523  27.493  1.00  0.00     0.010 A 
ATOM     55  C   UNL A   1      43.868  30.335  28.713  1.00  0.00    -0.014 A 
BRANCH  55  56
ATOM     56  C   UNL A   1      44.039  31.475  29.644  1.00  0.00     0.031 A 
ATOM     57  C   UNL A   1      42.912  31.804  30.583  1.00  0.00     0.074 A 
ATOM     58  C   UNL A   1      45.158  32.221  29.636  1.00  0.00     0.049 A 
ATOM     59  N   UNL A   1      42.792  32.804  31.413  1.00  0.00    -0.248 NA
ATOM     60  C   UNL A   1      41.766  30.879  30.582  1.00  0.00     0.031 C 
ATOM     61  C   UNL A   1      46.325  31.988  28.789  1.00  0.00     0.029 A 
ATOM     62  N   UNL A   1      45.475  33.354  30.346  1.00  0.00    -0.354 N 
ATOM     63  C   UNL A   1      41.546  32.650  32.011  1.00  0.00     0.074 A 
ATOM     64  C   UNL A   1      40.948  31.461  31.446  1.00  0.00     0.031 C 
ATOM     65  C   UNL A   1      47.216  32.974  28.996  1.00  0.00     0.029 A 
ATOM     66  C   UNL A   1      46.666  33.924  29.962  1.00  0.00     0.049 A 
ATOM     67  H   UNL A   1      44.906  33.721  31.060  1.00  0.00     0.167 HD
ATOM     68  C   UNL A   1      40.957  33.427  32.948  1.00  0.00     0.034 A 
ATOM     69  C   UNL A   1      47.224  35.098  30.319  1.00  0.00     0.034 A 
ATOM     70  C   UNL A   1      41.556  34.607  33.510  1.00  0.00     0.049 A 
ATOM     71  C   UNL A   1      46.516  35.980  31.318  1.00  0.00     0.074 A 
ATOM     72  C   UNL A   1      41.058  35.435  34.499  1.00  0.00     0.029 A 
ATOM     73  N   UNL A   1      42.771  35.141  33.114  1.00  0.00    -0.354 N 
ATOM     74  N   UNL A   1      45.395  35.763  31.963  1.00  0.00    -0.248 NA
ATOM     75  C   UNL A   1      47.162  37.258  31.654  1.00  0.00     0.031 C 
ATOM     76  C   UNL A   1      41.952  36.496  34.671  1.00  0.00     0.029 A 
ATOM     77  C   UNL A   1      43.028  36.305  33.818  1.00  0.00     0.049 A 
ATOM     78  H   UNL A   1      43.365  34.751  32.432  1.00  0.00     0.167 HD
ATOM     79  C   UNL A   1      45.215  36.861  32.797  1.00  0.00     0.074 A 
ATOM     80  C   UNL A   1      46.357  37.729  32.597  1.00  0.00     0.031 C 
ATOM     81  C   UNL A   1      44.190  37.137  33.641  1.00  0.00     0.034 A 
BRANCH  68  82
ATOM     82  C   UNL A   1      39.590  33.023  33.434  1.00  0.00     0.023 A 
ATOM     83  C   UNL A   1      39.464  32.047  34.443  1.00  0.00     0.012 A 
ATOM     84  C   UNL A   1      38.436  33.656  32.934  1.00  0.00     0.148 A 
ATOM     85  C   UNL A   1      38.207  31.686  34.927  1.00  0.00     0.002 A 
ATOM     86  C   UNL A   1      37.191  33.324  33.453  1.00  0.00     0.091 A 
ATOM     87  F   UNL A   1      38.577  34.564  31.959  1.00  0.00    -0.205 F 
ATOM     88  C   UNL A   1      37.073  32.332  34.441  1.00  0.00     0.022 A 
BRANCH  86  89
ATOM     89  S   UNL A   1      35.678  34.151  32.949  1.00  0.00     0.127 S 
ATOM     90  O   UNL A   1      35.611  33.802  31.531  1.00  0.00    -0.237 OA
ATOM     91  O   UNL A   1      34.677  33.492  33.789  1.00  0.00    -0.237 OA
ATOM     92  O   UNL A   1      35.877  35.565  33.232  1.00  0.00    -0.744 OA
ENDBRANCH  86  89
ENDBRANCH  68  82
BRANCH  69  93
ATOM     93  C   UNL A   1      48.523  35.525  29.722  1.00  0.00     0.023 A 
ATOM     94  C   UNL A   1      49.733  35.095  30.303  1.00  0.00     0.012 A 
ATOM     95  C   UNL A   1      48.566  36.362  28.589  1.00  0.00     0.148 A 
ATOM     96  C   UNL A   1      50.958  35.518  29.786  1.00  0.00     0.002 A 
ATOM     97  C   UNL A   1      49.789  36.733  28.047  1.00  0.00     0.091 A 
ATOM     98  F   UNL A   1      47.403  36.777  28.064  1.00  0.00    -0.205 F 
ATOM     99  C   UNL A   1      50.987  36.328  28.654  1.00  0.00     0.022 A 
BRANCH  97 100
ATOM    100  S   UNL A   1      49.921  37.675  26.523  1.00  0.00     0.127 S 
ATOM    101  O   UNL A   1      48.555  38.162  26.354  1.00  0.00    -0.237 OA
ATOM    102  O   UNL A   1      50.900  38.699  26.887  1.00  0.00    -0.237 OA
ATOM    103  O   UNL A   1      50.384  36.730  25.514  1.00  0.00    -0.744 OA
ENDBRANCH  97 100
ENDBRANCH  69  93
BRANCH  81 104
ATOM    104  C   UNL A   1      44.256  38.417  34.437  1.00  0.00     0.023 A 
ATOM    105  C   UNL A   1      44.947  38.444  35.665  1.00  0.00     0.012 A 
ATOM    106  C   UNL A   1      43.711  39.611  33.923  1.00  0.00     0.148 A 
ATOM    107  C   UNL A   1      45.068  39.634  36.383  1.00  0.00     0.002 A 
ATOM    108  C   UNL A   1      43.881  40.802  34.619  1.00  0.00     0.091 A 
ATOM    109  F   UNL A   1      43.049  39.562  32.758  1.00  0.00    -0.205 F 
ATOM    110  C   UNL A   1      44.547  40.813  35.855  1.00  0.00     0.022 A 
BRANCH 108 111
ATOM    111  S   UNL A   1      43.331  42.387  33.976  1.00  0.00     0.127 S 
ATOM    112  O   UNL A   1      41.899  42.347  34.272  1.00  0.00    -0.237 OA
ATOM    113  O   UNL A   1      44.096  43.331  34.790  1.00  0.00    -0.237 OA
ATOM    114  O   UNL A   1      43.669  42.390  32.560  1.00  0.00    -0.744 OA
ENDBRANCH 108 111
ENDBRANCH  81 104
ENDBRANCH  55  56
ENDBRANCH  48  50
ENDBRANCH  47  48
ENDBRANCH  46  47
ENDBRANCH  45  46
ENDBRANCH  44  45
ENDBRANCH  43  44
ENDBRANCH  42  43
ENDBRANCH  41  42
ENDBRANCH  40  41
ENDBRANCH   1  40
TORSDOF 34
ENDMDL
