MODEL 1
REMARK VINA RESULT:      -9.2      0.000      0.000
REMARK SMILES CC(C)NC(=O)CNC(=O)N1CCO[C@@H](CC(=O)OCCOCCOCCOCCOC(=O)c2ccc(-c3c4nc(c(-c5cccc(S(=O)(=O)[O-])c5F)c5ccc([nH]5)c(-c5cccc(S(=O)(=O)[O-])c5F)c5nc(c(-c6cccc(S(=O)(=O)[O-])c6F)c6ccc3[nH]6)C=C5)C=C4)cc2)C1
REMARK SMILES IDX 24 1 23 2 22 3 21 4 20 5 19 6 17 7 18 8 16 9 15 10 11 11
REMARK SMILES IDX 12 12 97 13 13 14 14 15 9 16 8 17 10 19 7 20 5 21 4 22 6 24
REMARK SMILES IDX 2 25 1 26 3 27 25 28 26 29 27 30 28 31 29 32 30 33 31 34
REMARK SMILES IDX 32 35 33 36 34 37 35 38 96 39 36 40 95 41 37 42 38 43 39 44
REMARK SMILES IDX 89 45 40 46 94 47 88 48 90 49 41 50 93 51 87 52 86 53 42 55
REMARK SMILES IDX 74 56 54 57 73 58 55 59 58 60 72 61 91 62 56 63 57 64 71 66
REMARK SMILES IDX 92 67 59 68 43 69 44 70 52 71 45 72 47 73 53 74 46 75 48 76
REMARK SMILES IDX 49 77 50 78 51 79 75 80 76 81 84 82 77 83 79 84 85 85 78 86
REMARK SMILES IDX 80 87 81 88 82 89 83 90 60 91 61 92 69 93 62 94 64 95 70 96
REMARK SMILES IDX 63 97 65 98 66 99 67 100 68 101
REMARK H PARENT 8 18 4 23 90 54 58 65
REMARK Flexibility Score: inf
ROOT
ATOM      1  C   UNL A   1      35.492  22.018  24.107  1.00  0.00     0.188 C 
ENDROOT
BRANCH   1   2
ATOM      2  C   UNL A   1      35.298  20.783  24.990  1.00  0.00     0.188 C 
BRANCH   2   3
ATOM      3  O   UNL A   1      34.008  20.186  25.098  1.00  0.00    -0.376 OA
BRANCH   3   4
ATOM      4  C   UNL A   1      32.979  20.923  25.742  1.00  0.00     0.202 C 
BRANCH   4   5
ATOM      5  C   UNL A   1      31.796  21.233  24.809  1.00  0.00     0.261 C 
BRANCH   5   6
ATOM      6  O   UNL A   1      32.110  21.429  23.411  1.00  0.00    -0.463 OA
BRANCH   6   7
ATOM      7  C   UNL A   1      32.159  22.723  23.008  1.00  0.00     0.308 C 
ATOM      8  O   UNL A   1      32.845  23.142  22.079  1.00  0.00    -0.252 OA
BRANCH   7   9
ATOM      9  C   UNL A   1      31.432  23.675  23.924  1.00  0.00     0.156 C 
BRANCH   9  10
ATOM     10  C   UNL A   1      32.011  25.040  24.300  1.00  0.00     0.149 C 
ATOM     11  N   UNL A   1      31.760  27.517  24.108  1.00  0.00    -0.320 N 
ATOM     12  C   UNL A   1      31.284  27.570  25.482  1.00  0.00     0.150 C 
ATOM     13  C   UNL A   1      31.459  26.222  23.459  1.00  0.00     0.154 C 
ATOM     14  C   UNL A   1      31.954  26.456  26.275  1.00  0.00     0.182 C 
ATOM     15  O   UNL A   1      31.651  25.177  25.708  1.00  0.00    -0.374 OA
BRANCH  11  16
ATOM     16  C   UNL A   1      32.145  28.589  23.354  1.00  0.00     0.318 C 
ATOM     17  N   UNL A   1      31.279  29.586  23.051  1.00  0.00    -0.329 N 
ATOM     18  H   UNL A   1      31.556  30.110  22.265  1.00  0.00     0.165 HD
ATOM     19  O   UNL A   1      33.312  28.749  22.995  1.00  0.00    -0.249 OA
BRANCH  17  20
ATOM     20  C   UNL A   1      30.025  30.055  23.637  1.00  0.00     0.217 C 
BRANCH  20  21
ATOM     21  C   UNL A   1      28.752  29.624  22.880  1.00  0.00     0.239 C 
ATOM     22  N   UNL A   1      28.053  30.559  22.158  1.00  0.00    -0.352 N 
ATOM     23  H   UNL A   1      27.123  30.345  21.918  1.00  0.00     0.163 HD
ATOM     24  O   UNL A   1      28.318  28.473  22.929  1.00  0.00    -0.273 OA
BRANCH  22  25
ATOM     25  C   UNL A   1      28.579  31.833  21.722  1.00  0.00     0.075 C 
ATOM     26  C   UNL A   1      27.987  32.157  20.368  1.00  0.00     0.030 C 
ATOM     27  C   UNL A   1      28.308  32.948  22.725  1.00  0.00     0.030 C 
ENDBRANCH  22  25
ENDBRANCH  20  21
ENDBRANCH  17  20
ENDBRANCH  11  16
ENDBRANCH   9  10
ENDBRANCH   7   9
ENDBRANCH   6   7
ENDBRANCH   5   6
ENDBRANCH   4   5
ENDBRANCH   3   4
ENDBRANCH   2   3
ENDBRANCH   1   2
BRANCH   1  28
ATOM     28  O   UNL A   1      35.694  23.199  24.863  1.00  0.00    -0.377 OA
BRANCH  28  29
ATOM     29  C   UNL A   1      36.466  23.090  26.046  1.00  0.00     0.188 C 
BRANCH  29  30
ATOM     30  C   UNL A   1      37.954  22.837  25.782  1.00  0.00     0.188 C 
BRANCH  30  31
ATOM     31  O   UNL A   1      38.519  21.621  26.272  1.00  0.00    -0.376 OA
BRANCH  31  32
ATOM     32  C   UNL A   1      38.785  20.549  25.372  1.00  0.00     0.202 C 
BRANCH  32  33
ATOM     33  C   UNL A   1      39.755  19.439  25.791  1.00  0.00     0.261 C 
BRANCH  33  34
ATOM     34  O   UNL A   1      40.403  19.747  27.038  1.00  0.00    -0.460 OA
BRANCH  34  35
ATOM     35  C   UNL A   1      41.679  20.182  26.931  1.00  0.00     0.338 C 
ATOM     36  O   UNL A   1      42.629  19.555  26.487  1.00  0.00    -0.246 OA
BRANCH  35  37
ATOM     37  C   UNL A   1      41.741  21.624  27.225  1.00  0.00     0.060 A 
ATOM     38  C   UNL A   1      41.662  22.501  26.137  1.00  0.00     0.016 A 
ATOM     39  C   UNL A   1      41.964  22.111  28.517  1.00  0.00     0.016 A 
ATOM     40  C   UNL A   1      41.867  23.864  26.326  1.00  0.00     0.010 A 
ATOM     41  C   UNL A   1      42.184  23.483  28.700  1.00  0.00     0.010 A 
ATOM     42  C   UNL A   1      42.182  24.357  27.599  1.00  0.00    -0.014 A 
BRANCH  42  43
ATOM     43  C   UNL A   1      42.699  25.744  27.708  1.00  0.00     0.031 A 
ATOM     44  C   UNL A   1      41.825  26.793  28.345  1.00  0.00     0.074 A 
ATOM     45  C   UNL A   1      43.947  26.059  27.318  1.00  0.00     0.049 A 
ATOM     46  N   UNL A   1      42.107  28.034  28.646  1.00  0.00    -0.248 NA
ATOM     47  C   UNL A   1      40.456  26.384  28.698  1.00  0.00     0.031 C 
ATOM     48  C   UNL A   1      44.895  25.141  26.693  1.00  0.00     0.029 A 
ATOM     49  N   UNL A   1      44.627  27.250  27.391  1.00  0.00    -0.354 N 
ATOM     50  C   UNL A   1      40.953  28.556  29.216  1.00  0.00     0.074 A 
ATOM     51  C   UNL A   1      39.959  27.505  29.203  1.00  0.00     0.031 C 
ATOM     52  C   UNL A   1      46.031  25.809  26.422  1.00  0.00     0.029 A 
ATOM     53  C   UNL A   1      45.887  27.201  26.847  1.00  0.00     0.049 A 
ATOM     54  H   UNL A   1      44.246  28.064  27.796  1.00  0.00     0.167 HD
ATOM     55  C   UNL A   1      40.741  29.792  29.728  1.00  0.00     0.034 A 
ATOM     56  C   UNL A   1      46.813  28.170  26.700  1.00  0.00     0.034 A 
ATOM     57  C   UNL A   1      41.725  30.839  29.753  1.00  0.00     0.049 A 
ATOM     58  C   UNL A   1      46.535  29.552  27.239  1.00  0.00     0.074 A 
ATOM     59  C   UNL A   1      41.613  32.109  30.292  1.00  0.00     0.029 A 
ATOM     60  N   UNL A   1      42.992  30.749  29.202  1.00  0.00    -0.354 N 
ATOM     61  N   UNL A   1      45.496  29.985  27.910  1.00  0.00    -0.248 NA
ATOM     62  C   UNL A   1      47.577  30.570  27.028  1.00  0.00     0.031 C 
ATOM     63  C   UNL A   1      42.805  32.797  30.041  1.00  0.00     0.029 A 
ATOM     64  C   UNL A   1      43.667  31.946  29.366  1.00  0.00     0.049 A 
ATOM     65  H   UNL A   1      43.359  29.950  28.757  1.00  0.00     0.167 HD
ATOM     66  C   UNL A   1      45.771  31.313  28.228  1.00  0.00     0.074 A 
ATOM     67  C   UNL A   1      47.086  31.605  27.697  1.00  0.00     0.031 C 
ATOM     68  C   UNL A   1      44.997  32.213  28.883  1.00  0.00     0.034 A 
BRANCH  55  69
ATOM     69  C   UNL A   1      39.394  30.070  30.336  1.00  0.00     0.023 A 
ATOM     70  C   UNL A   1      39.200  29.856  31.716  1.00  0.00     0.012 A 
ATOM     71  C   UNL A   1      38.342  30.591  29.559  1.00  0.00     0.148 A 
ATOM     72  C   UNL A   1      37.970  30.134  32.309  1.00  0.00     0.002 A 
ATOM     73  C   UNL A   1      37.131  30.901  30.165  1.00  0.00     0.091 A 
ATOM     74  F   UNL A   1      38.541  30.760  28.244  1.00  0.00    -0.205 F 
ATOM     75  C   UNL A   1      36.941  30.666  31.538  1.00  0.00     0.022 A 
BRANCH  73  76
ATOM     76  S   UNL A   1      35.769  31.654  29.270  1.00  0.00     0.127 S 
ATOM     77  O   UNL A   1      36.435  32.773  28.605  1.00  0.00    -0.237 OA
ATOM     78  O   UNL A   1      35.351  30.575  28.374  1.00  0.00    -0.237 OA
ATOM     79  O   UNL A   1      34.782  32.021  30.276  1.00  0.00    -0.744 OA
ENDBRANCH  73  76
ENDBRANCH  55  69
BRANCH  56  80
ATOM     80  C   UNL A   1      48.115  27.865  26.042  1.00  0.00     0.023 A 
ATOM     81  C   UNL A   1      49.253  27.615  26.833  1.00  0.00     0.012 A 
ATOM     82  C   UNL A   1      48.232  27.828  24.639  1.00  0.00     0.148 A 
ATOM     83  C   UNL A   1      50.490  27.364  26.238  1.00  0.00     0.002 A 
ATOM     84  C   UNL A   1      49.455  27.526  24.053  1.00  0.00     0.091 A 
ATOM     85  F   UNL A   1      47.143  28.094  23.904  1.00  0.00    -0.205 F 
ATOM     86  C   UNL A   1      50.590  27.310  24.851  1.00  0.00     0.022 A 
BRANCH  84  87
ATOM     87  S   UNL A   1      49.651  27.325  22.279  1.00  0.00     0.127 S 
ATOM     88  O   UNL A   1      51.067  26.983  22.171  1.00  0.00    -0.237 OA
ATOM     89  O   UNL A   1      48.729  26.223  21.995  1.00  0.00    -0.237 OA
ATOM     90  O   UNL A   1      49.261  28.599  21.691  1.00  0.00    -0.744 OA
ENDBRANCH  84  87
ENDBRANCH  56  80
BRANCH  68  91
ATOM     91  C   UNL A   1      45.548  33.602  29.089  1.00  0.00     0.023 A 
ATOM     92  C   UNL A   1      46.204  33.920  30.294  1.00  0.00     0.012 A 
ATOM     93  C   UNL A   1      45.492  34.564  28.058  1.00  0.00     0.148 A 
ATOM     94  C   UNL A   1      46.771  35.180  30.483  1.00  0.00     0.002 A 
ATOM     95  C   UNL A   1      46.100  35.802  28.237  1.00  0.00     0.091 A 
ATOM     96  F   UNL A   1      44.849  34.251  26.924  1.00  0.00    -0.205 F 
ATOM     97  C   UNL A   1      46.730  36.116  29.452  1.00  0.00     0.022 A 
BRANCH  95  98
ATOM     98  S   UNL A   1      46.179  37.033  26.930  1.00  0.00     0.127 S 
ATOM     99  O   UNL A   1      47.272  37.887  27.389  1.00  0.00    -0.237 OA
ATOM    100  O   UNL A   1      46.491  36.221  25.753  1.00  0.00    -0.237 OA
ATOM    101  O   UNL A   1      44.865  37.662  26.894  1.00  0.00    -0.744 OA
ENDBRANCH  95  98
ENDBRANCH  68  91
ENDBRANCH  42  43
ENDBRANCH  35  37
ENDBRANCH  34  35
ENDBRANCH  33  34
ENDBRANCH  32  33
ENDBRANCH  31  32
ENDBRANCH  30  31
ENDBRANCH  29  30
ENDBRANCH  28  29
ENDBRANCH   1  28
TORSDOF 28
ENDMDL
MODEL 2
REMARK VINA RESULT:      -8.1      5.303      8.742
REMARK SMILES CC(C)NC(=O)CNC(=O)N1CCO[C@@H](CC(=O)OCCOCCOCCOCCOC(=O)c2ccc(-c3c4nc(c(-c5cccc(S(=O)(=O)[O-])c5F)c5ccc([nH]5)c(-c5cccc(S(=O)(=O)[O-])c5F)c5nc(c(-c6cccc(S(=O)(=O)[O-])c6F)c6ccc3[nH]6)C=C5)C=C4)cc2)C1
REMARK SMILES IDX 24 1 23 2 22 3 21 4 20 5 19 6 17 7 18 8 16 9 15 10 11 11
REMARK SMILES IDX 12 12 97 13 13 14 14 15 9 16 8 17 10 19 7 20 5 21 4 22 6 24
REMARK SMILES IDX 2 25 1 26 3 27 25 28 26 29 27 30 28 31 29 32 30 33 31 34
REMARK SMILES IDX 32 35 33 36 34 37 35 38 96 39 36 40 95 41 37 42 38 43 39 44
REMARK SMILES IDX 89 45 40 46 94 47 88 48 90 49 41 50 93 51 87 52 86 53 42 55
REMARK SMILES IDX 74 56 54 57 73 58 55 59 58 60 72 61 91 62 56 63 57 64 71 66
REMARK SMILES IDX 92 67 59 68 43 69 44 70 52 71 45 72 47 73 53 74 46 75 48 76
REMARK SMILES IDX 49 77 50 78 51 79 75 80 76 81 84 82 77 83 79 84 85 85 78 86
REMARK SMILES IDX 80 87 81 88 82 89 83 90 60 91 61 92 69 93 62 94 64 95 70 96
REMARK SMILES IDX 63 97 65 98 66 99 67 100 68 101
REMARK H PARENT 8 18 4 23 90 54 58 65
REMARK Flexibility Score: inf
ROOT
ATOM      1  C   UNL A   1      40.709  20.865  26.835  1.00  0.00     0.188 C 
ENDROOT
BRANCH   1   2
ATOM      2  C   UNL A   1      39.683  20.601  25.731  1.00  0.00     0.188 C 
BRANCH   2   3
ATOM      3  O   UNL A   1      38.590  21.500  25.552  1.00  0.00    -0.376 OA
BRANCH   3   4
ATOM      4  C   UNL A   1      37.273  20.971  25.590  1.00  0.00     0.202 C 
BRANCH   4   5
ATOM      5  C   UNL A   1      36.320  21.678  24.611  1.00  0.00     0.261 C 
BRANCH   5   6
ATOM      6  O   UNL A   1      34.998  21.990  25.108  1.00  0.00    -0.463 OA
BRANCH   6   7
ATOM      7  C   UNL A   1      34.010  21.172  24.668  1.00  0.00     0.308 C 
ATOM      8  O   UNL A   1      34.101  19.951  24.571  1.00  0.00    -0.252 OA
BRANCH   7   9
ATOM      9  C   UNL A   1      32.814  21.906  24.114  1.00  0.00     0.156 C 
BRANCH   9  10
ATOM     10  C   UNL A   1      32.338  23.237  24.700  1.00  0.00     0.149 C 
ATOM     11  N   UNL A   1      30.448  24.859  24.881  1.00  0.00    -0.320 N 
ATOM     12  C   UNL A   1      30.196  24.406  26.241  1.00  0.00     0.150 C 
ATOM     13  C   UNL A   1      31.052  23.803  24.040  1.00  0.00     0.154 C 
ATOM     14  C   UNL A   1      31.517  23.975  26.866  1.00  0.00     0.182 C 
ATOM     15  O   UNL A   1      32.116  22.919  26.107  1.00  0.00    -0.374 OA
BRANCH  11  16
ATOM     16  C   UNL A   1      29.925  25.980  24.304  1.00  0.00     0.318 C 
ATOM     17  N   UNL A   1      30.599  27.156  24.306  1.00  0.00    -0.329 N 
ATOM     18  H   UNL A   1      30.014  27.935  24.167  1.00  0.00     0.165 HD
ATOM     19  O   UNL A   1      28.866  25.958  23.675  1.00  0.00    -0.249 OA
BRANCH  17  20
ATOM     20  C   UNL A   1      32.005  27.520  24.469  1.00  0.00     0.217 C 
BRANCH  20  21
ATOM     21  C   UNL A   1      32.397  28.889  23.875  1.00  0.00     0.239 C 
ATOM     22  N   UNL A   1      32.380  29.999  24.683  1.00  0.00    -0.352 N 
ATOM     23  H   UNL A   1      32.360  30.879  24.244  1.00  0.00     0.163 HD
ATOM     24  O   UNL A   1      32.691  29.029  22.688  1.00  0.00    -0.273 OA
BRANCH  22  25
ATOM     25  C   UNL A   1      32.391  29.972  26.128  1.00  0.00     0.075 C 
ATOM     26  C   UNL A   1      33.809  29.716  26.591  1.00  0.00     0.030 C 
ATOM     27  C   UNL A   1      31.834  31.252  26.738  1.00  0.00     0.030 C 
ENDBRANCH  22  25
ENDBRANCH  20  21
ENDBRANCH  17  20
ENDBRANCH  11  16
ENDBRANCH   9  10
ENDBRANCH   7   9
ENDBRANCH   6   7
ENDBRANCH   5   6
ENDBRANCH   4   5
ENDBRANCH   3   4
ENDBRANCH   2   3
ENDBRANCH   1   2
BRANCH   1  28
ATOM     28  O   UNL A   1      41.752  19.907  26.846  1.00  0.00    -0.377 OA
BRANCH  28  29
ATOM     29  C   UNL A   1      42.443  19.683  25.629  1.00  0.00     0.188 C 
BRANCH  29  30
ATOM     30  C   UNL A   1      43.750  18.903  25.804  1.00  0.00     0.188 C 
BRANCH  30  31
ATOM     31  O   UNL A   1      44.953  19.508  25.331  1.00  0.00    -0.376 OA
BRANCH  31  32
ATOM     32  C   UNL A   1      44.948  20.871  24.920  1.00  0.00     0.202 C 
BRANCH  32  33
ATOM     33  C   UNL A   1      45.097  21.974  25.974  1.00  0.00     0.261 C 
BRANCH  33  34
ATOM     34  O   UNL A   1      44.729  23.262  25.448  1.00  0.00    -0.460 OA
BRANCH  34  35
ATOM     35  C   UNL A   1      43.399  23.470  25.315  1.00  0.00     0.338 C 
ATOM     36  O   UNL A   1      42.627  22.830  24.618  1.00  0.00    -0.246 OA
BRANCH  35  37
ATOM     37  C   UNL A   1      42.947  24.460  26.308  1.00  0.00     0.060 A 
ATOM     38  C   UNL A   1      43.659  25.663  26.378  1.00  0.00     0.016 A 
ATOM     39  C   UNL A   1      41.918  24.187  27.213  1.00  0.00     0.016 A 
ATOM     40  C   UNL A   1      43.383  26.575  27.393  1.00  0.00     0.010 A 
ATOM     41  C   UNL A   1      41.654  25.102  28.242  1.00  0.00     0.010 A 
ATOM     42  C   UNL A   1      42.418  26.277  28.363  1.00  0.00    -0.014 A 
BRANCH  42  43
ATOM     43  C   UNL A   1      42.372  27.110  29.590  1.00  0.00     0.031 A 
ATOM     44  C   UNL A   1      43.244  26.726  30.756  1.00  0.00     0.074 A 
ATOM     45  C   UNL A   1      41.630  28.230  29.649  1.00  0.00     0.049 A 
ATOM     46  N   UNL A   1      43.452  27.363  31.880  1.00  0.00    -0.248 NA
ATOM     47  C   UNL A   1      43.988  25.461  30.635  1.00  0.00     0.031 C 
ATOM     48  C   UNL A   1      40.747  28.717  28.591  1.00  0.00     0.029 A 
ATOM     49  N   UNL A   1      41.501  29.159  30.652  1.00  0.00    -0.354 N 
ATOM     50  C   UNL A   1      44.342  26.577  32.601  1.00  0.00     0.074 A 
ATOM     51  C   UNL A   1      44.621  25.406  31.799  1.00  0.00     0.031 C 
ATOM     52  C   UNL A   1      40.153  29.849  29.010  1.00  0.00     0.029 A 
ATOM     53  C   UNL A   1      40.606  30.161  30.365  1.00  0.00     0.049 A 
ATOM     54  H   UNL A   1      42.004  29.111  31.498  1.00  0.00     0.167 HD
ATOM     55  C   UNL A   1      44.898  26.816  33.813  1.00  0.00     0.034 A 
ATOM     56  C   UNL A   1      40.193  31.203  31.114  1.00  0.00     0.034 A 
ATOM     57  C   UNL A   1      44.632  27.980  34.613  1.00  0.00     0.049 A 
ATOM     58  C   UNL A   1      40.795  31.422  32.480  1.00  0.00     0.074 A 
ATOM     59  C   UNL A   1      45.184  28.326  35.833  1.00  0.00     0.029 A 
ATOM     60  N   UNL A   1      43.728  28.976  34.285  1.00  0.00    -0.354 N 
ATOM     61  N   UNL A   1      41.747  30.751  33.083  1.00  0.00    -0.248 NA
ATOM     62  C   UNL A   1      40.287  32.564  33.256  1.00  0.00     0.031 C 
ATOM     63  C   UNL A   1      44.592  29.521  36.257  1.00  0.00     0.029 A 
ATOM     64  C   UNL A   1      43.688  29.929  35.289  1.00  0.00     0.049 A 
ATOM     65  H   UNL A   1      43.192  29.003  33.459  1.00  0.00     0.167 HD
ATOM     66  C   UNL A   1      41.972  31.407  34.290  1.00  0.00     0.074 A 
ATOM     67  C   UNL A   1      41.075  32.543  34.322  1.00  0.00     0.031 C 
ATOM     68  C   UNL A   1      42.832  31.086  35.290  1.00  0.00     0.034 A 
BRANCH  55  69
ATOM     69  C   UNL A   1      45.881  25.805  34.336  1.00  0.00     0.023 A 
ATOM     70  C   UNL A   1      47.234  25.895  33.956  1.00  0.00     0.012 A 
ATOM     71  C   UNL A   1      45.478  24.805  35.242  1.00  0.00     0.148 A 
ATOM     72  C   UNL A   1      48.170  24.988  34.450  1.00  0.00     0.002 A 
ATOM     73  C   UNL A   1      46.424  23.929  35.760  1.00  0.00     0.091 A 
ATOM     74  F   UNL A   1      44.180  24.722  35.568  1.00  0.00    -0.205 F 
ATOM     75  C   UNL A   1      47.768  24.014  35.360  1.00  0.00     0.022 A 
BRANCH  73  76
ATOM     76  S   UNL A   1      46.015  22.685  36.990  1.00  0.00     0.127 S 
ATOM     77  O   UNL A   1      45.297  21.699  36.185  1.00  0.00    -0.237 OA
ATOM     78  O   UNL A   1      47.337  22.254  37.446  1.00  0.00    -0.237 OA
ATOM     79  O   UNL A   1      45.219  23.368  38.001  1.00  0.00    -0.744 OA
ENDBRANCH  73  76
ENDBRANCH  55  69
BRANCH  56  80
ATOM     80  C   UNL A   1      39.176  32.152  30.578  1.00  0.00     0.023 A 
ATOM     81  C   UNL A   1      39.596  33.303  29.884  1.00  0.00     0.012 A 
ATOM     82  C   UNL A   1      37.798  31.921  30.757  1.00  0.00     0.148 A 
ATOM     83  C   UNL A   1      38.662  34.223  29.406  1.00  0.00     0.002 A 
ATOM     84  C   UNL A   1      36.873  32.814  30.232  1.00  0.00     0.091 A 
ATOM     85  F   UNL A   1      37.420  30.832  31.441  1.00  0.00    -0.205 F 
ATOM     86  C   UNL A   1      37.302  33.975  29.571  1.00  0.00     0.022 A 
BRANCH  84  87
ATOM     87  S   UNL A   1      35.102  32.519  30.299  1.00  0.00     0.127 S 
ATOM     88  O   UNL A   1      34.959  31.359  29.422  1.00  0.00    -0.237 OA
ATOM     89  O   UNL A   1      34.894  32.244  31.722  1.00  0.00    -0.237 OA
ATOM     90  O   UNL A   1      34.478  33.748  29.830  1.00  0.00    -0.744 OA
ENDBRANCH  84  87
ENDBRANCH  56  80
BRANCH  68  91
ATOM     91  C   UNL A   1      42.869  31.980  36.504  1.00  0.00     0.023 A 
ATOM     92  C   UNL A   1      42.024  31.703  37.597  1.00  0.00     0.012 A 
ATOM     93  C   UNL A   1      43.797  33.037  36.600  1.00  0.00     0.148 A 
ATOM     94  C   UNL A   1      42.081  32.480  38.754  1.00  0.00     0.002 A 
ATOM     95  C   UNL A   1      43.880  33.779  37.773  1.00  0.00     0.091 A 
ATOM     96  F   UNL A   1      44.581  33.298  35.543  1.00  0.00    -0.205 F 
ATOM     97  C   UNL A   1      43.015  33.509  38.847  1.00  0.00     0.022 A 
BRANCH  95  98
ATOM     98  S   UNL A   1      45.116  35.060  38.017  1.00  0.00     0.127 S 
ATOM     99  O   UNL A   1      46.268  34.283  38.466  1.00  0.00    -0.237 OA
ATOM    100  O   UNL A   1      45.249  35.626  36.674  1.00  0.00    -0.237 OA
ATOM    101  O   UNL A   1      44.553  35.975  39.001  1.00  0.00    -0.744 OA
ENDBRANCH  95  98
ENDBRANCH  68  91
ENDBRANCH  42  43
ENDBRANCH  35  37
ENDBRANCH  34  35
ENDBRANCH  33  34
ENDBRANCH  32  33
ENDBRANCH  31  32
ENDBRANCH  30  31
ENDBRANCH  29  30
ENDBRANCH  28  29
ENDBRANCH   1  28
TORSDOF 28
ENDMDL
MODEL 3
REMARK VINA RESULT:      -8.1      5.477      6.885
REMARK SMILES CC(C)NC(=O)CNC(=O)N1CCO[C@@H](CC(=O)OCCOCCOCCOCCOC(=O)c2ccc(-c3c4nc(c(-c5cccc(S(=O)(=O)[O-])c5F)c5ccc([nH]5)c(-c5cccc(S(=O)(=O)[O-])c5F)c5nc(c(-c6cccc(S(=O)(=O)[O-])c6F)c6ccc3[nH]6)C=C5)C=C4)cc2)C1
REMARK SMILES IDX 24 1 23 2 22 3 21 4 20 5 19 6 17 7 18 8 16 9 15 10 11 11
REMARK SMILES IDX 12 12 97 13 13 14 14 15 9 16 8 17 10 19 7 20 5 21 4 22 6 24
REMARK SMILES IDX 2 25 1 26 3 27 25 28 26 29 27 30 28 31 29 32 30 33 31 34
REMARK SMILES IDX 32 35 33 36 34 37 35 38 96 39 36 40 95 41 37 42 38 43 39 44
REMARK SMILES IDX 89 45 40 46 94 47 88 48 90 49 41 50 93 51 87 52 86 53 42 55
REMARK SMILES IDX 74 56 54 57 73 58 55 59 58 60 72 61 91 62 56 63 57 64 71 66
REMARK SMILES IDX 92 67 59 68 43 69 44 70 52 71 45 72 47 73 53 74 46 75 48 76
REMARK SMILES IDX 49 77 50 78 51 79 75 80 76 81 84 82 77 83 79 84 85 85 78 86
REMARK SMILES IDX 80 87 81 88 82 89 83 90 60 91 61 92 69 93 62 94 64 95 70 96
REMARK SMILES IDX 63 97 65 98 66 99 67 100 68 101
REMARK H PARENT 8 18 4 23 90 54 58 65
REMARK Flexibility Score: inf
ROOT
ATOM      1  C   UNL A   1      41.141  21.590  27.003  1.00  0.00     0.188 C 
ENDROOT
BRANCH   1   2
ATOM      2  C   UNL A   1      40.014  21.468  25.975  1.00  0.00     0.188 C 
BRANCH   2   3
ATOM      3  O   UNL A   1      38.747  22.065  26.240  1.00  0.00    -0.376 OA
BRANCH   3   4
ATOM      4  C   UNL A   1      37.738  21.967  25.247  1.00  0.00     0.202 C 
BRANCH   4   5
ATOM      5  C   UNL A   1      36.503  21.186  25.727  1.00  0.00     0.261 C 
BRANCH   5   6
ATOM      6  O   UNL A   1      35.797  20.415  24.729  1.00  0.00    -0.463 OA
BRANCH   6   7
ATOM      7  C   UNL A   1      34.474  20.237  24.967  1.00  0.00     0.308 C 
ATOM      8  O   UNL A   1      33.732  19.518  24.303  1.00  0.00    -0.252 OA
BRANCH   7   9
ATOM      9  C   UNL A   1      33.918  21.155  26.027  1.00  0.00     0.156 C 
BRANCH   9  10
ATOM     10  C   UNL A   1      33.201  22.460  25.674  1.00  0.00     0.149 C 
ATOM     11  N   UNL A   1      32.721  24.138  23.889  1.00  0.00    -0.320 N 
ATOM     12  C   UNL A   1      31.374  23.602  23.754  1.00  0.00     0.150 C 
ATOM     13  C   UNL A   1      33.686  23.120  24.356  1.00  0.00     0.154 C 
ATOM     14  C   UNL A   1      30.919  23.078  25.111  1.00  0.00     0.182 C 
ATOM     15  O   UNL A   1      31.802  22.055  25.582  1.00  0.00    -0.374 OA
BRANCH  11  16
ATOM     16  C   UNL A   1      33.167  25.316  23.362  1.00  0.00     0.318 C 
ATOM     17  N   UNL A   1      33.263  26.436  24.118  1.00  0.00    -0.329 N 
ATOM     18  H   UNL A   1      33.275  27.262  23.582  1.00  0.00     0.165 HD
ATOM     19  O   UNL A   1      33.591  25.396  22.209  1.00  0.00    -0.249 OA
BRANCH  17  20
ATOM     20  C   UNL A   1      33.352  26.687  25.555  1.00  0.00     0.217 C 
BRANCH  20  21
ATOM     21  C   UNL A   1      31.997  26.864  26.271  1.00  0.00     0.239 C 
ATOM     22  N   UNL A   1      31.551  28.130  26.557  1.00  0.00    -0.352 N 
ATOM     23  H   UNL A   1      30.847  28.221  27.238  1.00  0.00     0.163 HD
ATOM     24  O   UNL A   1      31.314  25.905  26.629  1.00  0.00    -0.273 OA
BRANCH  22  25
ATOM     25  C   UNL A   1      32.036  29.341  25.933  1.00  0.00     0.075 C 
ATOM     26  C   UNL A   1      31.226  29.590  24.680  1.00  0.00     0.030 C 
ATOM     27  C   UNL A   1      31.986  30.540  26.871  1.00  0.00     0.030 C 
ENDBRANCH  22  25
ENDBRANCH  20  21
ENDBRANCH  17  20
ENDBRANCH  11  16
ENDBRANCH   9  10
ENDBRANCH   7   9
ENDBRANCH   6   7
ENDBRANCH   5   6
ENDBRANCH   4   5
ENDBRANCH   3   4
ENDBRANCH   2   3
ENDBRANCH   1   2
BRANCH   1  28
ATOM     28  O   UNL A   1      41.833  20.370  27.197  1.00  0.00    -0.377 OA
BRANCH  28  29
ATOM     29  C   UNL A   1      41.925  19.491  26.089  1.00  0.00     0.188 C 
BRANCH  29  30
ATOM     30  C   UNL A   1      42.929  18.353  26.295  1.00  0.00     0.188 C 
BRANCH  30  31
ATOM     31  O   UNL A   1      44.017  18.251  25.376  1.00  0.00    -0.376 OA
BRANCH  31  32
ATOM     32  C   UNL A   1      44.290  19.323  24.479  1.00  0.00     0.202 C 
BRANCH  32  33
ATOM     33  C   UNL A   1      45.105  20.525  24.970  1.00  0.00     0.261 C 
BRANCH  33  34
ATOM     34  O   UNL A   1      45.056  21.615  24.033  1.00  0.00    -0.460 OA
BRANCH  34  35
ATOM     35  C   UNL A   1      44.249  22.642  24.385  1.00  0.00     0.338 C 
ATOM     36  O   UNL A   1      43.035  22.690  24.261  1.00  0.00    -0.246 OA
BRANCH  35  37
ATOM     37  C   UNL A   1      45.015  23.636  25.158  1.00  0.00     0.060 A 
ATOM     38  C   UNL A   1      46.240  23.222  25.692  1.00  0.00     0.016 A 
ATOM     39  C   UNL A   1      44.511  24.910  25.434  1.00  0.00     0.016 A 
ATOM     40  C   UNL A   1      46.939  24.059  26.557  1.00  0.00     0.010 A 
ATOM     41  C   UNL A   1      45.211  25.744  26.317  1.00  0.00     0.010 A 
ATOM     42  C   UNL A   1      46.404  25.302  26.917  1.00  0.00    -0.014 A 
BRANCH  42  43
ATOM     43  C   UNL A   1      47.007  26.021  28.067  1.00  0.00     0.031 A 
ATOM     44  C   UNL A   1      46.439  25.791  29.442  1.00  0.00     0.074 A 
ATOM     45  C   UNL A   1      48.086  26.808  27.912  1.00  0.00     0.049 A 
ATOM     46  N   UNL A   1      46.871  26.220  30.600  1.00  0.00    -0.248 NA
ATOM     47  C   UNL A   1      45.227  24.958  29.524  1.00  0.00     0.031 C 
ATOM     48  C   UNL A   1      48.738  27.110  26.639  1.00  0.00     0.029 A 
ATOM     49  N   UNL A   1      48.822  27.501  28.842  1.00  0.00    -0.354 N 
ATOM     50  C   UNL A   1      45.985  25.718  31.544  1.00  0.00     0.074 A 
ATOM     51  C   UNL A   1      44.979  24.967  30.826  1.00  0.00     0.031 C 
ATOM     52  C   UNL A   1      49.768  27.944  26.867  1.00  0.00     0.029 A 
ATOM     53  C   UNL A   1      49.844  28.240  28.298  1.00  0.00     0.049 A 
ATOM     54  H   UNL A   1      48.635  27.470  29.809  1.00  0.00     0.167 HD
ATOM     55  C   UNL A   1      46.016  25.847  32.892  1.00  0.00     0.034 A 
ATOM     56  C   UNL A   1      50.732  29.068  28.886  1.00  0.00     0.034 A 
ATOM     57  C   UNL A   1      47.016  26.583  33.614  1.00  0.00     0.049 A 
ATOM     58  C   UNL A   1      50.716  29.230  30.386  1.00  0.00     0.074 A 
ATOM     59  C   UNL A   1      47.152  26.731  34.984  1.00  0.00     0.029 A 
ATOM     60  N   UNL A   1      48.040  27.310  33.030  1.00  0.00    -0.354 N 
ATOM     61  N   UNL A   1      49.966  28.628  31.276  1.00  0.00    -0.248 NA
ATOM     62  C   UNL A   1      51.696  30.163  30.964  1.00  0.00     0.031 C 
ATOM     63  C   UNL A   1      48.243  27.572  35.226  1.00  0.00     0.029 A 
ATOM     64  C   UNL A   1      48.801  27.928  34.008  1.00  0.00     0.049 A 
ATOM     65  H   UNL A   1      48.203  27.378  32.061  1.00  0.00     0.167 HD
ATOM     66  C   UNL A   1      50.403  29.084  32.517  1.00  0.00     0.074 A 
ATOM     67  C   UNL A   1      51.500  29.994  32.265  1.00  0.00     0.031 C 
ATOM     68  C   UNL A   1      49.926  28.790  33.752  1.00  0.00     0.034 A 
BRANCH  55  69
ATOM     69  C   UNL A   1      44.945  25.145  33.681  1.00  0.00     0.023 A 
ATOM     70  C   UNL A   1      45.045  23.757  33.901  1.00  0.00     0.012 A 
ATOM     71  C   UNL A   1      43.875  25.863  34.248  1.00  0.00     0.148 A 
ATOM     72  C   UNL A   1      44.081  23.088  34.653  1.00  0.00     0.002 A 
ATOM     73  C   UNL A   1      42.939  25.195  35.028  1.00  0.00     0.091 A 
ATOM     74  F   UNL A   1      43.785  27.178  34.002  1.00  0.00    -0.205 F 
ATOM     75  C   UNL A   1      43.036  23.808  35.226  1.00  0.00     0.022 A 
BRANCH  73  76
ATOM     76  S   UNL A   1      41.596  26.047  35.864  1.00  0.00     0.127 S 
ATOM     77  O   UNL A   1      40.968  26.765  34.757  1.00  0.00    -0.237 OA
ATOM     78  O   UNL A   1      40.807  24.935  36.396  1.00  0.00    -0.237 OA
ATOM     79  O   UNL A   1      42.223  26.884  36.878  1.00  0.00    -0.744 OA
ENDBRANCH  73  76
ENDBRANCH  55  69
BRANCH  56  80
ATOM     80  C   UNL A   1      51.743  29.787  28.060  1.00  0.00     0.023 A 
ATOM     81  C   UNL A   1      53.016  29.216  27.866  1.00  0.00     0.012 A 
ATOM     82  C   UNL A   1      51.451  31.033  27.473  1.00  0.00     0.148 A 
ATOM     83  C   UNL A   1      53.990  29.889  27.127  1.00  0.00     0.002 A 
ATOM     84  C   UNL A   1      52.409  31.673  26.695  1.00  0.00     0.091 A 
ATOM     85  F   UNL A   1      50.243  31.570  27.690  1.00  0.00    -0.205 F 
ATOM     86  C   UNL A   1      53.685  31.111  26.535  1.00  0.00     0.022 A 
BRANCH  84  87
ATOM     87  S   UNL A   1      52.066  33.194  25.802  1.00  0.00     0.127 S 
ATOM     88  O   UNL A   1      53.300  33.380  25.043  1.00  0.00    -0.237 OA
ATOM     89  O   UNL A   1      50.900  32.818  25.000  1.00  0.00    -0.237 OA
ATOM     90  O   UNL A   1      51.793  34.197  26.821  1.00  0.00    -0.744 OA
ENDBRANCH  84  87
ENDBRANCH  56  80
BRANCH  68  91
ATOM     91  C   UNL A   1      50.592  29.438  34.941  1.00  0.00     0.023 A 
ATOM     92  C   UNL A   1      51.680  28.796  35.564  1.00  0.00     0.012 A 
ATOM     93  C   UNL A   1      50.198  30.717  35.384  1.00  0.00     0.148 A 
ATOM     94  C   UNL A   1      52.347  29.403  36.628  1.00  0.00     0.002 A 
ATOM     95  C   UNL A   1      50.897  31.336  36.415  1.00  0.00     0.091 A 
ATOM     96  F   UNL A   1      49.149  31.306  34.791  1.00  0.00    -0.205 F 
ATOM     97  C   UNL A   1      51.965  30.676  37.045  1.00  0.00     0.022 A 
BRANCH  95  98
ATOM     98  S   UNL A   1      50.535  33.011  36.954  1.00  0.00     0.127 S 
ATOM     99  O   UNL A   1      50.709  33.768  35.716  1.00  0.00    -0.237 OA
ATOM    100  O   UNL A   1      49.150  32.901  37.412  1.00  0.00    -0.237 OA
ATOM    101  O   UNL A   1      51.495  33.307  38.010  1.00  0.00    -0.744 OA
ENDBRANCH  95  98
ENDBRANCH  68  91
ENDBRANCH  42  43
ENDBRANCH  35  37
ENDBRANCH  34  35
ENDBRANCH  33  34
ENDBRANCH  32  33
ENDBRANCH  31  32
ENDBRANCH  30  31
ENDBRANCH  29  30
ENDBRANCH  28  29
ENDBRANCH   1  28
TORSDOF 28
ENDMDL
