MODEL 1
REMARK VINA RESULT:      -9.9      0.000      0.000
REMARK SMILES C[C@@H](C(=O)OCCOCCOCCOCCOC(=O)c1ccc(-c2c3nc(c(-c4cccc(S(=O)(=O)[O-])c4F)c4ccc([nH]4)c(-c4cccc(S(=O)(=O)[O-])c4F)c4nc(c(-c5cccc(S(=O)(=O)[O-])c5F)c5ccc2[nH]5)C=C4)C=C3)cc1)S(=O)(=O)N[C@@]12C[C@@H]3C[C@@](C)(C[C@@](C)(C3)C1)C2
REMARK SMILES IDX 11 1 10 2 9 3 8 4 7 5 6 6 5 7 3 8 4 9 2 10 1 11 83 12 84 13
REMARK SMILES IDX 85 14 86 15 87 17 88 18 97 19 98 20 89 21 94 22 91 23 96 24
REMARK SMILES IDX 90 25 93 26 95 27 92 28 12 29 13 30 14 31 15 32 16 33 17 34
REMARK SMILES IDX 18 35 19 36 20 37 21 38 82 39 22 40 81 41 23 42 24 43 25 44
REMARK SMILES IDX 75 45 26 46 80 47 74 48 76 49 27 50 79 51 73 52 72 53 28 55
REMARK SMILES IDX 60 56 40 57 59 58 41 59 44 60 58 61 77 62 42 63 43 64 57 66
REMARK SMILES IDX 78 67 45 68 29 69 30 70 38 71 31 72 33 73 39 74 32 75 34 76
REMARK SMILES IDX 35 77 36 78 37 79 61 80 62 81 70 82 63 83 65 84 71 85 64 86
REMARK SMILES IDX 66 87 67 88 68 89 69 90 46 91 47 92 55 93 48 94 50 95 56 96
REMARK SMILES IDX 49 97 51 98 52 99 53 100 54 101
REMARK H PARENT 86 16 76 54 44 65
REMARK Flexibility Score: inf
ROOT
ATOM      1  O   UNL A   1      35.501  17.249  25.039  1.00  0.00    -0.377 OA
ENDROOT
BRANCH   1   2
ATOM      2  C   UNL A   1      34.372  16.501  24.636  1.00  0.00     0.188 C 
BRANCH   2   3
ATOM      3  C   UNL A   1      33.485  17.114  23.543  1.00  0.00     0.188 C 
BRANCH   3   4
ATOM      4  O   UNL A   1      32.481  18.073  23.838  1.00  0.00    -0.376 OA
BRANCH   4   5
ATOM      5  C   UNL A   1      32.427  18.669  25.122  1.00  0.00     0.202 C 
BRANCH   5   6
ATOM      6  C   UNL A   1      32.617  20.192  25.237  1.00  0.00     0.261 C 
BRANCH   6   7
ATOM      7  O   UNL A   1      33.281  20.861  24.142  1.00  0.00    -0.462 OA
BRANCH   7   8
ATOM      8  C   UNL A   1      32.878  22.125  23.827  1.00  0.00     0.325 C 
ATOM      9  O   UNL A   1      31.766  22.380  23.380  1.00  0.00    -0.251 OA
BRANCH   8  10
ATOM     10  C   UNL A   1      33.979  23.152  23.969  1.00  0.00     0.230 C 
ATOM     11  C   UNL A   1      35.257  22.902  23.191  1.00  0.00     0.039 C 
BRANCH  10  12
ATOM     12  S   UNL A   1      34.215  23.708  25.671  1.00  0.00     0.225 S 
ATOM     13  O   UNL A   1      33.016  23.388  26.416  1.00  0.00    -0.212 OA
ATOM     14  O   UNL A   1      35.480  23.193  26.156  1.00  0.00    -0.212 OA
BRANCH  12  15
ATOM     15  N   UNL A   1      34.456  25.359  25.755  1.00  0.00    -0.208 NA
ATOM     16  H   UNL A   1      35.176  25.545  25.057  1.00  0.00     0.141 HD
BRANCH  15  17
ATOM     17  C   UNL A   1      33.471  26.476  25.578  1.00  0.00     0.034 C 
ATOM     18  C   UNL A   1      32.122  26.003  26.200  1.00  0.00     0.027 C 
ATOM     19  C   UNL A   1      33.949  27.693  26.369  1.00  0.00     0.030 C 
ATOM     20  C   UNL A   1      33.175  26.912  24.132  1.00  0.00     0.030 C 
ATOM     21  C   UNL A   1      31.072  27.128  26.173  1.00  0.00    -0.008 C 
ATOM     22  C   UNL A   1      32.926  28.833  26.412  1.00  0.00    -0.030 C 
ATOM     23  C   UNL A   1      32.147  28.086  24.110  1.00  0.00    -0.030 C 
ATOM     24  C   UNL A   1      31.590  28.318  26.984  1.00  0.00     0.010 C 
ATOM     25  C   UNL A   1      30.825  27.596  24.736  1.00  0.00     0.010 C 
ATOM     26  C   UNL A   1      32.692  29.271  24.955  1.00  0.00     0.013 C 
ATOM     27  C   UNL A   1      33.505  29.965  27.280  1.00  0.00     0.011 C 
ATOM     28  C   UNL A   1      31.905  28.561  22.676  1.00  0.00     0.011 C 
ENDBRANCH  15  17
ENDBRANCH  12  15
ENDBRANCH  10  12
ENDBRANCH   8  10
ENDBRANCH   7   8
ENDBRANCH   6   7
ENDBRANCH   5   6
ENDBRANCH   4   5
ENDBRANCH   3   4
ENDBRANCH   2   3
ENDBRANCH   1   2
BRANCH   1  29
ATOM     29  C   UNL A   1      35.805  18.417  24.291  1.00  0.00     0.188 C 
BRANCH  29  30
ATOM     30  C   UNL A   1      36.254  19.619  25.133  1.00  0.00     0.188 C 
BRANCH  30  31
ATOM     31  O   UNL A   1      37.402  20.272  24.596  1.00  0.00    -0.376 OA
BRANCH  31  32
ATOM     32  C   UNL A   1      38.437  20.652  25.498  1.00  0.00     0.202 C 
BRANCH  32  33
ATOM     33  C   UNL A   1      39.566  19.645  25.732  1.00  0.00     0.261 C 
BRANCH  33  34
ATOM     34  O   UNL A   1      40.563  19.956  26.705  1.00  0.00    -0.460 OA
BRANCH  34  35
ATOM     35  C   UNL A   1      41.777  20.375  26.320  1.00  0.00     0.338 C 
ATOM     36  O   UNL A   1      42.561  19.822  25.567  1.00  0.00    -0.246 OA
BRANCH  35  37
ATOM     37  C   UNL A   1      41.854  21.762  26.802  1.00  0.00     0.060 A 
ATOM     38  C   UNL A   1      41.453  22.789  25.943  1.00  0.00     0.016 A 
ATOM     39  C   UNL A   1      42.235  22.025  28.124  1.00  0.00     0.016 A 
ATOM     40  C   UNL A   1      41.484  24.102  26.393  1.00  0.00     0.010 A 
ATOM     41  C   UNL A   1      42.275  23.341  28.570  1.00  0.00     0.010 A 
ATOM     42  C   UNL A   1      41.947  24.381  27.686  1.00  0.00    -0.014 A 
BRANCH  42  43
ATOM     43  C   UNL A   1      42.341  25.765  28.004  1.00  0.00     0.031 A 
ATOM     44  C   UNL A   1      43.715  26.207  27.588  1.00  0.00     0.074 A 
ATOM     45  C   UNL A   1      41.480  26.608  28.596  1.00  0.00     0.049 A 
ATOM     46  N   UNL A   1      44.288  27.370  27.724  1.00  0.00    -0.248 NA
ATOM     47  C   UNL A   1      44.559  25.195  26.923  1.00  0.00     0.031 C 
ATOM     48  C   UNL A   1      40.123  26.271  29.024  1.00  0.00     0.029 A 
ATOM     49  N   UNL A   1      41.632  27.923  28.950  1.00  0.00    -0.354 N 
ATOM     50  C   UNL A   1      45.561  27.226  27.185  1.00  0.00     0.074 A 
ATOM     51  C   UNL A   1      45.688  25.859  26.739  1.00  0.00     0.031 C 
ATOM     52  C   UNL A   1      39.572  27.350  29.606  1.00  0.00     0.029 A 
ATOM     53  C   UNL A   1      40.545  28.439  29.613  1.00  0.00     0.049 A 
ATOM     54  H   UNL A   1      42.440  28.446  28.748  1.00  0.00     0.167 HD
ATOM     55  C   UNL A   1      46.530  28.159  27.057  1.00  0.00     0.034 A 
ATOM     56  C   UNL A   1      40.378  29.649  30.180  1.00  0.00     0.034 A 
ATOM     57  C   UNL A   1      46.383  29.514  27.504  1.00  0.00     0.049 A 
ATOM     58  C   UNL A   1      41.488  30.661  30.058  1.00  0.00     0.074 A 
ATOM     59  C   UNL A   1      47.285  30.556  27.405  1.00  0.00     0.029 A 
ATOM     60  N   UNL A   1      45.261  30.011  28.153  1.00  0.00    -0.354 N 
ATOM     61  N   UNL A   1      42.649  30.543  29.459  1.00  0.00    -0.248 NA
ATOM     62  C   UNL A   1      41.252  31.981  30.658  1.00  0.00     0.031 C 
ATOM     63  C   UNL A   1      46.724  31.673  28.033  1.00  0.00     0.029 A 
ATOM     64  C   UNL A   1      45.454  31.340  28.476  1.00  0.00     0.049 A 
ATOM     65  H   UNL A   1      44.449  29.491  28.353  1.00  0.00     0.167 HD
ATOM     66  C   UNL A   1      43.268  31.783  29.577  1.00  0.00     0.074 A 
ATOM     67  C   UNL A   1      42.341  32.641  30.288  1.00  0.00     0.031 C 
ATOM     68  C   UNL A   1      44.492  32.179  29.148  1.00  0.00     0.034 A 
BRANCH  55  69
ATOM     69  C   UNL A   1      47.822  27.739  26.411  1.00  0.00     0.023 A 
ATOM     70  C   UNL A   1      48.907  27.319  27.209  1.00  0.00     0.012 A 
ATOM     71  C   UNL A   1      47.953  27.733  25.010  1.00  0.00     0.148 A 
ATOM     72  C   UNL A   1      50.111  26.931  26.622  1.00  0.00     0.002 A 
ATOM     73  C   UNL A   1      49.138  27.297  24.431  1.00  0.00     0.091 A 
ATOM     74  F   UNL A   1      46.921  28.164  24.271  1.00  0.00    -0.205 F 
ATOM     75  C   UNL A   1      50.222  26.909  25.234  1.00  0.00     0.022 A 
BRANCH  73  76
ATOM     76  S   UNL A   1      49.355  27.160  22.654  1.00  0.00     0.127 S 
ATOM     77  O   UNL A   1      48.442  26.063  22.330  1.00  0.00    -0.237 OA
ATOM     78  O   UNL A   1      48.917  28.476  22.190  1.00  0.00    -0.237 OA
ATOM     79  O   UNL A   1      50.767  26.875  22.441  1.00  0.00    -0.744 OA
ENDBRANCH  73  76
ENDBRANCH  55  69
BRANCH  56  80
ATOM     80  C   UNL A   1      39.114  29.967  30.900  1.00  0.00     0.023 A 
ATOM     81  C   UNL A   1      38.876  29.431  32.181  1.00  0.00     0.012 A 
ATOM     82  C   UNL A   1      38.150  30.817  30.322  1.00  0.00     0.148 A 
ATOM     83  C   UNL A   1      37.688  29.710  32.857  1.00  0.00     0.002 A 
ATOM     84  C   UNL A   1      36.996  31.136  31.026  1.00  0.00     0.091 A 
ATOM     85  F   UNL A   1      38.389  31.304  29.097  1.00  0.00    -0.205 F 
ATOM     86  C   UNL A   1      36.752  30.569  32.286  1.00  0.00     0.022 A 
BRANCH  84  87
ATOM     87  S   UNL A   1      35.803  32.336  30.421  1.00  0.00     0.127 S 
ATOM     88  O   UNL A   1      34.724  32.201  31.394  1.00  0.00    -0.237 OA
ATOM     89  O   UNL A   1      36.563  33.583  30.510  1.00  0.00    -0.237 OA
ATOM     90  O   UNL A   1      35.484  31.924  29.061  1.00  0.00    -0.744 OA
ENDBRANCH  84  87
ENDBRANCH  56  80
BRANCH  68  91
ATOM     91  C   UNL A   1      44.884  33.611  29.389  1.00  0.00     0.023 A 
ATOM     92  C   UNL A   1      45.348  34.015  30.656  1.00  0.00     0.012 A 
ATOM     93  C   UNL A   1      44.864  34.540  28.329  1.00  0.00     0.148 A 
ATOM     94  C   UNL A   1      45.749  35.331  30.874  1.00  0.00     0.002 A 
ATOM     95  C   UNL A   1      45.319  35.834  28.540  1.00  0.00     0.091 A 
ATOM     96  F   UNL A   1      44.404  34.137  27.134  1.00  0.00    -0.205 F 
ATOM     97  C   UNL A   1      45.747  36.237  29.815  1.00  0.00     0.022 A 
BRANCH  95  98
ATOM     98  S   UNL A   1      45.451  37.035  27.212  1.00  0.00     0.127 S 
ATOM     99  O   UNL A   1      45.861  36.193  26.088  1.00  0.00    -0.237 OA
ATOM    100  O   UNL A   1      44.084  37.548  27.123  1.00  0.00    -0.237 OA
ATOM    101  O   UNL A   1      46.438  38.013  27.649  1.00  0.00    -0.744 OA
ENDBRANCH  95  98
ENDBRANCH  68  91
ENDBRANCH  42  43
ENDBRANCH  35  37
ENDBRANCH  34  35
ENDBRANCH  33  34
ENDBRANCH  32  33
ENDBRANCH  31  32
ENDBRANCH  30  31
ENDBRANCH  29  30
ENDBRANCH   1  29
TORSDOF 26
ENDMDL
MODEL 2
REMARK VINA RESULT:      -9.6      3.396     10.095
REMARK SMILES C[C@@H](C(=O)OCCOCCOCCOCCOC(=O)c1ccc(-c2c3nc(c(-c4cccc(S(=O)(=O)[O-])c4F)c4ccc([nH]4)c(-c4cccc(S(=O)(=O)[O-])c4F)c4nc(c(-c5cccc(S(=O)(=O)[O-])c5F)c5ccc2[nH]5)C=C4)C=C3)cc1)S(=O)(=O)N[C@@]12C[C@@H]3C[C@@](C)(C[C@@](C)(C3)C1)C2
REMARK SMILES IDX 11 1 10 2 9 3 8 4 7 5 6 6 5 7 3 8 4 9 2 10 1 11 83 12 84 13
REMARK SMILES IDX 85 14 86 15 87 17 88 18 97 19 98 20 89 21 94 22 91 23 96 24
REMARK SMILES IDX 90 25 93 26 95 27 92 28 12 29 13 30 14 31 15 32 16 33 17 34
REMARK SMILES IDX 18 35 19 36 20 37 21 38 82 39 22 40 81 41 23 42 24 43 25 44
REMARK SMILES IDX 75 45 26 46 80 47 74 48 76 49 27 50 79 51 73 52 72 53 28 55
REMARK SMILES IDX 60 56 40 57 59 58 41 59 44 60 58 61 77 62 42 63 43 64 57 66
REMARK SMILES IDX 78 67 45 68 29 69 30 70 38 71 31 72 33 73 39 74 32 75 34 76
REMARK SMILES IDX 35 77 36 78 37 79 61 80 62 81 70 82 63 83 65 84 71 85 64 86
REMARK SMILES IDX 66 87 67 88 68 89 69 90 46 91 47 92 55 93 48 94 50 95 56 96
REMARK SMILES IDX 49 97 51 98 52 99 53 100 54 101
REMARK H PARENT 86 16 76 54 44 65
REMARK Flexibility Score: inf
ROOT
ATOM      1  O   UNL A   1      32.672  36.393  30.246  1.00  0.00    -0.377 OA
ENDROOT
BRANCH   1   2
ATOM      2  C   UNL A   1      33.322  35.265  29.697  1.00  0.00     0.188 C 
BRANCH   2   3
ATOM      3  C   UNL A   1      32.882  34.823  28.293  1.00  0.00     0.188 C 
BRANCH   3   4
ATOM      4  O   UNL A   1      33.105  33.505  27.815  1.00  0.00    -0.376 OA
BRANCH   4   5
ATOM      5  C   UNL A   1      34.215  32.760  28.286  1.00  0.00     0.202 C 
BRANCH   5   6
ATOM      6  C   UNL A   1      34.283  31.257  27.963  1.00  0.00     0.261 C 
BRANCH   6   7
ATOM      7  O   UNL A   1      33.468  30.776  26.870  1.00  0.00    -0.462 OA
BRANCH   7   8
ATOM      8  C   UNL A   1      33.673  29.501  26.434  1.00  0.00     0.325 C 
ATOM      9  O   UNL A   1      34.650  28.834  26.753  1.00  0.00    -0.251 OA
BRANCH   8  10
ATOM     10  C   UNL A   1      32.640  29.044  25.428  1.00  0.00     0.230 C 
ATOM     11  C   UNL A   1      31.388  29.890  25.296  1.00  0.00     0.039 C 
BRANCH  10  12
ATOM     12  S   UNL A   1      32.360  27.261  25.458  1.00  0.00     0.225 S 
ATOM     13  O   UNL A   1      31.931  26.898  26.791  1.00  0.00    -0.212 OA
ATOM     14  O   UNL A   1      31.506  26.907  24.343  1.00  0.00    -0.212 OA
BRANCH  12  15
ATOM     15  N   UNL A   1      33.756  26.409  25.110  1.00  0.00    -0.208 NA
ATOM     16  H   UNL A   1      34.356  26.567  25.919  1.00  0.00     0.141 HD
BRANCH  15  17
ATOM     17  C   UNL A   1      33.929  24.952  24.800  1.00  0.00     0.034 C 
ATOM     18  C   UNL A   1      33.976  24.814  23.248  1.00  0.00     0.027 C 
ATOM     19  C   UNL A   1      35.275  24.481  25.351  1.00  0.00     0.030 C 
ATOM     20  C   UNL A   1      32.829  24.002  25.305  1.00  0.00     0.030 C 
ATOM     21  C   UNL A   1      34.271  23.363  22.826  1.00  0.00    -0.008 C 
ATOM     22  C   UNL A   1      35.642  23.054  24.930  1.00  0.00    -0.030 C 
ATOM     23  C   UNL A   1      33.155  22.526  24.919  1.00  0.00    -0.030 C 
ATOM     24  C   UNL A   1      35.628  22.941  23.392  1.00  0.00     0.010 C 
ATOM     25  C   UNL A   1      33.203  22.417  23.381  1.00  0.00     0.010 C 
ATOM     26  C   UNL A   1      34.545  22.132  25.493  1.00  0.00     0.013 C 
ATOM     27  C   UNL A   1      37.033  22.729  25.501  1.00  0.00     0.011 C 
ATOM     28  C   UNL A   1      32.094  21.577  25.480  1.00  0.00     0.011 C 
ENDBRANCH  15  17
ENDBRANCH  12  15
ENDBRANCH  10  12
ENDBRANCH   8  10
ENDBRANCH   7   8
ENDBRANCH   6   7
ENDBRANCH   5   6
ENDBRANCH   4   5
ENDBRANCH   3   4
ENDBRANCH   2   3
ENDBRANCH   1   2
BRANCH   1  29
ATOM     29  C   UNL A   1      32.600  36.474  31.662  1.00  0.00     0.188 C 
BRANCH  29  30
ATOM     30  C   UNL A   1      33.651  37.387  32.307  1.00  0.00     0.188 C 
BRANCH  30  31
ATOM     31  O   UNL A   1      34.738  36.661  32.877  1.00  0.00    -0.376 OA
BRANCH  31  32
ATOM     32  C   UNL A   1      34.445  35.712  33.899  1.00  0.00     0.202 C 
BRANCH  32  33
ATOM     33  C   UNL A   1      35.090  34.329  33.774  1.00  0.00     0.261 C 
BRANCH  33  34
ATOM     34  O   UNL A   1      35.680  33.965  32.526  1.00  0.00    -0.460 OA
BRANCH  34  35
ATOM     35  C   UNL A   1      35.412  32.773  31.973  1.00  0.00     0.338 C 
ATOM     36  O   UNL A   1      34.322  32.297  31.702  1.00  0.00    -0.246 OA
BRANCH  35  37
ATOM     37  C   UNL A   1      36.722  32.272  31.533  1.00  0.00     0.060 A 
ATOM     38  C   UNL A   1      37.625  31.827  32.503  1.00  0.00     0.016 A 
ATOM     39  C   UNL A   1      37.009  32.164  30.167  1.00  0.00     0.016 A 
ATOM     40  C   UNL A   1      38.853  31.316  32.105  1.00  0.00     0.010 A 
ATOM     41  C   UNL A   1      38.243  31.660  29.770  1.00  0.00     0.010 A 
ATOM     42  C   UNL A   1      39.182  31.286  30.744  1.00  0.00    -0.014 A 
BRANCH  42  43
ATOM     43  C   UNL A   1      40.598  31.118  30.370  1.00  0.00     0.031 A 
ATOM     44  C   UNL A   1      41.430  32.362  30.236  1.00  0.00     0.074 A 
ATOM     45  C   UNL A   1      41.129  29.896  30.209  1.00  0.00     0.049 A 
ATOM     46  N   UNL A   1      42.695  32.485  29.947  1.00  0.00    -0.248 NA
ATOM     47  C   UNL A   1      40.737  33.645  30.461  1.00  0.00     0.031 C 
ATOM     48  C   UNL A   1      40.402  28.634  30.331  1.00  0.00     0.029 A 
ATOM     49  N   UNL A   1      42.409  29.522  29.894  1.00  0.00    -0.354 N 
ATOM     50  C   UNL A   1      42.945  33.852  29.935  1.00  0.00     0.074 A 
ATOM     51  C   UNL A   1      41.699  34.521  30.221  1.00  0.00     0.031 C 
ATOM     52  C   UNL A   1      41.245  27.620  30.071  1.00  0.00     0.029 A 
ATOM     53  C   UNL A   1      42.560  28.165  29.740  1.00  0.00     0.049 A 
ATOM     54  H   UNL A   1      43.148  30.163  29.790  1.00  0.00     0.167 HD
ATOM     55  C   UNL A   1      44.117  34.490  29.721  1.00  0.00     0.034 A 
ATOM     56  C   UNL A   1      43.637  27.459  29.349  1.00  0.00     0.034 A 
ATOM     57  C   UNL A   1      45.346  33.807  29.440  1.00  0.00     0.049 A 
ATOM     58  C   UNL A   1      44.923  28.195  29.079  1.00  0.00     0.074 A 
ATOM     59  C   UNL A   1      46.602  34.345  29.231  1.00  0.00     0.029 A 
ATOM     60  N   UNL A   1      45.470  32.430  29.311  1.00  0.00    -0.354 N 
ATOM     61  N   UNL A   1      45.171  29.481  29.166  1.00  0.00    -0.248 NA
ATOM     62  C   UNL A   1      46.084  27.384  28.691  1.00  0.00     0.031 C 
ATOM     63  C   UNL A   1      47.477  33.295  28.935  1.00  0.00     0.029 A 
ATOM     64  C   UNL A   1      46.777  32.100  29.009  1.00  0.00     0.049 A 
ATOM     65  H   UNL A   1      44.733  31.786  29.418  1.00  0.00     0.167 HD
ATOM     66  C   UNL A   1      46.523  29.630  28.881  1.00  0.00     0.074 A 
ATOM     67  C   UNL A   1      47.044  28.298  28.637  1.00  0.00     0.031 C 
ATOM     68  C   UNL A   1      47.271  30.760  28.815  1.00  0.00     0.034 A 
BRANCH  55  69
ATOM     69  C   UNL A   1      44.114  35.994  29.783  1.00  0.00     0.023 A 
ATOM     70  C   UNL A   1      44.331  36.650  31.012  1.00  0.00     0.012 A 
ATOM     71  C   UNL A   1      43.926  36.758  28.616  1.00  0.00     0.148 A 
ATOM     72  C   UNL A   1      44.327  38.043  31.083  1.00  0.00     0.002 A 
ATOM     73  C   UNL A   1      43.974  38.144  28.686  1.00  0.00     0.091 A 
ATOM     74  F   UNL A   1      43.692  36.115  27.463  1.00  0.00    -0.205 F 
ATOM     75  C   UNL A   1      44.161  38.789  29.920  1.00  0.00     0.022 A 
BRANCH  73  76
ATOM     76  S   UNL A   1      43.847  39.192  27.234  1.00  0.00     0.127 S 
ATOM     77  O   UNL A   1      45.030  38.789  26.476  1.00  0.00    -0.237 OA
ATOM     78  O   UNL A   1      42.574  38.761  26.656  1.00  0.00    -0.237 OA
ATOM     79  O   UNL A   1      43.861  40.564  27.724  1.00  0.00    -0.744 OA
ENDBRANCH  73  76
ENDBRANCH  55  69
BRANCH  56  80
ATOM     80  C   UNL A   1      43.545  25.979  29.201  1.00  0.00     0.023 A 
ATOM     81  C   UNL A   1      43.988  25.136  30.239  1.00  0.00     0.012 A 
ATOM     82  C   UNL A   1      43.000  25.404  28.036  1.00  0.00     0.148 A 
ATOM     83  C   UNL A   1      43.921  23.749  30.104  1.00  0.00     0.002 A 
ATOM     84  C   UNL A   1      42.883  24.024  27.933  1.00  0.00     0.091 A 
ATOM     85  F   UNL A   1      42.597  26.224  27.055  1.00  0.00    -0.205 F 
ATOM     86  C   UNL A   1      43.361  23.193  28.957  1.00  0.00     0.022 A 
BRANCH  84  87
ATOM     87  S   UNL A   1      42.055  23.231  26.550  1.00  0.00     0.127 S 
ATOM     88  O   UNL A   1      42.819  23.739  25.414  1.00  0.00    -0.237 OA
ATOM     89  O   UNL A   1      42.262  21.815  26.850  1.00  0.00    -0.237 OA
ATOM     90  O   UNL A   1      40.666  23.663  26.622  1.00  0.00    -0.744 OA
ENDBRANCH  84  87
ENDBRANCH  56  80
BRANCH  68  91
ATOM     91  C   UNL A   1      48.738  30.608  28.515  1.00  0.00     0.023 A 
ATOM     92  C   UNL A   1      49.191  30.600  27.182  1.00  0.00     0.012 A 
ATOM     93  C   UNL A   1      49.673  30.551  29.567  1.00  0.00     0.148 A 
ATOM     94  C   UNL A   1      50.552  30.499  26.900  1.00  0.00     0.002 A 
ATOM     95  C   UNL A   1      51.030  30.508  29.279  1.00  0.00     0.091 A 
ATOM     96  F   UNL A   1      49.218  30.545  30.829  1.00  0.00    -0.205 F 
ATOM     97  C   UNL A   1      51.472  30.466  27.946  1.00  0.00     0.022 A 
BRANCH  95  98
ATOM     98  S   UNL A   1      52.288  30.569  30.558  1.00  0.00     0.127 S 
ATOM     99  O   UNL A   1      52.156  31.944  31.040  1.00  0.00    -0.237 OA
ATOM    100  O   UNL A   1      51.825  29.547  31.495  1.00  0.00    -0.237 OA
ATOM    101  O   UNL A   1      53.550  30.259  29.899  1.00  0.00    -0.744 OA
ENDBRANCH  95  98
ENDBRANCH  68  91
ENDBRANCH  42  43
ENDBRANCH  35  37
ENDBRANCH  34  35
ENDBRANCH  33  34
ENDBRANCH  32  33
ENDBRANCH  31  32
ENDBRANCH  30  31
ENDBRANCH  29  30
ENDBRANCH   1  29
TORSDOF 26
ENDMDL
MODEL 3
REMARK VINA RESULT:      -9.3      1.835      2.432
REMARK SMILES C[C@@H](C(=O)OCCOCCOCCOCCOC(=O)c1ccc(-c2c3nc(c(-c4cccc(S(=O)(=O)[O-])c4F)c4ccc([nH]4)c(-c4cccc(S(=O)(=O)[O-])c4F)c4nc(c(-c5cccc(S(=O)(=O)[O-])c5F)c5ccc2[nH]5)C=C4)C=C3)cc1)S(=O)(=O)N[C@@]12C[C@@H]3C[C@@](C)(C[C@@](C)(C3)C1)C2
REMARK SMILES IDX 11 1 10 2 9 3 8 4 7 5 6 6 5 7 3 8 4 9 2 10 1 11 83 12 84 13
REMARK SMILES IDX 85 14 86 15 87 17 88 18 97 19 98 20 89 21 94 22 91 23 96 24
REMARK SMILES IDX 90 25 93 26 95 27 92 28 12 29 13 30 14 31 15 32 16 33 17 34
REMARK SMILES IDX 18 35 19 36 20 37 21 38 82 39 22 40 81 41 23 42 24 43 25 44
REMARK SMILES IDX 75 45 26 46 80 47 74 48 76 49 27 50 79 51 73 52 72 53 28 55
REMARK SMILES IDX 60 56 40 57 59 58 41 59 44 60 58 61 77 62 42 63 43 64 57 66
REMARK SMILES IDX 78 67 45 68 29 69 30 70 38 71 31 72 33 73 39 74 32 75 34 76
REMARK SMILES IDX 35 77 36 78 37 79 61 80 62 81 70 82 63 83 65 84 71 85 64 86
REMARK SMILES IDX 66 87 67 88 68 89 69 90 46 91 47 92 55 93 48 94 50 95 56 96
REMARK SMILES IDX 49 97 51 98 52 99 53 100 54 101
REMARK H PARENT 86 16 76 54 44 65
REMARK Flexibility Score: inf
ROOT
ATOM      1  O   UNL A   1      35.385  17.471  25.074  1.00  0.00    -0.377 OA
ENDROOT
BRANCH   1   2
ATOM      2  C   UNL A   1      34.464  16.627  24.413  1.00  0.00     0.188 C 
BRANCH   2   3
ATOM      3  C   UNL A   1      33.928  17.109  23.057  1.00  0.00     0.188 C 
BRANCH   3   4
ATOM      4  O   UNL A   1      32.900  18.083  22.957  1.00  0.00    -0.376 OA
BRANCH   4   5
ATOM      5  C   UNL A   1      32.173  18.465  24.112  1.00  0.00     0.202 C 
BRANCH   5   6
ATOM      6  C   UNL A   1      32.383  19.880  24.680  1.00  0.00     0.261 C 
BRANCH   6   7
ATOM      7  O   UNL A   1      33.111  20.822  23.860  1.00  0.00    -0.462 OA
BRANCH   7   8
ATOM      8  C   UNL A   1      32.399  21.591  22.988  1.00  0.00     0.325 C 
ATOM      9  O   UNL A   1      31.625  21.124  22.162  1.00  0.00    -0.251 OA
BRANCH   8  10
ATOM     10  C   UNL A   1      32.758  23.059  23.064  1.00  0.00     0.230 C 
ATOM     11  C   UNL A   1      33.408  23.673  21.839  1.00  0.00     0.039 C 
BRANCH  10  12
ATOM     12  S   UNL A   1      33.503  23.526  24.641  1.00  0.00     0.225 S 
ATOM     13  O   UNL A   1      32.500  23.369  25.673  1.00  0.00    -0.212 OA
ATOM     14  O   UNL A   1      34.757  22.816  24.790  1.00  0.00    -0.212 OA
BRANCH  12  15
ATOM     15  N   UNL A   1      34.004  25.120  24.641  1.00  0.00    -0.208 NA
ATOM     16  H   UNL A   1      34.552  25.213  23.786  1.00  0.00     0.141 HD
BRANCH  15  17
ATOM     17  C   UNL A   1      33.186  26.376  24.694  1.00  0.00     0.034 C 
ATOM     18  C   UNL A   1      33.771  27.352  23.630  1.00  0.00     0.027 C 
ATOM     19  C   UNL A   1      31.749  26.052  24.290  1.00  0.00     0.030 C 
ATOM     20  C   UNL A   1      33.164  27.130  26.036  1.00  0.00     0.030 C 
ATOM     21  C   UNL A   1      32.924  28.633  23.523  1.00  0.00    -0.008 C 
ATOM     22  C   UNL A   1      30.865  27.293  24.129  1.00  0.00    -0.030 C 
ATOM     23  C   UNL A   1      32.265  28.401  25.939  1.00  0.00    -0.030 C 
ATOM     24  C   UNL A   1      31.500  28.260  23.108  1.00  0.00     0.010 C 
ATOM     25  C   UNL A   1      32.860  29.347  24.876  1.00  0.00     0.010 C 
ATOM     26  C   UNL A   1      30.831  27.992  25.500  1.00  0.00     0.013 C 
ATOM     27  C   UNL A   1      29.470  26.833  23.669  1.00  0.00     0.011 C 
ATOM     28  C   UNL A   1      32.191  29.111  27.292  1.00  0.00     0.011 C 
ENDBRANCH  15  17
ENDBRANCH  12  15
ENDBRANCH  10  12
ENDBRANCH   8  10
ENDBRANCH   7   8
ENDBRANCH   6   7
ENDBRANCH   5   6
ENDBRANCH   4   5
ENDBRANCH   3   4
ENDBRANCH   2   3
ENDBRANCH   1   2
BRANCH   1  29
ATOM     29  C   UNL A   1      35.968  18.517  24.312  1.00  0.00     0.188 C 
BRANCH  29  30
ATOM     30  C   UNL A   1      36.123  19.847  25.061  1.00  0.00     0.188 C 
BRANCH  30  31
ATOM     31  O   UNL A   1      37.183  20.650  24.548  1.00  0.00    -0.376 OA
BRANCH  31  32
ATOM     32  C   UNL A   1      38.283  20.934  25.408  1.00  0.00     0.202 C 
BRANCH  32  33
ATOM     33  C   UNL A   1      39.293  19.808  25.646  1.00  0.00     0.261 C 
BRANCH  33  34
ATOM     34  O   UNL A   1      40.382  20.050  26.538  1.00  0.00    -0.460 OA
BRANCH  34  35
ATOM     35  C   UNL A   1      41.645  20.010  26.090  1.00  0.00     0.338 C 
ATOM     36  O   UNL A   1      42.171  19.156  25.396  1.00  0.00    -0.246 OA
BRANCH  35  37
ATOM     37  C   UNL A   1      42.186  21.340  26.405  1.00  0.00     0.060 A 
ATOM     38  C   UNL A   1      42.536  21.620  27.729  1.00  0.00     0.016 A 
ATOM     39  C   UNL A   1      42.426  22.261  25.378  1.00  0.00     0.016 A 
ATOM     40  C   UNL A   1      43.083  22.858  28.040  1.00  0.00     0.010 A 
ATOM     41  C   UNL A   1      42.965  23.504  25.692  1.00  0.00     0.010 A 
ATOM     42  C   UNL A   1      43.245  23.817  27.031  1.00  0.00    -0.014 A 
BRANCH  42  43
ATOM     43  C   UNL A   1      43.448  25.222  27.428  1.00  0.00     0.031 A 
ATOM     44  C   UNL A   1      44.819  25.804  27.235  1.00  0.00     0.074 A 
ATOM     45  C   UNL A   1      42.429  25.962  27.893  1.00  0.00     0.049 A 
ATOM     46  N   UNL A   1      45.248  27.011  27.475  1.00  0.00    -0.248 NA
ATOM     47  C   UNL A   1      45.850  24.897  26.693  1.00  0.00     0.031 C 
ATOM     48  C   UNL A   1      41.063  25.485  28.101  1.00  0.00     0.029 A 
ATOM     49  N   UNL A   1      42.395  27.274  28.286  1.00  0.00    -0.354 N 
ATOM     50  C   UNL A   1      46.596  27.004  27.136  1.00  0.00     0.074 A 
ATOM     51  C   UNL A   1      46.923  25.669  26.695  1.00  0.00     0.031 C 
ATOM     52  C   UNL A   1      40.326  26.489  28.608  1.00  0.00     0.029 A 
ATOM     53  C   UNL A   1      41.175  27.665  28.781  1.00  0.00     0.049 A 
ATOM     54  H   UNL A   1      43.170  27.877  28.218  1.00  0.00     0.167 HD
ATOM     55  C   UNL A   1      47.477  28.028  27.174  1.00  0.00     0.034 A 
ATOM     56  C   UNL A   1      40.807  28.836  29.334  1.00  0.00     0.034 A 
ATOM     57  C   UNL A   1      47.132  29.349  27.613  1.00  0.00     0.049 A 
ATOM     58  C   UNL A   1      41.818  29.951  29.400  1.00  0.00     0.074 A 
ATOM     59  C   UNL A   1      47.933  30.474  27.670  1.00  0.00     0.029 A 
ATOM     60  N   UNL A   1      45.881  29.718  28.089  1.00  0.00    -0.354 N 
ATOM     61  N   UNL A   1      43.062  29.962  28.986  1.00  0.00    -0.248 NA
ATOM     62  C   UNL A   1      41.365  31.224  29.976  1.00  0.00     0.031 C 
ATOM     63  C   UNL A   1      47.176  31.514  28.221  1.00  0.00     0.029 A 
ATOM     64  C   UNL A   1      45.892  31.050  28.458  1.00  0.00     0.049 A 
ATOM     65  H   UNL A   1      45.104  29.118  28.154  1.00  0.00     0.167 HD
ATOM     66  C   UNL A   1      43.531  31.250  29.215  1.00  0.00     0.074 A 
ATOM     67  C   UNL A   1      42.427  31.995  29.789  1.00  0.00     0.031 C 
ATOM     68  C   UNL A   1      44.762  31.773  28.986  1.00  0.00     0.034 A 
BRANCH  55  69
ATOM     69  C   UNL A   1      48.888  27.752  26.728  1.00  0.00     0.023 A 
ATOM     70  C   UNL A   1      49.207  27.744  25.355  1.00  0.00     0.012 A 
ATOM     71  C   UNL A   1      49.905  27.527  27.675  1.00  0.00     0.148 A 
ATOM     72  C   UNL A   1      50.510  27.486  24.930  1.00  0.00     0.002 A 
ATOM     73  C   UNL A   1      51.210  27.320  27.247  1.00  0.00     0.091 A 
ATOM     74  F   UNL A   1      49.576  27.508  28.974  1.00  0.00    -0.205 F 
ATOM     75  C   UNL A   1      51.513  27.286  25.875  1.00  0.00     0.022 A 
BRANCH  73  76
ATOM     76  S   UNL A   1      52.585  27.128  28.385  1.00  0.00     0.127 S 
ATOM     77  O   UNL A   1      52.604  28.433  29.045  1.00  0.00    -0.237 OA
ATOM     78  O   UNL A   1      52.131  26.023  29.229  1.00  0.00    -0.237 OA
ATOM     79  O   UNL A   1      53.750  26.831  27.564  1.00  0.00    -0.744 OA
ENDBRANCH  73  76
ENDBRANCH  55  69
BRANCH  56  80
ATOM     80  C   UNL A   1      39.423  29.011  29.856  1.00  0.00     0.023 A 
ATOM     81  C   UNL A   1      39.085  28.537  31.138  1.00  0.00     0.012 A 
ATOM     82  C   UNL A   1      38.440  29.665  29.086  1.00  0.00     0.148 A 
ATOM     83  C   UNL A   1      37.788  28.681  31.630  1.00  0.00     0.002 A 
ATOM     84  C   UNL A   1      37.166  29.857  29.605  1.00  0.00     0.091 A 
ATOM     85  F   UNL A   1      38.778  30.096  27.863  1.00  0.00    -0.205 F 
ATOM     86  C   UNL A   1      36.831  29.349  30.869  1.00  0.00     0.022 A 
BRANCH  84  87
ATOM     87  S   UNL A   1      35.915  30.819  28.748  1.00  0.00     0.127 S 
ATOM     88  O   UNL A   1      36.727  31.824  28.067  1.00  0.00    -0.237 OA
ATOM     89  O   UNL A   1      35.314  29.814  27.872  1.00  0.00    -0.237 OA
ATOM     90  O   UNL A   1      35.025  31.322  29.784  1.00  0.00    -0.744 OA
ENDBRANCH  84  87
ENDBRANCH  56  80
BRANCH  68  91
ATOM     91  C   UNL A   1      44.970  33.228  29.306  1.00  0.00     0.023 A 
ATOM     92  C   UNL A   1      45.444  33.613  30.576  1.00  0.00     0.012 A 
ATOM     93  C   UNL A   1      44.768  34.208  28.315  1.00  0.00     0.148 A 
ATOM     94  C   UNL A   1      45.676  34.956  30.865  1.00  0.00     0.002 A 
ATOM     95  C   UNL A   1      45.056  35.537  28.592  1.00  0.00     0.091 A 
ATOM     96  F   UNL A   1      44.304  33.821  27.117  1.00  0.00    -0.205 F 
ATOM     97  C   UNL A   1      45.495  35.916  29.871  1.00  0.00     0.022 A 
BRANCH  95  98
ATOM     98  S   UNL A   1      44.954  36.825  27.345  1.00  0.00     0.127 S 
ATOM     99  O   UNL A   1      43.616  36.604  26.798  1.00  0.00    -0.237 OA
ATOM    100  O   UNL A   1      45.093  38.041  28.145  1.00  0.00    -0.237 OA
ATOM    101  O   UNL A   1      46.052  36.579  26.420  1.00  0.00    -0.744 OA
ENDBRANCH  95  98
ENDBRANCH  68  91
ENDBRANCH  42  43
ENDBRANCH  35  37
ENDBRANCH  34  35
ENDBRANCH  33  34
ENDBRANCH  32  33
ENDBRANCH  31  32
ENDBRANCH  30  31
ENDBRANCH  29  30
ENDBRANCH   1  29
TORSDOF 26
ENDMDL
