MODEL 1
REMARK VINA RESULT:      -7.8      0.000      0.000
REMARK SMILES CC[C@@H](C(=O)OCCOCCOCCOCCOC(=O)c1ccc(-c2c3nc(c(-c4cccc(S(=O)(=O)[O-])c4F)c4ccc([nH]4)c(-c4cccc(S(=O)(=O)[O-])c4F)c4nc(c(-c5cccc(S(=O)(=O)[O-])c5F)c5ccc2[nH]5)C=C4)C=C3)cc1)N1C(=O)/C(=C/C(C)=C/c2ccccc2)SC1=S
REMARK SMILES IDX 12 1 11 2 10 3 9 4 8 5 7 6 6 7 4 8 5 9 3 10 2 11 1 12 84 13
REMARK SMILES IDX 85 14 99 15 86 16 87 17 98 18 100 19 88 20 89 21 90 22 91 23
REMARK SMILES IDX 92 24 93 25 97 26 94 27 96 28 95 29 13 30 14 31 15 32 16 33
REMARK SMILES IDX 17 34 18 35 19 36 20 37 21 38 22 39 83 40 23 41 82 42 24 43
REMARK SMILES IDX 25 44 26 45 76 46 27 47 81 48 75 49 77 50 28 51 80 52 74 53
REMARK SMILES IDX 73 54 29 56 61 57 41 58 60 59 42 60 45 61 59 62 78 63 43 64
REMARK SMILES IDX 44 65 58 67 79 68 46 69 30 70 31 71 39 72 32 73 34 74 40 75
REMARK SMILES IDX 33 76 35 77 36 78 37 79 38 80 62 81 63 82 71 83 64 84 66 85
REMARK SMILES IDX 72 86 65 87 67 88 68 89 69 90 70 91 47 92 48 93 56 94 49 95
REMARK SMILES IDX 51 96 57 97 50 98 52 99 53 100 54 101 55 102
REMARK H PARENT 77 55 45 66
REMARK Flexibility Score: inf
ROOT
ATOM      1  O   UNL A   1      40.250  28.964  26.641  1.00  0.00    -0.377 OA
ENDROOT
BRANCH   1   2
ATOM      2  C   UNL A   1      41.580  28.501  26.640  1.00  0.00     0.188 C 
BRANCH   2   3
ATOM      3  C   UNL A   1      42.457  28.957  27.809  1.00  0.00     0.188 C 
BRANCH   3   4
ATOM      4  O   UNL A   1      43.766  28.445  27.922  1.00  0.00    -0.376 OA
BRANCH   4   5
ATOM      5  C   UNL A   1      44.027  27.094  28.258  1.00  0.00     0.202 C 
BRANCH   5   6
ATOM      6  C   UNL A   1      43.147  26.161  29.121  1.00  0.00     0.261 C 
BRANCH   6   7
ATOM      7  O   UNL A   1      41.985  25.549  28.547  1.00  0.00    -0.462 OA
BRANCH   7   8
ATOM      8  C   UNL A   1      42.081  24.236  28.260  1.00  0.00     0.329 C 
ATOM      9  O   UNL A   1      42.205  23.385  29.137  1.00  0.00    -0.250 OA
BRANCH   8  10
ATOM     10  C   UNL A   1      41.952  23.883  26.744  1.00  0.00     0.201 C 
BRANCH  10  11
ATOM     11  C   UNL A   1      42.260  24.956  25.677  1.00  0.00     0.034 C 
ATOM     12  C   UNL A   1      43.702  25.139  25.226  1.00  0.00     0.007 C 
ENDBRANCH  10  11
BRANCH  10  13
ATOM     13  N   UNL A   1      40.612  23.189  26.620  1.00  0.00    -0.278 N 
ATOM     14  C   UNL A   1      39.507  24.019  26.432  1.00  0.00     0.266 C 
ATOM     15  C   UNL A   1      40.298  21.844  26.613  1.00  0.00     0.149 C 
ATOM     16  O   UNL A   1      39.467  25.222  26.659  1.00  0.00    -0.268 OA
ATOM     17  C   UNL A   1      38.307  23.233  26.013  1.00  0.00     0.080 C 
ATOM     18  S   UNL A   1      38.752  21.600  25.804  1.00  0.00    -0.054 SA
ATOM     19  S   UNL A   1      41.042  20.520  27.303  1.00  0.00    -0.052 S 
ATOM     20  C   UNL A   1      37.096  23.804  25.932  1.00  0.00     0.024 C 
BRANCH  20  21
ATOM     21  C   UNL A   1      35.764  23.225  25.717  1.00  0.00    -0.049 C 
ATOM     22  C   UNL A   1      35.590  22.549  24.377  1.00  0.00     0.044 C 
ATOM     23  C   UNL A   1      34.729  23.461  26.551  1.00  0.00     0.011 C 
BRANCH  23  24
ATOM     24  C   UNL A   1      33.307  23.098  26.420  1.00  0.00    -0.025 A 
ATOM     25  C   UNL A   1      33.006  21.938  25.690  1.00  0.00     0.008 A 
ATOM     26  C   UNL A   1      32.252  23.881  26.898  1.00  0.00     0.008 A 
ATOM     27  C   UNL A   1      31.684  21.549  25.472  1.00  0.00     0.001 A 
ATOM     28  C   UNL A   1      30.926  23.485  26.690  1.00  0.00     0.001 A 
ATOM     29  C   UNL A   1      30.642  22.319  25.980  1.00  0.00     0.000 A 
ENDBRANCH  23  24
ENDBRANCH  20  21
ENDBRANCH  10  13
ENDBRANCH   8  10
ENDBRANCH   7   8
ENDBRANCH   6   7
ENDBRANCH   5   6
ENDBRANCH   4   5
ENDBRANCH   3   4
ENDBRANCH   2   3
ENDBRANCH   1   2
BRANCH   1  30
ATOM     30  C   UNL A   1      39.472  28.806  27.815  1.00  0.00     0.188 C 
BRANCH  30  31
ATOM     31  C   UNL A   1      38.216  29.668  28.043  1.00  0.00     0.188 C 
BRANCH  31  32
ATOM     32  O   UNL A   1      38.379  30.752  28.948  1.00  0.00    -0.376 OA
BRANCH  32  33
ATOM     33  C   UNL A   1      37.436  31.813  28.920  1.00  0.00     0.202 C 
BRANCH  33  34
ATOM     34  C   UNL A   1      37.215  32.608  30.219  1.00  0.00     0.261 C 
BRANCH  34  35
ATOM     35  O   UNL A   1      36.090  32.216  31.016  1.00  0.00    -0.460 OA
BRANCH  35  36
ATOM     36  C   UNL A   1      36.245  31.147  31.824  1.00  0.00     0.338 C 
ATOM     37  O   UNL A   1      36.168  29.969  31.506  1.00  0.00    -0.246 OA
BRANCH  36  38
ATOM     38  C   UNL A   1      36.725  31.628  33.133  1.00  0.00     0.060 A 
ATOM     39  C   UNL A   1      36.195  32.819  33.646  1.00  0.00     0.016 A 
ATOM     40  C   UNL A   1      37.695  30.918  33.842  1.00  0.00     0.016 A 
ATOM     41  C   UNL A   1      36.684  33.339  34.843  1.00  0.00     0.010 A 
ATOM     42  C   UNL A   1      38.200  31.450  35.030  1.00  0.00     0.010 A 
ATOM     43  C   UNL A   1      37.733  32.690  35.504  1.00  0.00    -0.014 A 
BRANCH  43  44
ATOM     44  C   UNL A   1      38.508  33.437  36.523  1.00  0.00     0.031 A 
ATOM     45  C   UNL A   1      39.663  34.281  36.049  1.00  0.00     0.074 A 
ATOM     46  C   UNL A   1      38.182  33.402  37.826  1.00  0.00     0.049 A 
ATOM     47  N   UNL A   1      40.495  35.014  36.740  1.00  0.00    -0.248 NA
ATOM     48  C   UNL A   1      39.913  34.294  34.597  1.00  0.00     0.031 C 
ATOM     49  C   UNL A   1      37.076  32.642  38.405  1.00  0.00     0.029 A 
ATOM     50  N   UNL A   1      38.773  34.014  38.904  1.00  0.00    -0.354 N 
ATOM     51  C   UNL A   1      41.382  35.550  35.813  1.00  0.00     0.074 A 
ATOM     52  C   UNL A   1      41.000  35.045  34.515  1.00  0.00     0.031 C 
ATOM     53  C   UNL A   1      37.082  32.813  39.738  1.00  0.00     0.029 A 
ATOM     54  C   UNL A   1      38.206  33.671  40.109  1.00  0.00     0.049 A 
ATOM     55  H   UNL A   1      39.529  34.638  38.822  1.00  0.00     0.167 HD
ATOM     56  C   UNL A   1      42.417  36.398  36.021  1.00  0.00     0.034 A 
ATOM     57  C   UNL A   1      38.572  33.997  41.364  1.00  0.00     0.034 A 
ATOM     58  C   UNL A   1      42.790  36.906  37.311  1.00  0.00     0.049 A 
ATOM     59  C   UNL A   1      39.750  34.918  41.573  1.00  0.00     0.074 A 
ATOM     60  C   UNL A   1      43.801  37.796  37.626  1.00  0.00     0.029 A 
ATOM     61  N   UNL A   1      42.176  36.560  38.504  1.00  0.00    -0.354 N 
ATOM     62  N   UNL A   1      40.520  35.493  40.681  1.00  0.00    -0.248 NA
ATOM     63  C   UNL A   1      40.084  35.263  42.962  1.00  0.00     0.031 C 
ATOM     64  C   UNL A   1      43.824  37.957  39.014  1.00  0.00     0.029 A 
ATOM     65  C   UNL A   1      42.794  37.207  39.560  1.00  0.00     0.049 A 
ATOM     66  H   UNL A   1      41.413  35.943  38.589  1.00  0.00     0.167 HD
ATOM     67  C   UNL A   1      41.397  36.302  41.396  1.00  0.00     0.074 A 
ATOM     68  C   UNL A   1      41.051  36.154  42.795  1.00  0.00     0.031 C 
ATOM     69  C   UNL A   1      42.404  37.090  40.942  1.00  0.00     0.034 A 
BRANCH  56  70
ATOM     70  C   UNL A   1      43.216  36.828  34.818  1.00  0.00     0.023 A 
ATOM     71  C   UNL A   1      42.910  38.038  34.164  1.00  0.00     0.012 A 
ATOM     72  C   UNL A   1      44.297  36.049  34.360  1.00  0.00     0.148 A 
ATOM     73  C   UNL A   1      43.642  38.448  33.050  1.00  0.00     0.002 A 
ATOM     74  C   UNL A   1      45.054  36.489  33.282  1.00  0.00     0.091 A 
ATOM     75  F   UNL A   1      44.556  34.889  34.980  1.00  0.00    -0.205 F 
ATOM     76  C   UNL A   1      44.719  37.681  32.616  1.00  0.00     0.022 A 
BRANCH  74  77
ATOM     77  S   UNL A   1      46.510  35.615  32.700  1.00  0.00     0.127 S 
ATOM     78  O   UNL A   1      47.276  35.462  33.935  1.00  0.00    -0.237 OA
ATOM     79  O   UNL A   1      45.933  34.373  32.182  1.00  0.00    -0.237 OA
ATOM     80  O   UNL A   1      47.118  36.470  31.691  1.00  0.00    -0.744 OA
ENDBRANCH  74  77
ENDBRANCH  56  70
BRANCH  57  81
ATOM     81  C   UNL A   1      37.806  33.472  42.531  1.00  0.00     0.023 A 
ATOM     82  C   UNL A   1      36.707  34.199  43.031  1.00  0.00     0.012 A 
ATOM     83  C   UNL A   1      38.168  32.262  43.152  1.00  0.00     0.148 A 
ATOM     84  C   UNL A   1      36.008  33.749  44.152  1.00  0.00     0.002 A 
ATOM     85  C   UNL A   1      37.432  31.791  44.233  1.00  0.00     0.091 A 
ATOM     86  F   UNL A   1      39.226  31.593  42.672  1.00  0.00    -0.205 F 
ATOM     87  C   UNL A   1      36.366  32.542  44.748  1.00  0.00     0.022 A 
BRANCH  85  88
ATOM     88  S   UNL A   1      37.740  30.189  44.985  1.00  0.00     0.127 S 
ATOM     89  O   UNL A   1      38.916  30.466  45.806  1.00  0.00    -0.237 OA
ATOM     90  O   UNL A   1      36.502  29.969  45.735  1.00  0.00    -0.237 OA
ATOM     91  O   UNL A   1      37.946  29.266  43.878  1.00  0.00    -0.744 OA
ENDBRANCH  85  88
ENDBRANCH  57  81
BRANCH  69  92
ATOM     92  C   UNL A   1      43.165  37.909  41.954  1.00  0.00     0.023 A 
ATOM     93  C   UNL A   1      42.689  39.174  42.350  1.00  0.00     0.012 A 
ATOM     94  C   UNL A   1      44.330  37.391  42.556  1.00  0.00     0.148 A 
ATOM     95  C   UNL A   1      43.387  39.931  43.291  1.00  0.00     0.002 A 
ATOM     96  C   UNL A   1      44.988  38.125  43.534  1.00  0.00     0.091 A 
ATOM     97  F   UNL A   1      44.778  36.190  42.157  1.00  0.00    -0.205 F 
ATOM     98  C   UNL A   1      44.528  39.403  43.891  1.00  0.00     0.022 A 
BRANCH  96  99
ATOM     99  S   UNL A   1      46.404  37.481  44.433  1.00  0.00     0.127 S 
ATOM    100  O   UNL A   1      46.689  38.572  45.362  1.00  0.00    -0.237 OA
ATOM    101  O   UNL A   1      45.855  36.276  45.056  1.00  0.00    -0.237 OA
ATOM    102  O   UNL A   1      47.432  37.228  43.432  1.00  0.00    -0.744 OA
ENDBRANCH  96  99
ENDBRANCH  69  92
ENDBRANCH  43  44
ENDBRANCH  36  38
ENDBRANCH  35  36
ENDBRANCH  34  35
ENDBRANCH  33  34
ENDBRANCH  32  33
ENDBRANCH  31  32
ENDBRANCH  30  31
ENDBRANCH   1  30
TORSDOF 27
ENDMDL
MODEL 2
REMARK VINA RESULT:      -7.6      8.591     15.637
REMARK SMILES CC[C@@H](C(=O)OCCOCCOCCOCCOC(=O)c1ccc(-c2c3nc(c(-c4cccc(S(=O)(=O)[O-])c4F)c4ccc([nH]4)c(-c4cccc(S(=O)(=O)[O-])c4F)c4nc(c(-c5cccc(S(=O)(=O)[O-])c5F)c5ccc2[nH]5)C=C4)C=C3)cc1)N1C(=O)/C(=C/C(C)=C/c2ccccc2)SC1=S
REMARK SMILES IDX 12 1 11 2 10 3 9 4 8 5 7 6 6 7 4 8 5 9 3 10 2 11 1 12 84 13
REMARK SMILES IDX 85 14 99 15 86 16 87 17 98 18 100 19 88 20 89 21 90 22 91 23
REMARK SMILES IDX 92 24 93 25 97 26 94 27 96 28 95 29 13 30 14 31 15 32 16 33
REMARK SMILES IDX 17 34 18 35 19 36 20 37 21 38 22 39 83 40 23 41 82 42 24 43
REMARK SMILES IDX 25 44 26 45 76 46 27 47 81 48 75 49 77 50 28 51 80 52 74 53
REMARK SMILES IDX 73 54 29 56 61 57 41 58 60 59 42 60 45 61 59 62 78 63 43 64
REMARK SMILES IDX 44 65 58 67 79 68 46 69 30 70 31 71 39 72 32 73 34 74 40 75
REMARK SMILES IDX 33 76 35 77 36 78 37 79 38 80 62 81 63 82 71 83 64 84 66 85
REMARK SMILES IDX 72 86 65 87 67 88 68 89 69 90 70 91 47 92 48 93 56 94 49 95
REMARK SMILES IDX 51 96 57 97 50 98 52 99 53 100 54 101 55 102
REMARK H PARENT 77 55 45 66
REMARK Flexibility Score: inf
ROOT
ATOM      1  O   UNL A   1      49.901  28.450  22.161  1.00  0.00    -0.377 OA
ENDROOT
BRANCH   1   2
ATOM      2  C   UNL A   1      49.261  27.999  20.991  1.00  0.00     0.188 C 
BRANCH   2   3
ATOM      3  C   UNL A   1      49.146  26.481  20.823  1.00  0.00     0.188 C 
BRANCH   3   4
ATOM      4  O   UNL A   1      49.759  25.867  19.712  1.00  0.00    -0.376 OA
BRANCH   4   5
ATOM      5  C   UNL A   1      51.152  25.611  19.659  1.00  0.00     0.202 C 
BRANCH   5   6
ATOM      6  C   UNL A   1      52.259  26.575  19.174  1.00  0.00     0.261 C 
BRANCH   6   7
ATOM      7  O   UNL A   1      52.752  27.592  20.056  1.00  0.00    -0.462 OA
BRANCH   7   8
ATOM      8  C   UNL A   1      54.083  27.606  20.266  1.00  0.00     0.329 C 
ATOM      9  O   UNL A   1      54.703  26.595  20.587  1.00  0.00    -0.250 OA
BRANCH   8  10
ATOM     10  C   UNL A   1      54.775  28.981  20.004  1.00  0.00     0.201 C 
BRANCH  10  11
ATOM     11  C   UNL A   1      56.315  29.061  19.917  1.00  0.00     0.034 C 
ATOM     12  C   UNL A   1      56.943  30.286  19.266  1.00  0.00     0.007 C 
ENDBRANCH  10  11
BRANCH  10  13
ATOM     13  N   UNL A   1      54.114  29.940  20.970  1.00  0.00    -0.278 N 
ATOM     14  C   UNL A   1      54.603  29.928  22.277  1.00  0.00     0.266 C 
ATOM     15  C   UNL A   1      53.121  30.878  20.763  1.00  0.00     0.149 C 
ATOM     16  O   UNL A   1      55.276  29.038  22.782  1.00  0.00    -0.268 OA
ATOM     17  C   UNL A   1      54.109  31.108  23.049  1.00  0.00     0.080 C 
ATOM     18  S   UNL A   1      53.205  32.117  22.012  1.00  0.00    -0.054 SA
ATOM     19  S   UNL A   1      51.869  30.955  19.662  1.00  0.00    -0.052 S 
ATOM     20  C   UNL A   1      54.324  31.214  24.368  1.00  0.00     0.024 C 
BRANCH  20  21
ATOM     21  C   UNL A   1      53.806  32.165  25.361  1.00  0.00    -0.049 C 
ATOM     22  C   UNL A   1      54.867  33.029  26.003  1.00  0.00     0.044 C 
ATOM     23  C   UNL A   1      52.534  32.121  25.810  1.00  0.00     0.011 C 
BRANCH  23  24
ATOM     24  C   UNL A   1      51.888  32.880  26.895  1.00  0.00    -0.025 A 
ATOM     25  C   UNL A   1      50.743  33.620  26.565  1.00  0.00     0.008 A 
ATOM     26  C   UNL A   1      52.395  32.975  28.194  1.00  0.00     0.008 A 
ATOM     27  C   UNL A   1      50.097  34.410  27.518  1.00  0.00     0.001 A 
ATOM     28  C   UNL A   1      51.742  33.757  29.154  1.00  0.00     0.001 A 
ATOM     29  C   UNL A   1      50.593  34.472  28.817  1.00  0.00     0.000 A 
ENDBRANCH  23  24
ENDBRANCH  20  21
ENDBRANCH  10  13
ENDBRANCH   8  10
ENDBRANCH   7   8
ENDBRANCH   6   7
ENDBRANCH   5   6
ENDBRANCH   4   5
ENDBRANCH   3   4
ENDBRANCH   2   3
ENDBRANCH   1   2
BRANCH   1  30
ATOM     30  C   UNL A   1      50.433  27.493  23.061  1.00  0.00     0.188 C 
BRANCH  30  31
ATOM     31  C   UNL A   1      51.950  27.426  23.325  1.00  0.00     0.188 C 
BRANCH  31  32
ATOM     32  O   UNL A   1      52.390  26.282  24.044  1.00  0.00    -0.376 OA
BRANCH  32  33
ATOM     33  C   UNL A   1      53.173  26.471  25.215  1.00  0.00     0.202 C 
BRANCH  33  34
ATOM     34  C   UNL A   1      52.447  26.919  26.495  1.00  0.00     0.261 C 
BRANCH  34  35
ATOM     35  O   UNL A   1      51.937  28.259  26.497  1.00  0.00    -0.460 OA
BRANCH  35  36
ATOM     36  C   UNL A   1      52.075  28.973  27.633  1.00  0.00     0.338 C 
ATOM     37  O   UNL A   1      53.115  29.204  28.232  1.00  0.00    -0.246 OA
BRANCH  36  38
ATOM     38  C   UNL A   1      50.779  29.607  27.935  1.00  0.00     0.060 A 
ATOM     39  C   UNL A   1      50.411  29.779  29.276  1.00  0.00     0.016 A 
ATOM     40  C   UNL A   1      49.929  30.019  26.907  1.00  0.00     0.016 A 
ATOM     41  C   UNL A   1      49.161  30.304  29.593  1.00  0.00     0.010 A 
ATOM     42  C   UNL A   1      48.667  30.525  27.225  1.00  0.00     0.010 A 
ATOM     43  C   UNL A   1      48.260  30.616  28.569  1.00  0.00    -0.014 A 
BRANCH  43  44
ATOM     44  C   UNL A   1      46.825  30.780  28.902  1.00  0.00     0.031 A 
ATOM     45  C   UNL A   1      45.975  29.538  28.981  1.00  0.00     0.074 A 
ATOM     46  C   UNL A   1      46.292  31.986  29.164  1.00  0.00     0.049 A 
ATOM     47  N   UNL A   1      44.701  29.418  29.242  1.00  0.00    -0.248 NA
ATOM     48  C   UNL A   1      46.660  28.258  28.725  1.00  0.00     0.031 C 
ATOM     49  C   UNL A   1      47.013  33.256  29.142  1.00  0.00     0.029 A 
ATOM     50  N   UNL A   1      45.003  32.334  29.483  1.00  0.00    -0.354 N 
ATOM     51  C   UNL A   1      44.426  28.058  29.154  1.00  0.00     0.074 A 
ATOM     52  C   UNL A   1      45.659  27.396  28.797  1.00  0.00     0.031 C 
ATOM     53  C   UNL A   1      46.150  34.251  29.412  1.00  0.00     0.029 A 
ATOM     54  C   UNL A   1      44.813  33.691  29.598  1.00  0.00     0.049 A 
ATOM     55  H   UNL A   1      44.284  31.675  29.618  1.00  0.00     0.167 HD
ATOM     56  C   UNL A   1      43.253  27.415  29.363  1.00  0.00     0.034 A 
ATOM     57  C   UNL A   1      43.683  34.394  29.807  1.00  0.00     0.034 A 
ATOM     58  C   UNL A   1      42.030  28.074  29.726  1.00  0.00     0.049 A 
ATOM     59  C   UNL A   1      42.381  33.656  30.004  1.00  0.00     0.074 A 
ATOM     60  C   UNL A   1      40.795  27.511  29.993  1.00  0.00     0.029 A 
ATOM     61  N   UNL A   1      41.882  29.445  29.860  1.00  0.00    -0.354 N 
ATOM     62  N   UNL A   1      42.154  32.365  30.012  1.00  0.00    -0.248 NA
ATOM     63  C   UNL A   1      41.186  34.474  30.257  1.00  0.00     0.031 C 
ATOM     64  C   UNL A   1      39.891  28.545  30.250  1.00  0.00     0.029 A 
ATOM     65  C   UNL A   1      40.574  29.750  30.195  1.00  0.00     0.049 A 
ATOM     66  H   UNL A   1      42.602  30.107  29.737  1.00  0.00     0.167 HD
ATOM     67  C   UNL A   1      40.805  32.214  30.317  1.00  0.00     0.074 A 
ATOM     68  C   UNL A   1      40.270  33.548  30.503  1.00  0.00     0.031 C 
ATOM     69  C   UNL A   1      40.070  31.079  30.426  1.00  0.00     0.034 A 
BRANCH  56  70
ATOM     70  C   UNL A   1      43.244  25.917  29.203  1.00  0.00     0.023 A 
ATOM     71  C   UNL A   1      43.791  25.096  30.210  1.00  0.00     0.012 A 
ATOM     72  C   UNL A   1      42.656  25.321  28.070  1.00  0.00     0.148 A 
ATOM     73  C   UNL A   1      43.789  23.708  30.075  1.00  0.00     0.002 A 
ATOM     74  C   UNL A   1      42.612  23.936  27.966  1.00  0.00     0.091 A 
ATOM     75  F   UNL A   1      42.163  26.118  27.112  1.00  0.00    -0.205 F 
ATOM     76  C   UNL A   1      43.190  23.129  28.960  1.00  0.00     0.022 A 
BRANCH  74  77
ATOM     77  S   UNL A   1      41.790  23.093  26.610  1.00  0.00     0.127 S 
ATOM     78  O   UNL A   1      40.451  23.677  26.668  1.00  0.00    -0.237 OA
ATOM     79  O   UNL A   1      42.591  23.515  25.459  1.00  0.00    -0.237 OA
ATOM     80  O   UNL A   1      41.863  21.672  26.915  1.00  0.00    -0.744 OA
ENDBRANCH  74  77
ENDBRANCH  56  70
BRANCH  57  81
ATOM     81  C   UNL A   1      43.724  35.884  29.865  1.00  0.00     0.023 A 
ATOM     82  C   UNL A   1      44.021  36.529  31.082  1.00  0.00     0.012 A 
ATOM     83  C   UNL A   1      43.462  36.663  28.723  1.00  0.00     0.148 A 
ATOM     84  C   UNL A   1      44.015  37.922  31.169  1.00  0.00     0.002 A 
ATOM     85  C   UNL A   1      43.515  38.050  28.802  1.00  0.00     0.091 A 
ATOM     86  F   UNL A   1      43.167  36.032  27.577  1.00  0.00    -0.205 F 
ATOM     87  C   UNL A   1      43.771  38.681  30.028  1.00  0.00     0.022 A 
BRANCH  85  88
ATOM     88  S   UNL A   1      43.337  39.107  27.360  1.00  0.00     0.127 S 
ATOM     89  O   UNL A   1      44.491  38.713  26.557  1.00  0.00    -0.237 OA
ATOM     90  O   UNL A   1      42.041  38.674  26.834  1.00  0.00    -0.237 OA
ATOM     91  O   UNL A   1      43.356  40.472  27.866  1.00  0.00    -0.744 OA
ENDBRANCH  85  88
ENDBRANCH  57  81
BRANCH  69  92
ATOM     92  C   UNL A   1      38.623  31.217  30.828  1.00  0.00     0.023 A 
ATOM     93  C   UNL A   1      38.236  31.040  32.170  1.00  0.00     0.012 A 
ATOM     94  C   UNL A   1      37.652  31.581  29.873  1.00  0.00     0.148 A 
ATOM     95  C   UNL A   1      36.899  31.173  32.547  1.00  0.00     0.002 A 
ATOM     96  C   UNL A   1      36.332  31.769  30.265  1.00  0.00     0.091 A 
ATOM     97  F   UNL A   1      38.034  31.732  28.595  1.00  0.00    -0.205 F 
ATOM     98  C   UNL A   1      35.950  31.548  31.598  1.00  0.00     0.022 A 
BRANCH  96  99
ATOM     99  S   UNL A   1      35.065  32.351  29.133  1.00  0.00     0.127 S 
ATOM    100  O   UNL A   1      34.634  31.104  28.501  1.00  0.00    -0.237 OA
ATOM    101  O   UNL A   1      34.085  32.945  30.042  1.00  0.00    -0.237 OA
ATOM    102  O   UNL A   1      35.724  33.303  28.249  1.00  0.00    -0.744 OA
ENDBRANCH  96  99
ENDBRANCH  69  92
ENDBRANCH  43  44
ENDBRANCH  36  38
ENDBRANCH  35  36
ENDBRANCH  34  35
ENDBRANCH  33  34
ENDBRANCH  32  33
ENDBRANCH  31  32
ENDBRANCH  30  31
ENDBRANCH   1  30
TORSDOF 27
ENDMDL
MODEL 3
REMARK VINA RESULT:      -7.6      8.996     14.503
REMARK SMILES CC[C@@H](C(=O)OCCOCCOCCOCCOC(=O)c1ccc(-c2c3nc(c(-c4cccc(S(=O)(=O)[O-])c4F)c4ccc([nH]4)c(-c4cccc(S(=O)(=O)[O-])c4F)c4nc(c(-c5cccc(S(=O)(=O)[O-])c5F)c5ccc2[nH]5)C=C4)C=C3)cc1)N1C(=O)/C(=C/C(C)=C/c2ccccc2)SC1=S
REMARK SMILES IDX 12 1 11 2 10 3 9 4 8 5 7 6 6 7 4 8 5 9 3 10 2 11 1 12 84 13
REMARK SMILES IDX 85 14 99 15 86 16 87 17 98 18 100 19 88 20 89 21 90 22 91 23
REMARK SMILES IDX 92 24 93 25 97 26 94 27 96 28 95 29 13 30 14 31 15 32 16 33
REMARK SMILES IDX 17 34 18 35 19 36 20 37 21 38 22 39 83 40 23 41 82 42 24 43
REMARK SMILES IDX 25 44 26 45 76 46 27 47 81 48 75 49 77 50 28 51 80 52 74 53
REMARK SMILES IDX 73 54 29 56 61 57 41 58 60 59 42 60 45 61 59 62 78 63 43 64
REMARK SMILES IDX 44 65 58 67 79 68 46 69 30 70 31 71 39 72 32 73 34 74 40 75
REMARK SMILES IDX 33 76 35 77 36 78 37 79 38 80 62 81 63 82 71 83 64 84 66 85
REMARK SMILES IDX 72 86 65 87 67 88 68 89 69 90 70 91 47 92 48 93 56 94 49 95
REMARK SMILES IDX 51 96 57 97 50 98 52 99 53 100 54 101 55 102
REMARK H PARENT 77 55 45 66
REMARK Flexibility Score: inf
ROOT
ATOM      1  O   UNL A   1      50.298  28.463  22.530  1.00  0.00    -0.377 OA
ENDROOT
BRANCH   1   2
ATOM      2  C   UNL A   1      49.633  28.330  21.296  1.00  0.00     0.188 C 
BRANCH   2   3
ATOM      3  C   UNL A   1      49.148  26.923  20.936  1.00  0.00     0.188 C 
BRANCH   3   4
ATOM      4  O   UNL A   1      49.565  26.347  19.718  1.00  0.00    -0.376 OA
BRANCH   4   5
ATOM      5  C   UNL A   1      50.932  26.173  19.389  1.00  0.00     0.202 C 
BRANCH   5   6
ATOM      6  C   UNL A   1      51.852  27.181  18.662  1.00  0.00     0.261 C 
BRANCH   6   7
ATOM      7  O   UNL A   1      52.926  27.805  19.376  1.00  0.00    -0.462 OA
BRANCH   7   8
ATOM      8  C   UNL A   1      53.614  28.754  18.711  1.00  0.00     0.329 C 
ATOM      9  O   UNL A   1      54.485  28.473  17.892  1.00  0.00    -0.250 OA
BRANCH   8  10
ATOM     10  C   UNL A   1      53.171  30.220  19.012  1.00  0.00     0.201 C 
BRANCH  10  11
ATOM     11  C   UNL A   1      53.475  31.339  17.992  1.00  0.00     0.034 C 
ATOM     12  C   UNL A   1      52.742  31.324  16.657  1.00  0.00     0.007 C 
ENDBRANCH  10  11
BRANCH  10  13
ATOM     13  N   UNL A   1      53.621  30.478  20.434  1.00  0.00    -0.278 N 
ATOM     14  C   UNL A   1      52.615  30.799  21.347  1.00  0.00     0.266 C 
ATOM     15  C   UNL A   1      54.877  30.401  21.004  1.00  0.00     0.149 C 
ATOM     16  O   UNL A   1      51.488  31.184  21.064  1.00  0.00    -0.268 OA
ATOM     17  C   UNL A   1      53.118  30.724  22.752  1.00  0.00     0.080 C 
ATOM     18  S   UNL A   1      54.726  30.156  22.741  1.00  0.00    -0.054 SA
ATOM     19  S   UNL A   1      56.406  30.606  20.368  1.00  0.00    -0.052 S 
ATOM     20  C   UNL A   1      52.369  31.146  23.781  1.00  0.00     0.024 C 
BRANCH  20  21
ATOM     21  C   UNL A   1      52.692  31.333  25.201  1.00  0.00    -0.049 C 
ATOM     22  C   UNL A   1      53.153  32.728  25.554  1.00  0.00     0.044 C 
ATOM     23  C   UNL A   1      52.774  30.300  26.067  1.00  0.00     0.011 C 
BRANCH  23  24
ATOM     24  C   UNL A   1      53.225  30.275  27.469  1.00  0.00    -0.025 A 
ATOM     25  C   UNL A   1      52.670  31.227  28.339  1.00  0.00     0.008 A 
ATOM     26  C   UNL A   1      54.226  29.429  27.954  1.00  0.00     0.008 A 
ATOM     27  C   UNL A   1      53.079  31.309  29.671  1.00  0.00     0.001 A 
ATOM     28  C   UNL A   1      54.629  29.503  29.293  1.00  0.00     0.001 A 
ATOM     29  C   UNL A   1      54.054  30.440  30.150  1.00  0.00     0.000 A 
ENDBRANCH  23  24
ENDBRANCH  20  21
ENDBRANCH  10  13
ENDBRANCH   8  10
ENDBRANCH   7   8
ENDBRANCH   6   7
ENDBRANCH   5   6
ENDBRANCH   4   5
ENDBRANCH   3   4
ENDBRANCH   2   3
ENDBRANCH   1   2
BRANCH   1  30
ATOM     30  C   UNL A   1      50.906  27.320  23.105  1.00  0.00     0.188 C 
BRANCH  30  31
ATOM     31  C   UNL A   1      52.441  27.195  23.161  1.00  0.00     0.188 C 
BRANCH  31  32
ATOM     32  O   UNL A   1      52.934  25.898  23.468  1.00  0.00    -0.376 OA
BRANCH  32  33
ATOM     33  C   UNL A   1      53.451  25.654  24.769  1.00  0.00     0.202 C 
BRANCH  33  34
ATOM     34  C   UNL A   1      52.446  25.329  25.888  1.00  0.00     0.261 C 
BRANCH  34  35
ATOM     35  O   UNL A   1      51.594  26.404  26.304  1.00  0.00    -0.460 OA
BRANCH  35  36
ATOM     36  C   UNL A   1      51.636  26.761  27.604  1.00  0.00     0.338 C 
ATOM     37  O   UNL A   1      52.530  26.520  28.402  1.00  0.00    -0.246 OA
BRANCH  36  38
ATOM     38  C   UNL A   1      50.507  27.673  27.865  1.00  0.00     0.060 A 
ATOM     39  C   UNL A   1      49.562  27.879  26.852  1.00  0.00     0.016 A 
ATOM     40  C   UNL A   1      50.387  28.325  29.094  1.00  0.00     0.016 A 
ATOM     41  C   UNL A   1      48.528  28.793  27.041  1.00  0.00     0.010 A 
ATOM     42  C   UNL A   1      49.363  29.257  29.275  1.00  0.00     0.010 A 
ATOM     43  C   UNL A   1      48.464  29.533  28.228  1.00  0.00    -0.014 A 
BRANCH  43  44
ATOM     44  C   UNL A   1      47.635  30.761  28.263  1.00  0.00     0.031 A 
ATOM     45  C   UNL A   1      48.221  32.022  27.683  1.00  0.00     0.074 A 
ATOM     46  C   UNL A   1      46.386  30.758  28.760  1.00  0.00     0.049 A 
ATOM     47  N   UNL A   1      47.704  33.219  27.604  1.00  0.00    -0.248 NA
ATOM     48  C   UNL A   1      49.578  31.914  27.118  1.00  0.00     0.031 C 
ATOM     49  C   UNL A   1      45.701  29.600  29.329  1.00  0.00     0.029 A 
ATOM     50  N   UNL A   1      45.478  31.781  28.880  1.00  0.00    -0.354 N 
ATOM     51  C   UNL A   1      48.680  34.011  27.010  1.00  0.00     0.074 A 
ATOM     52  C   UNL A   1      49.826  33.166  26.765  1.00  0.00     0.031 C 
ATOM     53  C   UNL A   1      44.486  29.982  29.761  1.00  0.00     0.029 A 
ATOM     54  C   UNL A   1      44.320  31.415  29.524  1.00  0.00     0.049 A 
ATOM     55  H   UNL A   1      45.641  32.689  28.537  1.00  0.00     0.167 HD
ATOM     56  C   UNL A   1      48.625  35.324  26.685  1.00  0.00     0.034 A 
ATOM     57  C   UNL A   1      43.262  32.161  29.898  1.00  0.00     0.034 A 
ATOM     58  C   UNL A   1      47.482  36.161  26.920  1.00  0.00     0.049 A 
ATOM     59  C   UNL A   1      43.238  33.630  29.554  1.00  0.00     0.074 A 
ATOM     60  C   UNL A   1      47.312  37.495  26.599  1.00  0.00     0.029 A 
ATOM     61  N   UNL A   1      46.318  35.749  27.549  1.00  0.00    -0.354 N 
ATOM     62  N   UNL A   1      44.127  34.344  28.908  1.00  0.00    -0.248 NA
ATOM     63  C   UNL A   1      42.045  34.387  29.960  1.00  0.00     0.031 C 
ATOM     64  C   UNL A   1      46.060  37.901  27.069  1.00  0.00     0.029 A 
ATOM     65  C   UNL A   1      45.428  36.806  27.637  1.00  0.00     0.049 A 
ATOM     66  H   UNL A   1      46.148  34.839  27.885  1.00  0.00     0.167 HD
ATOM     67  C   UNL A   1      43.582  35.619  28.788  1.00  0.00     0.074 A 
ATOM     68  C   UNL A   1      42.277  35.573  29.416  1.00  0.00     0.031 C 
ATOM     69  C   UNL A   1      44.113  36.730  28.219  1.00  0.00     0.034 A 
BRANCH  56  70
ATOM     70  C   UNL A   1      49.841  35.932  26.036  1.00  0.00     0.023 A 
ATOM     71  C   UNL A   1      50.066  35.757  24.655  1.00  0.00     0.012 A 
ATOM     72  C   UNL A   1      50.742  36.709  26.789  1.00  0.00     0.148 A 
ATOM     73  C   UNL A   1      51.188  36.314  24.042  1.00  0.00     0.002 A 
ATOM     74  C   UNL A   1      51.830  37.304  26.162  1.00  0.00     0.091 A 
ATOM     75  F   UNL A   1      50.525  36.843  28.105  1.00  0.00    -0.205 F 
ATOM     76  C   UNL A   1      52.062  37.096  24.792  1.00  0.00     0.022 A 
BRANCH  74  77
ATOM     77  S   UNL A   1      52.966  38.395  27.022  1.00  0.00     0.127 S 
ATOM     78  O   UNL A   1      53.873  38.786  25.944  1.00  0.00    -0.237 OA
ATOM     79  O   UNL A   1      52.075  39.459  27.486  1.00  0.00    -0.237 OA
ATOM     80  O   UNL A   1      53.567  37.598  28.082  1.00  0.00    -0.744 OA
ENDBRANCH  74  77
ENDBRANCH  56  70
BRANCH  57  81
ATOM     81  C   UNL A   1      42.119  31.534  30.622  1.00  0.00     0.023 A 
ATOM     82  C   UNL A   1      41.069  30.941  29.893  1.00  0.00     0.012 A 
ATOM     83  C   UNL A   1      42.063  31.533  32.029  1.00  0.00     0.148 A 
ATOM     84  C   UNL A   1      39.967  30.393  30.552  1.00  0.00     0.002 A 
ATOM     85  C   UNL A   1      40.990  30.934  32.680  1.00  0.00     0.091 A 
ATOM     86  F   UNL A   1      43.064  32.115  32.705  1.00  0.00    -0.205 F 
ATOM     87  C   UNL A   1      39.932  30.383  31.943  1.00  0.00     0.022 A 
BRANCH  85  88
ATOM     88  S   UNL A   1      40.919  30.763  34.466  1.00  0.00     0.127 S 
ATOM     89  O   UNL A   1      40.556  32.115  34.881  1.00  0.00    -0.237 OA
ATOM     90  O   UNL A   1      39.863  29.763  34.627  1.00  0.00    -0.237 OA
ATOM     91  O   UNL A   1      42.243  30.313  34.873  1.00  0.00    -0.744 OA
ENDBRANCH  85  88
ENDBRANCH  57  81
BRANCH  69  92
ATOM     92  C   UNL A   1      43.262  37.975  28.186  1.00  0.00     0.023 A 
ATOM     93  C   UNL A   1      42.439  38.246  27.075  1.00  0.00     0.012 A 
ATOM     94  C   UNL A   1      43.240  38.851  29.290  1.00  0.00     0.148 A 
ATOM     95  C   UNL A   1      41.645  39.393  27.044  1.00  0.00     0.002 A 
ATOM     96  C   UNL A   1      42.404  39.960  29.277  1.00  0.00     0.091 A 
ATOM     97  F   UNL A   1      44.040  38.587  30.334  1.00  0.00    -0.205 F 
ATOM     98  C   UNL A   1      41.619  40.243  28.147  1.00  0.00     0.022 A 
BRANCH  96  99
ATOM     99  S   UNL A   1      42.229  41.051  30.693  1.00  0.00     0.127 S 
ATOM    100  O   UNL A   1      43.054  42.190  30.295  1.00  0.00    -0.237 OA
ATOM    101  O   UNL A   1      40.789  41.315  30.706  1.00  0.00    -0.237 OA
ATOM    102  O   UNL A   1      42.715  40.298  31.841  1.00  0.00    -0.744 OA
ENDBRANCH  96  99
ENDBRANCH  69  92
ENDBRANCH  43  44
ENDBRANCH  36  38
ENDBRANCH  35  36
ENDBRANCH  34  35
ENDBRANCH  33  34
ENDBRANCH  32  33
ENDBRANCH  31  32
ENDBRANCH  30  31
ENDBRANCH   1  30
TORSDOF 27
ENDMDL
