MODEL 1
REMARK VINA RESULT:     -10.4      0.000      0.000
REMARK SMILES C[C@H](C(=O)NC1CCCC1)[N@@H+]1CCn2nc(CCC(=O)OCCOCCOCCOCCOC(=O)c3ccc(-c4c5nc(c(-c6cccc(S(=O)(=O)[O-])c6F)c6ccc([nH]6)c(-c6cccc(S(=O)(=O)[O-])c6F)c6nc(c(-c7cccc(S(=O)(=O)[O-])c7F)c7ccc4[nH]7)C=C6)C=C5)cc3)cc2C1
REMARK SMILES IDX 26 1 25 2 24 3 23 4 22 5 21 6 19 7 20 8 18 9 17 10 16 11
REMARK SMILES IDX 11 12 12 13 101 14 13 16 100 17 14 18 99 19 15 20 2 21 1 22
REMARK SMILES IDX 3 23 4 24 5 25 6 27 7 28 10 29 8 30 9 31 27 32 28 33 29 34
REMARK SMILES IDX 30 35 31 36 32 37 33 38 34 39 35 40 36 41 37 42 98 43 38 44
REMARK SMILES IDX 97 45 39 46 40 47 41 48 91 49 42 50 96 51 90 52 92 53 43 54
REMARK SMILES IDX 95 55 89 56 88 57 44 59 76 60 56 61 75 62 57 63 60 64 74 65
REMARK SMILES IDX 93 66 58 67 59 68 73 70 94 71 61 72 45 73 46 74 54 75 47 76
REMARK SMILES IDX 49 77 55 78 48 79 50 80 51 81 52 82 53 83 77 84 78 85 86 86
REMARK SMILES IDX 79 87 81 88 87 89 80 90 82 91 83 92 84 93 85 94 62 95 63 96
REMARK SMILES IDX 71 97 64 98 66 99 72 100 65 101 67 102 68 103 69 104 70 105
REMARK H PARENT 11 15 5 26 92 58 60 69
REMARK Flexibility Score: inf
ROOT
ATOM      1  C   UNL A   1      42.323  18.720  25.798  1.00  0.00     0.188 C 
ENDROOT
BRANCH   1   2
ATOM      2  C   UNL A   1      41.060  19.533  26.166  1.00  0.00     0.188 C 
BRANCH   2   3
ATOM      3  O   UNL A   1      41.163  20.453  27.230  1.00  0.00    -0.376 OA
BRANCH   3   4
ATOM      4  C   UNL A   1      40.383  21.619  27.341  1.00  0.00     0.202 C 
BRANCH   4   5
ATOM      5  C   UNL A   1      39.647  22.291  26.177  1.00  0.00     0.261 C 
BRANCH   5   6
ATOM      6  O   UNL A   1      38.232  22.119  26.123  1.00  0.00    -0.463 OA
BRANCH   6   7
ATOM      7  C   UNL A   1      37.700  21.529  25.042  1.00  0.00     0.306 C 
ATOM      8  O   UNL A   1      37.744  20.315  24.846  1.00  0.00    -0.252 OA
BRANCH   7   9
ATOM      9  C   UNL A   1      36.975  22.443  24.064  1.00  0.00     0.129 C 
BRANCH   9  10
ATOM     10  C   UNL A   1      35.461  22.536  23.856  1.00  0.00     0.070 C 
BRANCH  10  11
ATOM     11  C   UNL A   1      34.773  23.852  24.025  1.00  0.00     0.064 A 
ATOM     12  N   UNL A   1      32.467  27.696  24.710  1.00  0.00    -0.318 N 
ATOM     13  C   UNL A   1      32.903  27.937  23.333  1.00  0.00     0.287 C 
ATOM     14  C   UNL A   1      33.536  27.030  25.485  1.00  0.00     0.319 C 
ATOM     15  H   UNL A   1      32.315  28.642  25.061  1.00  0.00     0.349 HD
ATOM     16  C   UNL A   1      33.410  26.712  22.559  1.00  0.00     0.206 C 
ATOM     17  C   UNL A   1      34.036  25.807  24.796  1.00  0.00     0.093 A 
ATOM     18  N   UNL A   1      33.965  25.712  23.441  1.00  0.00    -0.258 N 
ATOM     19  C   UNL A   1      34.639  24.636  25.205  1.00  0.00     0.055 A 
ATOM     20  N   UNL A   1      34.291  24.507  22.966  1.00  0.00    -0.177 NA
BRANCH  12  21
ATOM     21  C   UNL A   1      31.104  27.178  24.978  1.00  0.00     0.271 C 
ATOM     22  C   UNL A   1      30.898  26.205  26.132  1.00  0.00     0.086 C 
BRANCH  21  23
ATOM     23  C   UNL A   1      30.248  26.861  23.725  1.00  0.00     0.278 C 
ATOM     24  O   UNL A   1      30.329  25.749  23.183  1.00  0.00    -0.268 OA
ATOM     25  N   UNL A   1      29.427  27.742  23.086  1.00  0.00    -0.348 N 
ATOM     26  H   UNL A   1      29.174  27.449  22.181  1.00  0.00     0.163 HD
BRANCH  25  27
ATOM     27  C   UNL A   1      28.848  29.014  23.454  1.00  0.00     0.082 C 
ATOM     28  C   UNL A   1      29.807  30.185  23.617  1.00  0.00     0.025 C 
ATOM     29  C   UNL A   1      27.911  29.557  22.370  1.00  0.00     0.025 C 
ATOM     30  C   UNL A   1      28.875  31.393  23.645  1.00  0.00     0.002 C 
ATOM     31  C   UNL A   1      27.690  31.017  22.758  1.00  0.00     0.002 C 
ENDBRANCH  25  27
ENDBRANCH  21  23
ENDBRANCH  12  21
ENDBRANCH  10  11
ENDBRANCH   9  10
ENDBRANCH   7   9
ENDBRANCH   6   7
ENDBRANCH   5   6
ENDBRANCH   4   5
ENDBRANCH   3   4
ENDBRANCH   2   3
ENDBRANCH   1   2
BRANCH   1  32
ATOM     32  O   UNL A   1      43.656  19.133  26.041  1.00  0.00    -0.377 OA
BRANCH  32  33
ATOM     33  C   UNL A   1      44.620  18.939  25.030  1.00  0.00     0.188 C 
BRANCH  33  34
ATOM     34  C   UNL A   1      45.833  19.866  25.211  1.00  0.00     0.188 C 
BRANCH  34  35
ATOM     35  O   UNL A   1      45.804  21.014  24.371  1.00  0.00    -0.376 OA
BRANCH  35  36
ATOM     36  C   UNL A   1      44.834  22.043  24.514  1.00  0.00     0.202 C 
BRANCH  36  37
ATOM     37  C   UNL A   1      44.313  22.564  25.858  1.00  0.00     0.261 C 
BRANCH  37  38
ATOM     38  O   UNL A   1      43.046  23.177  25.845  1.00  0.00    -0.460 OA
BRANCH  38  39
ATOM     39  C   UNL A   1      43.021  24.507  25.815  1.00  0.00     0.338 C 
ATOM     40  O   UNL A   1      43.565  25.245  24.993  1.00  0.00    -0.246 OA
BRANCH  39  41
ATOM     41  C   UNL A   1      42.305  24.960  27.005  1.00  0.00     0.060 A 
ATOM     42  C   UNL A   1      41.132  25.662  26.747  1.00  0.00     0.016 A 
ATOM     43  C   UNL A   1      43.029  25.096  28.204  1.00  0.00     0.016 A 
ATOM     44  C   UNL A   1      40.901  26.772  27.509  1.00  0.00     0.010 A 
ATOM     45  C   UNL A   1      42.806  26.217  28.956  1.00  0.00     0.010 A 
ATOM     46  C   UNL A   1      41.822  27.092  28.515  1.00  0.00    -0.014 A 
BRANCH  46  47
ATOM     47  C   UNL A   1      41.664  28.373  29.149  1.00  0.00     0.031 A 
ATOM     48  C   UNL A   1      42.691  29.318  28.686  1.00  0.00     0.074 A 
ATOM     49  C   UNL A   1      40.678  28.619  30.029  1.00  0.00     0.049 A 
ATOM     50  N   UNL A   1      43.723  29.729  29.341  1.00  0.00    -0.248 NA
ATOM     51  C   UNL A   1      42.716  29.628  27.249  1.00  0.00     0.031 C 
ATOM     52  C   UNL A   1      39.495  27.801  30.313  1.00  0.00     0.029 A 
ATOM     53  N   UNL A   1      40.459  29.743  30.759  1.00  0.00    -0.354 N 
ATOM     54  C   UNL A   1      44.375  30.581  28.460  1.00  0.00     0.074 A 
ATOM     55  C   UNL A   1      43.882  30.265  27.148  1.00  0.00     0.031 C 
ATOM     56  C   UNL A   1      38.571  28.569  30.935  1.00  0.00     0.029 A 
ATOM     57  C   UNL A   1      39.148  29.877  31.196  1.00  0.00     0.049 A 
ATOM     58  H   UNL A   1      41.163  30.401  30.959  1.00  0.00     0.167 HD
ATOM     59  C   UNL A   1      44.992  31.698  28.922  1.00  0.00     0.034 A 
ATOM     60  C   UNL A   1      38.566  31.023  31.624  1.00  0.00     0.034 A 
ATOM     61  C   UNL A   1      45.247  31.603  30.340  1.00  0.00     0.049 A 
ATOM     62  C   UNL A   1      39.653  31.962  31.993  1.00  0.00     0.074 A 
ATOM     63  C   UNL A   1      45.957  30.742  31.152  1.00  0.00     0.029 A 
ATOM     64  N   UNL A   1      44.382  32.286  31.160  1.00  0.00    -0.354 N 
ATOM     65  N   UNL A   1      40.458  31.770  33.001  1.00  0.00    -0.248 NA
ATOM     66  C   UNL A   1      40.131  32.892  30.982  1.00  0.00     0.031 C 
ATOM     67  C   UNL A   1      45.199  30.654  32.355  1.00  0.00     0.029 A 
ATOM     68  C   UNL A   1      44.095  31.503  32.244  1.00  0.00     0.049 A 
ATOM     69  H   UNL A   1      44.028  33.189  30.996  1.00  0.00     0.167 HD
ATOM     70  C   UNL A   1      41.703  32.168  32.527  1.00  0.00     0.074 A 
ATOM     71  C   UNL A   1      41.417  32.965  31.337  1.00  0.00     0.031 C 
ATOM     72  C   UNL A   1      42.844  31.561  32.971  1.00  0.00     0.034 A 
BRANCH  59  73
ATOM     73  C   UNL A   1      44.946  33.035  28.214  1.00  0.00     0.023 A 
ATOM     74  C   UNL A   1      43.672  33.499  27.825  1.00  0.00     0.012 A 
ATOM     75  C   UNL A   1      46.065  33.701  27.656  1.00  0.00     0.148 A 
ATOM     76  C   UNL A   1      43.520  34.515  26.877  1.00  0.00     0.002 A 
ATOM     77  C   UNL A   1      45.910  34.761  26.774  1.00  0.00     0.091 A 
ATOM     78  F   UNL A   1      47.301  33.241  27.855  1.00  0.00    -0.205 F 
ATOM     79  C   UNL A   1      44.639  35.149  26.352  1.00  0.00     0.022 A 
BRANCH  77  80
ATOM     80  S   UNL A   1      47.330  35.632  26.095  1.00  0.00     0.127 S 
ATOM     81  O   UNL A   1      47.732  34.735  25.017  1.00  0.00    -0.237 OA
ATOM     82  O   UNL A   1      46.724  36.892  25.664  1.00  0.00    -0.237 OA
ATOM     83  O   UNL A   1      48.273  35.771  27.198  1.00  0.00    -0.744 OA
ENDBRANCH  77  80
ENDBRANCH  59  73
BRANCH  60  84
ATOM     84  C   UNL A   1      37.167  31.475  31.440  1.00  0.00     0.023 A 
ATOM     85  C   UNL A   1      36.423  31.924  32.548  1.00  0.00     0.012 A 
ATOM     86  C   UNL A   1      36.649  31.718  30.147  1.00  0.00     0.148 A 
ATOM     87  C   UNL A   1      35.214  32.609  32.374  1.00  0.00     0.002 A 
ATOM     88  C   UNL A   1      35.440  32.385  29.979  1.00  0.00     0.091 A 
ATOM     89  F   UNL A   1      37.385  31.377  29.081  1.00  0.00    -0.205 F 
ATOM     90  C   UNL A   1      34.725  32.844  31.091  1.00  0.00     0.022 A 
BRANCH  88  91
ATOM     91  S   UNL A   1      34.757  32.734  28.353  1.00  0.00     0.127 S 
ATOM     92  O   UNL A   1      34.305  31.409  27.927  1.00  0.00    -0.237 OA
ATOM     93  O   UNL A   1      33.686  33.675  28.669  1.00  0.00    -0.237 OA
ATOM     94  O   UNL A   1      35.857  33.273  27.563  1.00  0.00    -0.744 OA
ENDBRANCH  88  91
ENDBRANCH  60  84
BRANCH  72  95
ATOM     95  C   UNL A   1      42.744  30.683  34.193  1.00  0.00     0.023 A 
ATOM     96  C   UNL A   1      42.802  31.195  35.505  1.00  0.00     0.012 A 
ATOM     97  C   UNL A   1      42.417  29.331  34.004  1.00  0.00     0.148 A 
ATOM     98  C   UNL A   1      42.559  30.368  36.606  1.00  0.00     0.002 A 
ATOM     99  C   UNL A   1      42.128  28.523  35.096  1.00  0.00     0.091 A 
ATOM    100  F   UNL A   1      42.365  28.861  32.747  1.00  0.00    -0.205 F 
ATOM    101  C   UNL A   1      42.208  29.035  36.401  1.00  0.00     0.022 A 
BRANCH  99 102
ATOM    102  S   UNL A   1      41.544  26.841  34.884  1.00  0.00     0.127 S 
ATOM    103  O   UNL A   1      40.455  27.013  33.925  1.00  0.00    -0.237 OA
ATOM    104  O   UNL A   1      42.727  26.162  34.353  1.00  0.00    -0.237 OA
ATOM    105  O   UNL A   1      41.145  26.385  36.211  1.00  0.00    -0.744 OA
ENDBRANCH  99 102
ENDBRANCH  72  95
ENDBRANCH  46  47
ENDBRANCH  39  41
ENDBRANCH  38  39
ENDBRANCH  37  38
ENDBRANCH  36  37
ENDBRANCH  35  36
ENDBRANCH  34  35
ENDBRANCH  33  34
ENDBRANCH  32  33
ENDBRANCH   1  32
TORSDOF 28
ENDMDL
MODEL 2
REMARK VINA RESULT:      -9.3      1.686      2.070
REMARK SMILES C[C@H](C(=O)NC1CCCC1)[N@@H+]1CCn2nc(CCC(=O)OCCOCCOCCOCCOC(=O)c3ccc(-c4c5nc(c(-c6cccc(S(=O)(=O)[O-])c6F)c6ccc([nH]6)c(-c6cccc(S(=O)(=O)[O-])c6F)c6nc(c(-c7cccc(S(=O)(=O)[O-])c7F)c7ccc4[nH]7)C=C6)C=C5)cc3)cc2C1
REMARK SMILES IDX 26 1 25 2 24 3 23 4 22 5 21 6 19 7 20 8 18 9 17 10 16 11
REMARK SMILES IDX 11 12 12 13 101 14 13 16 100 17 14 18 99 19 15 20 2 21 1 22
REMARK SMILES IDX 3 23 4 24 5 25 6 27 7 28 10 29 8 30 9 31 27 32 28 33 29 34
REMARK SMILES IDX 30 35 31 36 32 37 33 38 34 39 35 40 36 41 37 42 98 43 38 44
REMARK SMILES IDX 97 45 39 46 40 47 41 48 91 49 42 50 96 51 90 52 92 53 43 54
REMARK SMILES IDX 95 55 89 56 88 57 44 59 76 60 56 61 75 62 57 63 60 64 74 65
REMARK SMILES IDX 93 66 58 67 59 68 73 70 94 71 61 72 45 73 46 74 54 75 47 76
REMARK SMILES IDX 49 77 55 78 48 79 50 80 51 81 52 82 53 83 77 84 78 85 86 86
REMARK SMILES IDX 79 87 81 88 87 89 80 90 82 91 83 92 84 93 85 94 62 95 63 96
REMARK SMILES IDX 71 97 64 98 66 99 72 100 65 101 67 102 68 103 69 104 70 105
REMARK H PARENT 11 15 5 26 92 58 60 69
REMARK Flexibility Score: inf
ROOT
ATOM      1  C   UNL A   1      42.410  19.255  26.834  1.00  0.00     0.188 C 
ENDROOT
BRANCH   1   2
ATOM      2  C   UNL A   1      41.161  20.040  27.297  1.00  0.00     0.188 C 
BRANCH   2   3
ATOM      3  O   UNL A   1      41.306  21.425  27.524  1.00  0.00    -0.376 OA
BRANCH   3   4
ATOM      4  C   UNL A   1      40.243  22.346  27.476  1.00  0.00     0.202 C 
BRANCH   4   5
ATOM      5  C   UNL A   1      39.673  22.956  26.193  1.00  0.00     0.261 C 
BRANCH   5   6
ATOM      6  O   UNL A   1      38.263  22.863  26.004  1.00  0.00    -0.463 OA
BRANCH   6   7
ATOM      7  C   UNL A   1      37.777  21.825  25.307  1.00  0.00     0.306 C 
ATOM      8  O   UNL A   1      38.427  20.807  25.072  1.00  0.00    -0.252 OA
BRANCH   7   9
ATOM      9  C   UNL A   1      36.331  21.939  24.847  1.00  0.00     0.129 C 
BRANCH   9  10
ATOM     10  C   UNL A   1      35.814  22.768  23.667  1.00  0.00     0.070 C 
BRANCH  10  11
ATOM     11  C   UNL A   1      34.621  23.650  23.851  1.00  0.00     0.064 A 
ATOM     12  N   UNL A   1      31.198  26.573  24.404  1.00  0.00    -0.318 N 
ATOM     13  C   UNL A   1      30.705  25.484  25.250  1.00  0.00     0.287 C 
ATOM     14  C   UNL A   1      31.856  26.033  23.194  1.00  0.00     0.319 C 
ATOM     15  H   UNL A   1      30.339  27.061  24.150  1.00  0.00     0.349 HD
ATOM     16  C   UNL A   1      31.735  24.421  25.656  1.00  0.00     0.206 C 
ATOM     17  C   UNL A   1      32.898  25.025  23.536  1.00  0.00     0.093 A 
ATOM     18  N   UNL A   1      32.793  24.298  24.680  1.00  0.00    -0.258 N 
ATOM     19  C   UNL A   1      34.046  24.565  22.925  1.00  0.00     0.055 A 
ATOM     20  N   UNL A   1      33.869  23.553  24.949  1.00  0.00    -0.177 NA
BRANCH  12  21
ATOM     21  C   UNL A   1      31.896  27.730  25.015  1.00  0.00     0.271 C 
ATOM     22  C   UNL A   1      31.590  28.097  26.461  1.00  0.00     0.086 C 
BRANCH  21  23
ATOM     23  C   UNL A   1      32.110  28.952  24.085  1.00  0.00     0.278 C 
ATOM     24  O   UNL A   1      33.236  29.192  23.626  1.00  0.00    -0.268 OA
ATOM     25  N   UNL A   1      31.159  29.872  23.758  1.00  0.00    -0.348 N 
ATOM     26  H   UNL A   1      31.534  30.700  23.381  1.00  0.00     0.163 HD
BRANCH  25  27
ATOM     27  C   UNL A   1      29.716  29.892  23.850  1.00  0.00     0.082 C 
ATOM     28  C   UNL A   1      29.028  31.221  23.574  1.00  0.00     0.025 C 
ATOM     29  C   UNL A   1      29.059  29.001  22.790  1.00  0.00     0.025 C 
ATOM     30  C   UNL A   1      27.565  30.823  23.402  1.00  0.00     0.002 C 
ATOM     31  C   UNL A   1      27.590  29.418  22.804  1.00  0.00     0.002 C 
ENDBRANCH  25  27
ENDBRANCH  21  23
ENDBRANCH  12  21
ENDBRANCH  10  11
ENDBRANCH   9  10
ENDBRANCH   7   9
ENDBRANCH   6   7
ENDBRANCH   5   6
ENDBRANCH   4   5
ENDBRANCH   3   4
ENDBRANCH   2   3
ENDBRANCH   1   2
BRANCH   1  32
ATOM     32  O   UNL A   1      43.557  19.833  26.234  1.00  0.00    -0.377 OA
BRANCH  32  33
ATOM     33  C   UNL A   1      43.964  19.367  24.967  1.00  0.00     0.188 C 
BRANCH  33  34
ATOM     34  C   UNL A   1      45.148  20.178  24.413  1.00  0.00     0.188 C 
BRANCH  34  35
ATOM     35  O   UNL A   1      44.758  21.352  23.712  1.00  0.00    -0.376 OA
BRANCH  35  36
ATOM     36  C   UNL A   1      43.886  22.324  24.273  1.00  0.00     0.202 C 
BRANCH  36  37
ATOM     37  C   UNL A   1      44.032  22.911  25.681  1.00  0.00     0.261 C 
BRANCH  37  38
ATOM     38  O   UNL A   1      43.290  24.077  25.955  1.00  0.00    -0.460 OA
BRANCH  38  39
ATOM     39  C   UNL A   1      43.975  25.145  26.355  1.00  0.00     0.338 C 
ATOM     40  O   UNL A   1      44.962  25.644  25.814  1.00  0.00    -0.246 OA
BRANCH  39  41
ATOM     41  C   UNL A   1      43.406  25.580  27.629  1.00  0.00     0.060 A 
ATOM     42  C   UNL A   1      42.063  25.938  27.574  1.00  0.00     0.016 A 
ATOM     43  C   UNL A   1      44.285  26.055  28.621  1.00  0.00     0.016 A 
ATOM     44  C   UNL A   1      41.698  27.058  28.266  1.00  0.00     0.010 A 
ATOM     45  C   UNL A   1      43.922  27.185  29.300  1.00  0.00     0.010 A 
ATOM     46  C   UNL A   1      42.678  27.729  29.011  1.00  0.00    -0.014 A 
BRANCH  46  47
ATOM     47  C   UNL A   1      42.312  29.012  29.547  1.00  0.00     0.031 A 
ATOM     48  C   UNL A   1      43.228  30.060  29.071  1.00  0.00     0.074 A 
ATOM     49  C   UNL A   1      41.252  29.174  30.358  1.00  0.00     0.049 A 
ATOM     50  N   UNL A   1      44.156  30.648  29.746  1.00  0.00    -0.248 NA
ATOM     51  C   UNL A   1      43.296  30.281  27.619  1.00  0.00     0.031 C 
ATOM     52  C   UNL A   1      40.176  28.219  30.638  1.00  0.00     0.029 A 
ATOM     53  N   UNL A   1      40.843  30.300  30.997  1.00  0.00    -0.354 N 
ATOM     54  C   UNL A   1      44.738  31.526  28.842  1.00  0.00     0.074 A 
ATOM     55  C   UNL A   1      44.369  31.066  27.532  1.00  0.00     0.031 C 
ATOM     56  C   UNL A   1      39.122  28.890  31.159  1.00  0.00     0.029 A 
ATOM     57  C   UNL A   1      39.502  30.278  31.358  1.00  0.00     0.049 A 
ATOM     58  H   UNL A   1      41.439  31.059  31.186  1.00  0.00     0.167 HD
ATOM     59  C   UNL A   1      45.172  32.744  29.257  1.00  0.00     0.034 A 
ATOM     60  C   UNL A   1      38.748  31.358  31.677  1.00  0.00     0.034 A 
ATOM     61  C   UNL A   1      45.355  32.771  30.688  1.00  0.00     0.049 A 
ATOM     62  C   UNL A   1      39.676  32.458  32.034  1.00  0.00     0.074 A 
ATOM     63  C   UNL A   1      46.125  32.068  31.592  1.00  0.00     0.029 A 
ATOM     64  N   UNL A   1      44.359  33.378  31.416  1.00  0.00    -0.354 N 
ATOM     65  N   UNL A   1      40.439  32.441  33.091  1.00  0.00    -0.248 NA
ATOM     66  C   UNL A   1      40.083  33.381  30.987  1.00  0.00     0.031 C 
ATOM     67  C   UNL A   1      45.317  31.950  32.759  1.00  0.00     0.029 A 
ATOM     68  C   UNL A   1      44.117  32.631  32.535  1.00  0.00     0.049 A 
ATOM     69  H   UNL A   1      43.897  34.212  31.173  1.00  0.00     0.167 HD
ATOM     70  C   UNL A   1      41.645  32.976  32.654  1.00  0.00     0.074 A 
ATOM     71  C   UNL A   1      41.325  33.652  31.399  1.00  0.00     0.031 C 
ATOM     72  C   UNL A   1      42.829  32.561  33.194  1.00  0.00     0.034 A 
BRANCH  59  73
ATOM     73  C   UNL A   1      44.989  34.016  28.457  1.00  0.00     0.023 A 
ATOM     74  C   UNL A   1      46.165  34.663  28.023  1.00  0.00     0.012 A 
ATOM     75  C   UNL A   1      43.783  34.754  28.365  1.00  0.00     0.148 A 
ATOM     76  C   UNL A   1      46.153  35.994  27.596  1.00  0.00     0.002 A 
ATOM     77  C   UNL A   1      43.765  36.049  27.867  1.00  0.00     0.091 A 
ATOM     78  F   UNL A   1      42.650  34.277  28.882  1.00  0.00    -0.205 F 
ATOM     79  C   UNL A   1      44.952  36.688  27.514  1.00  0.00     0.022 A 
BRANCH  77  80
ATOM     80  S   UNL A   1      42.229  36.974  27.714  1.00  0.00     0.127 S 
ATOM     81  O   UNL A   1      42.264  37.363  26.308  1.00  0.00    -0.237 OA
ATOM     82  O   UNL A   1      41.236  35.954  28.054  1.00  0.00    -0.237 OA
ATOM     83  O   UNL A   1      42.322  38.061  28.682  1.00  0.00    -0.744 OA
ENDBRANCH  77  80
ENDBRANCH  59  73
BRANCH  60  84
ATOM     84  C   UNL A   1      37.314  31.601  31.393  1.00  0.00     0.023 A 
ATOM     85  C   UNL A   1      36.438  31.933  32.444  1.00  0.00     0.012 A 
ATOM     86  C   UNL A   1      36.857  31.768  30.066  1.00  0.00     0.148 A 
ATOM     87  C   UNL A   1      35.156  32.435  32.182  1.00  0.00     0.002 A 
ATOM     88  C   UNL A   1      35.579  32.251  29.810  1.00  0.00     0.091 A 
ATOM     89  F   UNL A   1      37.707  31.540  29.056  1.00  0.00    -0.205 F 
ATOM     90  C   UNL A   1      34.729  32.598  30.866  1.00  0.00     0.022 A 
BRANCH  88  91
ATOM     91  S   UNL A   1      34.966  32.500  28.138  1.00  0.00     0.127 S 
ATOM     92  O   UNL A   1      36.020  33.332  27.553  1.00  0.00    -0.237 OA
ATOM     93  O   UNL A   1      34.911  31.133  27.627  1.00  0.00    -0.237 OA
ATOM     94  O   UNL A   1      33.681  33.173  28.277  1.00  0.00    -0.744 OA
ENDBRANCH  88  91
ENDBRANCH  60  84
BRANCH  72  95
ATOM     95  C   UNL A   1      42.777  31.754  34.467  1.00  0.00     0.023 A 
ATOM     96  C   UNL A   1      42.638  32.347  35.739  1.00  0.00     0.012 A 
ATOM     97  C   UNL A   1      42.698  30.357  34.355  1.00  0.00     0.148 A 
ATOM     98  C   UNL A   1      42.447  31.558  36.877  1.00  0.00     0.002 A 
ATOM     99  C   UNL A   1      42.458  29.579  35.480  1.00  0.00     0.091 A 
ATOM    100  F   UNL A   1      42.831  29.810  33.136  1.00  0.00    -0.205 F 
ATOM    101  C   UNL A   1      42.343  30.174  36.746  1.00  0.00     0.022 A 
BRANCH  99 102
ATOM    102  S   UNL A   1      42.185  27.811  35.351  1.00  0.00     0.127 S 
ATOM    103  O   UNL A   1      42.198  27.396  36.752  1.00  0.00    -0.237 OA
ATOM    104  O   UNL A   1      40.873  27.743  34.704  1.00  0.00    -0.237 OA
ATOM    105  O   UNL A   1      43.276  27.295  34.533  1.00  0.00    -0.744 OA
ENDBRANCH  99 102
ENDBRANCH  72  95
ENDBRANCH  46  47
ENDBRANCH  39  41
ENDBRANCH  38  39
ENDBRANCH  37  38
ENDBRANCH  36  37
ENDBRANCH  35  36
ENDBRANCH  34  35
ENDBRANCH  33  34
ENDBRANCH  32  33
ENDBRANCH   1  32
TORSDOF 28
ENDMDL
MODEL 3
REMARK VINA RESULT:      -8.6      2.974      7.013
REMARK SMILES C[C@H](C(=O)NC1CCCC1)[N@@H+]1CCn2nc(CCC(=O)OCCOCCOCCOCCOC(=O)c3ccc(-c4c5nc(c(-c6cccc(S(=O)(=O)[O-])c6F)c6ccc([nH]6)c(-c6cccc(S(=O)(=O)[O-])c6F)c6nc(c(-c7cccc(S(=O)(=O)[O-])c7F)c7ccc4[nH]7)C=C6)C=C5)cc3)cc2C1
REMARK SMILES IDX 26 1 25 2 24 3 23 4 22 5 21 6 19 7 20 8 18 9 17 10 16 11
REMARK SMILES IDX 11 12 12 13 101 14 13 16 100 17 14 18 99 19 15 20 2 21 1 22
REMARK SMILES IDX 3 23 4 24 5 25 6 27 7 28 10 29 8 30 9 31 27 32 28 33 29 34
REMARK SMILES IDX 30 35 31 36 32 37 33 38 34 39 35 40 36 41 37 42 98 43 38 44
REMARK SMILES IDX 97 45 39 46 40 47 41 48 91 49 42 50 96 51 90 52 92 53 43 54
REMARK SMILES IDX 95 55 89 56 88 57 44 59 76 60 56 61 75 62 57 63 60 64 74 65
REMARK SMILES IDX 93 66 58 67 59 68 73 70 94 71 61 72 45 73 46 74 54 75 47 76
REMARK SMILES IDX 49 77 55 78 48 79 50 80 51 81 52 82 53 83 77 84 78 85 86 86
REMARK SMILES IDX 79 87 81 88 87 89 80 90 82 91 83 92 84 93 85 94 62 95 63 96
REMARK SMILES IDX 71 97 64 98 66 99 72 100 65 101 67 102 68 103 69 104 70 105
REMARK H PARENT 11 15 5 26 92 58 60 69
REMARK Flexibility Score: inf
ROOT
ATOM      1  C   UNL A   1      42.198  18.795  26.008  1.00  0.00     0.188 C 
ENDROOT
BRANCH   1   2
ATOM      2  C   UNL A   1      41.980  19.610  27.304  1.00  0.00     0.188 C 
BRANCH   2   3
ATOM      3  O   UNL A   1      41.456  20.913  27.176  1.00  0.00    -0.376 OA
BRANCH   3   4
ATOM      4  C   UNL A   1      40.698  21.353  26.075  1.00  0.00     0.202 C 
BRANCH   4   5
ATOM      5  C   UNL A   1      39.223  21.759  26.136  1.00  0.00     0.261 C 
BRANCH   5   6
ATOM      6  O   UNL A   1      38.304  20.967  25.385  1.00  0.00    -0.463 OA
BRANCH   6   7
ATOM      7  C   UNL A   1      37.071  21.448  25.169  1.00  0.00     0.306 C 
ATOM      8  O   UNL A   1      36.067  21.000  25.720  1.00  0.00    -0.252 OA
BRANCH   7   9
ATOM      9  C   UNL A   1      36.967  22.636  24.223  1.00  0.00     0.129 C 
BRANCH   9  10
ATOM     10  C   UNL A   1      35.797  22.956  23.288  1.00  0.00     0.070 C 
BRANCH  10  11
ATOM     11  C   UNL A   1      34.906  24.116  23.592  1.00  0.00     0.064 A 
ATOM     12  N   UNL A   1      32.056  27.457  24.726  1.00  0.00    -0.318 N 
ATOM     13  C   UNL A   1      32.158  27.724  23.289  1.00  0.00     0.287 C 
ATOM     14  C   UNL A   1      33.367  27.044  25.271  1.00  0.00     0.319 C 
ATOM     15  H   UNL A   1      31.789  28.368  25.100  1.00  0.00     0.349 HD
ATOM     16  C   UNL A   1      32.738  26.593  22.429  1.00  0.00     0.206 C 
ATOM     17  C   UNL A   1      33.957  25.918  24.496  1.00  0.00     0.093 A 
ATOM     18  N   UNL A   1      33.644  25.757  23.183  1.00  0.00    -0.258 N 
ATOM     19  C   UNL A   1      34.851  24.905  24.776  1.00  0.00     0.055 A 
ATOM     20  N   UNL A   1      34.106  24.622  22.651  1.00  0.00    -0.177 NA
BRANCH  12  21
ATOM     21  C   UNL A   1      30.904  26.692  25.259  1.00  0.00     0.271 C 
ATOM     22  C   UNL A   1      31.025  26.032  26.627  1.00  0.00     0.086 C 
BRANCH  21  23
ATOM     23  C   UNL A   1      30.117  25.852  24.220  1.00  0.00     0.278 C 
ATOM     24  O   UNL A   1      29.234  26.384  23.533  1.00  0.00    -0.268 OA
ATOM     25  N   UNL A   1      30.255  24.510  24.022  1.00  0.00    -0.348 N 
ATOM     26  H   UNL A   1      29.507  24.114  23.520  1.00  0.00     0.163 HD
BRANCH  25  27
ATOM     27  C   UNL A   1      31.265  23.545  24.393  1.00  0.00     0.082 C 
ATOM     28  C   UNL A   1      30.926  22.598  25.536  1.00  0.00     0.025 C 
ATOM     29  C   UNL A   1      31.551  22.547  23.266  1.00  0.00     0.025 C 
ATOM     30  C   UNL A   1      32.007  21.527  25.428  1.00  0.00     0.002 C 
ATOM     31  C   UNL A   1      32.343  21.430  23.942  1.00  0.00     0.002 C 
ENDBRANCH  25  27
ENDBRANCH  21  23
ENDBRANCH  12  21
ENDBRANCH  10  11
ENDBRANCH   9  10
ENDBRANCH   7   9
ENDBRANCH   6   7
ENDBRANCH   5   6
ENDBRANCH   4   5
ENDBRANCH   3   4
ENDBRANCH   2   3
ENDBRANCH   1   2
BRANCH   1  32
ATOM     32  O   UNL A   1      43.068  19.164  24.952  1.00  0.00    -0.377 OA
BRANCH  32  33
ATOM     33  C   UNL A   1      44.457  19.187  25.198  1.00  0.00     0.188 C 
BRANCH  33  34
ATOM     34  C   UNL A   1      45.050  20.592  25.000  1.00  0.00     0.188 C 
BRANCH  34  35
ATOM     35  O   UNL A   1      44.085  21.575  24.650  1.00  0.00    -0.376 OA
BRANCH  35  36
ATOM     36  C   UNL A   1      44.369  22.968  24.668  1.00  0.00     0.202 C 
BRANCH  36  37
ATOM     37  C   UNL A   1      43.306  24.071  24.635  1.00  0.00     0.261 C 
BRANCH  37  38
ATOM     38  O   UNL A   1      43.002  24.687  25.864  1.00  0.00    -0.460 OA
BRANCH  38  39
ATOM     39  C   UNL A   1      42.752  25.994  25.837  1.00  0.00     0.338 C 
ATOM     40  O   UNL A   1      42.106  26.612  24.991  1.00  0.00    -0.246 OA
BRANCH  39  41
ATOM     41  C   UNL A   1      43.472  26.603  26.953  1.00  0.00     0.060 A 
ATOM     42  C   UNL A   1      43.428  25.877  28.139  1.00  0.00     0.016 A 
ATOM     43  C   UNL A   1      43.710  27.989  26.912  1.00  0.00     0.016 A 
ATOM     44  C   UNL A   1      43.232  26.591  29.287  1.00  0.00     0.010 A 
ATOM     45  C   UNL A   1      43.499  28.702  28.061  1.00  0.00     0.010 A 
ATOM     46  C   UNL A   1      43.143  27.986  29.196  1.00  0.00    -0.014 A 
BRANCH  46  47
ATOM     47  C   UNL A   1      42.727  28.684  30.383  1.00  0.00     0.031 A 
ATOM     48  C   UNL A   1      41.499  29.455  30.135  1.00  0.00     0.074 A 
ATOM     49  C   UNL A   1      43.401  28.590  31.542  1.00  0.00     0.049 A 
ATOM     50  N   UNL A   1      41.398  30.734  30.004  1.00  0.00    -0.248 NA
ATOM     51  C   UNL A   1      40.307  28.701  29.722  1.00  0.00     0.031 C 
ATOM     52  C   UNL A   1      44.459  27.639  31.898  1.00  0.00     0.029 A 
ATOM     53  N   UNL A   1      43.174  29.250  32.707  1.00  0.00    -0.354 N 
ATOM     54  C   UNL A   1      40.047  30.950  29.765  1.00  0.00     0.074 A 
ATOM     55  C   UNL A   1      39.503  29.692  29.337  1.00  0.00     0.031 C 
ATOM     56  C   UNL A   1      44.582  27.606  33.245  1.00  0.00     0.029 A 
ATOM     57  C   UNL A   1      43.709  28.615  33.820  1.00  0.00     0.049 A 
ATOM     58  H   UNL A   1      42.676  30.098  32.757  1.00  0.00     0.167 HD
ATOM     59  C   UNL A   1      39.431  32.048  30.275  1.00  0.00     0.034 A 
ATOM     60  C   UNL A   1      43.353  28.837  35.109  1.00  0.00     0.034 A 
ATOM     61  C   UNL A   1      40.392  33.063  30.636  1.00  0.00     0.049 A 
ATOM     62  C   UNL A   1      42.678  30.157  35.163  1.00  0.00     0.074 A 
ATOM     63  C   UNL A   1      41.357  33.782  29.962  1.00  0.00     0.029 A 
ATOM     64  N   UNL A   1      40.694  33.165  31.972  1.00  0.00    -0.354 N 
ATOM     65  N   UNL A   1      43.289  31.287  34.937  1.00  0.00    -0.248 NA
ATOM     66  C   UNL A   1      41.231  30.195  35.032  1.00  0.00     0.031 C 
ATOM     67  C   UNL A   1      42.424  33.940  30.892  1.00  0.00     0.029 A 
ATOM     68  C   UNL A   1      42.041  33.358  32.104  1.00  0.00     0.049 A 
ATOM     69  H   UNL A   1      40.048  33.110  32.713  1.00  0.00     0.167 HD
ATOM     70  C   UNL A   1      42.379  32.028  34.193  1.00  0.00     0.074 A 
ATOM     71  C   UNL A   1      41.095  31.362  34.395  1.00  0.00     0.031 C 
ATOM     72  C   UNL A   1      42.809  32.919  33.250  1.00  0.00     0.034 A 
BRANCH  59  73
ATOM     73  C   UNL A   1      38.040  32.027  30.869  1.00  0.00     0.023 A 
ATOM     74  C   UNL A   1      36.988  31.666  30.000  1.00  0.00     0.012 A 
ATOM     75  C   UNL A   1      37.672  32.613  32.105  1.00  0.00     0.148 A 
ATOM     76  C   UNL A   1      35.653  31.942  30.311  1.00  0.00     0.002 A 
ATOM     77  C   UNL A   1      36.342  32.815  32.443  1.00  0.00     0.091 A 
ATOM     78  F   UNL A   1      38.598  33.114  32.925  1.00  0.00    -0.205 F 
ATOM     79  C   UNL A   1      35.328  32.514  31.535  1.00  0.00     0.022 A 
BRANCH  77  80
ATOM     80  S   UNL A   1      35.873  33.523  34.030  1.00  0.00     0.127 S 
ATOM     81  O   UNL A   1      36.322  34.902  33.875  1.00  0.00    -0.237 OA
ATOM     82  O   UNL A   1      34.422  33.334  34.019  1.00  0.00    -0.237 OA
ATOM     83  O   UNL A   1      36.569  32.731  35.037  1.00  0.00    -0.744 OA
ENDBRANCH  77  80
ENDBRANCH  59  73
BRANCH  60  84
ATOM     84  C   UNL A   1      43.270  27.868  36.225  1.00  0.00     0.023 A 
ATOM     85  C   UNL A   1      42.397  26.766  36.133  1.00  0.00     0.012 A 
ATOM     86  C   UNL A   1      44.231  27.872  37.262  1.00  0.00     0.148 A 
ATOM     87  C   UNL A   1      42.493  25.694  37.031  1.00  0.00     0.002 A 
ATOM     88  C   UNL A   1      44.312  26.813  38.160  1.00  0.00     0.091 A 
ATOM     89  F   UNL A   1      45.125  28.868  37.310  1.00  0.00    -0.205 F 
ATOM     90  C   UNL A   1      43.453  25.715  38.040  1.00  0.00     0.022 A 
BRANCH  88  91
ATOM     91  S   UNL A   1      45.535  26.768  39.478  1.00  0.00     0.127 S 
ATOM     92  O   UNL A   1      45.136  27.913  40.297  1.00  0.00    -0.237 OA
ATOM     93  O   UNL A   1      45.281  25.464  40.084  1.00  0.00    -0.237 OA
ATOM     94  O   UNL A   1      46.831  26.919  38.828  1.00  0.00    -0.744 OA
ENDBRANCH  88  91
ENDBRANCH  60  84
BRANCH  72  95
ATOM     95  C   UNL A   1      44.269  33.299  33.257  1.00  0.00     0.023 A 
ATOM     96  C   UNL A   1      44.798  34.269  34.132  1.00  0.00     0.012 A 
ATOM     97  C   UNL A   1      45.149  32.535  32.475  1.00  0.00     0.148 A 
ATOM     98  C   UNL A   1      46.178  34.486  34.208  1.00  0.00     0.002 A 
ATOM     99  C   UNL A   1      46.522  32.718  32.588  1.00  0.00     0.091 A 
ATOM    100  F   UNL A   1      44.628  31.615  31.649  1.00  0.00    -0.205 F 
ATOM    101  C   UNL A   1      47.040  33.701  33.446  1.00  0.00     0.022 A 
BRANCH  99 102
ATOM    102  S   UNL A   1      47.679  31.649  31.732  1.00  0.00     0.127 S 
ATOM    103  O   UNL A   1      48.956  32.047  32.321  1.00  0.00    -0.237 OA
ATOM    104  O   UNL A   1      47.217  30.314  32.116  1.00  0.00    -0.237 OA
ATOM    105  O   UNL A   1      47.523  31.944  30.313  1.00  0.00    -0.744 OA
ENDBRANCH  99 102
ENDBRANCH  72  95
ENDBRANCH  46  47
ENDBRANCH  39  41
ENDBRANCH  38  39
ENDBRANCH  37  38
ENDBRANCH  36  37
ENDBRANCH  35  36
ENDBRANCH  34  35
ENDBRANCH  33  34
ENDBRANCH  32  33
ENDBRANCH   1  32
TORSDOF 28
ENDMDL
