MODEL 1
REMARK VINA RESULT:     -10.1      0.000      0.000
REMARK SMILES O=C(OCCOCCOCCOCCOC(=O)c1ccccc1Nc1cccc(S(F)(F)(F)(F)F)c1)c1ccc(-c2c3nc(c(-c4cccc(S(=O)(=O)[O-])c4F)c4ccc([nH]4)c(-c4cccc(S(=O)(=O)[O-])c4F)c4nc(c(-c5cccc(S(=O)(=O)[O-])c5F)c5ccc2[nH]5)C=C4)C=C3)cc1
REMARK SMILES IDX 9 1 8 2 7 3 6 4 5 5 4 6 3 7 2 8 1 9 37 10 38 11 99 12 39 13
REMARK SMILES IDX 98 14 40 15 41 16 42 17 92 18 43 19 97 20 91 21 93 22 44 23
REMARK SMILES IDX 96 24 90 25 89 26 45 28 77 29 57 30 76 31 58 32 61 33 75 34
REMARK SMILES IDX 94 35 59 36 60 37 74 39 95 40 62 41 46 42 47 43 55 44 48 45
REMARK SMILES IDX 50 46 56 47 49 48 51 49 52 50 53 51 54 52 78 53 79 54 87 55
REMARK SMILES IDX 80 56 82 57 88 58 81 59 83 60 84 61 85 62 86 63 63 64 64 65
REMARK SMILES IDX 72 66 65 67 67 68 73 69 66 70 68 71 69 72 70 73 71 74 10 75
REMARK SMILES IDX 11 76 12 77 13 78 14 79 15 80 16 81 17 82 18 83 19 84 23 85
REMARK SMILES IDX 20 86 22 87 21 88 24 89 25 91 26 92 36 93 27 94 29 95 28 96
REMARK SMILES IDX 30 97 31 98 32 99 33 100 34 101 35 102
REMARK H PARENT 93 27 61 38 24 90
REMARK Flexibility Score: inf
ROOT
ATOM      1  O   UNL A   1      34.927  32.220  27.352  1.00  0.00    -0.377 OA
ENDROOT
BRANCH   1   2
ATOM      2  C   UNL A   1      35.352  33.057  28.418  1.00  0.00     0.188 C 
BRANCH   2   3
ATOM      3  C   UNL A   1      34.153  33.441  29.269  1.00  0.00     0.188 C 
BRANCH   3   4
ATOM      4  O   UNL A   1      33.392  34.433  28.595  1.00  0.00    -0.376 OA
BRANCH   4   5
ATOM      5  C   UNL A   1      33.741  35.716  29.094  1.00  0.00     0.202 C 
BRANCH   5   6
ATOM      6  C   UNL A   1      32.542  36.328  29.800  1.00  0.00     0.261 C 
BRANCH   6   7
ATOM      7  O   UNL A   1      32.877  36.600  31.153  1.00  0.00    -0.460 OA
BRANCH   7   8
ATOM      8  C   UNL A   1      32.837  35.558  32.118  1.00  0.00     0.338 C 
ATOM      9  O   UNL A   1      31.740  35.260  32.685  1.00  0.00    -0.246 OA
BRANCH   8  10
ATOM     10  C   UNL A   1      34.105  34.800  32.471  1.00  0.00     0.060 A 
ATOM     11  C   UNL A   1      35.337  35.390  32.238  1.00  0.00     0.016 A 
ATOM     12  C   UNL A   1      34.013  33.582  32.992  1.00  0.00     0.016 A 
ATOM     13  C   UNL A   1      36.427  34.492  32.321  1.00  0.00     0.010 A 
ATOM     14  C   UNL A   1      35.135  32.811  33.172  1.00  0.00     0.010 A 
ATOM     15  C   UNL A   1      36.381  33.309  32.906  1.00  0.00    -0.014 A 
BRANCH  15  16
ATOM     16  C   UNL A   1      37.643  32.542  33.265  1.00  0.00     0.031 A 
ATOM     17  C   UNL A   1      38.050  31.513  32.414  1.00  0.00     0.074 A 
ATOM     18  C   UNL A   1      38.324  32.912  34.412  1.00  0.00     0.049 A 
ATOM     19  N   UNL A   1      39.139  30.750  32.522  1.00  0.00    -0.248 NA
ATOM     20  C   UNL A   1      37.310  31.096  31.213  1.00  0.00     0.031 C 
ATOM     21  C   UNL A   1      37.926  33.956  35.271  1.00  0.00     0.029 A 
ATOM     22  N   UNL A   1      39.478  32.362  34.925  1.00  0.00    -0.354 N 
ATOM     23  C   UNL A   1      39.199  29.886  31.507  1.00  0.00     0.074 A 
ATOM     24  C   UNL A   1      38.021  30.091  30.654  1.00  0.00     0.031 C 
ATOM     25  C   UNL A   1      38.818  34.024  36.292  1.00  0.00     0.029 A 
ATOM     26  C   UNL A   1      39.790  33.027  36.091  1.00  0.00     0.049 A 
ATOM     27  H   UNL A   1      39.989  31.621  34.528  1.00  0.00     0.167 HD
ATOM     28  C   UNL A   1      40.191  28.936  31.258  1.00  0.00     0.034 A 
ATOM     29  C   UNL A   1      40.858  32.791  36.942  1.00  0.00     0.034 A 
ATOM     30  C   UNL A   1      41.282  28.729  32.088  1.00  0.00     0.049 A 
ATOM     31  C   UNL A   1      41.819  31.800  36.724  1.00  0.00     0.074 A 
ATOM     32  C   UNL A   1      42.295  27.781  31.847  1.00  0.00     0.029 A 
ATOM     33  N   UNL A   1      41.582  29.377  33.265  1.00  0.00    -0.354 N 
ATOM     34  N   UNL A   1      41.900  30.963  35.689  1.00  0.00    -0.248 NA
ATOM     35  C   UNL A   1      42.936  31.519  37.636  1.00  0.00     0.031 C 
ATOM     36  C   UNL A   1      43.188  27.849  32.870  1.00  0.00     0.029 A 
ATOM     37  C   UNL A   1      42.747  28.842  33.766  1.00  0.00     0.049 A 
ATOM     38  H   UNL A   1      41.054  30.099  33.677  1.00  0.00     0.167 HD
ATOM     39  C   UNL A   1      42.967  30.173  35.819  1.00  0.00     0.074 A 
ATOM     40  C   UNL A   1      43.645  30.514  37.077  1.00  0.00     0.031 C 
ATOM     41  C   UNL A   1      43.405  29.183  34.938  1.00  0.00     0.034 A 
BRANCH  28  42
ATOM     42  C   UNL A   1      40.068  28.081  30.007  1.00  0.00     0.023 A 
ATOM     43  C   UNL A   1      39.186  27.013  30.037  1.00  0.00     0.012 A 
ATOM     44  C   UNL A   1      40.779  28.357  28.920  1.00  0.00     0.148 A 
ATOM     45  C   UNL A   1      39.339  26.113  28.956  1.00  0.00     0.002 A 
ATOM     46  C   UNL A   1      40.775  27.500  27.846  1.00  0.00     0.091 A 
ATOM     47  F   UNL A   1      41.501  29.472  28.870  1.00  0.00    -0.205 F 
ATOM     48  C   UNL A   1      39.972  26.393  27.831  1.00  0.00     0.022 A 
BRANCH  46  49
ATOM     49  S   UNL A   1      41.849  27.841  26.429  1.00  0.00     0.127 S 
ATOM     50  O   UNL A   1      41.469  29.192  25.816  1.00  0.00    -0.237 OA
ATOM     51  O   UNL A   1      43.307  27.882  26.891  1.00  0.00    -0.237 OA
ATOM     52  O   UNL A   1      41.655  26.610  25.258  1.00  0.00    -0.744 OA
ENDBRANCH  46  49
ENDBRANCH  28  42
BRANCH  29  53
ATOM     53  C   UNL A   1      40.989  33.657  38.183  1.00  0.00     0.023 A 
ATOM     54  C   UNL A   1      41.858  34.736  38.158  1.00  0.00     0.012 A 
ATOM     55  C   UNL A   1      40.301  33.353  39.277  1.00  0.00     0.148 A 
ATOM     56  C   UNL A   1      42.151  35.266  39.437  1.00  0.00     0.002 A 
ATOM     57  C   UNL A   1      40.545  34.006  40.462  1.00  0.00     0.091 A 
ATOM     58  F   UNL A   1      39.366  32.408  39.226  1.00  0.00    -0.205 F 
ATOM     59  C   UNL A   1      41.434  35.042  40.523  1.00  0.00     0.022 A 
BRANCH  57  60
ATOM     60  S   UNL A   1      39.676  33.485  41.962  1.00  0.00     0.127 S 
ATOM     61  O   UNL A   1      40.527  33.825  43.187  1.00  0.00    -0.237 OA
ATOM     62  O   UNL A   1      38.334  34.215  42.054  1.00  0.00    -0.237 OA
ATOM     63  O   UNL A   1      39.404  31.797  41.906  1.00  0.00    -0.744 OA
ENDBRANCH  57  60
ENDBRANCH  29  53
BRANCH  41  64
ATOM     64  C   UNL A   1      44.681  28.433  35.283  1.00  0.00     0.023 A 
ATOM     65  C   UNL A   1      45.901  28.938  34.864  1.00  0.00     0.012 A 
ATOM     66  C   UNL A   1      44.605  27.303  35.977  1.00  0.00     0.148 A 
ATOM     67  C   UNL A   1      46.971  28.019  34.978  1.00  0.00     0.002 A 
ATOM     68  C   UNL A   1      45.720  26.522  36.166  1.00  0.00     0.091 A 
ATOM     69  F   UNL A   1      43.440  26.924  36.492  1.00  0.00    -0.205 F 
ATOM     70  C   UNL A   1      46.949  26.932  35.725  1.00  0.00     0.022 A 
BRANCH  68  71
ATOM     71  S   UNL A   1      45.561  24.928  37.009  1.00  0.00     0.127 S 
ATOM     72  O   UNL A   1      45.341  23.823  35.974  1.00  0.00    -0.237 OA
ATOM     73  O   UNL A   1      46.839  24.640  37.800  1.00  0.00    -0.237 OA
ATOM     74  O   UNL A   1      44.228  24.981  38.079  1.00  0.00    -0.744 OA
ENDBRANCH  68  71
ENDBRANCH  41  64
ENDBRANCH  15  16
ENDBRANCH   8  10
ENDBRANCH   7   8
ENDBRANCH   6   7
ENDBRANCH   5   6
ENDBRANCH   4   5
ENDBRANCH   3   4
ENDBRANCH   2   3
ENDBRANCH   1   2
BRANCH   1  75
ATOM     75  C   UNL A   1      34.168  31.139  27.873  1.00  0.00     0.188 C 
BRANCH  75  76
ATOM     76  C   UNL A   1      34.952  29.846  27.713  1.00  0.00     0.188 C 
BRANCH  76  77
ATOM     77  O   UNL A   1      34.196  28.928  26.938  1.00  0.00    -0.376 OA
BRANCH  77  78
ATOM     78  C   UNL A   1      32.811  29.183  27.122  1.00  0.00     0.202 C 
BRANCH  78  79
ATOM     79  C   UNL A   1      32.166  27.999  27.825  1.00  0.00     0.261 C 
BRANCH  79  80
ATOM     80  O   UNL A   1      31.143  27.459  27.002  1.00  0.00    -0.460 OA
BRANCH  80  81
ATOM     81  C   UNL A   1      31.403  26.313  26.205  1.00  0.00     0.340 C 
ATOM     82  O   UNL A   1      31.251  25.150  26.696  1.00  0.00    -0.246 OA
BRANCH  81  83
ATOM     83  C   UNL A   1      31.862  26.476  24.765  1.00  0.00     0.083 A 
ATOM     84  C   UNL A   1      31.086  27.208  23.882  1.00  0.00     0.018 A 
ATOM     85  C   UNL A   1      33.005  25.920  24.381  1.00  0.00     0.053 A 
ATOM     86  C   UNL A   1      31.462  27.056  22.526  1.00  0.00     0.001 A 
ATOM     87  C   UNL A   1      33.376  25.927  23.058  1.00  0.00     0.027 A 
ATOM     88  C   UNL A   1      32.627  26.582  22.121  1.00  0.00     0.002 A 
BRANCH  85  89
ATOM     89  N   UNL A   1      33.882  25.293  25.380  1.00  0.00    -0.355 N 
ATOM     90  H   UNL A   1      34.135  25.787  26.193  1.00  0.00     0.167 HD
BRANCH  89  91
ATOM     91  C   UNL A   1      34.383  23.927  25.165  1.00  0.00     0.040 A 
ATOM     92  C   UNL A   1      35.763  23.810  25.185  1.00  0.00     0.026 A 
ATOM     93  C   UNL A   1      33.602  22.858  25.081  1.00  0.00     0.050 A 
ATOM     94  C   UNL A   1      36.234  22.528  24.816  1.00  0.00     0.004 A 
ATOM     95  C   UNL A   1      34.141  21.613  24.855  1.00  0.00     0.109 A 
ATOM     96  C   UNL A   1      35.495  21.433  24.803  1.00  0.00     0.024 A 
BRANCH  95  97
ATOM     97  S   UNL A   1      33.042  20.193  24.623  1.00  0.00     0.310 S 
ATOM     98  F   UNL A   1      33.093  19.727  26.139  1.00  0.00    -0.094 F 
ATOM     99  F   UNL A   1      34.318  19.301  24.379  1.00  0.00    -0.094 F 
ATOM    100  F   UNL A   1      32.108  18.982  24.346  1.00  0.00    -0.094 F 
ATOM    101  F   UNL A   1      31.784  21.066  25.009  1.00  0.00    -0.094 F 
ATOM    102  F   UNL A   1      33.983  21.401  25.018  1.00  0.00    -0.094 F 
ENDBRANCH  95  97
ENDBRANCH  89  91
ENDBRANCH  85  89
ENDBRANCH  81  83
ENDBRANCH  80  81
ENDBRANCH  79  80
ENDBRANCH  78  79
ENDBRANCH  77  78
ENDBRANCH  76  77
ENDBRANCH  75  76
ENDBRANCH   1  75
TORSDOF 26
ENDMDL
MODEL 2
REMARK VINA RESULT:     -10.1      1.886      2.163
REMARK SMILES O=C(OCCOCCOCCOCCOC(=O)c1ccccc1Nc1cccc(S(F)(F)(F)(F)F)c1)c1ccc(-c2c3nc(c(-c4cccc(S(=O)(=O)[O-])c4F)c4ccc([nH]4)c(-c4cccc(S(=O)(=O)[O-])c4F)c4nc(c(-c5cccc(S(=O)(=O)[O-])c5F)c5ccc2[nH]5)C=C4)C=C3)cc1
REMARK SMILES IDX 9 1 8 2 7 3 6 4 5 5 4 6 3 7 2 8 1 9 37 10 38 11 99 12 39 13
REMARK SMILES IDX 98 14 40 15 41 16 42 17 92 18 43 19 97 20 91 21 93 22 44 23
REMARK SMILES IDX 96 24 90 25 89 26 45 28 77 29 57 30 76 31 58 32 61 33 75 34
REMARK SMILES IDX 94 35 59 36 60 37 74 39 95 40 62 41 46 42 47 43 55 44 48 45
REMARK SMILES IDX 50 46 56 47 49 48 51 49 52 50 53 51 54 52 78 53 79 54 87 55
REMARK SMILES IDX 80 56 82 57 88 58 81 59 83 60 84 61 85 62 86 63 63 64 64 65
REMARK SMILES IDX 72 66 65 67 67 68 73 69 66 70 68 71 69 72 70 73 71 74 10 75
REMARK SMILES IDX 11 76 12 77 13 78 14 79 15 80 16 81 17 82 18 83 19 84 23 85
REMARK SMILES IDX 20 86 22 87 21 88 24 89 25 91 26 92 36 93 27 94 29 95 28 96
REMARK SMILES IDX 30 97 31 98 32 99 33 100 34 101 35 102
REMARK H PARENT 93 27 61 38 24 90
REMARK Flexibility Score: inf
ROOT
ATOM      1  O   UNL A   1      34.794  32.277  27.276  1.00  0.00    -0.377 OA
ENDROOT
BRANCH   1   2
ATOM      2  C   UNL A   1      35.339  33.065  28.324  1.00  0.00     0.188 C 
BRANCH   2   3
ATOM      3  C   UNL A   1      34.232  33.459  29.289  1.00  0.00     0.188 C 
BRANCH   3   4
ATOM      4  O   UNL A   1      33.390  34.423  28.675  1.00  0.00    -0.376 OA
BRANCH   4   5
ATOM      5  C   UNL A   1      33.777  35.724  29.093  1.00  0.00     0.202 C 
BRANCH   5   6
ATOM      6  C   UNL A   1      32.635  36.369  29.862  1.00  0.00     0.261 C 
BRANCH   6   7
ATOM      7  O   UNL A   1      33.029  36.579  31.210  1.00  0.00    -0.460 OA
BRANCH   7   8
ATOM      8  C   UNL A   1      32.984  35.504  32.138  1.00  0.00     0.338 C 
ATOM      9  O   UNL A   1      31.885  35.188  32.689  1.00  0.00    -0.246 OA
BRANCH   8  10
ATOM     10  C   UNL A   1      34.251  34.735  32.471  1.00  0.00     0.060 A 
ATOM     11  C   UNL A   1      35.484  35.313  32.217  1.00  0.00     0.016 A 
ATOM     12  C   UNL A   1      34.156  33.517  32.993  1.00  0.00     0.016 A 
ATOM     13  C   UNL A   1      36.568  34.404  32.284  1.00  0.00     0.010 A 
ATOM     14  C   UNL A   1      35.274  32.736  33.155  1.00  0.00     0.010 A 
ATOM     15  C   UNL A   1      36.519  33.222  32.869  1.00  0.00    -0.014 A 
BRANCH  15  16
ATOM     16  C   UNL A   1      37.780  32.444  33.208  1.00  0.00     0.031 A 
ATOM     17  C   UNL A   1      38.180  31.430  32.334  1.00  0.00     0.074 A 
ATOM     18  C   UNL A   1      38.466  32.787  34.360  1.00  0.00     0.049 A 
ATOM     19  N   UNL A   1      39.267  30.661  32.423  1.00  0.00    -0.248 NA
ATOM     20  C   UNL A   1      37.434  31.041  31.128  1.00  0.00     0.031 C 
ATOM     21  C   UNL A   1      38.075  33.815  35.241  1.00  0.00     0.029 A 
ATOM     22  N   UNL A   1      39.619  32.222  34.858  1.00  0.00    -0.354 N 
ATOM     23  C   UNL A   1      39.319  29.818  31.390  1.00  0.00     0.074 A 
ATOM     24  C   UNL A   1      38.139  30.045  30.546  1.00  0.00     0.031 C 
ATOM     25  C   UNL A   1      38.971  33.859  36.261  1.00  0.00     0.029 A 
ATOM     26  C   UNL A   1      39.939  32.862  36.035  1.00  0.00     0.049 A 
ATOM     27  H   UNL A   1      40.127  31.488  34.444  1.00  0.00     0.167 HD
ATOM     28  C   UNL A   1      40.307  28.869  31.119  1.00  0.00     0.034 A 
ATOM     29  C   UNL A   1      41.008  32.605  36.878  1.00  0.00     0.034 A 
ATOM     30  C   UNL A   1      41.400  28.641  31.940  1.00  0.00     0.049 A 
ATOM     31  C   UNL A   1      41.964  31.615  36.637  1.00  0.00     0.074 A 
ATOM     32  C   UNL A   1      42.409  27.694  31.677  1.00  0.00     0.029 A 
ATOM     33  N   UNL A   1      41.706  29.264  33.129  1.00  0.00    -0.354 N 
ATOM     34  N   UNL A   1      42.039  30.799  35.584  1.00  0.00    -0.248 NA
ATOM     35  C   UNL A   1      43.083  31.312  37.539  1.00  0.00     0.031 C 
ATOM     36  C   UNL A   1      43.305  27.739  32.698  1.00  0.00     0.029 A 
ATOM     37  C   UNL A   1      42.871  28.715  33.616  1.00  0.00     0.049 A 
ATOM     38  H   UNL A   1      41.182  29.980  33.558  1.00  0.00     0.167 HD
ATOM     39  C   UNL A   1      43.103  30.002  35.694  1.00  0.00     0.074 A 
ATOM     40  C   UNL A   1      43.787  30.315  36.957  1.00  0.00     0.031 C 
ATOM     41  C   UNL A   1      43.534  29.029  34.791  1.00  0.00     0.034 A 
BRANCH  28  42
ATOM     42  C   UNL A   1      40.176  28.040  29.851  1.00  0.00     0.023 A 
ATOM     43  C   UNL A   1      39.292  26.974  29.863  1.00  0.00     0.012 A 
ATOM     44  C   UNL A   1      40.883  28.337  28.767  1.00  0.00     0.148 A 
ATOM     45  C   UNL A   1      39.438  26.096  28.763  1.00  0.00     0.002 A 
ATOM     46  C   UNL A   1      40.872  27.502  27.676  1.00  0.00     0.091 A 
ATOM     47  F   UNL A   1      41.607  29.451  28.737  1.00  0.00    -0.205 F 
ATOM     48  C   UNL A   1      40.067  26.398  27.642  1.00  0.00     0.022 A 
BRANCH  46  49
ATOM     49  S   UNL A   1      41.940  27.870  26.260  1.00  0.00     0.127 S 
ATOM     50  O   UNL A   1      41.756  26.792  25.190  1.00  0.00    -0.237 OA
ATOM     51  O   UNL A   1      41.565  29.236  25.680  1.00  0.00    -0.237 OA
ATOM     52  O   UNL A   1      43.572  27.896  26.770  1.00  0.00    -0.744 OA
ENDBRANCH  46  49
ENDBRANCH  28  42
BRANCH  29  53
ATOM     53  C   UNL A   1      41.147  33.445  38.136  1.00  0.00     0.023 A 
ATOM     54  C   UNL A   1      40.508  33.030  39.293  1.00  0.00     0.012 A 
ATOM     55  C   UNL A   1      41.846  34.574  38.104  1.00  0.00     0.148 A 
ATOM     56  C   UNL A   1      40.425  34.028  40.293  1.00  0.00     0.002 A 
ATOM     57  C   UNL A   1      41.828  35.439  39.171  1.00  0.00     0.091 A 
ATOM     58  F   UNL A   1      42.570  34.869  37.028  1.00  0.00    -0.205 F 
ATOM     59  C   UNL A   1      41.167  35.119  40.324  1.00  0.00     0.022 A 
BRANCH  57  60
ATOM     60  S   UNL A   1      42.693  37.025  39.048  1.00  0.00     0.127 S 
ATOM     61  O   UNL A   1      44.003  36.953  39.834  1.00  0.00    -0.237 OA
ATOM     62  O   UNL A   1      42.994  37.328  37.578  1.00  0.00    -0.237 OA
ATOM     63  O   UNL A   1      41.706  38.263  39.695  1.00  0.00    -0.744 OA
ENDBRANCH  57  60
ENDBRANCH  29  53
BRANCH  41  64
ATOM     64  C   UNL A   1      44.809  28.267  35.117  1.00  0.00     0.023 A 
ATOM     65  C   UNL A   1      44.729  27.087  35.838  1.00  0.00     0.012 A 
ATOM     66  C   UNL A   1      45.978  28.749  34.711  1.00  0.00     0.148 A 
ATOM     67  C   UNL A   1      45.975  26.633  36.333  1.00  0.00     0.002 A 
ATOM     68  C   UNL A   1      47.154  28.172  35.126  1.00  0.00     0.091 A 
ATOM     69  F   UNL A   1      46.010  29.800  33.897  1.00  0.00    -0.205 F 
ATOM     70  C   UNL A   1      47.150  27.037  35.889  1.00  0.00     0.022 A 
BRANCH  68  71
ATOM     71  S   UNL A   1      48.731  28.926  34.655  1.00  0.00     0.127 S 
ATOM     72  O   UNL A   1      48.872  28.904  33.131  1.00  0.00    -0.237 OA
ATOM     73  O   UNL A   1      48.773  30.373  35.151  1.00  0.00    -0.237 OA
ATOM     74  O   UNL A   1      50.017  28.045  35.360  1.00  0.00    -0.744 OA
ENDBRANCH  68  71
ENDBRANCH  41  64
ENDBRANCH  15  16
ENDBRANCH   8  10
ENDBRANCH   7   8
ENDBRANCH   6   7
ENDBRANCH   5   6
ENDBRANCH   4   5
ENDBRANCH   3   4
ENDBRANCH   2   3
ENDBRANCH   1   2
BRANCH   1  75
ATOM     75  C   UNL A   1      34.157  31.133  27.826  1.00  0.00     0.188 C 
BRANCH  75  76
ATOM     76  C   UNL A   1      35.004  29.901  27.551  1.00  0.00     0.188 C 
BRANCH  76  77
ATOM     77  O   UNL A   1      34.226  28.939  26.853  1.00  0.00    -0.376 OA
BRANCH  77  78
ATOM     78  C   UNL A   1      32.846  29.210  27.055  1.00  0.00     0.202 C 
BRANCH  78  79
ATOM     79  C   UNL A   1      32.203  28.046  27.791  1.00  0.00     0.261 C 
BRANCH  79  80
ATOM     80  O   UNL A   1      31.016  27.657  27.116  1.00  0.00    -0.460 OA
BRANCH  80  81
ATOM     81  C   UNL A   1      31.035  26.552  26.224  1.00  0.00     0.340 C 
ATOM     82  O   UNL A   1      30.684  25.401  26.633  1.00  0.00    -0.246 OA
BRANCH  81  83
ATOM     83  C   UNL A   1      31.475  26.745  24.782  1.00  0.00     0.083 A 
ATOM     84  C   UNL A   1      30.704  27.524  23.935  1.00  0.00     0.018 A 
ATOM     85  C   UNL A   1      32.596  26.172  24.362  1.00  0.00     0.053 A 
ATOM     86  C   UNL A   1      31.054  27.402  22.569  1.00  0.00     0.001 A 
ATOM     87  C   UNL A   1      32.944  26.208  23.033  1.00  0.00     0.027 A 
ATOM     88  C   UNL A   1      32.198  26.910  22.129  1.00  0.00     0.002 A 
BRANCH  85  89
ATOM     89  N   UNL A   1      33.472  25.492  25.326  1.00  0.00    -0.355 N 
ATOM     90  H   UNL A   1      33.681  25.920  26.188  1.00  0.00     0.167 HD
BRANCH  89  91
ATOM     91  C   UNL A   1      34.036  24.173  25.005  1.00  0.00     0.040 A 
ATOM     92  C   UNL A   1      35.412  24.158  24.847  1.00  0.00     0.026 A 
ATOM     93  C   UNL A   1      33.329  23.050  24.986  1.00  0.00     0.050 A 
ATOM     94  C   UNL A   1      35.922  22.924  24.379  1.00  0.00     0.004 A 
ATOM     95  C   UNL A   1      33.921  21.855  24.652  1.00  0.00     0.109 A 
ATOM     96  C   UNL A   1      35.266  21.778  24.424  1.00  0.00     0.024 A 
BRANCH  95  97
ATOM     97  S   UNL A   1      32.905  20.363  24.515  1.00  0.00     0.310 S 
ATOM     98  F   UNL A   1      31.666  20.963  25.302  1.00  0.00    -0.094 F 
ATOM     99  F   UNL A   1      33.476  19.898  25.908  1.00  0.00    -0.094 F 
ATOM    100  F   UNL A   1      32.097  19.043  24.373  1.00  0.00    -0.094 F 
ATOM    101  F   UNL A   1      32.235  20.906  23.192  1.00  0.00    -0.094 F 
ATOM    102  F   UNL A   1      33.631  21.755  24.701  1.00  0.00    -0.094 F 
ENDBRANCH  95  97
ENDBRANCH  89  91
ENDBRANCH  85  89
ENDBRANCH  81  83
ENDBRANCH  80  81
ENDBRANCH  79  80
ENDBRANCH  78  79
ENDBRANCH  77  78
ENDBRANCH  76  77
ENDBRANCH  75  76
ENDBRANCH   1  75
TORSDOF 26
ENDMDL
MODEL 3
REMARK VINA RESULT:      -9.7      1.582      2.064
REMARK SMILES O=C(OCCOCCOCCOCCOC(=O)c1ccccc1Nc1cccc(S(F)(F)(F)(F)F)c1)c1ccc(-c2c3nc(c(-c4cccc(S(=O)(=O)[O-])c4F)c4ccc([nH]4)c(-c4cccc(S(=O)(=O)[O-])c4F)c4nc(c(-c5cccc(S(=O)(=O)[O-])c5F)c5ccc2[nH]5)C=C4)C=C3)cc1
REMARK SMILES IDX 9 1 8 2 7 3 6 4 5 5 4 6 3 7 2 8 1 9 37 10 38 11 99 12 39 13
REMARK SMILES IDX 98 14 40 15 41 16 42 17 92 18 43 19 97 20 91 21 93 22 44 23
REMARK SMILES IDX 96 24 90 25 89 26 45 28 77 29 57 30 76 31 58 32 61 33 75 34
REMARK SMILES IDX 94 35 59 36 60 37 74 39 95 40 62 41 46 42 47 43 55 44 48 45
REMARK SMILES IDX 50 46 56 47 49 48 51 49 52 50 53 51 54 52 78 53 79 54 87 55
REMARK SMILES IDX 80 56 82 57 88 58 81 59 83 60 84 61 85 62 86 63 63 64 64 65
REMARK SMILES IDX 72 66 65 67 67 68 73 69 66 70 68 71 69 72 70 73 71 74 10 75
REMARK SMILES IDX 11 76 12 77 13 78 14 79 15 80 16 81 17 82 18 83 19 84 23 85
REMARK SMILES IDX 20 86 22 87 21 88 24 89 25 91 26 92 36 93 27 94 29 95 28 96
REMARK SMILES IDX 30 97 31 98 32 99 33 100 34 101 35 102
REMARK H PARENT 93 27 61 38 24 90
REMARK Flexibility Score: inf
ROOT
ATOM      1  O   UNL A   1      34.806  31.719  27.272  1.00  0.00    -0.377 OA
ENDROOT
BRANCH   1   2
ATOM      2  C   UNL A   1      35.645  32.604  27.999  1.00  0.00     0.188 C 
BRANCH   2   3
ATOM      3  C   UNL A   1      34.841  33.274  29.101  1.00  0.00     0.188 C 
BRANCH   3   4
ATOM      4  O   UNL A   1      33.894  34.161  28.524  1.00  0.00    -0.376 OA
BRANCH   4   5
ATOM      5  C   UNL A   1      34.017  35.441  29.126  1.00  0.00     0.202 C 
BRANCH   5   6
ATOM      6  C   UNL A   1      32.669  35.869  29.685  1.00  0.00     0.261 C 
BRANCH   6   7
ATOM      7  O   UNL A   1      32.846  36.409  30.986  1.00  0.00    -0.460 OA
BRANCH   7   8
ATOM      8  C   UNL A   1      32.869  35.548  32.116  1.00  0.00     0.338 C 
ATOM      9  O   UNL A   1      31.831  35.419  32.837  1.00  0.00    -0.246 OA
BRANCH   8  10
ATOM     10  C   UNL A   1      34.134  34.781  32.461  1.00  0.00     0.060 A 
ATOM     11  C   UNL A   1      35.350  35.446  32.472  1.00  0.00     0.016 A 
ATOM     12  C   UNL A   1      34.056  33.485  32.741  1.00  0.00     0.016 A 
ATOM     13  C   UNL A   1      36.473  34.585  32.510  1.00  0.00     0.010 A 
ATOM     14  C   UNL A   1      35.194  32.734  32.900  1.00  0.00     0.010 A 
ATOM     15  C   UNL A   1      36.431  33.314  32.863  1.00  0.00    -0.014 A 
BRANCH  15  16
ATOM     16  C   UNL A   1      37.691  32.538  33.213  1.00  0.00     0.031 A 
ATOM     17  C   UNL A   1      38.116  31.545  32.327  1.00  0.00     0.074 A 
ATOM     18  C   UNL A   1      38.350  32.863  34.385  1.00  0.00     0.049 A 
ATOM     19  N   UNL A   1      39.206  30.782  32.423  1.00  0.00    -0.248 NA
ATOM     20  C   UNL A   1      37.398  31.175  31.099  1.00  0.00     0.031 C 
ATOM     21  C   UNL A   1      37.933  33.870  35.279  1.00  0.00     0.029 A 
ATOM     22  N   UNL A   1      39.497  32.296  34.895  1.00  0.00    -0.354 N 
ATOM     23  C   UNL A   1      39.286  29.960  31.375  1.00  0.00     0.074 A 
ATOM     24  C   UNL A   1      38.122  30.196  30.511  1.00  0.00     0.031 C 
ATOM     25  C   UNL A   1      38.808  33.900  36.317  1.00  0.00     0.029 A 
ATOM     26  C   UNL A   1      39.787  32.914  36.092  1.00  0.00     0.049 A 
ATOM     27  H   UNL A   1      40.019  31.574  34.477  1.00  0.00     0.167 HD
ATOM     28  C   UNL A   1      40.286  29.024  31.105  1.00  0.00     0.034 A 
ATOM     29  C   UNL A   1      40.842  32.648  36.951  1.00  0.00     0.034 A 
ATOM     30  C   UNL A   1      41.364  28.787  31.944  1.00  0.00     0.049 A 
ATOM     31  C   UNL A   1      41.810  31.670  36.710  1.00  0.00     0.074 A 
ATOM     32  C   UNL A   1      42.385  27.853  31.683  1.00  0.00     0.029 A 
ATOM     33  N   UNL A   1      41.641  29.388  33.152  1.00  0.00    -0.354 N 
ATOM     34  N   UNL A   1      41.912  30.876  35.643  1.00  0.00    -0.248 NA
ATOM     35  C   UNL A   1      42.912  31.356  37.629  1.00  0.00     0.031 C 
ATOM     36  C   UNL A   1      43.260  27.884  32.723  1.00  0.00     0.029 A 
ATOM     37  C   UNL A   1      42.800  28.837  33.651  1.00  0.00     0.049 A 
ATOM     38  H   UNL A   1      41.103  30.092  33.583  1.00  0.00     0.167 HD
ATOM     39  C   UNL A   1      42.980  30.085  35.759  1.00  0.00     0.074 A 
ATOM     40  C   UNL A   1      43.635  30.376  37.042  1.00  0.00     0.031 C 
ATOM     41  C   UNL A   1      43.437  29.133  34.846  1.00  0.00     0.034 A 
BRANCH  28  42
ATOM     42  C   UNL A   1      40.188  28.220  29.819  1.00  0.00     0.023 A 
ATOM     43  C   UNL A   1      39.259  27.195  29.766  1.00  0.00     0.012 A 
ATOM     44  C   UNL A   1      40.965  28.501  28.778  1.00  0.00     0.148 A 
ATOM     45  C   UNL A   1      39.424  26.327  28.661  1.00  0.00     0.002 A 
ATOM     46  C   UNL A   1      40.976  27.683  27.675  1.00  0.00     0.091 A 
ATOM     47  F   UNL A   1      41.738  29.581  28.806  1.00  0.00    -0.205 F 
ATOM     48  C   UNL A   1      40.126  26.617  27.579  1.00  0.00     0.022 A 
BRANCH  46  49
ATOM     49  S   UNL A   1      42.134  28.023  26.325  1.00  0.00     0.127 S 
ATOM     50  O   UNL A   1      41.889  27.034  25.182  1.00  0.00    -0.237 OA
ATOM     51  O   UNL A   1      41.923  29.451  25.819  1.00  0.00    -0.237 OA
ATOM     52  O   UNL A   1      43.738  27.850  26.893  1.00  0.00    -0.744 OA
ENDBRANCH  46  49
ENDBRANCH  28  42
BRANCH  29  53
ATOM     53  C   UNL A   1      40.948  33.463  38.228  1.00  0.00     0.023 A 
ATOM     54  C   UNL A   1      40.294  33.016  39.365  1.00  0.00     0.012 A 
ATOM     55  C   UNL A   1      41.633  34.601  38.231  1.00  0.00     0.148 A 
ATOM     56  C   UNL A   1      40.182  33.993  40.383  1.00  0.00     0.002 A 
ATOM     57  C   UNL A   1      41.587  35.443  39.316  1.00  0.00     0.091 A 
ATOM     58  F   UNL A   1      42.372  34.927  37.175  1.00  0.00    -0.205 F 
ATOM     59  C   UNL A   1      40.910  35.092  40.451  1.00  0.00     0.022 A 
BRANCH  57  60
ATOM     60  S   UNL A   1      42.433  37.042  39.240  1.00  0.00     0.127 S 
ATOM     61  O   UNL A   1      43.590  37.053  40.241  1.00  0.00    -0.237 OA
ATOM     62  O   UNL A   1      42.978  37.264  37.827  1.00  0.00    -0.237 OA
ATOM     63  O   UNL A   1      41.330  38.289  39.628  1.00  0.00    -0.744 OA
ENDBRANCH  57  60
ENDBRANCH  29  53
BRANCH  41  64
ATOM     64  C   UNL A   1      44.710  28.374  35.183  1.00  0.00     0.023 A 
ATOM     65  C   UNL A   1      45.933  28.887  34.784  1.00  0.00     0.012 A 
ATOM     66  C   UNL A   1      44.629  27.228  35.849  1.00  0.00     0.148 A 
ATOM     67  C   UNL A   1      47.002  27.965  34.884  1.00  0.00     0.002 A 
ATOM     68  C   UNL A   1      45.742  26.441  36.027  1.00  0.00     0.091 A 
ATOM     69  F   UNL A   1      43.459  26.838  36.347  1.00  0.00    -0.205 F 
ATOM     70  C   UNL A   1      46.973  26.860  35.605  1.00  0.00     0.022 A 
BRANCH  68  71
ATOM     71  S   UNL A   1      45.575  24.829  36.832  1.00  0.00     0.127 S 
ATOM     72  O   UNL A   1      44.293  24.807  37.668  1.00  0.00    -0.237 OA
ATOM     73  O   UNL A   1      45.508  23.732  35.766  1.00  0.00    -0.237 OA
ATOM     74  O   UNL A   1      46.924  24.556  37.847  1.00  0.00    -0.744 OA
ENDBRANCH  68  71
ENDBRANCH  41  64
ENDBRANCH  15  16
ENDBRANCH   8  10
ENDBRANCH   7   8
ENDBRANCH   6   7
ENDBRANCH   5   6
ENDBRANCH   4   5
ENDBRANCH   3   4
ENDBRANCH   2   3
ENDBRANCH   1   2
BRANCH   1  75
ATOM     75  C   UNL A   1      34.622  30.524  28.016  1.00  0.00     0.188 C 
BRANCH  75  76
ATOM     76  C   UNL A   1      35.164  29.345  27.224  1.00  0.00     0.188 C 
BRANCH  76  77
ATOM     77  O   UNL A   1      34.088  28.513  26.819  1.00  0.00    -0.376 OA
BRANCH  77  78
ATOM     78  C   UNL A   1      32.866  29.052  27.300  1.00  0.00     0.202 C 
BRANCH  78  79
ATOM     79  C   UNL A   1      31.870  27.926  27.529  1.00  0.00     0.261 C 
BRANCH  79  80
ATOM     80  O   UNL A   1      30.945  27.886  26.453  1.00  0.00    -0.460 OA
BRANCH  80  81
ATOM     81  C   UNL A   1      30.639  26.650  25.825  1.00  0.00     0.340 C 
ATOM     82  O   UNL A   1      29.931  25.786  26.433  1.00  0.00    -0.246 OA
BRANCH  81  83
ATOM     83  C   UNL A   1      31.159  26.358  24.426  1.00  0.00     0.083 A 
ATOM     84  C   UNL A   1      31.017  27.315  23.435  1.00  0.00     0.018 A 
ATOM     85  C   UNL A   1      31.749  25.194  24.182  1.00  0.00     0.053 A 
ATOM     86  C   UNL A   1      31.276  26.831  22.130  1.00  0.00     0.001 A 
ATOM     87  C   UNL A   1      32.099  24.844  22.900  1.00  0.00     0.027 A 
ATOM     88  C   UNL A   1      31.933  25.717  21.862  1.00  0.00     0.002 A 
BRANCH  85  89
ATOM     89  N   UNL A   1      32.031  24.272  25.291  1.00  0.00    -0.355 N 
ATOM     90  H   UNL A   1      31.723  24.489  26.201  1.00  0.00     0.167 HD
BRANCH  89  91
ATOM     91  C   UNL A   1      32.770  23.027  25.043  1.00  0.00     0.040 A 
ATOM     92  C   UNL A   1      31.972  21.912  24.846  1.00  0.00     0.026 A 
ATOM     93  C   UNL A   1      34.087  22.966  24.890  1.00  0.00     0.050 A 
ATOM     94  C   UNL A   1      32.692  20.697  24.771  1.00  0.00     0.004 A 
ATOM     95  C   UNL A   1      34.713  21.759  24.685  1.00  0.00     0.109 A 
ATOM     96  C   UNL A   1      33.990  20.608  24.540  1.00  0.00     0.024 A 
BRANCH  95  97
ATOM     97  S   UNL A   1      36.520  21.693  24.603  1.00  0.00     0.310 S 
ATOM     98  F   UNL A   1      36.743  23.123  25.252  1.00  0.00    -0.094 F 
ATOM     99  F   UNL A   1      36.441  22.417  23.205  1.00  0.00    -0.094 F 
ATOM    100  F   UNL A   1      38.066  21.574  24.485  1.00  0.00    -0.094 F 
ATOM    101  F   UNL A   1      36.594  21.099  26.064  1.00  0.00    -0.094 F 
ATOM    102  F   UNL A   1      34.965  21.910  24.786  1.00  0.00    -0.094 F 
ENDBRANCH  95  97
ENDBRANCH  89  91
ENDBRANCH  85  89
ENDBRANCH  81  83
ENDBRANCH  80  81
ENDBRANCH  79  80
ENDBRANCH  78  79
ENDBRANCH  77  78
ENDBRANCH  76  77
ENDBRANCH  75  76
ENDBRANCH   1  75
TORSDOF 26
ENDMDL
