MODEL 1
REMARK VINA RESULT:     -10.1      0.000      0.000
REMARK SMILES Cc1nn(C)c2c1NC(=O)[C@@H](CCC(=O)OCCOCCOCCOCCOC(=O)c1ccc(-c3c4nc(c(-c5cccc(S(=O)(=O)[O-])c5F)c5ccc([nH]5)c(-c5cccc(S(=O)(=O)[O-])c5F)c5nc(c(-c6cccc(S(=O)(=O)[O-])c6F)c6ccc3[nH]6)C=C5)C=C4)cc1)N2
REMARK SMILES IDX 23 1 22 2 21 3 20 4 19 5 18 6 17 7 16 8 14 9 15 10 13 11
REMARK SMILES IDX 12 12 11 13 1 14 2 15 3 16 7 17 4 18 6 19 8 20 5 21 94 22
REMARK SMILES IDX 9 23 10 26 24 27 25 28 26 29 27 30 28 31 29 32 30 33 31 34
REMARK SMILES IDX 32 35 93 36 33 37 92 38 34 39 35 40 36 41 86 42 37 43 91 44
REMARK SMILES IDX 85 45 87 46 38 47 90 48 84 49 83 50 39 52 71 53 51 54 70 55
REMARK SMILES IDX 52 56 55 57 69 58 88 59 53 60 54 61 68 63 89 64 56 65 40 66
REMARK SMILES IDX 41 67 49 68 42 69 44 70 50 71 43 72 45 73 46 74 47 75 48 76
REMARK SMILES IDX 72 77 73 78 81 79 74 80 76 81 82 82 75 83 77 84 78 85 79 86
REMARK SMILES IDX 80 87 57 88 58 89 66 90 59 91 61 92 67 93 60 94 62 95 63 96
REMARK SMILES IDX 64 97 65 98
REMARK H PARENT 8 24 94 25 87 51 55 62
REMARK Flexibility Score: inf
ROOT
ATOM      1  C   UNL A   1      38.221  19.674  24.963  1.00  0.00     0.188 C 
ENDROOT
BRANCH   1   2
ATOM      2  O   UNL A   1      37.160  20.592  25.188  1.00  0.00    -0.377 OA
BRANCH   2   3
ATOM      3  C   UNL A   1      37.408  21.925  24.779  1.00  0.00     0.188 C 
BRANCH   3   4
ATOM      4  C   UNL A   1      37.192  23.003  25.852  1.00  0.00     0.188 C 
BRANCH   4   5
ATOM      5  O   UNL A   1      36.189  24.012  25.732  1.00  0.00    -0.376 OA
BRANCH   5   6
ATOM      6  C   UNL A   1      34.944  23.705  25.129  1.00  0.00     0.202 C 
BRANCH   6   7
ATOM      7  C   UNL A   1      34.740  24.269  23.716  1.00  0.00     0.261 C 
BRANCH   7   8
ATOM      8  O   UNL A   1      33.377  24.458  23.274  1.00  0.00    -0.463 OA
BRANCH   8   9
ATOM      9  C   UNL A   1      33.145  24.274  21.950  1.00  0.00     0.305 C 
ATOM     10  O   UNL A   1      33.538  23.310  21.299  1.00  0.00    -0.252 OA
BRANCH   9  11
ATOM     11  C   UNL A   1      32.481  25.462  21.277  1.00  0.00     0.125 C 
BRANCH  11  12
ATOM     12  C   UNL A   1      32.264  26.759  22.057  1.00  0.00     0.047 C 
BRANCH  12  13
ATOM     13  C   UNL A   1      30.798  27.025  22.476  1.00  0.00     0.171 C 
ATOM     14  C   UNL A   1      31.824  28.272  27.581  1.00  0.00     0.071 C 
ATOM     15  C   UNL A   1      31.372  27.268  26.590  1.00  0.00     0.085 A 
ATOM     16  N   UNL A   1      31.330  25.961  26.908  1.00  0.00    -0.174 NA
ATOM     17  C   UNL A   1      31.021  27.471  25.244  1.00  0.00     0.107 A 
ATOM     18  N   UNL A   1      30.902  25.357  25.769  1.00  0.00    -0.251 N 
ATOM     19  C   UNL A   1      30.743  26.231  24.733  1.00  0.00     0.149 A 
ATOM     20  N   UNL A   1      30.929  28.591  24.456  1.00  0.00    -0.320 N 
ATOM     21  C   UNL A   1      30.786  23.922  25.743  1.00  0.00     0.176 C 
ATOM     22  N   UNL A   1      30.421  25.965  23.446  1.00  0.00    -0.357 N 
ATOM     23  C   UNL A   1      30.694  28.465  23.104  1.00  0.00     0.247 C 
ATOM     24  H   UNL A   1      31.030  29.484  24.858  1.00  0.00     0.170 HD
ATOM     25  H   UNL A   1      29.972  25.133  23.173  1.00  0.00     0.163 HD
ATOM     26  O   UNL A   1      30.541  29.479  22.422  1.00  0.00    -0.272 OA
ENDBRANCH  12  13
ENDBRANCH  11  12
ENDBRANCH   9  11
ENDBRANCH   8   9
ENDBRANCH   7   8
ENDBRANCH   6   7
ENDBRANCH   5   6
ENDBRANCH   4   5
ENDBRANCH   3   4
ENDBRANCH   2   3
ENDBRANCH   1   2
BRANCH   1  27
ATOM     27  C   UNL A   1      39.509  20.087  25.679  1.00  0.00     0.188 C 
BRANCH  27  28
ATOM     28  O   UNL A   1      40.465  19.025  25.705  1.00  0.00    -0.376 OA
BRANCH  28  29
ATOM     29  C   UNL A   1      41.809  19.381  26.025  1.00  0.00     0.202 C 
BRANCH  29  30
ATOM     30  C   UNL A   1      42.176  20.871  25.910  1.00  0.00     0.261 C 
BRANCH  30  31
ATOM     31  O   UNL A   1      42.514  21.523  27.149  1.00  0.00    -0.460 OA
BRANCH  31  32
ATOM     32  C   UNL A   1      41.499  22.085  27.840  1.00  0.00     0.338 C 
ATOM     33  O   UNL A   1      40.545  21.530  28.346  1.00  0.00    -0.246 OA
BRANCH  32  34
ATOM     34  C   UNL A   1      41.783  23.514  27.989  1.00  0.00     0.060 A 
ATOM     35  C   UNL A   1      40.730  24.421  28.153  1.00  0.00     0.016 A 
ATOM     36  C   UNL A   1      43.093  23.947  27.837  1.00  0.00     0.016 A 
ATOM     37  C   UNL A   1      40.993  25.791  28.136  1.00  0.00     0.010 A 
ATOM     38  C   UNL A   1      43.346  25.312  27.797  1.00  0.00     0.010 A 
ATOM     39  C   UNL A   1      42.303  26.248  27.933  1.00  0.00    -0.014 A 
BRANCH  39  40
ATOM     40  C   UNL A   1      42.552  27.707  27.780  1.00  0.00     0.031 A 
ATOM     41  C   UNL A   1      41.328  28.546  27.645  1.00  0.00     0.074 A 
ATOM     42  C   UNL A   1      43.558  28.291  28.477  1.00  0.00     0.049 A 
ATOM     43  N   UNL A   1      40.645  28.845  28.707  1.00  0.00    -0.248 NA
ATOM     44  C   UNL A   1      40.629  28.846  26.401  1.00  0.00     0.031 C 
ATOM     45  C   UNL A   1      44.170  27.679  29.671  1.00  0.00     0.029 A 
ATOM     46  N   UNL A   1      44.036  29.587  28.482  1.00  0.00    -0.354 N 
ATOM     47  C   UNL A   1      39.378  29.206  28.307  1.00  0.00     0.074 A 
ATOM     48  C   UNL A   1      39.437  29.273  26.862  1.00  0.00     0.031 C 
ATOM     49  C   UNL A   1      44.783  28.640  30.386  1.00  0.00     0.029 A 
ATOM     50  C   UNL A   1      44.756  29.885  29.633  1.00  0.00     0.049 A 
ATOM     51  H   UNL A   1      43.883  30.228  27.751  1.00  0.00     0.167 HD
ATOM     52  C   UNL A   1      38.372  29.369  29.208  1.00  0.00     0.034 A 
ATOM     53  C   UNL A   1      44.982  31.116  30.160  1.00  0.00     0.034 A 
ATOM     54  C   UNL A   1      38.670  29.168  30.620  1.00  0.00     0.049 A 
ATOM     55  C   UNL A   1      43.719  31.387  30.925  1.00  0.00     0.074 A 
ATOM     56  C   UNL A   1      37.980  28.827  31.770  1.00  0.00     0.029 A 
ATOM     57  N   UNL A   1      39.964  29.329  31.041  1.00  0.00    -0.354 N 
ATOM     58  N   UNL A   1      43.440  30.922  32.118  1.00  0.00    -0.248 NA
ATOM     59  C   UNL A   1      42.570  31.970  30.213  1.00  0.00     0.031 C 
ATOM     60  C   UNL A   1      38.863  29.030  32.884  1.00  0.00     0.029 A 
ATOM     61  C   UNL A   1      40.054  29.535  32.391  1.00  0.00     0.049 A 
ATOM     62  H   UNL A   1      40.743  29.300  30.439  1.00  0.00     0.167 HD
ATOM     63  C   UNL A   1      42.051  30.877  32.154  1.00  0.00     0.074 A 
ATOM     64  C   UNL A   1      41.576  31.670  31.041  1.00  0.00     0.031 C 
ATOM     65  C   UNL A   1      41.329  29.986  32.892  1.00  0.00     0.034 A 
BRANCH  52  66
ATOM     66  C   UNL A   1      37.051  29.947  28.843  1.00  0.00     0.023 A 
ATOM     67  C   UNL A   1      36.286  29.174  27.941  1.00  0.00     0.012 A 
ATOM     68  C   UNL A   1      36.603  31.228  29.200  1.00  0.00     0.148 A 
ATOM     69  C   UNL A   1      35.112  29.666  27.382  1.00  0.00     0.002 A 
ATOM     70  C   UNL A   1      35.423  31.718  28.635  1.00  0.00     0.091 A 
ATOM     71  F   UNL A   1      37.348  31.959  30.040  1.00  0.00    -0.205 F 
ATOM     72  C   UNL A   1      34.683  30.941  27.725  1.00  0.00     0.022 A 
BRANCH  70  73
ATOM     73  S   UNL A   1      34.768  33.355  28.984  1.00  0.00     0.127 S 
ATOM     74  O   UNL A   1      34.175  33.169  30.308  1.00  0.00    -0.237 OA
ATOM     75  O   UNL A   1      35.977  34.179  28.967  1.00  0.00    -0.237 OA
ATOM     76  O   UNL A   1      33.826  33.643  27.911  1.00  0.00    -0.744 OA
ENDBRANCH  70  73
ENDBRANCH  52  66
BRANCH  53  77
ATOM     77  C   UNL A   1      45.698  32.079  29.272  1.00  0.00     0.023 A 
ATOM     78  C   UNL A   1      47.029  32.394  29.650  1.00  0.00     0.012 A 
ATOM     79  C   UNL A   1      45.188  32.709  28.127  1.00  0.00     0.148 A 
ATOM     80  C   UNL A   1      47.846  33.217  28.872  1.00  0.00     0.002 A 
ATOM     81  C   UNL A   1      46.026  33.470  27.312  1.00  0.00     0.091 A 
ATOM     82  F   UNL A   1      43.889  32.587  27.836  1.00  0.00    -0.205 F 
ATOM     83  C   UNL A   1      47.353  33.729  27.682  1.00  0.00     0.022 A 
BRANCH  81  84
ATOM     84  S   UNL A   1      45.508  34.080  25.704  1.00  0.00     0.127 S 
ATOM     85  O   UNL A   1      44.588  35.156  26.068  1.00  0.00    -0.237 OA
ATOM     86  O   UNL A   1      46.783  34.522  25.139  1.00  0.00    -0.237 OA
ATOM     87  O   UNL A   1      44.899  32.944  25.026  1.00  0.00    -0.744 OA
ENDBRANCH  81  84
ENDBRANCH  53  77
BRANCH  65  88
ATOM     88  C   UNL A   1      41.951  29.438  34.127  1.00  0.00     0.023 A 
ATOM     89  C   UNL A   1      42.004  30.277  35.260  1.00  0.00     0.012 A 
ATOM     90  C   UNL A   1      42.414  28.115  34.230  1.00  0.00     0.148 A 
ATOM     91  C   UNL A   1      42.514  29.819  36.472  1.00  0.00     0.002 A 
ATOM     92  C   UNL A   1      42.909  27.657  35.448  1.00  0.00     0.091 A 
ATOM     93  F   UNL A   1      42.368  27.327  33.145  1.00  0.00    -0.205 F 
ATOM     94  C   UNL A   1      42.962  28.507  36.566  1.00  0.00     0.022 A 
BRANCH  92  95
ATOM     95  S   UNL A   1      43.484  25.975  35.702  1.00  0.00     0.127 S 
ATOM     96  O   UNL A   1      44.889  26.183  36.058  1.00  0.00    -0.237 OA
ATOM     97  O   UNL A   1      42.637  25.533  36.810  1.00  0.00    -0.237 OA
ATOM     98  O   UNL A   1      43.271  25.274  34.444  1.00  0.00    -0.744 OA
ENDBRANCH  92  95
ENDBRANCH  65  88
ENDBRANCH  39  40
ENDBRANCH  32  34
ENDBRANCH  31  32
ENDBRANCH  30  31
ENDBRANCH  29  30
ENDBRANCH  28  29
ENDBRANCH  27  28
ENDBRANCH   1  27
TORSDOF 25
ENDMDL
MODEL 2
REMARK VINA RESULT:      -9.7      1.181      1.964
REMARK SMILES Cc1nn(C)c2c1NC(=O)[C@@H](CCC(=O)OCCOCCOCCOCCOC(=O)c1ccc(-c3c4nc(c(-c5cccc(S(=O)(=O)[O-])c5F)c5ccc([nH]5)c(-c5cccc(S(=O)(=O)[O-])c5F)c5nc(c(-c6cccc(S(=O)(=O)[O-])c6F)c6ccc3[nH]6)C=C5)C=C4)cc1)N2
REMARK SMILES IDX 23 1 22 2 21 3 20 4 19 5 18 6 17 7 16 8 14 9 15 10 13 11
REMARK SMILES IDX 12 12 11 13 1 14 2 15 3 16 7 17 4 18 6 19 8 20 5 21 94 22
REMARK SMILES IDX 9 23 10 26 24 27 25 28 26 29 27 30 28 31 29 32 30 33 31 34
REMARK SMILES IDX 32 35 93 36 33 37 92 38 34 39 35 40 36 41 86 42 37 43 91 44
REMARK SMILES IDX 85 45 87 46 38 47 90 48 84 49 83 50 39 52 71 53 51 54 70 55
REMARK SMILES IDX 52 56 55 57 69 58 88 59 53 60 54 61 68 63 89 64 56 65 40 66
REMARK SMILES IDX 41 67 49 68 42 69 44 70 50 71 43 72 45 73 46 74 47 75 48 76
REMARK SMILES IDX 72 77 73 78 81 79 74 80 76 81 82 82 75 83 77 84 78 85 79 86
REMARK SMILES IDX 80 87 57 88 58 89 66 90 59 91 61 92 67 93 60 94 62 95 63 96
REMARK SMILES IDX 64 97 65 98
REMARK H PARENT 8 24 94 25 87 51 55 62
REMARK Flexibility Score: inf
ROOT
ATOM      1  C   UNL A   1      38.684  19.278  25.379  1.00  0.00     0.188 C 
ENDROOT
BRANCH   1   2
ATOM      2  O   UNL A   1      37.973  20.276  24.660  1.00  0.00    -0.377 OA
BRANCH   2   3
ATOM      3  C   UNL A   1      37.761  21.493  25.352  1.00  0.00     0.188 C 
BRANCH   3   4
ATOM      4  C   UNL A   1      36.395  22.160  25.125  1.00  0.00     0.188 C 
BRANCH   4   5
ATOM      5  O   UNL A   1      36.262  23.549  24.825  1.00  0.00    -0.376 OA
BRANCH   5   6
ATOM      6  C   UNL A   1      34.996  24.080  24.476  1.00  0.00     0.202 C 
BRANCH   6   7
ATOM      7  C   UNL A   1      34.010  24.252  25.640  1.00  0.00     0.261 C 
BRANCH   7   8
ATOM      8  O   UNL A   1      32.641  24.567  25.301  1.00  0.00    -0.463 OA
BRANCH   8   9
ATOM      9  C   UNL A   1      31.928  25.232  26.244  1.00  0.00     0.305 C 
ATOM     10  O   UNL A   1      31.386  24.705  27.211  1.00  0.00    -0.252 OA
BRANCH   9  11
ATOM     11  C   UNL A   1      31.708  26.700  25.919  1.00  0.00     0.125 C 
BRANCH  11  12
ATOM     12  C   UNL A   1      32.652  27.418  24.953  1.00  0.00     0.047 C 
BRANCH  12  13
ATOM     13  C   UNL A   1      32.442  27.066  23.461  1.00  0.00     0.171 C 
ATOM     14  C   UNL A   1      29.151  31.132  22.318  1.00  0.00     0.071 C 
ATOM     15  C   UNL A   1      29.324  29.697  22.645  1.00  0.00     0.085 A 
ATOM     16  N   UNL A   1      28.281  28.960  23.069  1.00  0.00    -0.174 NA
ATOM     17  C   UNL A   1      30.510  28.943  22.653  1.00  0.00     0.107 A 
ATOM     18  N   UNL A   1      28.813  27.731  23.291  1.00  0.00    -0.251 N 
ATOM     19  C   UNL A   1      30.162  27.692  23.088  1.00  0.00     0.149 A 
ATOM     20  N   UNL A   1      31.812  29.238  22.331  1.00  0.00    -0.320 N 
ATOM     21  C   UNL A   1      27.965  26.687  23.806  1.00  0.00     0.176 C 
ATOM     22  N   UNL A   1      31.020  26.668  23.302  1.00  0.00    -0.357 N 
ATOM     23  C   UNL A   1      32.807  28.318  22.579  1.00  0.00     0.247 C 
ATOM     24  H   UNL A   1      32.033  30.106  21.922  1.00  0.00     0.170 HD
ATOM     25  H   UNL A   1      30.724  25.730  23.349  1.00  0.00     0.163 HD
ATOM     26  O   UNL A   1      33.959  28.564  22.219  1.00  0.00    -0.272 OA
ENDBRANCH  12  13
ENDBRANCH  11  12
ENDBRANCH   9  11
ENDBRANCH   8   9
ENDBRANCH   7   8
ENDBRANCH   6   7
ENDBRANCH   5   6
ENDBRANCH   4   5
ENDBRANCH   3   4
ENDBRANCH   2   3
ENDBRANCH   1   2
BRANCH   1  27
ATOM     27  C   UNL A   1      39.993  19.807  25.969  1.00  0.00     0.188 C 
BRANCH  27  28
ATOM     28  O   UNL A   1      41.081  18.912  25.734  1.00  0.00    -0.376 OA
BRANCH  28  29
ATOM     29  C   UNL A   1      42.371  19.347  26.161  1.00  0.00     0.202 C 
BRANCH  29  30
ATOM     30  C   UNL A   1      42.691  20.841  25.987  1.00  0.00     0.261 C 
BRANCH  30  31
ATOM     31  O   UNL A   1      43.031  21.546  27.195  1.00  0.00    -0.460 OA
BRANCH  31  32
ATOM     32  C   UNL A   1      42.015  22.117  27.877  1.00  0.00     0.338 C 
ATOM     33  O   UNL A   1      41.244  21.582  28.648  1.00  0.00    -0.246 OA
BRANCH  32  34
ATOM     34  C   UNL A   1      42.044  23.558  27.623  1.00  0.00     0.060 A 
ATOM     35  C   UNL A   1      43.079  24.112  26.862  1.00  0.00     0.016 A 
ATOM     36  C   UNL A   1      41.102  24.359  28.255  1.00  0.00     0.016 A 
ATOM     37  C   UNL A   1      43.189  25.499  26.756  1.00  0.00     0.010 A 
ATOM     38  C   UNL A   1      41.231  25.739  28.166  1.00  0.00     0.010 A 
ATOM     39  C   UNL A   1      42.279  26.326  27.429  1.00  0.00    -0.014 A 
BRANCH  39  40
ATOM     40  C   UNL A   1      42.485  27.799  27.422  1.00  0.00     0.031 A 
ATOM     41  C   UNL A   1      41.238  28.610  27.333  1.00  0.00     0.074 A 
ATOM     42  C   UNL A   1      43.454  28.343  28.199  1.00  0.00     0.049 A 
ATOM     43  N   UNL A   1      40.520  28.786  28.399  1.00  0.00    -0.248 NA
ATOM     44  C   UNL A   1      40.560  29.006  26.103  1.00  0.00     0.031 C 
ATOM     45  C   UNL A   1      44.055  27.639  29.345  1.00  0.00     0.029 A 
ATOM     46  N   UNL A   1      43.889  29.647  28.339  1.00  0.00    -0.354 N 
ATOM     47  C   UNL A   1      39.252  29.145  28.000  1.00  0.00     0.074 A 
ATOM     48  C   UNL A   1      39.344  29.351  26.570  1.00  0.00     0.031 C 
ATOM     49  C   UNL A   1      44.619  28.546  30.165  1.00  0.00     0.029 A 
ATOM     50  C   UNL A   1      44.570  29.856  29.532  1.00  0.00     0.049 A 
ATOM     51  H   UNL A   1      43.734  30.350  27.667  1.00  0.00     0.167 HD
ATOM     52  C   UNL A   1      38.219  29.192  28.885  1.00  0.00     0.034 A 
ATOM     53  C   UNL A   1      44.743  31.037  30.178  1.00  0.00     0.034 A 
ATOM     54  C   UNL A   1      38.489  28.867  30.279  1.00  0.00     0.049 A 
ATOM     55  C   UNL A   1      43.453  31.196  30.931  1.00  0.00     0.074 A 
ATOM     56  C   UNL A   1      37.781  28.397  31.372  1.00  0.00     0.029 A 
ATOM     57  N   UNL A   1      39.766  29.025  30.749  1.00  0.00    -0.354 N 
ATOM     58  N   UNL A   1      43.161  30.612  32.067  1.00  0.00    -0.248 NA
ATOM     59  C   UNL A   1      42.305  31.810  30.246  1.00  0.00     0.031 C 
ATOM     60  C   UNL A   1      38.630  28.520  32.524  1.00  0.00     0.029 A 
ATOM     61  C   UNL A   1      39.815  29.105  32.114  1.00  0.00     0.049 A 
ATOM     62  H   UNL A   1      40.560  29.077  30.169  1.00  0.00     0.167 HD
ATOM     63  C   UNL A   1      41.774  30.522  32.060  1.00  0.00     0.074 A 
ATOM     64  C   UNL A   1      41.301  31.403  31.014  1.00  0.00     0.031 C 
ATOM     65  C   UNL A   1      41.062  29.543  32.690  1.00  0.00     0.034 A 
BRANCH  52  66
ATOM     66  C   UNL A   1      36.889  29.762  28.539  1.00  0.00     0.023 A 
ATOM     67  C   UNL A   1      36.050  28.914  27.783  1.00  0.00     0.012 A 
ATOM     68  C   UNL A   1      36.493  31.088  28.773  1.00  0.00     0.148 A 
ATOM     69  C   UNL A   1      34.852  29.373  27.246  1.00  0.00     0.002 A 
ATOM     70  C   UNL A   1      35.289  31.544  28.230  1.00  0.00     0.091 A 
ATOM     71  F   UNL A   1      37.307  31.888  29.474  1.00  0.00    -0.205 F 
ATOM     72  C   UNL A   1      34.475  30.690  27.465  1.00  0.00     0.022 A 
BRANCH  70  73
ATOM     73  S   UNL A   1      34.694  33.229  28.429  1.00  0.00     0.127 S 
ATOM     74  O   UNL A   1      34.883  33.452  29.861  1.00  0.00    -0.237 OA
ATOM     75  O   UNL A   1      35.608  33.980  27.568  1.00  0.00    -0.237 OA
ATOM     76  O   UNL A   1      33.310  33.217  27.974  1.00  0.00    -0.744 OA
ENDBRANCH  70  73
ENDBRANCH  52  66
BRANCH  53  77
ATOM     77  C   UNL A   1      45.449  32.102  29.406  1.00  0.00     0.023 A 
ATOM     78  C   UNL A   1      46.746  32.443  29.870  1.00  0.00     0.012 A 
ATOM     79  C   UNL A   1      44.959  32.800  28.292  1.00  0.00     0.148 A 
ATOM     80  C   UNL A   1      47.555  33.363  29.200  1.00  0.00     0.002 A 
ATOM     81  C   UNL A   1      45.794  33.663  27.582  1.00  0.00     0.091 A 
ATOM     82  F   UNL A   1      43.682  32.644  27.932  1.00  0.00    -0.205 F 
ATOM     83  C   UNL A   1      47.090  33.949  28.033  1.00  0.00     0.022 A 
BRANCH  81  84
ATOM     84  S   UNL A   1      45.317  34.380  26.005  1.00  0.00     0.127 S 
ATOM     85  O   UNL A   1      45.323  33.212  25.125  1.00  0.00    -0.237 OA
ATOM     86  O   UNL A   1      43.990  34.910  26.319  1.00  0.00    -0.237 OA
ATOM     87  O   UNL A   1      46.324  35.389  25.707  1.00  0.00    -0.744 OA
ENDBRANCH  81  84
ENDBRANCH  53  77
BRANCH  65  88
ATOM     88  C   UNL A   1      41.671  28.900  33.884  1.00  0.00     0.023 A 
ATOM     89  C   UNL A   1      41.586  29.587  35.113  1.00  0.00     0.012 A 
ATOM     90  C   UNL A   1      42.255  27.621  33.853  1.00  0.00     0.148 A 
ATOM     91  C   UNL A   1      42.075  29.025  36.289  1.00  0.00     0.002 A 
ATOM     92  C   UNL A   1      42.730  27.057  35.033  1.00  0.00     0.091 A 
ATOM     93  F   UNL A   1      42.340  26.979  32.678  1.00  0.00    -0.205 F 
ATOM     94  C   UNL A   1      42.643  27.757  36.249  1.00  0.00     0.022 A 
BRANCH  92  95
ATOM     95  S   UNL A   1      43.452  25.415  35.114  1.00  0.00     0.127 S 
ATOM     96  O   UNL A   1      44.325  25.408  33.938  1.00  0.00    -0.237 OA
ATOM     97  O   UNL A   1      44.159  25.461  36.393  1.00  0.00    -0.237 OA
ATOM     98  O   UNL A   1      42.341  24.475  35.055  1.00  0.00    -0.744 OA
ENDBRANCH  92  95
ENDBRANCH  65  88
ENDBRANCH  39  40
ENDBRANCH  32  34
ENDBRANCH  31  32
ENDBRANCH  30  31
ENDBRANCH  29  30
ENDBRANCH  28  29
ENDBRANCH  27  28
ENDBRANCH   1  27
TORSDOF 25
ENDMDL
MODEL 3
REMARK VINA RESULT:      -9.4      3.906      6.769
REMARK SMILES Cc1nn(C)c2c1NC(=O)[C@@H](CCC(=O)OCCOCCOCCOCCOC(=O)c1ccc(-c3c4nc(c(-c5cccc(S(=O)(=O)[O-])c5F)c5ccc([nH]5)c(-c5cccc(S(=O)(=O)[O-])c5F)c5nc(c(-c6cccc(S(=O)(=O)[O-])c6F)c6ccc3[nH]6)C=C5)C=C4)cc1)N2
REMARK SMILES IDX 23 1 22 2 21 3 20 4 19 5 18 6 17 7 16 8 14 9 15 10 13 11
REMARK SMILES IDX 12 12 11 13 1 14 2 15 3 16 7 17 4 18 6 19 8 20 5 21 94 22
REMARK SMILES IDX 9 23 10 26 24 27 25 28 26 29 27 30 28 31 29 32 30 33 31 34
REMARK SMILES IDX 32 35 93 36 33 37 92 38 34 39 35 40 36 41 86 42 37 43 91 44
REMARK SMILES IDX 85 45 87 46 38 47 90 48 84 49 83 50 39 52 71 53 51 54 70 55
REMARK SMILES IDX 52 56 55 57 69 58 88 59 53 60 54 61 68 63 89 64 56 65 40 66
REMARK SMILES IDX 41 67 49 68 42 69 44 70 50 71 43 72 45 73 46 74 47 75 48 76
REMARK SMILES IDX 72 77 73 78 81 79 74 80 76 81 82 82 75 83 77 84 78 85 79 86
REMARK SMILES IDX 80 87 57 88 58 89 66 90 59 91 61 92 67 93 60 94 62 95 63 96
REMARK SMILES IDX 64 97 65 98
REMARK H PARENT 8 24 94 25 87 51 55 62
REMARK Flexibility Score: inf
ROOT
ATOM      1  C   UNL A   1      40.330  20.656  26.299  1.00  0.00     0.188 C 
ENDROOT
BRANCH   1   2
ATOM      2  O   UNL A   1      40.381  22.074  26.372  1.00  0.00    -0.377 OA
BRANCH   2   3
ATOM      3  C   UNL A   1      39.128  22.726  26.471  1.00  0.00     0.188 C 
BRANCH   3   4
ATOM      4  C   UNL A   1      37.973  22.076  25.694  1.00  0.00     0.188 C 
BRANCH   4   5
ATOM      5  O   UNL A   1      36.794  22.794  25.330  1.00  0.00    -0.376 OA
BRANCH   5   6
ATOM      6  C   UNL A   1      35.791  22.164  24.556  1.00  0.00     0.202 C 
BRANCH   6   7
ATOM      7  C   UNL A   1      34.918  21.150  25.308  1.00  0.00     0.261 C 
BRANCH   7   8
ATOM      8  O   UNL A   1      34.271  20.126  24.520  1.00  0.00    -0.463 OA
BRANCH   8   9
ATOM      9  C   UNL A   1      32.914  20.140  24.515  1.00  0.00     0.305 C 
ATOM     10  O   UNL A   1      32.207  19.618  25.372  1.00  0.00    -0.252 OA
BRANCH   9  11
ATOM     11  C   UNL A   1      32.315  20.729  23.249  1.00  0.00     0.125 C 
BRANCH  11  12
ATOM     12  C   UNL A   1      31.953  22.214  23.196  1.00  0.00     0.047 C 
BRANCH  12  13
ATOM     13  C   UNL A   1      32.268  23.004  24.488  1.00  0.00     0.171 C 
ATOM     14  C   UNL A   1      28.755  26.963  23.672  1.00  0.00     0.071 C 
ATOM     15  C   UNL A   1      30.155  26.480  23.611  1.00  0.00     0.085 A 
ATOM     16  N   UNL A   1      31.073  27.129  22.871  1.00  0.00    -0.174 NA
ATOM     17  C   UNL A   1      30.702  25.322  24.189  1.00  0.00     0.107 A 
ATOM     18  N   UNL A   1      32.206  26.398  23.033  1.00  0.00    -0.251 N 
ATOM     19  C   UNL A   1      32.012  25.280  23.790  1.00  0.00     0.149 A 
ATOM     20  N   UNL A   1      30.183  24.340  24.997  1.00  0.00    -0.320 N 
ATOM     21  C   UNL A   1      33.397  26.794  22.328  1.00  0.00     0.176 C 
ATOM     22  N   UNL A   1      32.888  24.289  24.075  1.00  0.00    -0.357 N 
ATOM     23  C   UNL A   1      30.935  23.225  25.297  1.00  0.00     0.247 C 
ATOM     24  H   UNL A   1      29.273  24.434  25.361  1.00  0.00     0.170 HD
ATOM     25  H   UNL A   1      33.863  24.410  24.012  1.00  0.00     0.163 HD
ATOM     26  O   UNL A   1      30.486  22.388  26.080  1.00  0.00    -0.272 OA
ENDBRANCH  12  13
ENDBRANCH  11  12
ENDBRANCH   9  11
ENDBRANCH   8   9
ENDBRANCH   7   8
ENDBRANCH   6   7
ENDBRANCH   5   6
ENDBRANCH   4   5
ENDBRANCH   3   4
ENDBRANCH   2   3
ENDBRANCH   1   2
BRANCH   1  27
ATOM     27  C   UNL A   1      41.691  20.010  26.568  1.00  0.00     0.188 C 
BRANCH  27  28
ATOM     28  O   UNL A   1      42.218  19.378  25.401  1.00  0.00    -0.376 OA
BRANCH  28  29
ATOM     29  C   UNL A   1      43.600  19.024  25.433  1.00  0.00     0.202 C 
BRANCH  29  30
ATOM     30  C   UNL A   1      44.547  19.845  24.541  1.00  0.00     0.261 C 
BRANCH  30  31
ATOM     31  O   UNL A   1      44.350  21.271  24.577  1.00  0.00    -0.460 OA
BRANCH  31  32
ATOM     32  C   UNL A   1      45.423  22.028  24.889  1.00  0.00     0.338 C 
ATOM     33  O   UNL A   1      46.592  21.795  24.656  1.00  0.00    -0.246 OA
BRANCH  32  34
ATOM     34  C   UNL A   1      44.946  23.279  25.480  1.00  0.00     0.060 A 
ATOM     35  C   UNL A   1      44.172  24.161  24.717  1.00  0.00     0.016 A 
ATOM     36  C   UNL A   1      45.383  23.618  26.754  1.00  0.00     0.016 A 
ATOM     37  C   UNL A   1      43.853  25.418  25.231  1.00  0.00     0.010 A 
ATOM     38  C   UNL A   1      45.082  24.879  27.250  1.00  0.00     0.010 A 
ATOM     39  C   UNL A   1      44.328  25.798  26.494  1.00  0.00    -0.014 A 
BRANCH  39  40
ATOM     40  C   UNL A   1      44.099  27.187  26.975  1.00  0.00     0.031 A 
ATOM     41  C   UNL A   1      43.702  27.302  28.407  1.00  0.00     0.074 A 
ATOM     42  C   UNL A   1      44.898  28.189  26.533  1.00  0.00     0.049 A 
ATOM     43  N   UNL A   1      44.613  27.209  29.326  1.00  0.00    -0.248 NA
ATOM     44  C   UNL A   1      42.341  27.223  28.927  1.00  0.00     0.031 C 
ATOM     45  C   UNL A   1      46.220  27.954  25.924  1.00  0.00     0.029 A 
ATOM     46  N   UNL A   1      44.874  29.550  26.767  1.00  0.00    -0.354 N 
ATOM     47  C   UNL A   1      43.987  26.890  30.511  1.00  0.00     0.074 A 
ATOM     48  C   UNL A   1      42.569  26.991  30.235  1.00  0.00     0.031 C 
ATOM     49  C   UNL A   1      46.943  29.086  26.006  1.00  0.00     0.029 A 
ATOM     50  C   UNL A   1      46.096  30.158  26.509  1.00  0.00     0.049 A 
ATOM     51  H   UNL A   1      44.078  30.036  27.083  1.00  0.00     0.167 HD
ATOM     52  C   UNL A   1      44.700  26.519  31.609  1.00  0.00     0.034 A 
ATOM     53  C   UNL A   1      46.550  31.331  27.019  1.00  0.00     0.034 A 
ATOM     54  C   UNL A   1      46.152  26.481  31.509  1.00  0.00     0.049 A 
ATOM     55  C   UNL A   1      47.079  30.926  28.365  1.00  0.00     0.074 A 
ATOM     56  C   UNL A   1      47.201  25.829  32.134  1.00  0.00     0.029 A 
ATOM     57  N   UNL A   1      46.761  27.264  30.563  1.00  0.00    -0.354 N 
ATOM     58  N   UNL A   1      48.247  30.373  28.586  1.00  0.00    -0.248 NA
ATOM     59  C   UNL A   1      46.148  30.862  29.502  1.00  0.00     0.031 C 
ATOM     60  C   UNL A   1      48.421  26.436  31.683  1.00  0.00     0.029 A 
ATOM     61  C   UNL A   1      48.087  27.474  30.831  1.00  0.00     0.049 A 
ATOM     62  H   UNL A   1      46.296  27.634  29.779  1.00  0.00     0.167 HD
ATOM     63  C   UNL A   1      48.063  29.638  29.751  1.00  0.00     0.074 A 
ATOM     64  C   UNL A   1      46.827  30.097  30.348  1.00  0.00     0.031 C 
ATOM     65  C   UNL A   1      48.746  28.497  30.058  1.00  0.00     0.034 A 
BRANCH  52  66
ATOM     66  C   UNL A   1      44.081  26.361  32.953  1.00  0.00     0.023 A 
ATOM     67  C   UNL A   1      44.069  25.042  33.457  1.00  0.00     0.012 A 
ATOM     68  C   UNL A   1      43.400  27.370  33.652  1.00  0.00     0.148 A 
ATOM     69  C   UNL A   1      43.376  24.718  34.618  1.00  0.00     0.002 A 
ATOM     70  C   UNL A   1      42.706  27.038  34.817  1.00  0.00     0.091 A 
ATOM     71  F   UNL A   1      43.403  28.612  33.152  1.00  0.00    -0.205 F 
ATOM     72  C   UNL A   1      42.690  25.716  35.296  1.00  0.00     0.022 A 
BRANCH  70  73
ATOM     73  S   UNL A   1      41.767  28.233  35.779  1.00  0.00     0.127 S 
ATOM     74  O   UNL A   1      40.881  28.808  34.768  1.00  0.00    -0.237 OA
ATOM     75  O   UNL A   1      41.098  27.378  36.760  1.00  0.00    -0.237 OA
ATOM     76  O   UNL A   1      42.749  29.147  36.345  1.00  0.00    -0.744 OA
ENDBRANCH  70  73
ENDBRANCH  52  66
BRANCH  53  77
ATOM     77  C   UNL A   1      45.713  32.532  26.727  1.00  0.00     0.023 A 
ATOM     78  C   UNL A   1      44.758  32.380  25.689  1.00  0.00     0.012 A 
ATOM     79  C   UNL A   1      45.787  33.784  27.356  1.00  0.00     0.148 A 
ATOM     80  C   UNL A   1      43.852  33.391  25.360  1.00  0.00     0.002 A 
ATOM     81  C   UNL A   1      44.836  34.766  27.079  1.00  0.00     0.091 A 
ATOM     82  F   UNL A   1      46.787  34.030  28.207  1.00  0.00    -0.205 F 
ATOM     83  C   UNL A   1      43.870  34.575  26.081  1.00  0.00     0.022 A 
BRANCH  81  84
ATOM     84  S   UNL A   1      44.714  36.282  28.035  1.00  0.00     0.127 S 
ATOM     85  O   UNL A   1      43.569  36.943  27.412  1.00  0.00    -0.237 OA
ATOM     86  O   UNL A   1      44.470  35.757  29.378  1.00  0.00    -0.237 OA
ATOM     87  O   UNL A   1      45.991  36.961  27.866  1.00  0.00    -0.744 OA
ENDBRANCH  81  84
ENDBRANCH  53  77
BRANCH  65  88
ATOM     88  C   UNL A   1      50.105  28.323  29.480  1.00  0.00     0.023 A 
ATOM     89  C   UNL A   1      51.196  28.847  30.204  1.00  0.00     0.012 A 
ATOM     90  C   UNL A   1      50.348  27.606  28.296  1.00  0.00     0.148 A 
ATOM     91  C   UNL A   1      52.505  28.671  29.763  1.00  0.00     0.002 A 
ATOM     92  C   UNL A   1      51.659  27.420  27.866  1.00  0.00     0.091 A 
ATOM     93  F   UNL A   1      49.304  27.119  27.609  1.00  0.00    -0.205 F 
ATOM     94  C   UNL A   1      52.736  27.953  28.596  1.00  0.00     0.022 A 
BRANCH  92  95
ATOM     95  S   UNL A   1      52.085  26.483  26.395  1.00  0.00     0.127 S 
ATOM     96  O   UNL A   1      51.657  25.131  26.760  1.00  0.00    -0.237 OA
ATOM     97  O   UNL A   1      51.254  27.128  25.378  1.00  0.00    -0.237 OA
ATOM     98  O   UNL A   1      53.520  26.640  26.209  1.00  0.00    -0.744 OA
ENDBRANCH  92  95
ENDBRANCH  65  88
ENDBRANCH  39  40
ENDBRANCH  32  34
ENDBRANCH  31  32
ENDBRANCH  30  31
ENDBRANCH  29  30
ENDBRANCH  28  29
ENDBRANCH  27  28
ENDBRANCH   1  27
TORSDOF 25
ENDMDL
