MODEL 1
REMARK VINA RESULT:      -7.7      0.000      0.000
REMARK SMILES CCC(CC)(NC(=O)CS[C@H]1CCS(=O)(=O)C1)C(=O)OCCOCCOCCOCCOC(=O)c1ccc(-c2c3nc(c(-c4cccc(S(=O)(=O)[O-])c4F)c4ccc([nH]4)c(-c4cccc(S(=O)(=O)[O-])c4F)c4nc(c(-c5cccc(S(=O)(=O)[O-])c5F)c5ccc2[nH]5)C=C4)C=C3)cc1
REMARK SMILES IDX 25 1 24 2 23 3 22 4 21 5 20 6 18 7 19 8 3 9 2 10 1 11 4 12
REMARK SMILES IDX 5 13 6 14 7 15 8 17 9 18 10 19 11 20 12 21 17 22 13 23 14 24
REMARK SMILES IDX 15 25 16 26 26 27 27 28 28 29 29 30 30 31 31 32 32 33 33 34
REMARK SMILES IDX 34 35 35 36 36 37 97 38 37 39 96 40 38 41 39 42 40 43 90 44
REMARK SMILES IDX 41 45 95 46 89 47 91 48 42 49 94 50 88 51 87 52 43 54 75 55
REMARK SMILES IDX 55 56 74 57 56 58 59 59 73 60 92 61 57 62 58 63 72 65 93 66
REMARK SMILES IDX 60 67 44 68 45 69 53 70 46 71 48 72 54 73 47 74 49 75 50 76
REMARK SMILES IDX 51 77 52 78 76 79 77 80 85 81 78 82 80 83 86 84 79 85 81 86
REMARK SMILES IDX 82 87 83 88 84 89 61 90 62 91 70 92 63 93 65 94 71 95 64 96
REMARK SMILES IDX 66 97 67 98 68 99 69 100
REMARK H PARENT 6 16 91 53 59 64
REMARK Flexibility Score: inf
ROOT
ATOM      1  C   UNL A   1      43.165  22.657  25.592  1.00  0.00     0.188 C 
ENDROOT
BRANCH   1   2
ATOM      2  C   UNL A   1      42.220  23.756  26.489  1.00  0.00     0.188 C 
BRANCH   2   3
ATOM      3  O   UNL A   1      42.181  25.113  27.089  1.00  0.00    -0.376 OA
BRANCH   3   4
ATOM      4  C   UNL A   1      41.856  25.929  28.246  1.00  0.00     0.202 C 
BRANCH   4   5
ATOM      5  C   UNL A   1      41.634  27.470  28.177  1.00  0.00     0.261 C 
BRANCH   5   6
ATOM      6  O   UNL A   1      41.072  27.962  29.367  1.00  0.00    -0.461 OA
BRANCH   6   7
ATOM      7  C   UNL A   1      39.905  28.604  29.129  1.00  0.00     0.331 C 
ATOM      8  O   UNL A   1      39.228  28.432  28.122  1.00  0.00    -0.249 OA
BRANCH   7   9
ATOM      9  C   UNL A   1      39.530  29.484  30.328  1.00  0.00     0.137 C 
BRANCH   9  10
ATOM     10  C   UNL A   1      40.218  30.937  30.231  1.00  0.00     0.037 C 
ATOM     11  C   UNL A   1      39.341  32.189  30.375  1.00  0.00     0.007 C 
ENDBRANCH   9  10
BRANCH   9  12
ATOM     12  C   UNL A   1      40.188  28.745  31.565  1.00  0.00     0.037 C 
ATOM     13  C   UNL A   1      39.330  28.522  32.820  1.00  0.00     0.007 C 
ENDBRANCH   9  12
BRANCH   9  14
ATOM     14  N   UNL A   1      37.908  29.397  30.480  1.00  0.00    -0.340 N 
ATOM     15  C   UNL A   1      36.676  29.911  30.012  1.00  0.00     0.230 C 
ATOM     16  H   UNL A   1      37.709  28.721  31.168  1.00  0.00     0.164 HD
ATOM     17  O   UNL A   1      35.740  29.328  30.609  1.00  0.00    -0.274 OA
BRANCH  15  18
ATOM     18  C   UNL A   1      36.204  30.930  28.707  1.00  0.00     0.169 C 
BRANCH  18  19
ATOM     19  S   UNL A   1      35.955  33.104  28.344  1.00  0.00    -0.148 SA
BRANCH  19  20
ATOM     20  C   UNL A   1      34.707  34.289  29.620  1.00  0.00     0.063 C 
ATOM     21  C   UNL A   1      33.317  34.717  29.092  1.00  0.00     0.031 C 
ATOM     22  C   UNL A   1      34.307  33.928  31.111  1.00  0.00     0.151 C 
ATOM     23  C   UNL A   1      32.897  35.872  30.054  1.00  0.00     0.138 C 
ATOM     24  S   UNL A   1      33.447  35.384  31.680  1.00  0.00     0.151 S 
ATOM     25  O   UNL A   1      34.414  36.323  32.168  1.00  0.00    -0.229 OA
ATOM     26  O   UNL A   1      32.302  34.972  32.493  1.00  0.00    -0.229 OA
ENDBRANCH  19  20
ENDBRANCH  18  19
ENDBRANCH  15  18
ENDBRANCH   9  14
ENDBRANCH   7   9
ENDBRANCH   6   7
ENDBRANCH   5   6
ENDBRANCH   4   5
ENDBRANCH   3   4
ENDBRANCH   2   3
ENDBRANCH   1   2
BRANCH   1  27
ATOM     27  O   UNL A   1      44.317  22.001  26.079  1.00  0.00    -0.377 OA
BRANCH  27  28
ATOM     28  C   UNL A   1      45.596  22.004  25.417  1.00  0.00     0.188 C 
BRANCH  28  29
ATOM     29  C   UNL A   1      45.904  22.561  24.001  1.00  0.00     0.188 C 
BRANCH  29  30
ATOM     30  O   UNL A   1      46.786  23.664  23.875  1.00  0.00    -0.376 OA
BRANCH  30  31
ATOM     31  C   UNL A   1      46.539  24.773  24.727  1.00  0.00     0.202 C 
BRANCH  31  32
ATOM     32  C   UNL A   1      47.706  25.269  25.598  1.00  0.00     0.261 C 
BRANCH  32  33
ATOM     33  O   UNL A   1      48.287  26.503  25.123  1.00  0.00    -0.460 OA
BRANCH  33  34
ATOM     34  C   UNL A   1      47.459  27.574  25.046  1.00  0.00     0.338 C 
ATOM     35  O   UNL A   1      47.181  28.196  24.033  1.00  0.00    -0.246 OA
BRANCH  34  36
ATOM     36  C   UNL A   1      46.792  27.835  26.347  1.00  0.00     0.060 A 
ATOM     37  C   UNL A   1      45.392  27.744  26.398  1.00  0.00     0.016 A 
ATOM     38  C   UNL A   1      47.499  28.262  27.475  1.00  0.00     0.016 A 
ATOM     39  C   UNL A   1      44.696  28.157  27.540  1.00  0.00     0.010 A 
ATOM     40  C   UNL A   1      46.798  28.682  28.617  1.00  0.00     0.010 A 
ATOM     41  C   UNL A   1      45.393  28.683  28.636  1.00  0.00    -0.014 A 
BRANCH  41  42
ATOM     42  C   UNL A   1      44.653  29.426  29.695  1.00  0.00     0.031 A 
ATOM     43  C   UNL A   1      44.249  28.685  30.947  1.00  0.00     0.074 A 
ATOM     44  C   UNL A   1      44.347  30.731  29.571  1.00  0.00     0.049 A 
ATOM     45  N   UNL A   1      43.591  29.114  31.993  1.00  0.00    -0.248 NA
ATOM     46  C   UNL A   1      44.640  27.267  31.026  1.00  0.00     0.031 C 
ATOM     47  C   UNL A   1      44.669  31.572  28.422  1.00  0.00     0.029 A 
ATOM     48  N   UNL A   1      43.667  31.571  30.423  1.00  0.00    -0.354 N 
ATOM     49  C   UNL A   1      43.476  28.020  32.846  1.00  0.00     0.074 A 
ATOM     50  C   UNL A   1      44.116  26.903  32.187  1.00  0.00     0.031 C 
ATOM     51  C   UNL A   1      44.157  32.800  28.623  1.00  0.00     0.029 A 
ATOM     52  C   UNL A   1      43.460  32.830  29.909  1.00  0.00     0.049 A 
ATOM     53  H   UNL A   1      43.358  31.296  31.317  1.00  0.00     0.167 HD
ATOM     54  C   UNL A   1      42.911  27.951  34.074  1.00  0.00     0.034 A 
ATOM     55  C   UNL A   1      42.772  33.878  30.410  1.00  0.00     0.034 A 
ATOM     56  C   UNL A   1      42.284  29.057  34.747  1.00  0.00     0.049 A 
ATOM     57  C   UNL A   1      42.132  33.768  31.773  1.00  0.00     0.074 A 
ATOM     58  C   UNL A   1      41.707  29.084  36.005  1.00  0.00     0.029 A 
ATOM     59  N   UNL A   1      42.144  30.329  34.217  1.00  0.00    -0.354 N 
ATOM     60  N   UNL A   1      42.143  32.764  32.617  1.00  0.00    -0.248 NA
ATOM     61  C   UNL A   1      41.414  34.954  32.270  1.00  0.00     0.031 C 
ATOM     62  C   UNL A   1      41.205  30.370  36.230  1.00  0.00     0.029 A 
ATOM     63  C   UNL A   1      41.487  31.148  35.120  1.00  0.00     0.049 A 
ATOM     64  H   UNL A   1      42.463  30.609  33.329  1.00  0.00     0.167 HD
ATOM     65  C   UNL A   1      41.465  33.207  33.750  1.00  0.00     0.074 A 
ATOM     66  C   UNL A   1      41.083  34.580  33.499  1.00  0.00     0.031 C 
ATOM     67  C   UNL A   1      41.164  32.531  34.887  1.00  0.00     0.034 A 
BRANCH  54  68
ATOM     68  C   UNL A   1      42.987  26.635  34.803  1.00  0.00     0.023 A 
ATOM     69  C   UNL A   1      41.874  25.771  34.780  1.00  0.00     0.012 A 
ATOM     70  C   UNL A   1      44.169  26.225  35.448  1.00  0.00     0.148 A 
ATOM     71  C   UNL A   1      41.927  24.528  35.407  1.00  0.00     0.002 A 
ATOM     72  C   UNL A   1      44.228  24.968  36.039  1.00  0.00     0.091 A 
ATOM     73  F   UNL A   1      45.209  27.071  35.476  1.00  0.00    -0.205 F 
ATOM     74  C   UNL A   1      43.105  24.123  36.027  1.00  0.00     0.022 A 
BRANCH  72  75
ATOM     75  S   UNL A   1      45.720  24.323  36.804  1.00  0.00     0.127 S 
ATOM     76  O   UNL A   1      45.503  24.666  38.208  1.00  0.00    -0.237 OA
ATOM     77  O   UNL A   1      45.624  22.894  36.504  1.00  0.00    -0.237 OA
ATOM     78  O   UNL A   1      46.832  25.006  36.160  1.00  0.00    -0.744 OA
ENDBRANCH  72  75
ENDBRANCH  54  68
BRANCH  55  79
ATOM     79  C   UNL A   1      42.668  35.149  29.634  1.00  0.00     0.023 A 
ATOM     80  C   UNL A   1      41.704  35.265  28.613  1.00  0.00     0.012 A 
ATOM     81  C   UNL A   1      43.531  36.233  29.886  1.00  0.00     0.148 A 
ATOM     82  C   UNL A   1      41.626  36.422  27.836  1.00  0.00     0.002 A 
ATOM     83  C   UNL A   1      43.409  37.404  29.147  1.00  0.00     0.091 A 
ATOM     84  F   UNL A   1      44.464  36.096  30.840  1.00  0.00    -0.205 F 
ATOM     85  C   UNL A   1      42.470  37.494  28.109  1.00  0.00     0.022 A 
BRANCH  83  86
ATOM     86  S   UNL A   1      44.369  38.876  29.523  1.00  0.00     0.127 S 
ATOM     87  O   UNL A   1      43.841  39.834  28.556  1.00  0.00    -0.237 OA
ATOM     88  O   UNL A   1      43.998  39.136  30.915  1.00  0.00    -0.237 OA
ATOM     89  O   UNL A   1      45.761  38.486  29.340  1.00  0.00    -0.744 OA
ENDBRANCH  83  86
ENDBRANCH  55  79
BRANCH  67  90
ATOM     90  C   UNL A   1      40.408  33.269  35.965  1.00  0.00     0.023 A 
ATOM     91  C   UNL A   1      39.004  33.170  36.022  1.00  0.00     0.012 A 
ATOM     92  C   UNL A   1      41.088  34.006  36.953  1.00  0.00     0.148 A 
ATOM     93  C   UNL A   1      38.286  33.825  37.022  1.00  0.00     0.002 A 
ATOM     94  C   UNL A   1      40.370  34.619  37.975  1.00  0.00     0.091 A 
ATOM     95  F   UNL A   1      42.424  34.106  36.876  1.00  0.00    -0.205 F 
ATOM     96  C   UNL A   1      38.968  34.540  38.004  1.00  0.00     0.022 A 
BRANCH  94  97
ATOM     97  S   UNL A   1      41.177  35.485  39.327  1.00  0.00     0.127 S 
ATOM     98  O   UNL A   1      40.045  35.818  40.189  1.00  0.00    -0.237 OA
ATOM     99  O   UNL A   1      42.072  34.459  39.867  1.00  0.00    -0.237 OA
ATOM    100  O   UNL A   1      41.863  36.617  38.718  1.00  0.00    -0.744 OA
ENDBRANCH  94  97
ENDBRANCH  67  90
ENDBRANCH  41  42
ENDBRANCH  34  36
ENDBRANCH  33  34
ENDBRANCH  32  33
ENDBRANCH  31  32
ENDBRANCH  30  31
ENDBRANCH  29  30
ENDBRANCH  28  29
ENDBRANCH  27  28
ENDBRANCH   1  27
TORSDOF 29
ENDMDL
MODEL 2
REMARK VINA RESULT:      -7.3      2.037      2.835
REMARK SMILES CCC(CC)(NC(=O)CS[C@H]1CCS(=O)(=O)C1)C(=O)OCCOCCOCCOCCOC(=O)c1ccc(-c2c3nc(c(-c4cccc(S(=O)(=O)[O-])c4F)c4ccc([nH]4)c(-c4cccc(S(=O)(=O)[O-])c4F)c4nc(c(-c5cccc(S(=O)(=O)[O-])c5F)c5ccc2[nH]5)C=C4)C=C3)cc1
REMARK SMILES IDX 25 1 24 2 23 3 22 4 21 5 20 6 18 7 19 8 3 9 2 10 1 11 4 12
REMARK SMILES IDX 5 13 6 14 7 15 8 17 9 18 10 19 11 20 12 21 17 22 13 23 14 24
REMARK SMILES IDX 15 25 16 26 26 27 27 28 28 29 29 30 30 31 31 32 32 33 33 34
REMARK SMILES IDX 34 35 35 36 36 37 97 38 37 39 96 40 38 41 39 42 40 43 90 44
REMARK SMILES IDX 41 45 95 46 89 47 91 48 42 49 94 50 88 51 87 52 43 54 75 55
REMARK SMILES IDX 55 56 74 57 56 58 59 59 73 60 92 61 57 62 58 63 72 65 93 66
REMARK SMILES IDX 60 67 44 68 45 69 53 70 46 71 48 72 54 73 47 74 49 75 50 76
REMARK SMILES IDX 51 77 52 78 76 79 77 80 85 81 78 82 80 83 86 84 79 85 81 86
REMARK SMILES IDX 82 87 83 88 84 89 61 90 62 91 70 92 63 93 65 94 71 95 64 96
REMARK SMILES IDX 66 97 67 98 68 99 69 100
REMARK H PARENT 6 16 91 53 59 64
REMARK Flexibility Score: inf
ROOT
ATOM      1  C   UNL A   1      42.860  23.156  26.445  1.00  0.00     0.188 C 
ENDROOT
BRANCH   1   2
ATOM      2  C   UNL A   1      42.044  24.435  27.220  1.00  0.00     0.188 C 
BRANCH   2   3
ATOM      3  O   UNL A   1      42.177  25.814  27.751  1.00  0.00    -0.376 OA
BRANCH   3   4
ATOM      4  C   UNL A   1      41.682  26.825  28.670  1.00  0.00     0.202 C 
BRANCH   4   5
ATOM      5  C   UNL A   1      41.640  28.346  28.336  1.00  0.00     0.261 C 
BRANCH   5   6
ATOM      6  O   UNL A   1      41.143  29.095  29.414  1.00  0.00    -0.461 OA
BRANCH   6   7
ATOM      7  C   UNL A   1      39.938  29.638  29.121  1.00  0.00     0.331 C 
ATOM      8  O   UNL A   1      39.339  29.433  28.072  1.00  0.00    -0.249 OA
BRANCH   7   9
ATOM      9  C   UNL A   1      39.418  30.450  30.313  1.00  0.00     0.137 C 
BRANCH   9  10
ATOM     10  C   UNL A   1      39.771  32.015  30.160  1.00  0.00     0.037 C 
ATOM     11  C   UNL A   1      39.209  33.010  31.185  1.00  0.00     0.007 C 
ENDBRANCH   9  10
BRANCH   9  12
ATOM     12  C   UNL A   1      40.258  29.907  31.542  1.00  0.00     0.037 C 
ATOM     13  C   UNL A   1      39.508  29.545  32.832  1.00  0.00     0.007 C 
ENDBRANCH   9  12
BRANCH   9  14
ATOM     14  N   UNL A   1      37.859  30.019  30.526  1.00  0.00    -0.340 N 
ATOM     15  C   UNL A   1      36.516  30.392  30.285  1.00  0.00     0.230 C 
ATOM     16  H   UNL A   1      37.850  29.163  31.012  1.00  0.00     0.164 HD
ATOM     17  O   UNL A   1      35.759  29.507  30.751  1.00  0.00    -0.274 OA
BRANCH  15  18
ATOM     18  C   UNL A   1      35.744  31.604  29.336  1.00  0.00     0.169 C 
BRANCH  18  19
ATOM     19  S   UNL A   1      33.989  31.746  27.987  1.00  0.00    -0.148 SA
BRANCH  19  20
ATOM     20  C   UNL A   1      33.121  29.982  27.135  1.00  0.00     0.063 C 
ATOM     21  C   UNL A   1      32.627  30.043  25.670  1.00  0.00     0.031 C 
ATOM     22  C   UNL A   1      33.789  28.545  27.113  1.00  0.00     0.151 C 
ATOM     23  C   UNL A   1      31.703  28.792  25.539  1.00  0.00     0.138 C 
ATOM     24  S   UNL A   1      32.502  27.492  26.466  1.00  0.00     0.151 S 
ATOM     25  O   UNL A   1      31.661  27.082  27.552  1.00  0.00    -0.229 OA
ATOM     26  O   UNL A   1      33.099  26.519  25.551  1.00  0.00    -0.229 OA
ENDBRANCH  19  20
ENDBRANCH  18  19
ENDBRANCH  15  18
ENDBRANCH   9  14
ENDBRANCH   7   9
ENDBRANCH   6   7
ENDBRANCH   5   6
ENDBRANCH   4   5
ENDBRANCH   3   4
ENDBRANCH   2   3
ENDBRANCH   1   2
BRANCH   1  27
ATOM     27  O   UNL A   1      44.086  22.603  26.877  1.00  0.00    -0.377 OA
BRANCH  27  28
ATOM     28  C   UNL A   1      45.188  22.285  26.006  1.00  0.00     0.188 C 
BRANCH  28  29
ATOM     29  C   UNL A   1      45.195  22.369  24.455  1.00  0.00     0.188 C 
BRANCH  29  30
ATOM     30  O   UNL A   1      46.049  23.310  23.824  1.00  0.00    -0.376 OA
BRANCH  30  31
ATOM     31  C   UNL A   1      46.231  24.549  24.494  1.00  0.00     0.202 C 
BRANCH  31  32
ATOM     32  C   UNL A   1      47.658  24.910  24.937  1.00  0.00     0.261 C 
BRANCH  32  33
ATOM     33  O   UNL A   1      48.150  26.130  24.341  1.00  0.00    -0.460 OA
BRANCH  33  34
ATOM     34  C   UNL A   1      47.331  27.208  24.402  1.00  0.00     0.338 C 
ATOM     35  O   UNL A   1      46.965  27.890  23.457  1.00  0.00    -0.246 OA
BRANCH  34  36
ATOM     36  C   UNL A   1      46.792  27.399  25.774  1.00  0.00     0.060 A 
ATOM     37  C   UNL A   1      45.401  27.340  25.949  1.00  0.00     0.016 A 
ATOM     38  C   UNL A   1      47.612  27.733  26.856  1.00  0.00     0.016 A 
ATOM     39  C   UNL A   1      44.824  27.693  27.173  1.00  0.00     0.010 A 
ATOM     40  C   UNL A   1      47.031  28.093  28.082  1.00  0.00     0.010 A 
ATOM     41  C   UNL A   1      45.633  28.128  28.232  1.00  0.00    -0.014 A 
BRANCH  41  42
ATOM     42  C   UNL A   1      45.016  28.817  29.400  1.00  0.00     0.031 A 
ATOM     43  C   UNL A   1      44.732  28.012  30.645  1.00  0.00     0.074 A 
ATOM     44  C   UNL A   1      44.715  30.129  29.378  1.00  0.00     0.049 A 
ATOM     45  N   UNL A   1      44.190  28.387  31.774  1.00  0.00    -0.248 NA
ATOM     46  C   UNL A   1      45.111  26.588  30.607  1.00  0.00     0.031 C 
ATOM     47  C   UNL A   1      44.929  31.030  28.249  1.00  0.00     0.029 A 
ATOM     48  N   UNL A   1      44.138  30.926  30.339  1.00  0.00    -0.354 N 
ATOM     49  C   UNL A   1      44.149  27.250  32.575  1.00  0.00     0.074 A 
ATOM     50  C   UNL A   1      44.703  26.165  31.794  1.00  0.00     0.031 C 
ATOM     51  C   UNL A   1      44.457  32.249  28.568  1.00  0.00     0.029 A 
ATOM     52  C   UNL A   1      43.895  32.213  29.918  1.00  0.00     0.049 A 
ATOM     53  H   UNL A   1      43.918  30.605  31.244  1.00  0.00     0.167 HD
ATOM     54  C   UNL A   1      43.712  27.117  33.849  1.00  0.00     0.034 A 
ATOM     55  C   UNL A   1      43.276  33.237  30.543  1.00  0.00     0.034 A 
ATOM     56  C   UNL A   1      43.172  28.189  34.641  1.00  0.00     0.049 A 
ATOM     57  C   UNL A   1      42.777  33.057  31.957  1.00  0.00     0.074 A 
ATOM     58  C   UNL A   1      42.727  28.151  35.952  1.00  0.00     0.029 A 
ATOM     59  N   UNL A   1      42.994  29.490  34.198  1.00  0.00    -0.354 N 
ATOM     60  N   UNL A   1      42.861  32.009  32.740  1.00  0.00    -0.248 NA
ATOM     61  C   UNL A   1      42.129  34.219  32.588  1.00  0.00     0.031 C 
ATOM     62  C   UNL A   1      42.268  29.427  36.296  1.00  0.00     0.029 A 
ATOM     63  C   UNL A   1      42.444  30.263  35.206  1.00  0.00     0.049 A 
ATOM     64  H   UNL A   1      43.225  29.815  33.298  1.00  0.00     0.167 HD
ATOM     65  C   UNL A   1      42.309  32.393  33.959  1.00  0.00     0.074 A 
ATOM     66  C   UNL A   1      41.922  33.781  33.823  1.00  0.00     0.031 C 
ATOM     67  C   UNL A   1      42.117  31.659  35.083  1.00  0.00     0.034 A 
BRANCH  54  68
ATOM     68  C   UNL A   1      43.845  25.763  34.494  1.00  0.00     0.023 A 
ATOM     69  C   UNL A   1      42.754  24.871  34.452  1.00  0.00     0.012 A 
ATOM     70  C   UNL A   1      45.057  25.349  35.078  1.00  0.00     0.148 A 
ATOM     71  C   UNL A   1      42.859  23.594  35.001  1.00  0.00     0.002 A 
ATOM     72  C   UNL A   1      45.167  24.060  35.590  1.00  0.00     0.091 A 
ATOM     73  F   UNL A   1      46.074  26.220  35.126  1.00  0.00    -0.205 F 
ATOM     74  C   UNL A   1      44.067  23.186  35.560  1.00  0.00     0.022 A 
BRANCH  72  75
ATOM     75  S   UNL A   1      46.698  23.412  36.270  1.00  0.00     0.127 S 
ATOM     76  O   UNL A   1      47.563  23.402  35.090  1.00  0.00    -0.237 OA
ATOM     77  O   UNL A   1      47.043  24.424  37.269  1.00  0.00    -0.237 OA
ATOM     78  O   UNL A   1      46.375  22.103  36.817  1.00  0.00    -0.744 OA
ENDBRANCH  72  75
ENDBRANCH  54  68
BRANCH  55  79
ATOM     79  C   UNL A   1      43.110  34.549  29.851  1.00  0.00     0.023 A 
ATOM     80  C   UNL A   1      41.931  34.810  29.125  1.00  0.00     0.012 A 
ATOM     81  C   UNL A   1      44.119  35.530  29.891  1.00  0.00     0.148 A 
ATOM     82  C   UNL A   1      41.776  36.006  28.423  1.00  0.00     0.002 A 
ATOM     83  C   UNL A   1      43.934  36.744  29.237  1.00  0.00     0.091 A 
ATOM     84  F   UNL A   1      45.249  35.256  30.560  1.00  0.00    -0.205 F 
ATOM     85  C   UNL A   1      42.772  36.977  28.487  1.00  0.00     0.022 A 
BRANCH  83  86
ATOM     86  S   UNL A   1      45.111  38.094  29.379  1.00  0.00     0.127 S 
ATOM     87  O   UNL A   1      44.419  39.171  28.677  1.00  0.00    -0.237 OA
ATOM     88  O   UNL A   1      45.206  38.266  30.830  1.00  0.00    -0.237 OA
ATOM     89  O   UNL A   1      46.334  37.608  28.755  1.00  0.00    -0.744 OA
ENDBRANCH  83  86
ENDBRANCH  55  79
BRANCH  67  90
ATOM     90  C   UNL A   1      41.486  32.342  36.271  1.00  0.00     0.023 A 
ATOM     91  C   UNL A   1      42.250  33.236  37.046  1.00  0.00     0.012 A 
ATOM     92  C   UNL A   1      40.126  32.147  36.583  1.00  0.00     0.148 A 
ATOM     93  C   UNL A   1      41.681  33.896  38.136  1.00  0.00     0.002 A 
ATOM     94  C   UNL A   1      39.554  32.842  37.643  1.00  0.00     0.091 A 
ATOM     95  F   UNL A   1      39.416  31.279  35.847  1.00  0.00    -0.205 F 
ATOM     96  C   UNL A   1      40.333  33.708  38.428  1.00  0.00     0.022 A 
BRANCH  94  97
ATOM     97  S   UNL A   1      37.803  32.725  38.031  1.00  0.00     0.127 S 
ATOM     98  O   UNL A   1      37.222  33.676  37.086  1.00  0.00    -0.237 OA
ATOM     99  O   UNL A   1      37.509  31.321  37.738  1.00  0.00    -0.237 OA
ATOM    100  O   UNL A   1      37.685  33.080  39.439  1.00  0.00    -0.744 OA
ENDBRANCH  94  97
ENDBRANCH  67  90
ENDBRANCH  41  42
ENDBRANCH  34  36
ENDBRANCH  33  34
ENDBRANCH  32  33
ENDBRANCH  31  32
ENDBRANCH  30  31
ENDBRANCH  29  30
ENDBRANCH  28  29
ENDBRANCH  27  28
ENDBRANCH   1  27
TORSDOF 29
ENDMDL
MODEL 3
REMARK VINA RESULT:      -6.9      5.469     11.167
REMARK SMILES CCC(CC)(NC(=O)CS[C@H]1CCS(=O)(=O)C1)C(=O)OCCOCCOCCOCCOC(=O)c1ccc(-c2c3nc(c(-c4cccc(S(=O)(=O)[O-])c4F)c4ccc([nH]4)c(-c4cccc(S(=O)(=O)[O-])c4F)c4nc(c(-c5cccc(S(=O)(=O)[O-])c5F)c5ccc2[nH]5)C=C4)C=C3)cc1
REMARK SMILES IDX 25 1 24 2 23 3 22 4 21 5 20 6 18 7 19 8 3 9 2 10 1 11 4 12
REMARK SMILES IDX 5 13 6 14 7 15 8 17 9 18 10 19 11 20 12 21 17 22 13 23 14 24
REMARK SMILES IDX 15 25 16 26 26 27 27 28 28 29 29 30 30 31 31 32 32 33 33 34
REMARK SMILES IDX 34 35 35 36 36 37 97 38 37 39 96 40 38 41 39 42 40 43 90 44
REMARK SMILES IDX 41 45 95 46 89 47 91 48 42 49 94 50 88 51 87 52 43 54 75 55
REMARK SMILES IDX 55 56 74 57 56 58 59 59 73 60 92 61 57 62 58 63 72 65 93 66
REMARK SMILES IDX 60 67 44 68 45 69 53 70 46 71 48 72 54 73 47 74 49 75 50 76
REMARK SMILES IDX 51 77 52 78 76 79 77 80 85 81 78 82 80 83 86 84 79 85 81 86
REMARK SMILES IDX 82 87 83 88 84 89 61 90 62 91 70 92 63 93 65 94 71 95 64 96
REMARK SMILES IDX 66 97 67 98 68 99 69 100
REMARK H PARENT 6 16 91 53 59 64
REMARK Flexibility Score: inf
ROOT
ATOM      1  C   UNL A   1      34.153  29.246  27.144  1.00  0.00     0.188 C 
ENDROOT
BRANCH   1   2
ATOM      2  C   UNL A   1      33.223  28.221  26.150  1.00  0.00     0.188 C 
BRANCH   2   3
ATOM      3  O   UNL A   1      32.697  26.843  25.984  1.00  0.00    -0.376 OA
BRANCH   3   4
ATOM      4  C   UNL A   1      31.537  25.994  25.772  1.00  0.00     0.202 C 
BRANCH   4   5
ATOM      5  C   UNL A   1      31.593  24.635  25.011  1.00  0.00     0.261 C 
BRANCH   5   6
ATOM      6  O   UNL A   1      32.597  23.799  25.528  1.00  0.00    -0.461 OA
BRANCH   6   7
ATOM      7  C   UNL A   1      32.165  22.521  25.633  1.00  0.00     0.331 C 
ATOM      8  O   UNL A   1      31.006  22.214  25.889  1.00  0.00    -0.249 OA
BRANCH   7   9
ATOM      9  C   UNL A   1      33.302  21.547  25.298  1.00  0.00     0.137 C 
BRANCH   9  10
ATOM     10  C   UNL A   1      32.746  20.055  25.050  1.00  0.00     0.037 C 
ATOM     11  C   UNL A   1      33.523  19.116  24.117  1.00  0.00     0.007 C 
ENDBRANCH   9  10
BRANCH   9  12
ATOM     12  C   UNL A   1      34.168  21.501  26.623  1.00  0.00     0.037 C 
ATOM     13  C   UNL A   1      34.441  22.821  27.360  1.00  0.00     0.007 C 
ENDBRANCH   9  12
BRANCH   9  14
ATOM     14  N   UNL A   1      34.190  22.254  24.127  1.00  0.00    -0.340 N 
ATOM     15  C   UNL A   1      35.496  22.643  23.746  1.00  0.00     0.230 C 
ATOM     16  H   UNL A   1      33.577  22.510  23.400  1.00  0.00     0.164 HD
ATOM     17  O   UNL A   1      35.448  23.166  22.607  1.00  0.00    -0.274 OA
BRANCH  15  18
ATOM     18  C   UNL A   1      37.077  22.355  24.363  1.00  0.00     0.169 C 
BRANCH  18  19
ATOM     19  S   UNL A   1      38.171  22.693  26.264  1.00  0.00    -0.148 SA
BRANCH  19  20
ATOM     20  C   UNL A   1      40.138  21.892  26.550  1.00  0.00     0.063 C 
ATOM     21  C   UNL A   1      40.332  20.363  26.417  1.00  0.00     0.031 C 
ATOM     22  C   UNL A   1      41.447  22.375  25.798  1.00  0.00     0.151 C 
ATOM     23  C   UNL A   1      41.716  20.107  27.090  1.00  0.00     0.138 C 
ATOM     24  S   UNL A   1      42.755  21.477  26.614  1.00  0.00     0.151 S 
ATOM     25  O   UNL A   1      43.155  22.212  27.778  1.00  0.00    -0.229 OA
ATOM     26  O   UNL A   1      43.730  21.042  25.612  1.00  0.00    -0.229 OA
ENDBRANCH  19  20
ENDBRANCH  18  19
ENDBRANCH  15  18
ENDBRANCH   9  14
ENDBRANCH   7   9
ENDBRANCH   6   7
ENDBRANCH   5   6
ENDBRANCH   4   5
ENDBRANCH   3   4
ENDBRANCH   2   3
ENDBRANCH   1   2
BRANCH   1  27
ATOM     27  O   UNL A   1      33.785  30.557  27.519  1.00  0.00    -0.377 OA
BRANCH  27  28
ATOM     28  C   UNL A   1      34.710  31.648  27.679  1.00  0.00     0.188 C 
BRANCH  28  29
ATOM     29  C   UNL A   1      34.712  32.699  28.823  1.00  0.00     0.188 C 
BRANCH  29  30
ATOM     30  O   UNL A   1      34.953  32.265  30.151  1.00  0.00    -0.376 OA
BRANCH  30  31
ATOM     31  C   UNL A   1      35.905  33.010  30.897  1.00  0.00     0.202 C 
BRANCH  31  32
ATOM     32  C   UNL A   1      37.361  32.513  30.882  1.00  0.00     0.261 C 
BRANCH  32  33
ATOM     33  O   UNL A   1      37.473  31.074  30.833  1.00  0.00    -0.460 OA
BRANCH  33  34
ATOM     34  C   UNL A   1      37.211  30.406  31.983  1.00  0.00     0.338 C 
ATOM     35  O   UNL A   1      36.109  30.230  32.479  1.00  0.00    -0.246 OA
BRANCH  34  36
ATOM     36  C   UNL A   1      38.437  29.768  32.527  1.00  0.00     0.060 A 
ATOM     37  C   UNL A   1      39.524  30.596  32.846  1.00  0.00     0.016 A 
ATOM     38  C   UNL A   1      38.571  28.380  32.631  1.00  0.00     0.016 A 
ATOM     39  C   UNL A   1      40.763  30.041  33.185  1.00  0.00     0.010 A 
ATOM     40  C   UNL A   1      39.817  27.825  32.965  1.00  0.00     0.010 A 
ATOM     41  C   UNL A   1      40.933  28.650  33.190  1.00  0.00    -0.014 A 
BRANCH  41  42
ATOM     42  C   UNL A   1      42.306  28.072  33.214  1.00  0.00     0.031 A 
ATOM     43  C   UNL A   1      42.983  27.878  34.549  1.00  0.00     0.074 A 
ATOM     44  C   UNL A   1      42.950  27.712  32.088  1.00  0.00     0.049 A 
ATOM     45  N   UNL A   1      44.175  27.410  34.819  1.00  0.00    -0.248 NA
ATOM     46  C   UNL A   1      42.210  28.269  35.741  1.00  0.00     0.031 C 
ATOM     47  C   UNL A   1      42.423  27.843  30.732  1.00  0.00     0.029 A 
ATOM     48  N   UNL A   1      44.207  27.183  31.911  1.00  0.00    -0.354 N 
ATOM     49  C   UNL A   1      44.300  27.462  36.204  1.00  0.00     0.074 A 
ATOM     50  C   UNL A   1      43.071  28.026  36.718  1.00  0.00     0.031 C 
ATOM     51  C   UNL A   1      43.364  27.438  29.859  1.00  0.00     0.029 A 
ATOM     52  C   UNL A   1      44.564  27.033  30.591  1.00  0.00     0.049 A 
ATOM     53  H   UNL A   1      44.797  26.936  32.660  1.00  0.00     0.167 HD
ATOM     54  C   UNL A   1      45.332  27.059  36.984  1.00  0.00     0.034 A 
ATOM     55  C   UNL A   1      45.728  26.632  30.039  1.00  0.00     0.034 A 
ATOM     56  C   UNL A   1      46.553  26.484  36.488  1.00  0.00     0.049 A 
ATOM     57  C   UNL A   1      46.871  26.208  30.930  1.00  0.00     0.074 A 
ATOM     58  C   UNL A   1      47.642  26.024  37.207  1.00  0.00     0.029 A 
ATOM     59  N   UNL A   1      46.852  26.297  35.148  1.00  0.00    -0.354 N 
ATOM     60  N   UNL A   1      46.924  26.147  32.239  1.00  0.00    -0.248 NA
ATOM     61  C   UNL A   1      48.106  25.762  30.264  1.00  0.00     0.031 C 
ATOM     62  C   UNL A   1      48.607  25.571  36.301  1.00  0.00     0.029 A 
ATOM     63  C   UNL A   1      48.110  25.731  35.019  1.00  0.00     0.049 A 
ATOM     64  H   UNL A   1      46.259  26.532  34.399  1.00  0.00     0.167 HD
ATOM     65  C   UNL A   1      48.179  25.628  32.549  1.00  0.00     0.074 A 
ATOM     66  C   UNL A   1      48.843  25.362  31.292  1.00  0.00     0.031 C 
ATOM     67  C   UNL A   1      48.741  25.414  33.764  1.00  0.00     0.034 A 
BRANCH  54  68
ATOM     68  C   UNL A   1      45.166  27.181  38.476  1.00  0.00     0.023 A 
ATOM     69  C   UNL A   1      44.628  26.098  39.198  1.00  0.00     0.012 A 
ATOM     70  C   UNL A   1      45.600  28.329  39.167  1.00  0.00     0.148 A 
ATOM     71  C   UNL A   1      44.502  26.161  40.585  1.00  0.00     0.002 A 
ATOM     72  C   UNL A   1      45.506  28.370  40.553  1.00  0.00     0.091 A 
ATOM     73  F   UNL A   1      46.089  29.356  38.458  1.00  0.00    -0.205 F 
ATOM     74  C   UNL A   1      44.950  27.292  41.262  1.00  0.00     0.022 A 
BRANCH  72  75
ATOM     75  S   UNL A   1      46.117  29.750  41.527  1.00  0.00     0.127 S 
ATOM     76  O   UNL A   1      47.517  29.808  41.110  1.00  0.00    -0.237 OA
ATOM     77  O   UNL A   1      45.291  30.857  41.043  1.00  0.00    -0.237 OA
ATOM     78  O   UNL A   1      45.896  29.391  42.920  1.00  0.00    -0.744 OA
ENDBRANCH  72  75
ENDBRANCH  54  68
BRANCH  55  79
ATOM     79  C   UNL A   1      45.876  26.578  28.554  1.00  0.00     0.023 A 
ATOM     80  C   UNL A   1      45.654  25.364  27.875  1.00  0.00     0.012 A 
ATOM     81  C   UNL A   1      46.256  27.715  27.815  1.00  0.00     0.148 A 
ATOM     82  C   UNL A   1      45.842  25.274  26.495  1.00  0.00     0.002 A 
ATOM     83  C   UNL A   1      46.385  27.633  26.433  1.00  0.00     0.091 A 
ATOM     84  F   UNL A   1      46.494  28.856  28.479  1.00  0.00    -0.205 F 
ATOM     85  C   UNL A   1      46.197  26.410  25.773  1.00  0.00     0.022 A 
BRANCH  83  86
ATOM     86  S   UNL A   1      46.711  29.079  25.417  1.00  0.00     0.127 S 
ATOM     87  O   UNL A   1      46.669  28.516  24.071  1.00  0.00    -0.237 OA
ATOM     88  O   UNL A   1      45.585  29.952  25.756  1.00  0.00    -0.237 OA
ATOM     89  O   UNL A   1      48.006  29.578  25.860  1.00  0.00    -0.744 OA
ENDBRANCH  83  86
ENDBRANCH  55  79
BRANCH  67  90
ATOM     90  C   UNL A   1      50.134  24.836  33.804  1.00  0.00     0.023 A 
ATOM     91  C   UNL A   1      50.307  23.438  33.817  1.00  0.00     0.012 A 
ATOM     92  C   UNL A   1      51.268  25.671  33.766  1.00  0.00     0.148 A 
ATOM     93  C   UNL A   1      51.586  22.881  33.831  1.00  0.00     0.002 A 
ATOM     94  C   UNL A   1      52.540  25.108  33.734  1.00  0.00     0.091 A 
ATOM     95  F   UNL A   1      51.087  27.000  33.771  1.00  0.00    -0.205 F 
ATOM     96  C   UNL A   1      52.701  23.714  33.779  1.00  0.00     0.022 A 
BRANCH  94  97
ATOM     97  S   UNL A   1      54.025  26.108  33.577  1.00  0.00     0.127 S 
ATOM     98  O   UNL A   1      54.007  26.869  34.824  1.00  0.00    -0.237 OA
ATOM     99  O   UNL A   1      55.079  25.095  33.498  1.00  0.00    -0.237 OA
ATOM    100  O   UNL A   1      53.850  26.886  32.358  1.00  0.00    -0.744 OA
ENDBRANCH  94  97
ENDBRANCH  67  90
ENDBRANCH  41  42
ENDBRANCH  34  36
ENDBRANCH  33  34
ENDBRANCH  32  33
ENDBRANCH  31  32
ENDBRANCH  30  31
ENDBRANCH  29  30
ENDBRANCH  28  29
ENDBRANCH  27  28
ENDBRANCH   1  27
TORSDOF 29
ENDMDL
