MODEL 1
REMARK VINA RESULT:      -8.0      0.000      0.000
REMARK SMILES Cc1ccc(CNC(=O)NC[C@@H]2CC[C@@H](C(=O)OCCOCCOCCOCCOC(=O)c3ccc(-c4c5nc(c(-c6cccc(S(=O)(=O)[O-])c6F)c6ccc([nH]6)c(-c6cccc(S(=O)(=O)[O-])c6F)c6nc(c(-c7cccc(S(=O)(=O)[O-])c7F)c7ccc4[nH]7)C=C6)C=C5)cc3)O2)cn1
REMARK SMILES IDX 23 1 22 2 21 3 20 4 19 5 18 6 16 7 17 8 15 9 12 10 13 11
REMARK SMILES IDX 96 12 14 13 11 14 10 15 7 16 8 17 9 19 6 21 5 22 1 23 2 24
REMARK SMILES IDX 3 25 98 26 4 27 97 28 24 29 25 30 26 31 27 32 28 33 29 34
REMARK SMILES IDX 30 35 31 36 32 37 33 38 34 39 95 40 35 41 94 42 36 43 37 44
REMARK SMILES IDX 38 45 88 46 39 47 93 48 87 49 89 50 40 51 92 52 86 53 85 54
REMARK SMILES IDX 41 56 73 57 53 58 72 59 54 60 57 61 71 62 90 63 55 64 56 65
REMARK SMILES IDX 70 67 91 68 58 69 42 70 43 71 51 72 44 73 46 74 52 75 45 76
REMARK SMILES IDX 47 77 48 78 49 79 50 80 74 81 75 82 83 83 76 84 78 85 84 86
REMARK SMILES IDX 77 87 79 88 80 89 81 90 82 91 59 92 60 93 68 94 61 95 63 96
REMARK SMILES IDX 69 97 62 98 64 99 65 100 66 101 67 102
REMARK H PARENT 7 18 10 20 89 55 57 66
REMARK Flexibility Score: inf
ROOT
ATOM      1  C   UNL A   1      39.409  28.711  27.874  1.00  0.00     0.188 C 
ENDROOT
BRANCH   1   2
ATOM      2  C   UNL A   1      38.517  28.366  29.093  1.00  0.00     0.188 C 
BRANCH   2   3
ATOM      3  O   UNL A   1      37.288  29.066  29.162  1.00  0.00    -0.376 OA
BRANCH   3   4
ATOM      4  C   UNL A   1      36.615  29.415  27.966  1.00  0.00     0.202 C 
BRANCH   4   5
ATOM      5  C   UNL A   1      35.088  29.546  28.005  1.00  0.00     0.261 C 
BRANCH   5   6
ATOM      6  O   UNL A   1      34.493  29.846  26.741  1.00  0.00    -0.461 OA
BRANCH   6   7
ATOM      7  C   UNL A   1      33.145  29.732  26.628  1.00  0.00     0.335 C 
ATOM      8  O   UNL A   1      32.337  30.612  26.894  1.00  0.00    -0.249 OA
BRANCH   7   9
ATOM      9  C   UNL A   1      32.803  28.410  25.930  1.00  0.00     0.228 C 
ATOM     10  C   UNL A   1      31.209  27.934  24.282  1.00  0.00     0.138 C 
ATOM     11  C   UNL A   1      32.553  27.399  23.819  1.00  0.00     0.037 C 
ATOM     12  O   UNL A   1      31.406  28.232  25.671  1.00  0.00    -0.361 OA
ATOM     13  C   UNL A   1      33.529  28.227  24.616  1.00  0.00     0.047 C 
BRANCH  10  14
ATOM     14  C   UNL A   1      30.023  26.964  24.141  1.00  0.00     0.149 C 
BRANCH  14  15
ATOM     15  N   UNL A   1      29.773  26.208  25.357  1.00  0.00    -0.336 N 
ATOM     16  N   UNL A   1      30.577  24.011  25.020  1.00  0.00    -0.334 N 
ATOM     17  C   UNL A   1      30.002  24.958  25.765  1.00  0.00     0.315 C 
ATOM     18  H   UNL A   1      30.689  23.165  25.509  1.00  0.00     0.165 HD
ATOM     19  O   UNL A   1      29.672  24.644  26.910  1.00  0.00    -0.249 OA
ATOM     20  H   UNL A   1      29.327  26.749  26.047  1.00  0.00     0.165 HD
BRANCH  16  21
ATOM     21  C   UNL A   1      31.070  23.939  23.672  1.00  0.00     0.155 C 
BRANCH  21  22
ATOM     22  C   UNL A   1      32.544  23.687  23.584  1.00  0.00    -0.010 A 
ATOM     23  C   UNL A   1      36.715  22.915  23.231  1.00  0.00     0.066 C 
ATOM     24  C   UNL A   1      35.245  23.153  23.390  1.00  0.00     0.037 A 
ATOM     25  C   UNL A   1      34.664  23.237  24.650  1.00  0.00     0.024 A 
ATOM     26  N   UNL A   1      34.530  23.291  22.252  1.00  0.00    -0.261 NA
ATOM     27  C   UNL A   1      33.301  23.498  24.743  1.00  0.00     0.009 A 
ATOM     28  C   UNL A   1      33.206  23.551  22.369  1.00  0.00     0.116 A 
ENDBRANCH  21  22
ENDBRANCH  16  21
ENDBRANCH  14  15
ENDBRANCH  10  14
ENDBRANCH   7   9
ENDBRANCH   6   7
ENDBRANCH   5   6
ENDBRANCH   4   5
ENDBRANCH   3   4
ENDBRANCH   2   3
ENDBRANCH   1   2
BRANCH   1  29
ATOM     29  O   UNL A   1      40.207  27.723  27.242  1.00  0.00    -0.377 OA
BRANCH  29  30
ATOM     30  C   UNL A   1      39.960  26.344  27.479  1.00  0.00     0.188 C 
BRANCH  30  31
ATOM     31  C   UNL A   1      40.403  25.295  26.435  1.00  0.00     0.188 C 
BRANCH  31  32
ATOM     32  O   UNL A   1      41.424  24.415  26.882  1.00  0.00    -0.376 OA
BRANCH  32  33
ATOM     33  C   UNL A   1      42.725  24.618  26.359  1.00  0.00     0.202 C 
BRANCH  33  34
ATOM     34  C   UNL A   1      42.860  25.554  25.150  1.00  0.00     0.261 C 
BRANCH  34  35
ATOM     35  O   UNL A   1      43.197  26.920  25.435  1.00  0.00    -0.460 OA
BRANCH  35  36
ATOM     36  C   UNL A   1      44.414  27.160  25.977  1.00  0.00     0.338 C 
ATOM     37  O   UNL A   1      45.465  26.631  25.680  1.00  0.00    -0.246 OA
BRANCH  36  38
ATOM     38  C   UNL A   1      44.274  28.338  26.862  1.00  0.00     0.060 A 
ATOM     39  C   UNL A   1      43.323  29.318  26.548  1.00  0.00     0.016 A 
ATOM     40  C   UNL A   1      45.065  28.457  28.007  1.00  0.00     0.016 A 
ATOM     41  C   UNL A   1      43.182  30.439  27.365  1.00  0.00     0.010 A 
ATOM     42  C   UNL A   1      44.940  29.593  28.811  1.00  0.00     0.010 A 
ATOM     43  C   UNL A   1      44.022  30.605  28.474  1.00  0.00    -0.014 A 
BRANCH  43  44
ATOM     44  C   UNL A   1      44.079  31.916  29.162  1.00  0.00     0.031 A 
ATOM     45  C   UNL A   1      45.078  32.931  28.674  1.00  0.00     0.074 A 
ATOM     46  C   UNL A   1      43.262  32.207  30.189  1.00  0.00     0.049 A 
ATOM     47  N   UNL A   1      45.323  34.134  29.121  1.00  0.00    -0.248 NA
ATOM     48  C   UNL A   1      45.913  32.534  27.527  1.00  0.00     0.031 C 
ATOM     49  C   UNL A   1      42.248  31.313  30.745  1.00  0.00     0.029 A 
ATOM     50  N   UNL A   1      43.177  33.337  30.965  1.00  0.00    -0.354 N 
ATOM     51  C   UNL A   1      46.361  34.623  28.338  1.00  0.00     0.074 A 
ATOM     52  C   UNL A   1      46.704  33.586  27.390  1.00  0.00     0.031 C 
ATOM     53  C   UNL A   1      41.655  31.921  31.787  1.00  0.00     0.029 A 
ATOM     54  C   UNL A   1      42.268  33.233  31.991  1.00  0.00     0.049 A 
ATOM     55  H   UNL A   1      43.717  34.144  30.801  1.00  0.00     0.167 HD
ATOM     56  C   UNL A   1      46.971  35.830  28.396  1.00  0.00     0.034 A 
ATOM     57  C   UNL A   1      41.983  34.093  32.991  1.00  0.00     0.034 A 
ATOM     58  C   UNL A   1      46.618  36.864  29.329  1.00  0.00     0.049 A 
ATOM     59  C   UNL A   1      42.703  35.418  33.051  1.00  0.00     0.074 A 
ATOM     60  C   UNL A   1      47.137  38.143  29.430  1.00  0.00     0.029 A 
ATOM     61  N   UNL A   1      45.677  36.733  30.338  1.00  0.00    -0.354 N 
ATOM     62  N   UNL A   1      43.592  35.916  32.227  1.00  0.00    -0.248 NA
ATOM     63  C   UNL A   1      42.354  36.313  34.166  1.00  0.00     0.031 C 
ATOM     64  C   UNL A   1      46.541  38.770  30.528  1.00  0.00     0.029 A 
ATOM     65  C   UNL A   1      45.615  37.900  31.080  1.00  0.00     0.049 A 
ATOM     66  H   UNL A   1      45.133  35.930  30.501  1.00  0.00     0.167 HD
ATOM     67  C   UNL A   1      43.876  37.195  32.697  1.00  0.00     0.074 A 
ATOM     68  C   UNL A   1      43.049  37.402  33.867  1.00  0.00     0.031 C 
ATOM     69  C   UNL A   1      44.750  38.112  32.212  1.00  0.00     0.034 A 
BRANCH  56  70
ATOM     70  C   UNL A   1      48.085  36.101  27.420  1.00  0.00     0.023 A 
ATOM     71  C   UNL A   1      47.810  36.745  26.197  1.00  0.00     0.012 A 
ATOM     72  C   UNL A   1      49.415  35.769  27.744  1.00  0.00     0.148 A 
ATOM     73  C   UNL A   1      48.839  37.026  25.298  1.00  0.00     0.002 A 
ATOM     74  C   UNL A   1      50.440  36.095  26.866  1.00  0.00     0.091 A 
ATOM     75  F   UNL A   1      49.650  35.135  28.903  1.00  0.00    -0.205 F 
ATOM     76  C   UNL A   1      50.152  36.713  25.638  1.00  0.00     0.022 A 
BRANCH  74  77
ATOM     77  S   UNL A   1      52.170  35.810  27.248  1.00  0.00     0.127 S 
ATOM     78  O   UNL A   1      52.337  34.416  26.836  1.00  0.00    -0.237 OA
ATOM     79  O   UNL A   1      52.839  36.784  26.385  1.00  0.00    -0.237 OA
ATOM     80  O   UNL A   1      52.315  36.058  28.675  1.00  0.00    -0.744 OA
ENDBRANCH  74  77
ENDBRANCH  56  70
BRANCH  57  81
ATOM     81  C   UNL A   1      40.948  33.750  34.009  1.00  0.00     0.023 A 
ATOM     82  C   UNL A   1      41.348  33.332  35.294  1.00  0.00     0.012 A 
ATOM     83  C   UNL A   1      39.575  33.817  33.708  1.00  0.00     0.148 A 
ATOM     84  C   UNL A   1      40.402  32.951  36.246  1.00  0.00     0.002 A 
ATOM     85  C   UNL A   1      38.636  33.492  34.679  1.00  0.00     0.091 A 
ATOM     86  F   UNL A   1      39.213  34.200  32.475  1.00  0.00    -0.205 F 
ATOM     87  C   UNL A   1      39.047  33.039  35.943  1.00  0.00     0.022 A 
BRANCH  85  88
ATOM     88  S   UNL A   1      36.870  33.690  34.421  1.00  0.00     0.127 S 
ATOM     89  O   UNL A   1      36.581  32.601  33.491  1.00  0.00    -0.237 OA
ATOM     90  O   UNL A   1      36.348  33.500  35.775  1.00  0.00    -0.237 OA
ATOM     91  O   UNL A   1      36.699  35.035  33.892  1.00  0.00    -0.744 OA
ENDBRANCH  85  88
ENDBRANCH  57  81
BRANCH  69  92
ATOM     92  C   UNL A   1      44.823  39.449  32.906  1.00  0.00     0.023 A 
ATOM     93  C   UNL A   1      45.662  39.624  34.023  1.00  0.00     0.012 A 
ATOM     94  C   UNL A   1      44.108  40.556  32.402  1.00  0.00     0.148 A 
ATOM     95  C   UNL A   1      45.757  40.864  34.654  1.00  0.00     0.002 A 
ATOM     96  C   UNL A   1      44.249  41.801  33.001  1.00  0.00     0.091 A 
ATOM     97  F   UNL A   1      43.303  40.369  31.345  1.00  0.00    -0.205 F 
ATOM     98  C   UNL A   1      45.061  41.954  34.136  1.00  0.00     0.022 A 
BRANCH  96  99
ATOM     99  S   UNL A   1      43.473  43.281  32.343  1.00  0.00     0.127 S 
ATOM    100  O   UNL A   1      44.115  44.330  33.134  1.00  0.00    -0.237 OA
ATOM    101  O   UNL A   1      43.877  43.245  30.937  1.00  0.00    -0.237 OA
ATOM    102  O   UNL A   1      42.043  43.120  32.565  1.00  0.00    -0.744 OA
ENDBRANCH  96  99
ENDBRANCH  69  92
ENDBRANCH  43  44
ENDBRANCH  36  38
ENDBRANCH  35  36
ENDBRANCH  34  35
ENDBRANCH  33  34
ENDBRANCH  32  33
ENDBRANCH  31  32
ENDBRANCH  30  31
ENDBRANCH  29  30
ENDBRANCH   1  29
TORSDOF 27
ENDMDL
MODEL 2
REMARK VINA RESULT:      -7.6      3.045      8.609
REMARK SMILES Cc1ccc(CNC(=O)NC[C@@H]2CC[C@@H](C(=O)OCCOCCOCCOCCOC(=O)c3ccc(-c4c5nc(c(-c6cccc(S(=O)(=O)[O-])c6F)c6ccc([nH]6)c(-c6cccc(S(=O)(=O)[O-])c6F)c6nc(c(-c7cccc(S(=O)(=O)[O-])c7F)c7ccc4[nH]7)C=C6)C=C5)cc3)O2)cn1
REMARK SMILES IDX 23 1 22 2 21 3 20 4 19 5 18 6 16 7 17 8 15 9 12 10 13 11
REMARK SMILES IDX 96 12 14 13 11 14 10 15 7 16 8 17 9 19 6 21 5 22 1 23 2 24
REMARK SMILES IDX 3 25 98 26 4 27 97 28 24 29 25 30 26 31 27 32 28 33 29 34
REMARK SMILES IDX 30 35 31 36 32 37 33 38 34 39 95 40 35 41 94 42 36 43 37 44
REMARK SMILES IDX 38 45 88 46 39 47 93 48 87 49 89 50 40 51 92 52 86 53 85 54
REMARK SMILES IDX 41 56 73 57 53 58 72 59 54 60 57 61 71 62 90 63 55 64 56 65
REMARK SMILES IDX 70 67 91 68 58 69 42 70 43 71 51 72 44 73 46 74 52 75 45 76
REMARK SMILES IDX 47 77 48 78 49 79 50 80 74 81 75 82 83 83 76 84 78 85 84 86
REMARK SMILES IDX 77 87 79 88 80 89 81 90 82 91 59 92 60 93 68 94 61 95 63 96
REMARK SMILES IDX 69 97 62 98 64 99 65 100 66 101 67 102
REMARK H PARENT 7 18 10 20 89 55 57 66
REMARK Flexibility Score: inf
ROOT
ATOM      1  C   UNL A   1      34.800  20.711  25.003  1.00  0.00     0.188 C 
ENDROOT
BRANCH   1   2
ATOM      2  C   UNL A   1      34.451  21.455  26.316  1.00  0.00     0.188 C 
BRANCH   2   3
ATOM      3  O   UNL A   1      35.159  22.661  26.534  1.00  0.00    -0.376 OA
BRANCH   3   4
ATOM      4  C   UNL A   1      34.923  23.773  25.689  1.00  0.00     0.202 C 
BRANCH   4   5
ATOM      5  C   UNL A   1      35.072  25.179  26.283  1.00  0.00     0.261 C 
BRANCH   5   6
ATOM      6  O   UNL A   1      34.488  26.214  25.491  1.00  0.00    -0.461 OA
BRANCH   6   7
ATOM      7  C   UNL A   1      33.626  27.071  26.097  1.00  0.00     0.335 C 
ATOM      8  O   UNL A   1      33.946  27.966  26.868  1.00  0.00    -0.249 OA
BRANCH   7   9
ATOM      9  C   UNL A   1      32.221  26.876  25.514  1.00  0.00     0.228 C 
ATOM     10  C   UNL A   1      31.181  24.952  24.676  1.00  0.00     0.138 C 
ATOM     11  C   UNL A   1      30.260  25.588  25.703  1.00  0.00     0.037 C 
ATOM     12  O   UNL A   1      32.169  25.959  24.415  1.00  0.00    -0.361 OA
ATOM     13  C   UNL A   1      31.212  26.406  26.538  1.00  0.00     0.047 C 
BRANCH  10  14
ATOM     14  C   UNL A   1      30.517  24.545  23.348  1.00  0.00     0.149 C 
BRANCH  14  15
ATOM     15  N   UNL A   1      31.287  24.966  22.188  1.00  0.00    -0.336 N 
ATOM     16  N   UNL A   1      30.870  27.265  21.840  1.00  0.00    -0.334 N 
ATOM     17  C   UNL A   1      31.464  26.111  21.528  1.00  0.00     0.315 C 
ATOM     18  H   UNL A   1      31.154  28.004  21.256  1.00  0.00     0.165 HD
ATOM     19  O   UNL A   1      32.234  26.122  20.566  1.00  0.00    -0.249 OA
ATOM     20  H   UNL A   1      31.802  24.225  21.795  1.00  0.00     0.165 HD
BRANCH  16  21
ATOM     21  C   UNL A   1      29.912  27.681  22.828  1.00  0.00     0.155 C 
BRANCH  21  22
ATOM     22  C   UNL A   1      29.627  29.151  22.808  1.00  0.00    -0.010 A 
ATOM     23  C   UNL A   1      28.795  33.324  22.866  1.00  0.00     0.066 C 
ATOM     24  C   UNL A   1      29.044  31.849  22.824  1.00  0.00     0.037 A 
ATOM     25  C   UNL A   1      28.764  31.107  21.683  1.00  0.00     0.024 A 
ATOM     26  N   UNL A   1      29.565  31.293  23.940  1.00  0.00    -0.261 NA
ATOM     27  C   UNL A   1      29.050  29.745  21.682  1.00  0.00     0.009 A 
ATOM     28  C   UNL A   1      29.841  29.967  23.912  1.00  0.00     0.116 A 
ENDBRANCH  21  22
ENDBRANCH  16  21
ENDBRANCH  14  15
ENDBRANCH  10  14
ENDBRANCH   7   9
ENDBRANCH   6   7
ENDBRANCH   5   6
ENDBRANCH   4   5
ENDBRANCH   3   4
ENDBRANCH   2   3
ENDBRANCH   1   2
BRANCH   1  29
ATOM     29  O   UNL A   1      36.096  20.792  24.432  1.00  0.00    -0.377 OA
BRANCH  29  30
ATOM     30  C   UNL A   1      37.246  20.555  25.231  1.00  0.00     0.188 C 
BRANCH  30  31
ATOM     31  C   UNL A   1      38.310  21.663  25.393  1.00  0.00     0.188 C 
BRANCH  31  32
ATOM     32  O   UNL A   1      39.144  21.516  26.533  1.00  0.00    -0.376 OA
BRANCH  32  33
ATOM     33  C   UNL A   1      40.514  21.235  26.297  1.00  0.00     0.202 C 
BRANCH  33  34
ATOM     34  C   UNL A   1      41.449  21.221  27.514  1.00  0.00     0.261 C 
BRANCH  34  35
ATOM     35  O   UNL A   1      42.073  22.468  27.854  1.00  0.00    -0.460 OA
BRANCH  35  36
ATOM     36  C   UNL A   1      43.166  22.831  27.143  1.00  0.00     0.338 C 
ATOM     37  O   UNL A   1      43.695  22.209  26.245  1.00  0.00    -0.246 OA
BRANCH  36  38
ATOM     38  C   UNL A   1      43.486  24.227  27.514  1.00  0.00     0.060 A 
ATOM     39  C   UNL A   1      43.989  24.493  28.796  1.00  0.00     0.016 A 
ATOM     40  C   UNL A   1      43.312  25.261  26.592  1.00  0.00     0.016 A 
ATOM     41  C   UNL A   1      44.289  25.803  29.168  1.00  0.00     0.010 A 
ATOM     42  C   UNL A   1      43.590  26.575  26.975  1.00  0.00     0.010 A 
ATOM     43  C   UNL A   1      44.047  26.855  28.276  1.00  0.00    -0.014 A 
BRANCH  43  44
ATOM     44  C   UNL A   1      44.082  28.254  28.765  1.00  0.00     0.031 A 
ATOM     45  C   UNL A   1      42.800  28.862  29.269  1.00  0.00     0.074 A 
ATOM     46  C   UNL A   1      45.220  28.969  28.769  1.00  0.00     0.049 A 
ATOM     47  N   UNL A   1      42.579  30.064  29.730  1.00  0.00    -0.248 NA
ATOM     48  C   UNL A   1      41.609  27.996  29.249  1.00  0.00     0.031 C 
ATOM     49  C   UNL A   1      46.525  28.488  28.318  1.00  0.00     0.029 A 
ATOM     50  N   UNL A   1      45.453  30.268  29.151  1.00  0.00    -0.354 N 
ATOM     51  C   UNL A   1      41.220  30.112  30.020  1.00  0.00     0.074 A 
ATOM     52  C   UNL A   1      40.667  28.821  29.679  1.00  0.00     0.031 C 
ATOM     53  C   UNL A   1      47.419  29.487  28.427  1.00  0.00     0.029 A 
ATOM     54  C   UNL A   1      46.744  30.684  28.928  1.00  0.00     0.049 A 
ATOM     55  H   UNL A   1      44.760  30.845  29.545  1.00  0.00     0.167 HD
ATOM     56  C   UNL A   1      40.499  31.137  30.531  1.00  0.00     0.034 A 
ATOM     57  C   UNL A   1      47.307  31.898  29.092  1.00  0.00     0.034 A 
ATOM     58  C   UNL A   1      41.055  32.414  30.883  1.00  0.00     0.049 A 
ATOM     59  C   UNL A   1      46.470  33.032  29.632  1.00  0.00     0.074 A 
ATOM     60  C   UNL A   1      40.417  33.497  31.463  1.00  0.00     0.029 A 
ATOM     61  N   UNL A   1      42.370  32.792  30.668  1.00  0.00    -0.354 N 
ATOM     62  N   UNL A   1      45.218  33.025  30.020  1.00  0.00    -0.248 NA
ATOM     63  C   UNL A   1      47.136  34.335  29.784  1.00  0.00     0.031 C 
ATOM     64  C   UNL A   1      41.338  34.545  31.556  1.00  0.00     0.029 A 
ATOM     65  C   UNL A   1      42.561  34.099  31.082  1.00  0.00     0.049 A 
ATOM     66  H   UNL A   1      43.066  32.216  30.278  1.00  0.00     0.167 HD
ATOM     67  C   UNL A   1      44.960  34.305  30.503  1.00  0.00     0.074 A 
ATOM     68  C   UNL A   1      46.192  35.054  30.375  1.00  0.00     0.031 C 
ATOM     69  C   UNL A   1      43.805  34.818  30.997  1.00  0.00     0.034 A 
BRANCH  56  70
ATOM     70  C   UNL A   1      39.025  30.918  30.746  1.00  0.00     0.023 A 
ATOM     71  C   UNL A   1      38.573  30.204  31.873  1.00  0.00     0.012 A 
ATOM     72  C   UNL A   1      38.084  31.473  29.856  1.00  0.00     0.148 A 
ATOM     73  C   UNL A   1      37.208  30.020  32.096  1.00  0.00     0.002 A 
ATOM     74  C   UNL A   1      36.727  31.328  30.109  1.00  0.00     0.091 A 
ATOM     75  F   UNL A   1      38.536  32.128  28.776  1.00  0.00    -0.205 F 
ATOM     76  C   UNL A   1      36.287  30.591  31.222  1.00  0.00     0.022 A 
BRANCH  74  77
ATOM     77  S   UNL A   1      35.463  32.096  29.091  1.00  0.00     0.127 S 
ATOM     78  O   UNL A   1      34.657  32.790  30.096  1.00  0.00    -0.237 OA
ATOM     79  O   UNL A   1      36.256  32.977  28.233  1.00  0.00    -0.237 OA
ATOM     80  O   UNL A   1      34.789  31.010  28.395  1.00  0.00    -0.744 OA
ENDBRANCH  74  77
ENDBRANCH  56  70
BRANCH  57  81
ATOM     81  C   UNL A   1      48.747  32.112  28.768  1.00  0.00     0.023 A 
ATOM     82  C   UNL A   1      49.721  31.925  29.770  1.00  0.00     0.012 A 
ATOM     83  C   UNL A   1      49.156  32.516  27.483  1.00  0.00     0.148 A 
ATOM     84  C   UNL A   1      51.069  32.174  29.509  1.00  0.00     0.002 A 
ATOM     85  C   UNL A   1      50.507  32.706  27.214  1.00  0.00     0.091 A 
ATOM     86  F   UNL A   1      48.215  32.706  26.548  1.00  0.00    -0.205 F 
ATOM     87  C   UNL A   1      51.463  32.555  28.230  1.00  0.00     0.022 A 
BRANCH  85  88
ATOM     88  S   UNL A   1      51.121  33.079  25.568  1.00  0.00     0.127 S 
ATOM     89  O   UNL A   1      52.453  33.602  25.859  1.00  0.00    -0.237 OA
ATOM     90  O   UNL A   1      51.101  31.759  24.937  1.00  0.00    -0.237 OA
ATOM     91  O   UNL A   1      50.176  34.032  25.003  1.00  0.00    -0.744 OA
ENDBRANCH  85  88
ENDBRANCH  57  81
BRANCH  69  92
ATOM     92  C   UNL A   1      43.824  36.243  31.492  1.00  0.00     0.023 A 
ATOM     93  C   UNL A   1      44.055  36.517  32.854  1.00  0.00     0.012 A 
ATOM     94  C   UNL A   1      43.681  37.315  30.587  1.00  0.00     0.148 A 
ATOM     95  C   UNL A   1      44.101  37.833  33.315  1.00  0.00     0.002 A 
ATOM     96  C   UNL A   1      43.784  38.623  31.043  1.00  0.00     0.091 A 
ATOM     97  F   UNL A   1      43.449  37.034  29.296  1.00  0.00    -0.205 F 
ATOM     98  C   UNL A   1      43.978  38.884  32.409  1.00  0.00     0.022 A 
BRANCH  96  99
ATOM     99  S   UNL A   1      43.740  40.037  29.936  1.00  0.00     0.127 S 
ATOM    100  O   UNL A   1      43.614  41.148  30.878  1.00  0.00    -0.237 OA
ATOM    101  O   UNL A   1      45.038  39.947  29.268  1.00  0.00    -0.237 OA
ATOM    102  O   UNL A   1      42.594  39.828  29.061  1.00  0.00    -0.744 OA
ENDBRANCH  96  99
ENDBRANCH  69  92
ENDBRANCH  43  44
ENDBRANCH  36  38
ENDBRANCH  35  36
ENDBRANCH  34  35
ENDBRANCH  33  34
ENDBRANCH  32  33
ENDBRANCH  31  32
ENDBRANCH  30  31
ENDBRANCH  29  30
ENDBRANCH   1  29
TORSDOF 27
ENDMDL
MODEL 3
REMARK VINA RESULT:      -7.6      5.566     11.247
REMARK SMILES Cc1ccc(CNC(=O)NC[C@@H]2CC[C@@H](C(=O)OCCOCCOCCOCCOC(=O)c3ccc(-c4c5nc(c(-c6cccc(S(=O)(=O)[O-])c6F)c6ccc([nH]6)c(-c6cccc(S(=O)(=O)[O-])c6F)c6nc(c(-c7cccc(S(=O)(=O)[O-])c7F)c7ccc4[nH]7)C=C6)C=C5)cc3)O2)cn1
REMARK SMILES IDX 23 1 22 2 21 3 20 4 19 5 18 6 16 7 17 8 15 9 12 10 13 11
REMARK SMILES IDX 96 12 14 13 11 14 10 15 7 16 8 17 9 19 6 21 5 22 1 23 2 24
REMARK SMILES IDX 3 25 98 26 4 27 97 28 24 29 25 30 26 31 27 32 28 33 29 34
REMARK SMILES IDX 30 35 31 36 32 37 33 38 34 39 95 40 35 41 94 42 36 43 37 44
REMARK SMILES IDX 38 45 88 46 39 47 93 48 87 49 89 50 40 51 92 52 86 53 85 54
REMARK SMILES IDX 41 56 73 57 53 58 72 59 54 60 57 61 71 62 90 63 55 64 56 65
REMARK SMILES IDX 70 67 91 68 58 69 42 70 43 71 51 72 44 73 46 74 52 75 45 76
REMARK SMILES IDX 47 77 48 78 49 79 50 80 74 81 75 82 83 83 76 84 78 85 84 86
REMARK SMILES IDX 77 87 79 88 80 89 81 90 82 91 59 92 60 93 68 94 61 95 63 96
REMARK SMILES IDX 69 97 62 98 64 99 65 100 66 101 67 102
REMARK H PARENT 7 18 10 20 89 55 57 66
REMARK Flexibility Score: inf
ROOT
ATOM      1  C   UNL A   1      41.894  36.222  28.427  1.00  0.00     0.188 C 
ENDROOT
BRANCH   1   2
ATOM      2  C   UNL A   1      41.092  35.311  29.390  1.00  0.00     0.188 C 
BRANCH   2   3
ATOM      3  O   UNL A   1      39.803  34.938  28.938  1.00  0.00    -0.376 OA
BRANCH   3   4
ATOM      4  C   UNL A   1      38.812  34.570  29.880  1.00  0.00     0.202 C 
BRANCH   4   5
ATOM      5  C   UNL A   1      39.268  34.117  31.272  1.00  0.00     0.261 C 
BRANCH   5   6
ATOM      6  O   UNL A   1      38.314  34.354  32.308  1.00  0.00    -0.461 OA
BRANCH   6   7
ATOM      7  C   UNL A   1      37.074  33.819  32.167  1.00  0.00     0.335 C 
ATOM      8  O   UNL A   1      36.818  32.622  32.166  1.00  0.00    -0.249 OA
BRANCH   7   9
ATOM      9  C   UNL A   1      36.028  34.939  32.212  1.00  0.00     0.228 C 
ATOM     10  C   UNL A   1      33.714  34.869  31.861  1.00  0.00     0.138 C 
ATOM     11  C   UNL A   1      33.979  35.572  33.180  1.00  0.00     0.037 C 
ATOM     12  O   UNL A   1      34.999  34.814  31.225  1.00  0.00    -0.361 OA
ATOM     13  C   UNL A   1      35.347  35.064  33.556  1.00  0.00     0.047 C 
BRANCH  10  14
ATOM     14  C   UNL A   1      32.718  35.570  30.920  1.00  0.00     0.149 C 
BRANCH  14  15
ATOM     15  N   UNL A   1      33.380  36.383  29.913  1.00  0.00    -0.336 N 
ATOM     16  N   UNL A   1      33.792  35.013  28.033  1.00  0.00    -0.334 N 
ATOM     17  C   UNL A   1      33.841  36.181  28.678  1.00  0.00     0.315 C 
ATOM     18  H   UNL A   1      34.152  35.072  27.120  1.00  0.00     0.165 HD
ATOM     19  O   UNL A   1      34.343  37.130  28.074  1.00  0.00    -0.249 OA
ATOM     20  H   UNL A   1      33.523  37.308  30.217  1.00  0.00     0.165 HD
BRANCH  16  21
ATOM     21  C   UNL A   1      33.336  33.689  28.361  1.00  0.00     0.155 C 
BRANCH  21  22
ATOM     22  C   UNL A   1      34.397  32.639  28.233  1.00  0.00    -0.010 A 
ATOM     23  C   UNL A   1      37.488  29.740  27.840  1.00  0.00     0.066 C 
ATOM     24  C   UNL A   1      36.381  30.744  27.937  1.00  0.00     0.037 A 
ATOM     25  C   UNL A   1      35.064  30.387  27.670  1.00  0.00     0.024 A 
ATOM     26  N   UNL A   1      36.731  31.995  28.307  1.00  0.00    -0.261 NA
ATOM     27  C   UNL A   1      34.068  31.348  27.812  1.00  0.00     0.009 A 
ATOM     28  C   UNL A   1      35.743  32.910  28.445  1.00  0.00     0.116 A 
ENDBRANCH  21  22
ENDBRANCH  16  21
ENDBRANCH  14  15
ENDBRANCH  10  14
ENDBRANCH   7   9
ENDBRANCH   6   7
ENDBRANCH   5   6
ENDBRANCH   4   5
ENDBRANCH   3   4
ENDBRANCH   2   3
ENDBRANCH   1   2
BRANCH   1  29
ATOM     29  O   UNL A   1      43.007  36.976  28.881  1.00  0.00    -0.377 OA
BRANCH  29  30
ATOM     30  C   UNL A   1      43.842  36.468  29.911  1.00  0.00     0.188 C 
BRANCH  30  31
ATOM     31  C   UNL A   1      44.182  37.354  31.130  1.00  0.00     0.188 C 
BRANCH  31  32
ATOM     32  O   UNL A   1      43.780  36.814  32.380  1.00  0.00    -0.376 OA
BRANCH  32  33
ATOM     33  C   UNL A   1      43.339  37.732  33.367  1.00  0.00     0.202 C 
BRANCH  33  34
ATOM     34  C   UNL A   1      43.832  37.512  34.803  1.00  0.00     0.261 C 
BRANCH  34  35
ATOM     35  O   UNL A   1      42.986  36.726  35.655  1.00  0.00    -0.460 OA
BRANCH  35  36
ATOM     36  C   UNL A   1      43.586  35.835  36.478  1.00  0.00     0.338 C 
ATOM     37  O   UNL A   1      43.785  35.958  37.670  1.00  0.00    -0.246 OA
BRANCH  36  38
ATOM     38  C   UNL A   1      43.778  34.587  35.708  1.00  0.00     0.060 A 
ATOM     39  C   UNL A   1      45.070  34.063  35.568  1.00  0.00     0.016 A 
ATOM     40  C   UNL A   1      42.681  33.928  35.148  1.00  0.00     0.016 A 
ATOM     41  C   UNL A   1      45.272  32.892  34.839  1.00  0.00     0.010 A 
ATOM     42  C   UNL A   1      42.888  32.769  34.397  1.00  0.00     0.010 A 
ATOM     43  C   UNL A   1      44.188  32.265  34.211  1.00  0.00    -0.014 A 
BRANCH  43  44
ATOM     44  C   UNL A   1      44.436  31.206  33.203  1.00  0.00     0.031 A 
ATOM     45  C   UNL A   1      44.612  31.621  31.767  1.00  0.00     0.074 A 
ATOM     46  C   UNL A   1      44.511  29.910  33.550  1.00  0.00     0.049 A 
ATOM     47  N   UNL A   1      44.823  30.881  30.711  1.00  0.00    -0.248 NA
ATOM     48  C   UNL A   1      44.539  33.065  31.485  1.00  0.00     0.031 C 
ATOM     49  C   UNL A   1      44.369  29.386  34.908  1.00  0.00     0.029 A 
ATOM     50  N   UNL A   1      44.704  28.792  32.776  1.00  0.00    -0.354 N 
ATOM     51  C   UNL A   1      44.872  31.761  29.637  1.00  0.00     0.074 A 
ATOM     52  C   UNL A   1      44.663  33.090  30.167  1.00  0.00     0.031 C 
ATOM     53  C   UNL A   1      44.458  28.045  34.868  1.00  0.00     0.029 A 
ATOM     54  C   UNL A   1      44.634  27.614  33.481  1.00  0.00     0.049 A 
ATOM     55  H   UNL A   1      44.876  28.832  31.807  1.00  0.00     0.167 HD
ATOM     56  C   UNL A   1      45.078  31.490  28.327  1.00  0.00     0.034 A 
ATOM     57  C   UNL A   1      44.684  26.337  33.051  1.00  0.00     0.034 A 
ATOM     58  C   UNL A   1      45.300  30.169  27.805  1.00  0.00     0.049 A 
ATOM     59  C   UNL A   1      44.881  26.064  31.579  1.00  0.00     0.074 A 
ATOM     60  C   UNL A   1      45.576  29.797  26.502  1.00  0.00     0.029 A 
ATOM     61  N   UNL A   1      45.246  29.003  28.552  1.00  0.00    -0.354 N 
ATOM     62  N   UNL A   1      45.051  26.912  30.595  1.00  0.00    -0.248 NA
ATOM     63  C   UNL A   1      44.923  24.652  31.167  1.00  0.00     0.031 C 
ATOM     64  C   UNL A   1      45.646  28.402  26.452  1.00  0.00     0.029 A 
ATOM     65  C   UNL A   1      45.463  27.908  27.734  1.00  0.00     0.049 A 
ATOM     66  H   UNL A   1      45.079  28.961  29.521  1.00  0.00     0.167 HD
ATOM     67  C   UNL A   1      45.265  26.139  29.456  1.00  0.00     0.074 A 
ATOM     68  C   UNL A   1      45.221  24.755  29.879  1.00  0.00     0.031 C 
ATOM     69  C   UNL A   1      45.468  26.537  28.176  1.00  0.00     0.034 A 
BRANCH  56  70
ATOM     70  C   UNL A   1      45.077  32.646  27.363  1.00  0.00     0.023 A 
ATOM     71  C   UNL A   1      43.933  32.916  26.585  1.00  0.00     0.012 A 
ATOM     72  C   UNL A   1      46.194  33.500  27.272  1.00  0.00     0.148 A 
ATOM     73  C   UNL A   1      43.912  34.001  25.709  1.00  0.00     0.002 A 
ATOM     74  C   UNL A   1      46.148  34.606  26.433  1.00  0.00     0.091 A 
ATOM     75  F   UNL A   1      47.280  33.210  28.002  1.00  0.00    -0.205 F 
ATOM     76  C   UNL A   1      45.013  34.851  25.643  1.00  0.00     0.022 A 
BRANCH  74  77
ATOM     77  S   UNL A   1      47.479  35.806  26.340  1.00  0.00     0.127 S 
ATOM     78  O   UNL A   1      47.827  35.971  27.752  1.00  0.00    -0.237 OA
ATOM     79  O   UNL A   1      48.479  35.093  25.546  1.00  0.00    -0.237 OA
ATOM     80  O   UNL A   1      46.916  36.985  25.697  1.00  0.00    -0.744 OA
ENDBRANCH  74  77
ENDBRANCH  56  70
BRANCH  57  81
ATOM     81  C   UNL A   1      44.574  25.209  34.019  1.00  0.00     0.023 A 
ATOM     82  C   UNL A   1      43.308  24.662  34.308  1.00  0.00     0.012 A 
ATOM     83  C   UNL A   1      45.709  24.687  34.667  1.00  0.00     0.148 A 
ATOM     84  C   UNL A   1      43.170  23.644  35.253  1.00  0.00     0.002 A 
ATOM     85  C   UNL A   1      45.572  23.634  35.564  1.00  0.00     0.091 A 
ATOM     86  F   UNL A   1      46.903  25.232  34.393  1.00  0.00    -0.205 F 
ATOM     87  C   UNL A   1      44.302  23.124  35.874  1.00  0.00     0.022 A 
BRANCH  85  88
ATOM     88  S   UNL A   1      46.983  22.820  36.320  1.00  0.00     0.127 S 
ATOM     89  O   UNL A   1      47.727  22.364  35.148  1.00  0.00    -0.237 OA
ATOM     90  O   UNL A   1      47.604  23.922  37.055  1.00  0.00    -0.237 OA
ATOM     91  O   UNL A   1      46.426  21.771  37.162  1.00  0.00    -0.744 OA
ENDBRANCH  85  88
ENDBRANCH  57  81
BRANCH  69  92
ATOM     92  C   UNL A   1      45.715  25.470  27.138  1.00  0.00     0.023 A 
ATOM     93  C   UNL A   1      47.020  25.226  26.669  1.00  0.00     0.012 A 
ATOM     94  C   UNL A   1      44.655  24.661  26.681  1.00  0.00     0.148 A 
ATOM     95  C   UNL A   1      47.260  24.223  25.730  1.00  0.00     0.002 A 
ATOM     96  C   UNL A   1      44.910  23.627  25.788  1.00  0.00     0.091 A 
ATOM     97  F   UNL A   1      43.416  24.916  27.128  1.00  0.00    -0.205 F 
ATOM     98  C   UNL A   1      46.210  23.417  25.299  1.00  0.00     0.022 A 
BRANCH  96  99
ATOM     99  S   UNL A   1      43.638  22.475  25.258  1.00  0.00     0.127 S 
ATOM    100  O   UNL A   1      44.257  21.186  25.566  1.00  0.00    -0.237 OA
ATOM    101  O   UNL A   1      42.514  22.834  26.123  1.00  0.00    -0.237 OA
ATOM    102  O   UNL A   1      43.420  22.738  23.842  1.00  0.00    -0.744 OA
ENDBRANCH  96  99
ENDBRANCH  69  92
ENDBRANCH  43  44
ENDBRANCH  36  38
ENDBRANCH  35  36
ENDBRANCH  34  35
ENDBRANCH  33  34
ENDBRANCH  32  33
ENDBRANCH  31  32
ENDBRANCH  30  31
ENDBRANCH  29  30
ENDBRANCH   1  29
TORSDOF 27
ENDMDL
