MODEL 1
REMARK VINA RESULT:      -8.9      0.000      0.000
REMARK SMILES CS(=O)(=O)c1ccc(C2=NN(c3ccc(C(=O)OCCOCCOCCOCCOC(=O)c4ccc(-c5c6nc(c(-c7cccc(S(=O)(=O)[O-])c7F)c7ccc([nH]7)c(-c7cccc(S(=O)(=O)[O-])c7F)c7nc(c(-c8cccc(S(=O)(=O)[O-])c8F)c8ccc5[nH]8)C=C7)C=C6)cc4)cc3)[C@H](c3ccc(F)cc3)C2)cc1
REMARK SMILES IDX 24 1 23 2 22 3 21 4 20 5 19 6 18 7 16 8 17 9 15 10 12 11
REMARK SMILES IDX 13 12 97 13 14 14 96 15 11 16 9 17 10 18 106 19 98 20 8 21
REMARK SMILES IDX 5 22 6 23 108 24 7 25 107 26 2 27 1 28 3 29 4 30 99 31
REMARK SMILES IDX 100 32 105 33 101 34 104 35 102 36 103 37 25 38 26 39 27 40
REMARK SMILES IDX 28 41 29 42 30 43 31 44 32 45 33 46 34 47 95 48 35 49 94 50
REMARK SMILES IDX 36 51 37 52 38 53 88 54 39 55 93 56 87 57 89 58 40 59 92 60
REMARK SMILES IDX 86 61 85 62 41 64 73 65 53 66 72 67 54 68 57 69 71 70 90 71
REMARK SMILES IDX 55 72 56 73 70 75 91 76 58 77 42 78 43 79 51 80 44 81 46 82
REMARK SMILES IDX 52 83 45 84 47 85 48 86 49 87 50 88 74 89 75 90 83 91 76 92
REMARK SMILES IDX 78 93 84 94 77 95 79 96 80 97 81 98 82 99 59 100 60 101
REMARK SMILES IDX 68 102 61 103 63 104 69 105 62 106 64 107 65 108 66 109
REMARK SMILES IDX 67 110
REMARK H PARENT 89 63 57 74
REMARK Flexibility Score: inf
ROOT
ATOM      1  O   UNL A   1      38.274  32.378  34.451  1.00  0.00    -0.377 OA
ENDROOT
BRANCH   1   2
ATOM      2  C   UNL A   1      37.572  31.516  33.576  1.00  0.00     0.188 C 
BRANCH   2   3
ATOM      3  C   UNL A   1      37.757  31.832  32.080  1.00  0.00     0.188 C 
BRANCH   3   4
ATOM      4  O   UNL A   1      36.584  32.251  31.410  1.00  0.00    -0.376 OA
BRANCH   4   5
ATOM      5  C   UNL A   1      35.854  31.398  30.544  1.00  0.00     0.202 C 
BRANCH   5   6
ATOM      6  C   UNL A   1      35.439  31.713  29.095  1.00  0.00     0.261 C 
BRANCH   6   7
ATOM      7  O   UNL A   1      34.990  30.632  28.287  1.00  0.00    -0.460 OA
BRANCH   7   8
ATOM      8  C   UNL A   1      33.821  30.780  27.637  1.00  0.00     0.338 C 
ATOM      9  O   UNL A   1      33.253  31.825  27.372  1.00  0.00    -0.246 OA
BRANCH   8  10
ATOM     10  C   UNL A   1      33.415  29.447  27.125  1.00  0.00     0.060 A 
ATOM     11  C   UNL A   1      32.682  27.003  25.978  1.00  0.00     0.060 A 
ATOM     12  C   UNL A   1      34.017  27.420  25.950  1.00  0.00     0.029 A 
ATOM     13  C   UNL A   1      31.757  27.741  26.727  1.00  0.00     0.029 A 
ATOM     14  C   UNL A   1      34.385  28.642  26.516  1.00  0.00     0.018 A 
ATOM     15  C   UNL A   1      32.108  28.970  27.277  1.00  0.00     0.018 A 
BRANCH  11  16
ATOM     16  N   UNL A   1      32.213  26.015  25.111  1.00  0.00    -0.257 N 
ATOM     17  C   UNL A   1      32.399  24.133  24.149  1.00  0.00     0.071 C 
ATOM     18  N   UNL A   1      32.533  24.713  25.301  1.00  0.00    -0.176 NA
ATOM     19  C   UNL A   1      32.143  25.048  22.982  1.00  0.00     0.091 C 
ATOM     20  C   UNL A   1      31.912  26.376  23.716  1.00  0.00     0.144 C 
BRANCH  17  21
ATOM     21  C   UNL A   1      32.474  22.669  23.983  1.00  0.00    -0.002 A 
ATOM     22  C   UNL A   1      32.581  19.887  23.803  1.00  0.00     0.067 A 
ATOM     23  C   UNL A   1      33.030  20.528  24.962  1.00  0.00     0.021 A 
ATOM     24  C   UNL A   1      32.085  20.631  22.727  1.00  0.00     0.021 A 
ATOM     25  C   UNL A   1      32.983  21.918  25.048  1.00  0.00     0.011 A 
ATOM     26  C   UNL A   1      32.024  22.029  22.823  1.00  0.00     0.011 A 
BRANCH  22  27
ATOM     27  S   UNL A   1      32.689  18.112  23.774  1.00  0.00     0.175 S 
ATOM     28  C   UNL A   1      34.381  17.672  24.029  1.00  0.00     0.163 C 
ATOM     29  O   UNL A   1      32.330  17.702  22.430  1.00  0.00    -0.224 OA
ATOM     30  O   UNL A   1      31.952  17.635  24.929  1.00  0.00    -0.224 OA
ENDBRANCH  22  27
ENDBRANCH  17  21
BRANCH  20  31
ATOM     31  C   UNL A   1      30.541  27.041  23.604  1.00  0.00    -0.023 A 
ATOM     32  C   UNL A   1      30.326  28.304  23.033  1.00  0.00     0.009 A 
ATOM     33  C   UNL A   1      29.407  26.319  24.043  1.00  0.00     0.009 A 
ATOM     34  C   UNL A   1      29.028  28.811  22.891  1.00  0.00     0.039 A 
ATOM     35  C   UNL A   1      28.111  26.800  23.847  1.00  0.00     0.039 A 
ATOM     36  C   UNL A   1      27.934  28.048  23.278  1.00  0.00     0.123 A 
ATOM     37  F   UNL A   1      26.697  28.527  23.097  1.00  0.00    -0.207 F 
ENDBRANCH  20  31
ENDBRANCH  11  16
ENDBRANCH   8  10
ENDBRANCH   7   8
ENDBRANCH   6   7
ENDBRANCH   5   6
ENDBRANCH   4   5
ENDBRANCH   3   4
ENDBRANCH   2   3
ENDBRANCH   1   2
BRANCH   1  38
ATOM     38  C   UNL A   1      39.658  32.626  34.215  1.00  0.00     0.188 C 
BRANCH  38  39
ATOM     39  C   UNL A   1      40.757  31.580  34.524  1.00  0.00     0.188 C 
BRANCH  39  40
ATOM     40  O   UNL A   1      41.391  31.008  33.389  1.00  0.00    -0.376 OA
BRANCH  40  41
ATOM     41  C   UNL A   1      42.022  29.747  33.528  1.00  0.00     0.202 C 
BRANCH  41  42
ATOM     42  C   UNL A   1      41.237  28.663  34.280  1.00  0.00     0.261 C 
BRANCH  42  43
ATOM     43  O   UNL A   1      41.849  28.175  35.481  1.00  0.00    -0.460 OA
BRANCH  43  44
ATOM     44  C   UNL A   1      41.904  26.832  35.632  1.00  0.00     0.338 C 
ATOM     45  O   UNL A   1      41.167  26.009  35.130  1.00  0.00    -0.246 OA
BRANCH  44  46
ATOM     46  C   UNL A   1      43.144  26.510  36.368  1.00  0.00     0.060 A 
ATOM     47  C   UNL A   1      43.120  25.457  37.290  1.00  0.00     0.016 A 
ATOM     48  C   UNL A   1      44.314  27.244  36.156  1.00  0.00     0.016 A 
ATOM     49  C   UNL A   1      44.256  25.168  38.044  1.00  0.00     0.010 A 
ATOM     50  C   UNL A   1      45.448  26.961  36.924  1.00  0.00     0.010 A 
ATOM     51  C   UNL A   1      45.409  25.951  37.901  1.00  0.00    -0.014 A 
BRANCH  51  52
ATOM     52  C   UNL A   1      46.496  25.822  38.902  1.00  0.00     0.031 A 
ATOM     53  C   UNL A   1      47.490  24.701  38.747  1.00  0.00     0.074 A 
ATOM     54  C   UNL A   1      46.627  26.707  39.906  1.00  0.00     0.049 A 
ATOM     55  N   UNL A   1      48.542  24.421  39.469  1.00  0.00    -0.248 NA
ATOM     56  C   UNL A   1      47.266  23.773  37.626  1.00  0.00     0.031 C 
ATOM     57  C   UNL A   1      45.733  27.835  40.160  1.00  0.00     0.029 A 
ATOM     58  N   UNL A   1      47.563  26.785  40.907  1.00  0.00    -0.354 N 
ATOM     59  C   UNL A   1      49.092  23.275  38.908  1.00  0.00     0.074 A 
ATOM     60  C   UNL A   1      48.247  22.900  37.796  1.00  0.00     0.031 C 
ATOM     61  C   UNL A   1      46.153  28.484  41.260  1.00  0.00     0.029 A 
ATOM     62  C   UNL A   1      47.332  27.805  41.798  1.00  0.00     0.049 A 
ATOM     63  H   UNL A   1      48.327  26.169  40.980  1.00  0.00     0.167 HD
ATOM     64  C   UNL A   1      50.208  22.602  39.274  1.00  0.00     0.034 A 
ATOM     65  C   UNL A   1      47.987  28.143  42.926  1.00  0.00     0.034 A 
ATOM     66  C   UNL A   1      51.053  22.980  40.376  1.00  0.00     0.049 A 
ATOM     67  C   UNL A   1      49.213  27.362  43.327  1.00  0.00     0.074 A 
ATOM     68  C   UNL A   1      52.229  22.390  40.799  1.00  0.00     0.029 A 
ATOM     69  N   UNL A   1      50.800  24.034  41.240  1.00  0.00    -0.354 N 
ATOM     70  N   UNL A   1      49.788  26.353  42.718  1.00  0.00    -0.248 NA
ATOM     71  C   UNL A   1      49.904  27.794  44.551  1.00  0.00     0.031 C 
ATOM     72  C   UNL A   1      52.667  23.060  41.945  1.00  0.00     0.029 A 
ATOM     73  C   UNL A   1      51.790  24.102  42.205  1.00  0.00     0.049 A 
ATOM     74  H   UNL A   1      50.030  24.645  41.177  1.00  0.00     0.167 HD
ATOM     75  C   UNL A   1      50.927  26.056  43.459  1.00  0.00     0.074 A 
ATOM     76  C   UNL A   1      50.971  27.007  44.551  1.00  0.00     0.031 C 
ATOM     77  C   UNL A   1      51.849  25.080  43.261  1.00  0.00     0.034 A 
BRANCH  64  78
ATOM     78  C   UNL A   1      50.588  21.387  38.468  1.00  0.00     0.023 A 
ATOM     79  C   UNL A   1      50.123  20.113  38.852  1.00  0.00     0.012 A 
ATOM     80  C   UNL A   1      51.366  21.515  37.299  1.00  0.00     0.148 A 
ATOM     81  C   UNL A   1      50.453  18.981  38.107  1.00  0.00     0.002 A 
ATOM     82  C   UNL A   1      51.649  20.390  36.534  1.00  0.00     0.091 A 
ATOM     83  F   UNL A   1      51.817  22.731  36.963  1.00  0.00    -0.205 F 
ATOM     84  C   UNL A   1      51.206  19.121  36.943  1.00  0.00     0.022 A 
BRANCH  82  85
ATOM     85  S   UNL A   1      52.540  20.476  34.978  1.00  0.00     0.127 S 
ATOM     86  O   UNL A   1      52.164  19.210  34.352  1.00  0.00    -0.237 OA
ATOM     87  O   UNL A   1      51.950  21.662  34.355  1.00  0.00    -0.237 OA
ATOM     88  O   UNL A   1      53.947  20.607  35.325  1.00  0.00    -0.744 OA
ENDBRANCH  82  85
ENDBRANCH  64  78
BRANCH  65  89
ATOM     89  C   UNL A   1      47.516  29.294  43.749  1.00  0.00     0.023 A 
ATOM     90  C   UNL A   1      47.867  30.607  43.383  1.00  0.00     0.012 A 
ATOM     91  C   UNL A   1      46.720  29.090  44.892  1.00  0.00     0.148 A 
ATOM     92  C   UNL A   1      47.464  31.694  44.160  1.00  0.00     0.002 A 
ATOM     93  C   UNL A   1      46.273  30.179  45.629  1.00  0.00     0.091 A 
ATOM     94  F   UNL A   1      46.411  27.831  45.234  1.00  0.00    -0.205 F 
ATOM     95  C   UNL A   1      46.659  31.482  45.276  1.00  0.00     0.022 A 
BRANCH  93  96
ATOM     96  S   UNL A   1      45.131  30.012  47.004  1.00  0.00     0.127 S 
ATOM     97  O   UNL A   1      43.944  29.475  46.344  1.00  0.00    -0.237 OA
ATOM     98  O   UNL A   1      45.840  29.064  47.866  1.00  0.00    -0.237 OA
ATOM     99  O   UNL A   1      44.991  31.349  47.566  1.00  0.00    -0.744 OA
ENDBRANCH  93  96
ENDBRANCH  65  89
BRANCH  77 100
ATOM    100  C   UNL A   1      53.019  25.018  44.211  1.00  0.00     0.023 A 
ATOM    101  C   UNL A   1      52.888  24.375  45.458  1.00  0.00     0.012 A 
ATOM    102  C   UNL A   1      54.270  25.550  43.839  1.00  0.00     0.148 A 
ATOM    103  C   UNL A   1      53.969  24.304  46.338  1.00  0.00     0.002 A 
ATOM    104  C   UNL A   1      55.357  25.426  44.696  1.00  0.00     0.091 A 
ATOM    105  F   UNL A   1      54.374  26.171  42.654  1.00  0.00    -0.205 F 
ATOM    106  C   UNL A   1      55.204  24.820  45.952  1.00  0.00     0.022 A 
BRANCH 104 107
ATOM    107  S   UNL A   1      57.008  25.970  44.242  1.00  0.00     0.127 S 
ATOM    108  O   UNL A   1      56.763  27.350  43.825  1.00  0.00    -0.237 OA
ATOM    109  O   UNL A   1      57.737  25.835  45.503  1.00  0.00    -0.237 OA
ATOM    110  O   UNL A   1      57.452  25.070  43.187  1.00  0.00    -0.744 OA
ENDBRANCH 104 107
ENDBRANCH  77 100
ENDBRANCH  51  52
ENDBRANCH  44  46
ENDBRANCH  43  44
ENDBRANCH  42  43
ENDBRANCH  41  42
ENDBRANCH  40  41
ENDBRANCH  39  40
ENDBRANCH  38  39
ENDBRANCH   1  38
TORSDOF 27
ENDMDL
MODEL 2
REMARK VINA RESULT:      -8.8      7.595     13.463
REMARK SMILES CS(=O)(=O)c1ccc(C2=NN(c3ccc(C(=O)OCCOCCOCCOCCOC(=O)c4ccc(-c5c6nc(c(-c7cccc(S(=O)(=O)[O-])c7F)c7ccc([nH]7)c(-c7cccc(S(=O)(=O)[O-])c7F)c7nc(c(-c8cccc(S(=O)(=O)[O-])c8F)c8ccc5[nH]8)C=C7)C=C6)cc4)cc3)[C@H](c3ccc(F)cc3)C2)cc1
REMARK SMILES IDX 24 1 23 2 22 3 21 4 20 5 19 6 18 7 16 8 17 9 15 10 12 11
REMARK SMILES IDX 13 12 97 13 14 14 96 15 11 16 9 17 10 18 106 19 98 20 8 21
REMARK SMILES IDX 5 22 6 23 108 24 7 25 107 26 2 27 1 28 3 29 4 30 99 31
REMARK SMILES IDX 100 32 105 33 101 34 104 35 102 36 103 37 25 38 26 39 27 40
REMARK SMILES IDX 28 41 29 42 30 43 31 44 32 45 33 46 34 47 95 48 35 49 94 50
REMARK SMILES IDX 36 51 37 52 38 53 88 54 39 55 93 56 87 57 89 58 40 59 92 60
REMARK SMILES IDX 86 61 85 62 41 64 73 65 53 66 72 67 54 68 57 69 71 70 90 71
REMARK SMILES IDX 55 72 56 73 70 75 91 76 58 77 42 78 43 79 51 80 44 81 46 82
REMARK SMILES IDX 52 83 45 84 47 85 48 86 49 87 50 88 74 89 75 90 83 91 76 92
REMARK SMILES IDX 78 93 84 94 77 95 79 96 80 97 81 98 82 99 59 100 60 101
REMARK SMILES IDX 68 102 61 103 63 104 69 105 62 106 64 107 65 108 66 109
REMARK SMILES IDX 67 110
REMARK H PARENT 89 63 57 74
REMARK Flexibility Score: inf
ROOT
ATOM      1  O   UNL A   1      35.070  30.783  28.965  1.00  0.00    -0.377 OA
ENDROOT
BRANCH   1   2
ATOM      2  C   UNL A   1      36.195  30.299  28.256  1.00  0.00     0.188 C 
BRANCH   2   3
ATOM      3  C   UNL A   1      37.503  31.064  28.531  1.00  0.00     0.188 C 
BRANCH   3   4
ATOM      4  O   UNL A   1      38.077  30.828  29.801  1.00  0.00    -0.376 OA
BRANCH   4   5
ATOM      5  C   UNL A   1      37.460  31.247  31.007  1.00  0.00     0.202 C 
BRANCH   5   6
ATOM      6  C   UNL A   1      37.164  30.365  32.233  1.00  0.00     0.261 C 
BRANCH   6   7
ATOM      7  O   UNL A   1      38.272  29.877  32.979  1.00  0.00    -0.460 OA
BRANCH   7   8
ATOM      8  C   UNL A   1      38.557  28.565  32.891  1.00  0.00     0.338 C 
ATOM      9  O   UNL A   1      37.770  27.636  32.939  1.00  0.00    -0.246 OA
BRANCH   8  10
ATOM     10  C   UNL A   1      39.993  28.436  32.538  1.00  0.00     0.060 A 
ATOM     11  C   UNL A   1      42.658  28.016  31.794  1.00  0.00     0.060 A 
ATOM     12  C   UNL A   1      41.683  28.248  30.817  1.00  0.00     0.029 A 
ATOM     13  C   UNL A   1      42.312  28.162  33.144  1.00  0.00     0.029 A 
ATOM     14  C   UNL A   1      40.352  28.452  31.185  1.00  0.00     0.018 A 
ATOM     15  C   UNL A   1      40.985  28.344  33.521  1.00  0.00     0.018 A 
BRANCH  11  16
ATOM     16  N   UNL A   1      43.884  27.436  31.471  1.00  0.00    -0.257 N 
ATOM     17  C   UNL A   1      45.368  26.865  30.066  1.00  0.00     0.071 C 
ATOM     18  N   UNL A   1      44.587  27.848  30.389  1.00  0.00    -0.176 NA
ATOM     19  C   UNL A   1      45.138  25.575  30.806  1.00  0.00     0.091 C 
ATOM     20  C   UNL A   1      44.141  26.043  31.875  1.00  0.00     0.144 C 
BRANCH  17  21
ATOM     21  C   UNL A   1      46.430  26.995  29.050  1.00  0.00    -0.002 A 
ATOM     22  C   UNL A   1      48.389  27.368  27.099  1.00  0.00     0.067 A 
ATOM     23  C   UNL A   1      47.097  27.861  26.892  1.00  0.00     0.021 A 
ATOM     24  C   UNL A   1      48.707  26.681  28.275  1.00  0.00     0.021 A 
ATOM     25  C   UNL A   1      46.117  27.668  27.864  1.00  0.00     0.011 A 
ATOM     26  C   UNL A   1      47.723  26.502  29.258  1.00  0.00     0.011 A 
BRANCH  22  27
ATOM     27  S   UNL A   1      49.574  27.649  25.802  1.00  0.00     0.175 S 
ATOM     28  C   UNL A   1      50.498  26.157  25.587  1.00  0.00     0.163 C 
ATOM     29  O   UNL A   1      50.488  28.660  26.295  1.00  0.00    -0.224 OA
ATOM     30  O   UNL A   1      48.813  27.851  24.584  1.00  0.00    -0.224 OA
ENDBRANCH  22  27
ENDBRANCH  17  21
BRANCH  20  31
ATOM     31  C   UNL A   1      44.559  25.966  33.343  1.00  0.00    -0.023 A 
ATOM     32  C   UNL A   1      45.675  26.628  33.877  1.00  0.00     0.009 A 
ATOM     33  C   UNL A   1      43.740  25.239  34.238  1.00  0.00     0.009 A 
ATOM     34  C   UNL A   1      45.947  26.576  35.249  1.00  0.00     0.039 A 
ATOM     35  C   UNL A   1      43.979  25.237  35.613  1.00  0.00     0.039 A 
ATOM     36  C   UNL A   1      45.087  25.902  36.106  1.00  0.00     0.123 A 
ATOM     37  F   UNL A   1      45.334  25.896  37.422  1.00  0.00    -0.207 F 
ENDBRANCH  20  31
ENDBRANCH  11  16
ENDBRANCH   8  10
ENDBRANCH   7   8
ENDBRANCH   6   7
ENDBRANCH   5   6
ENDBRANCH   4   5
ENDBRANCH   3   4
ENDBRANCH   2   3
ENDBRANCH   1   2
BRANCH   1  38
ATOM     38  C   UNL A   1      34.571  32.085  28.666  1.00  0.00     0.188 C 
BRANCH  38  39
ATOM     39  C   UNL A   1      34.461  33.200  29.735  1.00  0.00     0.188 C 
BRANCH  39  40
ATOM     40  O   UNL A   1      34.433  32.752  31.083  1.00  0.00    -0.376 OA
BRANCH  40  41
ATOM     41  C   UNL A   1      34.473  33.717  32.119  1.00  0.00     0.202 C 
BRANCH  41  42
ATOM     42  C   UNL A   1      34.995  33.242  33.483  1.00  0.00     0.261 C 
BRANCH  42  43
ATOM     43  O   UNL A   1      36.135  33.949  33.990  1.00  0.00    -0.460 OA
BRANCH  43  44
ATOM     44  C   UNL A   1      36.507  33.669  35.259  1.00  0.00     0.338 C 
ATOM     45  O   UNL A   1      35.792  33.625  36.239  1.00  0.00    -0.246 OA
BRANCH  44  46
ATOM     46  C   UNL A   1      37.918  33.230  35.230  1.00  0.00     0.060 A 
ATOM     47  C   UNL A   1      38.903  34.170  34.904  1.00  0.00     0.016 A 
ATOM     48  C   UNL A   1      38.263  31.906  35.513  1.00  0.00     0.016 A 
ATOM     49  C   UNL A   1      40.236  33.774  34.808  1.00  0.00     0.010 A 
ATOM     50  C   UNL A   1      39.599  31.508  35.402  1.00  0.00     0.010 A 
ATOM     51  C   UNL A   1      40.583  32.431  35.006  1.00  0.00    -0.014 A 
BRANCH  51  52
ATOM     52  C   UNL A   1      41.940  31.972  34.620  1.00  0.00     0.031 A 
ATOM     53  C   UNL A   1      42.893  31.546  35.705  1.00  0.00     0.074 A 
ATOM     54  C   UNL A   1      42.307  31.894  33.329  1.00  0.00     0.049 A 
ATOM     55  N   UNL A   1      44.106  31.070  35.602  1.00  0.00    -0.248 NA
ATOM     56  C   UNL A   1      42.413  31.673  37.091  1.00  0.00     0.031 C 
ATOM     57  C   UNL A   1      41.475  32.275  32.189  1.00  0.00     0.029 A 
ATOM     58  N   UNL A   1      43.486  31.478  32.763  1.00  0.00    -0.354 N 
ATOM     59  C   UNL A   1      44.543  30.862  36.905  1.00  0.00     0.074 A 
ATOM     60  C   UNL A   1      43.472  31.281  37.783  1.00  0.00     0.031 C 
ATOM     61  C   UNL A   1      42.176  32.091  31.057  1.00  0.00     0.029 A 
ATOM     62  C   UNL A   1      43.513  31.601  31.394  1.00  0.00     0.049 A 
ATOM     63  H   UNL A   1      44.240  31.125  33.286  1.00  0.00     0.167 HD
ATOM     64  C   UNL A   1      45.722  30.355  37.334  1.00  0.00     0.034 A 
ATOM     65  C   UNL A   1      44.507  31.360  30.516  1.00  0.00     0.034 A 
ATOM     66  C   UNL A   1      46.783  29.931  36.460  1.00  0.00     0.049 A 
ATOM     67  C   UNL A   1      45.820  30.819  31.021  1.00  0.00     0.074 A 
ATOM     68  C   UNL A   1      47.998  29.362  36.796  1.00  0.00     0.029 A 
ATOM     69  N   UNL A   1      46.764  30.048  35.079  1.00  0.00    -0.354 N 
ATOM     70  N   UNL A   1      46.175  30.517  32.247  1.00  0.00    -0.248 NA
ATOM     71  C   UNL A   1      46.858  30.548  30.015  1.00  0.00     0.031 C 
ATOM     72  C   UNL A   1      48.732  29.173  35.621  1.00  0.00     0.029 A 
ATOM     73  C   UNL A   1      47.952  29.576  34.548  1.00  0.00     0.049 A 
ATOM     74  H   UNL A   1      46.015  30.412  34.553  1.00  0.00     0.167 HD
ATOM     75  C   UNL A   1      47.456  29.983  32.155  1.00  0.00     0.074 A 
ATOM     76  C   UNL A   1      47.806  29.985  30.750  1.00  0.00     0.031 C 
ATOM     77  C   UNL A   1      48.273  29.540  33.144  1.00  0.00     0.034 A 
BRANCH  64  78
ATOM     78  C   UNL A   1      45.926  30.221  38.822  1.00  0.00     0.023 A 
ATOM     79  C   UNL A   1      45.568  29.024  39.476  1.00  0.00     0.012 A 
ATOM     80  C   UNL A   1      46.519  31.262  39.562  1.00  0.00     0.148 A 
ATOM     81  C   UNL A   1      45.765  28.879  40.848  1.00  0.00     0.002 A 
ATOM     82  C   UNL A   1      46.758  31.091  40.920  1.00  0.00     0.091 A 
ATOM     83  F   UNL A   1      46.832  32.400  38.926  1.00  0.00    -0.205 F 
ATOM     84  C   UNL A   1      46.369  29.907  41.568  1.00  0.00     0.022 A 
BRANCH  82  85
ATOM     85  S   UNL A   1      47.604  32.322  41.917  1.00  0.00     0.127 S 
ATOM     86  O   UNL A   1      47.571  31.703  43.241  1.00  0.00    -0.237 OA
ATOM     87  O   UNL A   1      48.928  32.360  41.295  1.00  0.00    -0.237 OA
ATOM     88  O   UNL A   1      46.834  33.550  41.783  1.00  0.00    -0.744 OA
ENDBRANCH  82  85
ENDBRANCH  64  78
BRANCH  65  89
ATOM     89  C   UNL A   1      44.294  31.602  29.060  1.00  0.00     0.023 A 
ATOM     90  C   UNL A   1      43.935  30.532  28.217  1.00  0.00     0.012 A 
ATOM     91  C   UNL A   1      44.444  32.889  28.510  1.00  0.00     0.148 A 
ATOM     92  C   UNL A   1      43.765  30.733  26.847  1.00  0.00     0.002 A 
ATOM     93  C   UNL A   1      44.215  33.094  27.155  1.00  0.00     0.091 A 
ATOM     94  F   UNL A   1      44.802  33.890  29.325  1.00  0.00    -0.205 F 
ATOM     95  C   UNL A   1      43.895  32.014  26.318  1.00  0.00     0.022 A 
BRANCH  93  96
ATOM     96  S   UNL A   1      44.235  34.727  26.409  1.00  0.00     0.127 S 
ATOM     97  O   UNL A   1      43.785  34.440  25.050  1.00  0.00    -0.237 OA
ATOM     98  O   UNL A   1      43.269  35.446  27.241  1.00  0.00    -0.237 OA
ATOM     99  O   UNL A   1      45.607  35.201  26.533  1.00  0.00    -0.744 OA
ENDBRANCH  93  96
ENDBRANCH  65  89
BRANCH  77 100
ATOM    100  C   UNL A   1      49.610  28.967  32.744  1.00  0.00     0.023 A 
ATOM    101  C   UNL A   1      50.759  29.783  32.737  1.00  0.00     0.012 A 
ATOM    102  C   UNL A   1      49.735  27.598  32.430  1.00  0.00     0.148 A 
ATOM    103  C   UNL A   1      52.001  29.256  32.378  1.00  0.00     0.002 A 
ATOM    104  C   UNL A   1      50.984  27.069  32.128  1.00  0.00     0.091 A 
ATOM    105  F   UNL A   1      48.629  26.839  32.428  1.00  0.00    -0.205 F 
ATOM    106  C   UNL A   1      52.114  27.899  32.085  1.00  0.00     0.022 A 
BRANCH 104 107
ATOM    107  S   UNL A   1      51.241  25.315  31.837  1.00  0.00     0.127 S 
ATOM    108  O   UNL A   1      50.197  24.718  32.668  1.00  0.00    -0.237 OA
ATOM    109  O   UNL A   1      51.012  25.203  30.396  1.00  0.00    -0.237 OA
ATOM    110  O   UNL A   1      52.608  25.034  32.255  1.00  0.00    -0.744 OA
ENDBRANCH 104 107
ENDBRANCH  77 100
ENDBRANCH  51  52
ENDBRANCH  44  46
ENDBRANCH  43  44
ENDBRANCH  42  43
ENDBRANCH  41  42
ENDBRANCH  40  41
ENDBRANCH  39  40
ENDBRANCH  38  39
ENDBRANCH   1  38
TORSDOF 27
ENDMDL
MODEL 3
REMARK VINA RESULT:      -8.8      1.676      2.091
REMARK SMILES CS(=O)(=O)c1ccc(C2=NN(c3ccc(C(=O)OCCOCCOCCOCCOC(=O)c4ccc(-c5c6nc(c(-c7cccc(S(=O)(=O)[O-])c7F)c7ccc([nH]7)c(-c7cccc(S(=O)(=O)[O-])c7F)c7nc(c(-c8cccc(S(=O)(=O)[O-])c8F)c8ccc5[nH]8)C=C7)C=C6)cc4)cc3)[C@H](c3ccc(F)cc3)C2)cc1
REMARK SMILES IDX 24 1 23 2 22 3 21 4 20 5 19 6 18 7 16 8 17 9 15 10 12 11
REMARK SMILES IDX 13 12 97 13 14 14 96 15 11 16 9 17 10 18 106 19 98 20 8 21
REMARK SMILES IDX 5 22 6 23 108 24 7 25 107 26 2 27 1 28 3 29 4 30 99 31
REMARK SMILES IDX 100 32 105 33 101 34 104 35 102 36 103 37 25 38 26 39 27 40
REMARK SMILES IDX 28 41 29 42 30 43 31 44 32 45 33 46 34 47 95 48 35 49 94 50
REMARK SMILES IDX 36 51 37 52 38 53 88 54 39 55 93 56 87 57 89 58 40 59 92 60
REMARK SMILES IDX 86 61 85 62 41 64 73 65 53 66 72 67 54 68 57 69 71 70 90 71
REMARK SMILES IDX 55 72 56 73 70 75 91 76 58 77 42 78 43 79 51 80 44 81 46 82
REMARK SMILES IDX 52 83 45 84 47 85 48 86 49 87 50 88 74 89 75 90 83 91 76 92
REMARK SMILES IDX 78 93 84 94 77 95 79 96 80 97 81 98 82 99 59 100 60 101
REMARK SMILES IDX 68 102 61 103 63 104 69 105 62 106 64 107 65 108 66 109
REMARK SMILES IDX 67 110
REMARK H PARENT 89 63 57 74
REMARK Flexibility Score: inf
ROOT
ATOM      1  O   UNL A   1      38.261  32.449  34.293  1.00  0.00    -0.377 OA
ENDROOT
BRANCH   1   2
ATOM      2  C   UNL A   1      37.475  31.632  33.446  1.00  0.00     0.188 C 
BRANCH   2   3
ATOM      3  C   UNL A   1      37.530  32.015  31.955  1.00  0.00     0.188 C 
BRANCH   3   4
ATOM      4  O   UNL A   1      36.294  32.415  31.397  1.00  0.00    -0.376 OA
BRANCH   4   5
ATOM      5  C   UNL A   1      35.546  31.585  30.526  1.00  0.00     0.202 C 
BRANCH   5   6
ATOM      6  C   UNL A   1      34.983  31.983  29.149  1.00  0.00     0.261 C 
BRANCH   6   7
ATOM      7  O   UNL A   1      34.710  30.942  28.220  1.00  0.00    -0.460 OA
BRANCH   7   8
ATOM      8  C   UNL A   1      33.496  30.925  27.639  1.00  0.00     0.338 C 
ATOM      9  O   UNL A   1      32.779  31.880  27.402  1.00  0.00    -0.246 OA
BRANCH   8  10
ATOM     10  C   UNL A   1      33.244  29.542  27.158  1.00  0.00     0.060 A 
ATOM     11  C   UNL A   1      32.799  27.004  26.068  1.00  0.00     0.060 A 
ATOM     12  C   UNL A   1      34.084  27.559  26.056  1.00  0.00     0.029 A 
ATOM     13  C   UNL A   1      31.784  27.661  26.775  1.00  0.00     0.029 A 
ATOM     14  C   UNL A   1      34.308  28.828  26.594  1.00  0.00     0.018 A 
ATOM     15  C   UNL A   1      31.991  28.935  27.296  1.00  0.00     0.018 A 
BRANCH  11  16
ATOM     16  N   UNL A   1      32.457  25.950  25.221  1.00  0.00    -0.257 N 
ATOM     17  C   UNL A   1      32.836  24.048  24.361  1.00  0.00     0.071 C 
ATOM     18  N   UNL A   1      32.855  24.683  25.490  1.00  0.00    -0.176 NA
ATOM     19  C   UNL A   1      32.592  24.892  23.139  1.00  0.00     0.091 C 
ATOM     20  C   UNL A   1      32.223  26.229  23.795  1.00  0.00     0.144 C 
BRANCH  17  21
ATOM     21  C   UNL A   1      33.024  22.588  24.267  1.00  0.00    -0.002 A 
ATOM     22  C   UNL A   1      33.426  19.827  24.221  1.00  0.00     0.067 A 
ATOM     23  C   UNL A   1      34.329  20.652  24.901  1.00  0.00     0.021 A 
ATOM     24  C   UNL A   1      32.325  20.376  23.557  1.00  0.00     0.021 A 
ATOM     25  C   UNL A   1      34.131  22.031  24.916  1.00  0.00     0.011 A 
ATOM     26  C   UNL A   1      32.120  21.763  23.588  1.00  0.00     0.011 A 
BRANCH  22  27
ATOM     27  S   UNL A   1      33.761  18.080  24.242  1.00  0.00     0.175 S 
ATOM     28  C   UNL A   1      32.715  17.348  25.465  1.00  0.00     0.163 C 
ATOM     29  O   UNL A   1      35.130  17.931  24.694  1.00  0.00    -0.224 OA
ATOM     30  O   UNL A   1      33.331  17.562  22.957  1.00  0.00    -0.224 OA
ENDBRANCH  22  27
ENDBRANCH  17  21
BRANCH  20  31
ATOM     31  C   UNL A   1      30.818  26.787  23.569  1.00  0.00    -0.023 A 
ATOM     32  C   UNL A   1      29.643  26.153  24.000  1.00  0.00     0.009 A 
ATOM     33  C   UNL A   1      30.688  28.049  22.944  1.00  0.00     0.009 A 
ATOM     34  C   UNL A   1      28.396  26.767  23.829  1.00  0.00     0.039 A 
ATOM     35  C   UNL A   1      29.452  28.686  22.827  1.00  0.00     0.039 A 
ATOM     36  C   UNL A   1      28.314  28.034  23.266  1.00  0.00     0.123 A 
ATOM     37  F   UNL A   1      27.120  28.628  23.148  1.00  0.00    -0.207 F 
ENDBRANCH  20  31
ENDBRANCH  11  16
ENDBRANCH   8  10
ENDBRANCH   7   8
ENDBRANCH   6   7
ENDBRANCH   5   6
ENDBRANCH   4   5
ENDBRANCH   3   4
ENDBRANCH   2   3
ENDBRANCH   1   2
BRANCH   1  38
ATOM     38  C   UNL A   1      39.642  32.634  33.990  1.00  0.00     0.188 C 
BRANCH  38  39
ATOM     39  C   UNL A   1      40.718  31.572  34.330  1.00  0.00     0.188 C 
BRANCH  39  40
ATOM     40  O   UNL A   1      41.242  30.859  33.219  1.00  0.00    -0.376 OA
BRANCH  40  41
ATOM     41  C   UNL A   1      41.700  29.534  33.419  1.00  0.00     0.202 C 
BRANCH  41  42
ATOM     42  C   UNL A   1      40.829  28.630  34.303  1.00  0.00     0.261 C 
BRANCH  42  43
ATOM     43  O   UNL A   1      41.471  28.102  35.472  1.00  0.00    -0.460 OA
BRANCH  43  44
ATOM     44  C   UNL A   1      41.558  26.756  35.560  1.00  0.00     0.338 C 
ATOM     45  O   UNL A   1      40.781  25.941  35.108  1.00  0.00    -0.246 OA
BRANCH  44  46
ATOM     46  C   UNL A   1      42.875  26.426  36.143  1.00  0.00     0.060 A 
ATOM     47  C   UNL A   1      42.952  25.382  37.073  1.00  0.00     0.016 A 
ATOM     48  C   UNL A   1      44.019  27.142  35.782  1.00  0.00     0.016 A 
ATOM     49  C   UNL A   1      44.167  25.087  37.687  1.00  0.00     0.010 A 
ATOM     50  C   UNL A   1      45.234  26.853  36.410  1.00  0.00     0.010 A 
ATOM     51  C   UNL A   1      45.303  25.853  37.396  1.00  0.00    -0.014 A 
BRANCH  51  52
ATOM     52  C   UNL A   1      46.503  25.721  38.258  1.00  0.00     0.031 A 
ATOM     53  C   UNL A   1      47.612  24.803  37.815  1.00  0.00     0.074 A 
ATOM     54  C   UNL A   1      46.628  26.433  39.392  1.00  0.00     0.049 A 
ATOM     55  N   UNL A   1      48.766  24.565  38.380  1.00  0.00    -0.248 NA
ATOM     56  C   UNL A   1      47.388  24.056  36.566  1.00  0.00     0.031 C 
ATOM     57  C   UNL A   1      45.626  27.355  39.925  1.00  0.00     0.029 A 
ATOM     58  N   UNL A   1      47.651  26.479  40.306  1.00  0.00    -0.354 N 
ATOM     59  C   UNL A   1      49.396  23.626  37.573  1.00  0.00     0.074 A 
ATOM     60  C   UNL A   1      48.489  23.323  36.487  1.00  0.00     0.031 C 
ATOM     61  C   UNL A   1      46.077  27.864  41.085  1.00  0.00     0.029 A 
ATOM     62  C   UNL A   1      47.388  27.288  41.385  1.00  0.00     0.049 A 
ATOM     63  H   UNL A   1      48.492  25.980  40.198  1.00  0.00     0.167 HD
ATOM     64  C   UNL A   1      50.625  23.075  37.711  1.00  0.00     0.034 A 
ATOM     65  C   UNL A   1      48.115  27.523  42.496  1.00  0.00     0.034 A 
ATOM     66  C   UNL A   1      51.529  23.384  38.787  1.00  0.00     0.049 A 
ATOM     67  C   UNL A   1      49.470  26.878  42.639  1.00  0.00     0.074 A 
ATOM     68  C   UNL A   1      52.813  22.912  38.991  1.00  0.00     0.029 A 
ATOM     69  N   UNL A   1      51.238  24.226  39.848  1.00  0.00    -0.354 N 
ATOM     70  N   UNL A   1      50.101  26.083  41.808  1.00  0.00    -0.248 NA
ATOM     71  C   UNL A   1      50.231  27.194  43.857  1.00  0.00     0.031 C 
ATOM     72  C   UNL A   1      53.284  23.437  40.199  1.00  0.00     0.029 A 
ATOM     73  C   UNL A   1      52.312  24.276  40.719  1.00  0.00     0.049 A 
ATOM     74  H   UNL A   1      50.393  24.717  39.965  1.00  0.00     0.167 HD
ATOM     75  C   UNL A   1      51.345  25.839  42.381  1.00  0.00     0.074 A 
ATOM     76  C   UNL A   1      51.385  26.587  43.620  1.00  0.00     0.031 C 
ATOM     77  C   UNL A   1      52.359  25.060  41.928  1.00  0.00     0.034 A 
BRANCH  64  78
ATOM     78  C   UNL A   1      51.069  22.085  36.666  1.00  0.00     0.023 A 
ATOM     79  C   UNL A   1      50.913  20.702  36.894  1.00  0.00     0.012 A 
ATOM     80  C   UNL A   1      51.594  22.526  35.435  1.00  0.00     0.148 A 
ATOM     81  C   UNL A   1      51.305  19.774  35.930  1.00  0.00     0.002 A 
ATOM     82  C   UNL A   1      51.936  21.598  34.460  1.00  0.00     0.091 A 
ATOM     83  F   UNL A   1      51.755  23.844  35.246  1.00  0.00    -0.205 F 
ATOM     84  C   UNL A   1      51.806  20.222  34.710  1.00  0.00     0.022 A 
BRANCH  82  85
ATOM     85  S   UNL A   1      52.511  22.076  32.827  1.00  0.00     0.127 S 
ATOM     86  O   UNL A   1      53.551  23.050  33.154  1.00  0.00    -0.237 OA
ATOM     87  O   UNL A   1      53.010  20.807  32.296  1.00  0.00    -0.237 OA
ATOM     88  O   UNL A   1      51.350  22.613  32.131  1.00  0.00    -0.744 OA
ENDBRANCH  82  85
ENDBRANCH  64  78
BRANCH  65  89
ATOM     89  C   UNL A   1      47.592  28.435  43.553  1.00  0.00     0.023 A 
ATOM     90  C   UNL A   1      46.799  27.917  44.596  1.00  0.00     0.012 A 
ATOM     91  C   UNL A   1      47.879  29.813  43.529  1.00  0.00     0.148 A 
ATOM     92  C   UNL A   1      46.272  28.760  45.575  1.00  0.00     0.002 A 
ATOM     93  C   UNL A   1      47.401  30.638  44.539  1.00  0.00     0.091 A 
ATOM     94  F   UNL A   1      48.621  30.289  42.520  1.00  0.00    -0.205 F 
ATOM     95  C   UNL A   1      46.582  30.118  45.553  1.00  0.00     0.022 A 
BRANCH  93  96
ATOM     96  S   UNL A   1      47.851  32.371  44.663  1.00  0.00     0.127 S 
ATOM     97  O   UNL A   1      47.148  32.777  45.877  1.00  0.00    -0.237 OA
ATOM     98  O   UNL A   1      49.307  32.293  44.790  1.00  0.00    -0.237 OA
ATOM     99  O   UNL A   1      47.386  32.989  43.428  1.00  0.00    -0.744 OA
ENDBRANCH  93  96
ENDBRANCH  65  89
BRANCH  77 100
ATOM    100  C   UNL A   1      53.626  25.013  42.746  1.00  0.00     0.023 A 
ATOM    101  C   UNL A   1      54.661  25.938  42.507  1.00  0.00     0.012 A 
ATOM    102  C   UNL A   1      53.764  24.081  43.795  1.00  0.00     0.148 A 
ATOM    103  C   UNL A   1      55.831  25.907  43.267  1.00  0.00     0.002 A 
ATOM    104  C   UNL A   1      54.908  24.091  44.583  1.00  0.00     0.091 A 
ATOM    105  F   UNL A   1      52.775  23.197  44.000  1.00  0.00    -0.205 F 
ATOM    106  C   UNL A   1      55.949  24.991  44.310  1.00  0.00     0.022 A 
BRANCH 104 107
ATOM    107  S   UNL A   1      55.104  23.018  46.010  1.00  0.00     0.127 S 
ATOM    108  O   UNL A   1      55.596  21.788  45.393  1.00  0.00    -0.237 OA
ATOM    109  O   UNL A   1      56.096  23.739  46.807  1.00  0.00    -0.237 OA
ATOM    110  O   UNL A   1      53.787  22.923  46.626  1.00  0.00    -0.744 OA
ENDBRANCH 104 107
ENDBRANCH  77 100
ENDBRANCH  51  52
ENDBRANCH  44  46
ENDBRANCH  43  44
ENDBRANCH  42  43
ENDBRANCH  41  42
ENDBRANCH  40  41
ENDBRANCH  39  40
ENDBRANCH  38  39
ENDBRANCH   1  38
TORSDOF 27
ENDMDL
