MODEL 1
REMARK VINA RESULT:      -9.1      0.000      0.000
REMARK SMILES C[C@@H](CC(=O)OCCOCCOCCOCCOC(=O)c1ccc(-c2c3nc(c(-c4cccc(S(=O)(=O)[O-])c4F)c4ccc([nH]4)c(-c4cccc(S(=O)(=O)[O-])c4F)c4nc(c(-c5cccc(S(=O)(=O)[O-])c5F)c5ccc2[nH]5)C=C4)C=C3)cc1)NC(=O)/C=C/c1cccnc1
REMARK SMILES IDX 11 1 10 2 9 3 8 4 7 5 6 6 4 7 5 8 3 9 2 10 1 11 84 12 85 13
REMARK SMILES IDX 86 15 87 16 88 17 89 18 90 19 94 20 91 21 93 22 92 23 12 24
REMARK SMILES IDX 13 25 14 26 15 27 16 28 17 29 18 30 19 31 20 32 21 33 22 34
REMARK SMILES IDX 83 35 23 36 82 37 24 38 25 39 26 40 76 41 27 42 81 43 75 44
REMARK SMILES IDX 77 45 28 46 80 47 74 48 73 49 29 51 61 52 41 53 60 54 42 55
REMARK SMILES IDX 45 56 59 57 78 58 43 59 44 60 58 62 79 63 46 64 30 65 31 66
REMARK SMILES IDX 39 67 32 68 34 69 40 70 33 71 35 72 36 73 37 74 38 75 62 76
REMARK SMILES IDX 63 77 71 78 64 79 66 80 72 81 65 82 67 83 68 84 69 85 70 86
REMARK SMILES IDX 47 87 48 88 56 89 49 90 51 91 57 92 50 93 52 94 53 95 54 96
REMARK SMILES IDX 55 97
REMARK H PARENT 84 14 77 50 45 61
REMARK Flexibility Score: inf
ROOT
ATOM      1  C   UNL A   1      35.980  20.872  25.127  1.00  0.00     0.188 C 
ENDROOT
BRANCH   1   2
ATOM      2  C   UNL A   1      35.260  21.976  24.352  1.00  0.00     0.188 C 
BRANCH   2   3
ATOM      3  O   UNL A   1      34.693  23.057  25.068  1.00  0.00    -0.376 OA
BRANCH   3   4
ATOM      4  C   UNL A   1      33.277  23.245  25.048  1.00  0.00     0.202 C 
BRANCH   4   5
ATOM      5  C   UNL A   1      32.470  23.310  26.357  1.00  0.00     0.261 C 
BRANCH   5   6
ATOM      6  O   UNL A   1      31.141  23.869  26.212  1.00  0.00    -0.463 OA
BRANCH   6   7
ATOM      7  C   UNL A   1      31.047  25.211  26.120  1.00  0.00     0.307 C 
ATOM      8  O   UNL A   1      31.806  25.986  26.702  1.00  0.00    -0.252 OA
BRANCH   7   9
ATOM      9  C   UNL A   1      29.951  25.770  25.221  1.00  0.00     0.147 C 
BRANCH   9  10
ATOM     10  C   UNL A   1      30.052  25.989  23.699  1.00  0.00     0.090 C 
ATOM     11  C   UNL A   1      31.351  25.524  23.056  1.00  0.00     0.031 C 
BRANCH  10  12
ATOM     12  N   UNL A   1      29.730  27.367  23.310  1.00  0.00    -0.350 N 
ATOM     13  C   UNL A   1      30.327  28.574  23.492  1.00  0.00     0.244 C 
ATOM     14  H   UNL A   1      28.889  27.431  22.802  1.00  0.00     0.164 HD
ATOM     15  O   UNL A   1      29.878  29.563  22.908  1.00  0.00    -0.270 OA
BRANCH  13  16
ATOM     16  C   UNL A   1      31.434  28.795  24.457  1.00  0.00     0.072 C 
ATOM     17  C   UNL A   1      31.409  29.495  25.599  1.00  0.00     0.015 C 
BRANCH  17  18
ATOM     18  C   UNL A   1      32.573  29.802  26.447  1.00  0.00    -0.007 A 
ATOM     19  C   UNL A   1      33.674  28.954  26.601  1.00  0.00     0.011 A 
ATOM     20  C   UNL A   1      32.678  31.068  27.025  1.00  0.00     0.119 A 
ATOM     21  C   UNL A   1      34.809  29.399  27.283  1.00  0.00     0.021 A 
ATOM     22  N   UNL A   1      33.759  31.524  27.703  1.00  0.00    -0.264 NA
ATOM     23  C   UNL A   1      34.808  30.684  27.798  1.00  0.00     0.111 A 
ENDBRANCH  17  18
ENDBRANCH  13  16
ENDBRANCH  10  12
ENDBRANCH   9  10
ENDBRANCH   7   9
ENDBRANCH   6   7
ENDBRANCH   5   6
ENDBRANCH   4   5
ENDBRANCH   3   4
ENDBRANCH   2   3
ENDBRANCH   1   2
BRANCH   1  24
ATOM     24  O   UNL A   1      37.392  20.839  25.019  1.00  0.00    -0.377 OA
BRANCH  24  25
ATOM     25  C   UNL A   1      38.187  21.828  25.669  1.00  0.00     0.188 C 
BRANCH  25  26
ATOM     26  C   UNL A   1      39.625  21.491  26.079  1.00  0.00     0.188 C 
BRANCH  26  27
ATOM     27  O   UNL A   1      39.868  20.096  26.142  1.00  0.00    -0.376 OA
BRANCH  27  28
ATOM     28  C   UNL A   1      41.140  19.634  26.571  1.00  0.00     0.202 C 
BRANCH  28  29
ATOM     29  C   UNL A   1      41.998  18.785  25.620  1.00  0.00     0.261 C 
BRANCH  29  30
ATOM     30  O   UNL A   1      43.425  18.818  25.799  1.00  0.00    -0.460 OA
BRANCH  30  31
ATOM     31  C   UNL A   1      44.199  19.438  24.884  1.00  0.00     0.338 C 
ATOM     32  O   UNL A   1      44.701  18.955  23.890  1.00  0.00    -0.246 OA
BRANCH  31  33
ATOM     33  C   UNL A   1      44.174  20.881  25.209  1.00  0.00     0.060 A 
ATOM     34  C   UNL A   1      44.203  21.818  24.168  1.00  0.00     0.016 A 
ATOM     35  C   UNL A   1      44.120  21.305  26.538  1.00  0.00     0.016 A 
ATOM     36  C   UNL A   1      44.213  23.185  24.458  1.00  0.00     0.010 A 
ATOM     37  C   UNL A   1      44.145  22.671  26.827  1.00  0.00     0.010 A 
ATOM     38  C   UNL A   1      44.224  23.618  25.790  1.00  0.00    -0.014 A 
BRANCH  38  39
ATOM     39  C   UNL A   1      44.479  25.043  26.118  1.00  0.00     0.031 A 
ATOM     40  C   UNL A   1      45.889  25.561  26.023  1.00  0.00     0.074 A 
ATOM     41  C   UNL A   1      43.488  25.853  26.534  1.00  0.00     0.049 A 
ATOM     42  N   UNL A   1      46.365  26.733  26.348  1.00  0.00    -0.248 NA
ATOM     43  C   UNL A   1      46.897  24.625  25.496  1.00  0.00     0.031 C 
ATOM     44  C   UNL A   1      42.083  25.475  26.662  1.00  0.00     0.029 A 
ATOM     45  N   UNL A   1      43.527  27.159  26.962  1.00  0.00    -0.354 N 
ATOM     46  C   UNL A   1      47.730  26.668  26.100  1.00  0.00     0.074 A 
ATOM     47  C   UNL A   1      48.007  25.339  25.601  1.00  0.00     0.031 C 
ATOM     48  C   UNL A   1      41.398  26.511  27.175  1.00  0.00     0.029 A 
ATOM     49  C   UNL A   1      42.321  27.614  27.442  1.00  0.00     0.049 A 
ATOM     50  H   UNL A   1      44.340  27.714  26.928  1.00  0.00     0.167 HD
ATOM     51  C   UNL A   1      48.669  27.629  26.265  1.00  0.00     0.034 A 
ATOM     52  C   UNL A   1      42.008  28.772  28.059  1.00  0.00     0.034 A 
ATOM     53  C   UNL A   1      48.391  28.953  26.748  1.00  0.00     0.049 A 
ATOM     54  C   UNL A   1      43.079  29.812  28.268  1.00  0.00     0.074 A 
ATOM     55  C   UNL A   1      49.265  30.015  26.896  1.00  0.00     0.029 A 
ATOM     56  N   UNL A   1      47.151  29.392  27.185  1.00  0.00    -0.354 N 
ATOM     57  N   UNL A   1      44.342  29.782  27.914  1.00  0.00    -0.248 NA
ATOM     58  C   UNL A   1      42.678  31.058  28.942  1.00  0.00     0.031 C 
ATOM     59  C   UNL A   1      48.562  31.085  27.458  1.00  0.00     0.029 A 
ATOM     60  C   UNL A   1      47.240  30.701  27.625  1.00  0.00     0.049 A 
ATOM     61  H   UNL A   1      46.327  28.851  27.182  1.00  0.00     0.167 HD
ATOM     62  C   UNL A   1      44.875  31.013  28.288  1.00  0.00     0.074 A 
ATOM     63  C   UNL A   1      43.794  31.773  28.879  1.00  0.00     0.031 C 
ATOM     64  C   UNL A   1      46.147  31.467  28.164  1.00  0.00     0.034 A 
BRANCH  51  65
ATOM     65  C   UNL A   1      50.092  27.288  25.909  1.00  0.00     0.023 A 
ATOM     66  C   UNL A   1      50.954  26.759  26.891  1.00  0.00     0.012 A 
ATOM     67  C   UNL A   1      50.556  27.434  24.587  1.00  0.00     0.148 A 
ATOM     68  C   UNL A   1      52.265  26.411  26.571  1.00  0.00     0.002 A 
ATOM     69  C   UNL A   1      51.849  27.042  24.265  1.00  0.00     0.091 A 
ATOM     70  F   UNL A   1      49.728  27.959  23.674  1.00  0.00    -0.205 F 
ATOM     71  C   UNL A   1      52.709  26.542  25.257  1.00  0.00     0.022 A 
BRANCH  69  72
ATOM     72  S   UNL A   1      52.489  27.098  22.588  1.00  0.00     0.127 S 
ATOM     73  O   UNL A   1      53.002  28.466  22.513  1.00  0.00    -0.237 OA
ATOM     74  O   UNL A   1      53.520  26.060  22.620  1.00  0.00    -0.237 OA
ATOM     75  O   UNL A   1      51.360  26.807  21.715  1.00  0.00    -0.744 OA
ENDBRANCH  69  72
ENDBRANCH  51  65
BRANCH  52  76
ATOM     76  C   UNL A   1      40.612  29.018  28.523  1.00  0.00     0.023 A 
ATOM     77  C   UNL A   1      39.627  29.407  27.595  1.00  0.00     0.012 A 
ATOM     78  C   UNL A   1      40.255  28.863  29.877  1.00  0.00     0.148 A 
ATOM     79  C   UNL A   1      38.320  29.669  28.011  1.00  0.00     0.002 A 
ATOM     80  C   UNL A   1      38.940  29.070  30.275  1.00  0.00     0.091 A 
ATOM     81  F   UNL A   1      41.210  28.511  30.749  1.00  0.00    -0.205 F 
ATOM     82  C   UNL A   1      37.976  29.492  29.348  1.00  0.00     0.022 A 
BRANCH  80  83
ATOM     83  S   UNL A   1      38.376  28.737  31.948  1.00  0.00     0.127 S 
ATOM     84  O   UNL A   1      36.963  29.100  31.866  1.00  0.00    -0.237 OA
ATOM     85  O   UNL A   1      38.639  27.303  32.074  1.00  0.00    -0.237 OA
ATOM     86  O   UNL A   1      39.194  29.575  32.815  1.00  0.00    -0.744 OA
ENDBRANCH  80  83
ENDBRANCH  52  76
BRANCH  64  87
ATOM     87  C   UNL A   1      46.448  32.865  28.640  1.00  0.00     0.023 A 
ATOM     88  C   UNL A   1      46.982  33.070  29.928  1.00  0.00     0.012 A 
ATOM     89  C   UNL A   1      46.293  33.966  27.773  1.00  0.00     0.148 A 
ATOM     90  C   UNL A   1      47.330  34.352  30.355  1.00  0.00     0.002 A 
ATOM     91  C   UNL A   1      46.690  35.232  28.187  1.00  0.00     0.091 A 
ATOM     92  F   UNL A   1      45.772  33.752  26.557  1.00  0.00    -0.205 F 
ATOM     93  C   UNL A   1      47.197  35.429  29.482  1.00  0.00     0.022 A 
BRANCH  91  94
ATOM     94  S   UNL A   1      46.649  36.662  27.101  1.00  0.00     0.127 S 
ATOM     95  O   UNL A   1      47.584  37.568  27.767  1.00  0.00    -0.237 OA
ATOM     96  O   UNL A   1      47.135  36.105  25.839  1.00  0.00    -0.237 OA
ATOM     97  O   UNL A   1      45.263  37.110  27.073  1.00  0.00    -0.744 OA
ENDBRANCH  91  94
ENDBRANCH  64  87
ENDBRANCH  38  39
ENDBRANCH  31  33
ENDBRANCH  30  31
ENDBRANCH  29  30
ENDBRANCH  28  29
ENDBRANCH  27  28
ENDBRANCH  26  27
ENDBRANCH  25  26
ENDBRANCH  24  25
ENDBRANCH   1  24
TORSDOF 27
ENDMDL
MODEL 2
REMARK VINA RESULT:      -8.7      2.110      3.726
REMARK SMILES C[C@@H](CC(=O)OCCOCCOCCOCCOC(=O)c1ccc(-c2c3nc(c(-c4cccc(S(=O)(=O)[O-])c4F)c4ccc([nH]4)c(-c4cccc(S(=O)(=O)[O-])c4F)c4nc(c(-c5cccc(S(=O)(=O)[O-])c5F)c5ccc2[nH]5)C=C4)C=C3)cc1)NC(=O)/C=C/c1cccnc1
REMARK SMILES IDX 11 1 10 2 9 3 8 4 7 5 6 6 4 7 5 8 3 9 2 10 1 11 84 12 85 13
REMARK SMILES IDX 86 15 87 16 88 17 89 18 90 19 94 20 91 21 93 22 92 23 12 24
REMARK SMILES IDX 13 25 14 26 15 27 16 28 17 29 18 30 19 31 20 32 21 33 22 34
REMARK SMILES IDX 83 35 23 36 82 37 24 38 25 39 26 40 76 41 27 42 81 43 75 44
REMARK SMILES IDX 77 45 28 46 80 47 74 48 73 49 29 51 61 52 41 53 60 54 42 55
REMARK SMILES IDX 45 56 59 57 78 58 43 59 44 60 58 62 79 63 46 64 30 65 31 66
REMARK SMILES IDX 39 67 32 68 34 69 40 70 33 71 35 72 36 73 37 74 38 75 62 76
REMARK SMILES IDX 63 77 71 78 64 79 66 80 72 81 65 82 67 83 68 84 69 85 70 86
REMARK SMILES IDX 47 87 48 88 56 89 49 90 51 91 57 92 50 93 52 94 53 95 54 96
REMARK SMILES IDX 55 97
REMARK H PARENT 84 14 77 50 45 61
REMARK Flexibility Score: inf
ROOT
ATOM      1  C   UNL A   1      38.034  21.749  25.672  1.00  0.00     0.188 C 
ENDROOT
BRANCH   1   2
ATOM      2  C   UNL A   1      37.644  23.227  25.697  1.00  0.00     0.188 C 
BRANCH   2   3
ATOM      3  O   UNL A   1      36.398  23.598  26.258  1.00  0.00    -0.376 OA
BRANCH   3   4
ATOM      4  C   UNL A   1      35.277  22.726  26.113  1.00  0.00     0.202 C 
BRANCH   4   5
ATOM      5  C   UNL A   1      34.155  22.699  27.165  1.00  0.00     0.261 C 
BRANCH   5   6
ATOM      6  O   UNL A   1      32.824  22.533  26.616  1.00  0.00    -0.463 OA
BRANCH   6   7
ATOM      7  C   UNL A   1      32.032  23.624  26.587  1.00  0.00     0.307 C 
ATOM      8  O   UNL A   1      31.309  23.963  27.524  1.00  0.00    -0.252 OA
BRANCH   7   9
ATOM      9  C   UNL A   1      32.074  24.478  25.326  1.00  0.00     0.147 C 
BRANCH   9  10
ATOM     10  C   UNL A   1      33.327  25.142  24.724  1.00  0.00     0.090 C 
ATOM     11  C   UNL A   1      33.630  26.546  25.227  1.00  0.00     0.031 C 
BRANCH  10  12
ATOM     12  N   UNL A   1      33.339  25.090  23.257  1.00  0.00    -0.350 N 
ATOM     13  C   UNL A   1      33.215  24.097  22.337  1.00  0.00     0.244 C 
ATOM     14  H   UNL A   1      33.467  25.975  22.847  1.00  0.00     0.164 HD
ATOM     15  O   UNL A   1      33.120  24.390  21.143  1.00  0.00    -0.270 OA
BRANCH  13  16
ATOM     16  C   UNL A   1      33.304  22.655  22.681  1.00  0.00     0.072 C 
ATOM     17  C   UNL A   1      32.316  21.829  23.048  1.00  0.00     0.015 C 
BRANCH  17  18
ATOM     18  C   UNL A   1      32.482  20.443  23.517  1.00  0.00    -0.007 A 
ATOM     19  C   UNL A   1      32.674  20.086  24.855  1.00  0.00     0.011 A 
ATOM     20  C   UNL A   1      32.294  19.393  22.615  1.00  0.00     0.119 A 
ATOM     21  C   UNL A   1      32.647  18.741  25.231  1.00  0.00     0.021 A 
ATOM     22  N   UNL A   1      32.275  18.079  22.947  1.00  0.00    -0.264 NA
ATOM     23  C   UNL A   1      32.433  17.786  24.252  1.00  0.00     0.111 A 
ENDBRANCH  17  18
ENDBRANCH  13  16
ENDBRANCH  10  12
ENDBRANCH   9  10
ENDBRANCH   7   9
ENDBRANCH   6   7
ENDBRANCH   5   6
ENDBRANCH   4   5
ENDBRANCH   3   4
ENDBRANCH   2   3
ENDBRANCH   1   2
BRANCH   1  24
ATOM     24  O   UNL A   1      39.419  21.458  25.723  1.00  0.00    -0.377 OA
BRANCH  24  25
ATOM     25  C   UNL A   1      40.302  22.284  26.478  1.00  0.00     0.188 C 
BRANCH  25  26
ATOM     26  C   UNL A   1      41.225  21.647  27.522  1.00  0.00     0.188 C 
BRANCH  26  27
ATOM     27  O   UNL A   1      40.914  20.287  27.775  1.00  0.00    -0.376 OA
BRANCH  27  28
ATOM     28  C   UNL A   1      41.875  19.289  27.465  1.00  0.00     0.202 C 
BRANCH  28  29
ATOM     29  C   UNL A   1      42.343  19.114  26.011  1.00  0.00     0.261 C 
BRANCH  29  30
ATOM     30  O   UNL A   1      43.748  19.259  25.739  1.00  0.00    -0.460 OA
BRANCH  30  31
ATOM     31  C   UNL A   1      44.152  19.996  24.683  1.00  0.00     0.338 C 
ATOM     32  O   UNL A   1      44.229  19.648  23.524  1.00  0.00    -0.246 OA
BRANCH  31  33
ATOM     33  C   UNL A   1      44.310  21.386  25.166  1.00  0.00     0.060 A 
ATOM     34  C   UNL A   1      44.027  22.449  24.299  1.00  0.00     0.016 A 
ATOM     35  C   UNL A   1      44.734  21.636  26.473  1.00  0.00     0.016 A 
ATOM     36  C   UNL A   1      44.201  23.767  24.728  1.00  0.00     0.010 A 
ATOM     37  C   UNL A   1      44.922  22.954  26.896  1.00  0.00     0.010 A 
ATOM     38  C   UNL A   1      44.688  24.026  26.016  1.00  0.00    -0.014 A 
BRANCH  38  39
ATOM     39  C   UNL A   1      45.108  25.395  26.403  1.00  0.00     0.031 A 
ATOM     40  C   UNL A   1      46.519  25.825  26.103  1.00  0.00     0.074 A 
ATOM     41  C   UNL A   1      44.271  26.229  27.047  1.00  0.00     0.049 A 
ATOM     42  N   UNL A   1      47.136  26.930  26.429  1.00  0.00    -0.248 NA
ATOM     43  C   UNL A   1      47.345  24.876  25.337  1.00  0.00     0.031 C 
ATOM     44  C   UNL A   1      42.882  25.934  27.390  1.00  0.00     0.029 A 
ATOM     45  N   UNL A   1      44.487  27.485  27.561  1.00  0.00    -0.354 N 
ATOM     46  C   UNL A   1      48.431  26.797  25.941  1.00  0.00     0.074 A 
ATOM     47  C   UNL A   1      48.511  25.502  25.301  1.00  0.00     0.031 C 
ATOM     48  C   UNL A   1      42.378  26.963  28.092  1.00  0.00     0.029 A 
ATOM     49  C   UNL A   1      43.420  27.974  28.279  1.00  0.00     0.049 A 
ATOM     50  H   UNL A   1      45.324  27.986  27.428  1.00  0.00     0.167 HD
ATOM     51  C   UNL A   1      49.458  27.675  26.013  1.00  0.00     0.034 A 
ATOM     52  C   UNL A   1      43.309  29.090  29.028  1.00  0.00     0.034 A 
ATOM     53  C   UNL A   1      49.373  28.966  26.638  1.00  0.00     0.049 A 
ATOM     54  C   UNL A   1      44.481  30.034  29.125  1.00  0.00     0.074 A 
ATOM     55  C   UNL A   1      50.342  29.951  26.711  1.00  0.00     0.029 A 
ATOM     56  N   UNL A   1      48.264  29.445  27.317  1.00  0.00    -0.354 N 
ATOM     57  N   UNL A   1      45.659  29.953  28.554  1.00  0.00    -0.248 NA
ATOM     58  C   UNL A   1      44.301  31.239  29.952  1.00  0.00     0.031 C 
ATOM     59  C   UNL A   1      49.832  31.009  27.469  1.00  0.00     0.029 A 
ATOM     60  C   UNL A   1      48.532  30.700  27.834  1.00  0.00     0.049 A 
ATOM     61  H   UNL A   1      47.411  28.962  27.417  1.00  0.00     0.167 HD
ATOM     62  C   UNL A   1      46.345  31.107  28.923  1.00  0.00     0.074 A 
ATOM     63  C   UNL A   1      45.444  31.882  29.750  1.00  0.00     0.031 C 
ATOM     64  C   UNL A   1      47.610  31.486  28.614  1.00  0.00     0.034 A 
BRANCH  51  65
ATOM     65  C   UNL A   1      50.768  27.274  25.388  1.00  0.00     0.023 A 
ATOM     66  C   UNL A   1      51.758  26.648  26.173  1.00  0.00     0.012 A 
ATOM     67  C   UNL A   1      50.994  27.462  24.011  1.00  0.00     0.148 A 
ATOM     68  C   UNL A   1      52.964  26.244  25.603  1.00  0.00     0.002 A 
ATOM     69  C   UNL A   1      52.180  27.016  23.441  1.00  0.00     0.091 A 
ATOM     70  F   UNL A   1      50.050  28.079  23.287  1.00  0.00    -0.205 F 
ATOM     71  C   UNL A   1      53.170  26.418  24.237  1.00  0.00     0.022 A 
BRANCH  69  72
ATOM     72  S   UNL A   1      52.508  27.123  21.679  1.00  0.00     0.127 S 
ATOM     73  O   UNL A   1      52.497  28.569  21.463  1.00  0.00    -0.237 OA
ATOM     74  O   UNL A   1      53.829  26.501  21.576  1.00  0.00    -0.237 OA
ATOM     75  O   UNL A   1      51.436  26.387  21.023  1.00  0.00    -0.744 OA
ENDBRANCH  69  72
ENDBRANCH  51  65
BRANCH  52  76
ATOM     76  C   UNL A   1      42.036  29.385  29.746  1.00  0.00     0.023 A 
ATOM     77  C   UNL A   1      41.041  30.154  29.113  1.00  0.00     0.012 A 
ATOM     78  C   UNL A   1      41.806  28.904  31.050  1.00  0.00     0.148 A 
ATOM     79  C   UNL A   1      39.852  30.465  29.778  1.00  0.00     0.002 A 
ATOM     80  C   UNL A   1      40.598  29.169  31.683  1.00  0.00     0.091 A 
ATOM     81  F   UNL A   1      42.773  28.191  31.644  1.00  0.00    -0.205 F 
ATOM     82  C   UNL A   1      39.628  29.965  31.057  1.00  0.00     0.022 A 
BRANCH  80  83
ATOM     83  S   UNL A   1      40.168  28.458  33.276  1.00  0.00     0.127 S 
ATOM     84  O   UNL A   1      39.043  27.594  32.925  1.00  0.00    -0.237 OA
ATOM     85  O   UNL A   1      41.400  27.754  33.633  1.00  0.00    -0.237 OA
ATOM     86  O   UNL A   1      39.850  29.587  34.140  1.00  0.00    -0.744 OA
ENDBRANCH  80  83
ENDBRANCH  52  76
BRANCH  64  87
ATOM     87  C   UNL A   1      48.099  32.812  29.136  1.00  0.00     0.023 A 
ATOM     88  C   UNL A   1      48.840  32.867  30.333  1.00  0.00     0.012 A 
ATOM     89  C   UNL A   1      47.906  33.992  28.387  1.00  0.00     0.148 A 
ATOM     90  C   UNL A   1      49.358  34.079  30.790  1.00  0.00     0.002 A 
ATOM     91  C   UNL A   1      48.468  35.186  28.823  1.00  0.00     0.091 A 
ATOM     92  F   UNL A   1      47.188  33.921  27.258  1.00  0.00    -0.205 F 
ATOM     93  C   UNL A   1      49.184  35.234  30.031  1.00  0.00     0.022 A 
BRANCH  91  94
ATOM     94  S   UNL A   1      48.382  36.702  27.865  1.00  0.00     0.127 S 
ATOM     95  O   UNL A   1      46.962  37.037  27.965  1.00  0.00    -0.237 OA
ATOM     96  O   UNL A   1      49.272  37.591  28.612  1.00  0.00    -0.237 OA
ATOM     97  O   UNL A   1      48.847  36.363  26.527  1.00  0.00    -0.744 OA
ENDBRANCH  91  94
ENDBRANCH  64  87
ENDBRANCH  38  39
ENDBRANCH  31  33
ENDBRANCH  30  31
ENDBRANCH  29  30
ENDBRANCH  28  29
ENDBRANCH  27  28
ENDBRANCH  26  27
ENDBRANCH  25  26
ENDBRANCH  24  25
ENDBRANCH   1  24
TORSDOF 27
ENDMDL
MODEL 3
REMARK VINA RESULT:      -8.2      4.940      6.437
REMARK SMILES C[C@@H](CC(=O)OCCOCCOCCOCCOC(=O)c1ccc(-c2c3nc(c(-c4cccc(S(=O)(=O)[O-])c4F)c4ccc([nH]4)c(-c4cccc(S(=O)(=O)[O-])c4F)c4nc(c(-c5cccc(S(=O)(=O)[O-])c5F)c5ccc2[nH]5)C=C4)C=C3)cc1)NC(=O)/C=C/c1cccnc1
REMARK SMILES IDX 11 1 10 2 9 3 8 4 7 5 6 6 4 7 5 8 3 9 2 10 1 11 84 12 85 13
REMARK SMILES IDX 86 15 87 16 88 17 89 18 90 19 94 20 91 21 93 22 92 23 12 24
REMARK SMILES IDX 13 25 14 26 15 27 16 28 17 29 18 30 19 31 20 32 21 33 22 34
REMARK SMILES IDX 83 35 23 36 82 37 24 38 25 39 26 40 76 41 27 42 81 43 75 44
REMARK SMILES IDX 77 45 28 46 80 47 74 48 73 49 29 51 61 52 41 53 60 54 42 55
REMARK SMILES IDX 45 56 59 57 78 58 43 59 44 60 58 62 79 63 46 64 30 65 31 66
REMARK SMILES IDX 39 67 32 68 34 69 40 70 33 71 35 72 36 73 37 74 38 75 62 76
REMARK SMILES IDX 63 77 71 78 64 79 66 80 72 81 65 82 67 83 68 84 69 85 70 86
REMARK SMILES IDX 47 87 48 88 56 89 49 90 51 91 57 92 50 93 52 94 53 95 54 96
REMARK SMILES IDX 55 97
REMARK H PARENT 84 14 77 50 45 61
REMARK Flexibility Score: inf
ROOT
ATOM      1  C   UNL A   1      37.795  21.804  25.408  1.00  0.00     0.188 C 
ENDROOT
BRANCH   1   2
ATOM      2  C   UNL A   1      37.183  23.202  25.496  1.00  0.00     0.188 C 
BRANCH   2   3
ATOM      3  O   UNL A   1      35.869  23.408  25.011  1.00  0.00    -0.376 OA
BRANCH   3   4
ATOM      4  C   UNL A   1      35.625  23.354  23.605  1.00  0.00     0.202 C 
BRANCH   4   5
ATOM      5  C   UNL A   1      34.237  22.977  23.058  1.00  0.00     0.261 C 
BRANCH   5   6
ATOM      6  O   UNL A   1      33.694  23.923  22.104  1.00  0.00    -0.463 OA
BRANCH   6   7
ATOM      7  C   UNL A   1      33.570  25.203  22.511  1.00  0.00     0.307 C 
ATOM      8  O   UNL A   1      34.095  26.153  21.932  1.00  0.00    -0.252 OA
BRANCH   7   9
ATOM      9  C   UNL A   1      32.706  25.459  23.739  1.00  0.00     0.147 C 
BRANCH   9  10
ATOM     10  C   UNL A   1      31.366  24.770  24.063  1.00  0.00     0.090 C 
ATOM     11  C   UNL A   1      30.126  25.456  23.508  1.00  0.00     0.031 C 
BRANCH  10  12
ATOM     12  N   UNL A   1      31.217  24.480  25.495  1.00  0.00    -0.350 N 
ATOM     13  C   UNL A   1      31.333  23.363  26.259  1.00  0.00     0.244 C 
ATOM     14  H   UNL A   1      30.976  25.278  26.020  1.00  0.00     0.164 HD
ATOM     15  O   UNL A   1      31.287  23.465  27.487  1.00  0.00    -0.270 OA
BRANCH  13  16
ATOM     16  C   UNL A   1      31.397  21.992  25.689  1.00  0.00     0.072 C 
ATOM     17  C   UNL A   1      32.478  21.223  25.503  1.00  0.00     0.015 C 
BRANCH  17  18
ATOM     18  C   UNL A   1      32.503  19.929  24.802  1.00  0.00    -0.007 A 
ATOM     19  C   UNL A   1      32.328  19.781  23.423  1.00  0.00     0.011 A 
ATOM     20  C   UNL A   1      32.865  18.780  25.509  1.00  0.00     0.119 A 
ATOM     21  C   UNL A   1      32.540  18.539  22.821  1.00  0.00     0.021 A 
ATOM     22  N   UNL A   1      33.067  17.560  24.956  1.00  0.00    -0.264 NA
ATOM     23  C   UNL A   1      32.917  17.474  23.619  1.00  0.00     0.111 A 
ENDBRANCH  17  18
ENDBRANCH  13  16
ENDBRANCH  10  12
ENDBRANCH   9  10
ENDBRANCH   7   9
ENDBRANCH   6   7
ENDBRANCH   5   6
ENDBRANCH   4   5
ENDBRANCH   3   4
ENDBRANCH   2   3
ENDBRANCH   1   2
BRANCH   1  24
ATOM     24  O   UNL A   1      39.177  21.696  25.701  1.00  0.00    -0.377 OA
BRANCH  24  25
ATOM     25  C   UNL A   1      39.756  22.485  26.738  1.00  0.00     0.188 C 
BRANCH  25  26
ATOM     26  C   UNL A   1      40.699  21.825  27.750  1.00  0.00     0.188 C 
BRANCH  26  27
ATOM     27  O   UNL A   1      40.781  20.418  27.592  1.00  0.00    -0.376 OA
BRANCH  27  28
ATOM     28  C   UNL A   1      41.979  19.847  27.089  1.00  0.00     0.202 C 
BRANCH  28  29
ATOM     29  C   UNL A   1      42.554  20.346  25.754  1.00  0.00     0.261 C 
BRANCH  29  30
ATOM     30  O   UNL A   1      43.878  20.908  25.764  1.00  0.00    -0.460 OA
BRANCH  30  31
ATOM     31  C   UNL A   1      44.142  22.012  25.034  1.00  0.00     0.338 C 
ATOM     32  O   UNL A   1      44.191  22.105  23.825  1.00  0.00    -0.246 OA
BRANCH  31  33
ATOM     33  C   UNL A   1      44.176  23.152  25.977  1.00  0.00     0.060 A 
ATOM     34  C   UNL A   1      44.421  24.440  25.486  1.00  0.00     0.016 A 
ATOM     35  C   UNL A   1      43.965  22.945  27.342  1.00  0.00     0.016 A 
ATOM     36  C   UNL A   1      44.489  25.523  26.366  1.00  0.00     0.010 A 
ATOM     37  C   UNL A   1      44.048  24.026  28.223  1.00  0.00     0.010 A 
ATOM     38  C   UNL A   1      44.343  25.315  27.744  1.00  0.00    -0.014 A 
BRANCH  38  39
ATOM     39  C   UNL A   1      44.652  26.401  28.708  1.00  0.00     0.031 A 
ATOM     40  C   UNL A   1      46.002  26.408  29.373  1.00  0.00     0.074 A 
ATOM     41  C   UNL A   1      43.739  27.339  29.021  1.00  0.00     0.049 A 
ATOM     42  N   UNL A   1      46.460  27.194  30.310  1.00  0.00    -0.248 NA
ATOM     43  C   UNL A   1      46.961  25.385  28.921  1.00  0.00     0.031 C 
ATOM     44  C   UNL A   1      42.402  27.445  28.444  1.00  0.00     0.029 A 
ATOM     45  N   UNL A   1      43.794  28.362  29.937  1.00  0.00    -0.354 N 
ATOM     46  C   UNL A   1      47.744  26.742  30.588  1.00  0.00     0.074 A 
ATOM     47  C   UNL A   1      47.991  25.610  29.722  1.00  0.00     0.031 C 
ATOM     48  C   UNL A   1      41.746  28.451  29.046  1.00  0.00     0.029 A 
ATOM     49  C   UNL A   1      42.604  29.039  30.075  1.00  0.00     0.049 A 
ATOM     50  H   UNL A   1      44.607  28.589  30.445  1.00  0.00     0.167 HD
ATOM     51  C   UNL A   1      48.640  27.228  31.478  1.00  0.00     0.034 A 
ATOM     52  C   UNL A   1      42.240  29.995  30.953  1.00  0.00     0.034 A 
ATOM     53  C   UNL A   1      48.399  28.361  32.329  1.00  0.00     0.049 A 
ATOM     54  C   UNL A   1      43.244  30.494  31.962  1.00  0.00     0.074 A 
ATOM     55  C   UNL A   1      49.265  28.964  33.222  1.00  0.00     0.029 A 
ATOM     56  N   UNL A   1      47.197  29.047  32.411  1.00  0.00    -0.354 N 
ATOM     57  N   UNL A   1      44.496  30.140  32.128  1.00  0.00    -0.248 NA
ATOM     58  C   UNL A   1      42.792  31.542  32.891  1.00  0.00     0.031 C 
ATOM     59  C   UNL A   1      48.575  29.991  33.873  1.00  0.00     0.029 A 
ATOM     60  C   UNL A   1      47.291  30.052  33.356  1.00  0.00     0.049 A 
ATOM     61  H   UNL A   1      46.395  28.847  31.875  1.00  0.00     0.167 HD
ATOM     62  C   UNL A   1      44.989  30.944  33.152  1.00  0.00     0.074 A 
ATOM     63  C   UNL A   1      43.907  31.817  33.556  1.00  0.00     0.031 C 
ATOM     64  C   UNL A   1      46.223  30.950  33.715  1.00  0.00     0.034 A 
BRANCH  51  65
ATOM     65  C   UNL A   1      49.977  26.542  31.572  1.00  0.00     0.023 A 
ATOM     66  C   UNL A   1      51.100  27.101  30.927  1.00  0.00     0.012 A 
ATOM     67  C   UNL A   1      50.135  25.378  32.349  1.00  0.00     0.148 A 
ATOM     68  C   UNL A   1      52.351  26.494  31.028  1.00  0.00     0.002 A 
ATOM     69  C   UNL A   1      51.394  24.806  32.483  1.00  0.00     0.091 A 
ATOM     70  F   UNL A   1      49.052  24.851  32.937  1.00  0.00    -0.205 F 
ATOM     71  C   UNL A   1      52.500  25.355  31.814  1.00  0.00     0.022 A 
BRANCH  69  72
ATOM     72  S   UNL A   1      51.704  23.383  33.535  1.00  0.00     0.127 S 
ATOM     73  O   UNL A   1      51.214  23.860  34.828  1.00  0.00    -0.237 OA
ATOM     74  O   UNL A   1      50.873  22.354  32.910  1.00  0.00    -0.237 OA
ATOM     75  O   UNL A   1      53.137  23.134  33.465  1.00  0.00    -0.744 OA
ENDBRANCH  69  72
ENDBRANCH  51  65
BRANCH  52  76
ATOM     76  C   UNL A   1      40.858  30.555  30.918  1.00  0.00     0.023 A 
ATOM     77  C   UNL A   1      40.583  31.685  30.124  1.00  0.00     0.012 A 
ATOM     78  C   UNL A   1      39.816  29.971  31.664  1.00  0.00     0.148 A 
ATOM     79  C   UNL A   1      39.303  32.241  30.098  1.00  0.00     0.002 A 
ATOM     80  C   UNL A   1      38.531  30.495  31.589  1.00  0.00     0.091 A 
ATOM     81  F   UNL A   1      40.101  28.908  32.430  1.00  0.00    -0.205 F 
ATOM     82  C   UNL A   1      38.276  31.642  30.822  1.00  0.00     0.022 A 
BRANCH  80  83
ATOM     83  S   UNL A   1      37.122  29.712  32.380  1.00  0.00     0.127 S 
ATOM     84  O   UNL A   1      36.645  30.772  33.264  1.00  0.00    -0.237 OA
ATOM     85  O   UNL A   1      36.256  29.425  31.236  1.00  0.00    -0.237 OA
ATOM     86  O   UNL A   1      37.650  28.527  33.044  1.00  0.00    -0.744 OA
ENDBRANCH  80  83
ENDBRANCH  52  76
BRANCH  64  87
ATOM     87  C   UNL A   1      46.497  31.952  34.808  1.00  0.00     0.023 A 
ATOM     88  C   UNL A   1      46.970  33.238  34.480  1.00  0.00     0.012 A 
ATOM     89  C   UNL A   1      46.191  31.648  36.150  1.00  0.00     0.148 A 
ATOM     90  C   UNL A   1      47.161  34.197  35.475  1.00  0.00     0.002 A 
ATOM     91  C   UNL A   1      46.336  32.625  37.129  1.00  0.00     0.091 A 
ATOM     92  F   UNL A   1      45.755  30.416  36.442  1.00  0.00    -0.205 F 
ATOM     93  C   UNL A   1      46.832  33.896  36.795  1.00  0.00     0.022 A 
BRANCH  91  94
ATOM     94  S   UNL A   1      45.847  32.363  38.837  1.00  0.00     0.127 S 
ATOM     95  O   UNL A   1      46.785  31.324  39.259  1.00  0.00    -0.237 OA
ATOM     96  O   UNL A   1      46.085  33.678  39.432  1.00  0.00    -0.237 OA
ATOM     97  O   UNL A   1      44.448  31.958  38.800  1.00  0.00    -0.744 OA
ENDBRANCH  91  94
ENDBRANCH  64  87
ENDBRANCH  38  39
ENDBRANCH  31  33
ENDBRANCH  30  31
ENDBRANCH  29  30
ENDBRANCH  28  29
ENDBRANCH  27  28
ENDBRANCH  26  27
ENDBRANCH  25  26
ENDBRANCH  24  25
ENDBRANCH   1  24
TORSDOF 27
ENDMDL
