MODEL 1
REMARK VINA RESULT:      -8.9      0.000      0.000
REMARK SMILES Cc1ccsc1CNC(=O)N[C@@H]1CCCC[C@H]1C(=O)OCCOCCOCCOCCOC(=O)c1ccc(-c2c3nc(c(-c4cccc(S(=O)(=O)[O-])c4F)c4ccc([nH]4)c(-c4cccc(S(=O)(=O)[O-])c4F)c4nc(c(-c5cccc(S(=O)(=O)[O-])c5F)c5ccc2[nH]5)C=C4)C=C3)cc1
REMARK SMILES IDX 26 1 25 2 24 3 23 4 22 5 21 6 20 7 18 8 19 9 17 10 12 11
REMARK SMILES IDX 13 12 14 13 16 14 15 15 11 16 8 17 9 18 10 20 7 22 6 23 1 24
REMARK SMILES IDX 2 25 3 26 4 27 5 28 27 29 28 30 29 31 30 32 31 33 32 34
REMARK SMILES IDX 33 35 34 36 35 37 36 38 97 39 37 40 96 41 38 42 39 43 40 44
REMARK SMILES IDX 90 45 41 46 95 47 89 48 91 49 42 50 94 51 88 52 87 53 43 55
REMARK SMILES IDX 75 56 55 57 74 58 56 59 59 60 73 61 92 62 57 63 58 64 72 66
REMARK SMILES IDX 93 67 60 68 44 69 45 70 53 71 46 72 48 73 54 74 47 75 49 76
REMARK SMILES IDX 50 77 51 78 52 79 76 80 77 81 85 82 78 83 80 84 86 85 79 86
REMARK SMILES IDX 81 87 82 88 83 89 84 90 61 91 62 92 70 93 63 94 65 95 71 96
REMARK SMILES IDX 64 97 66 98 67 99 68 100 69 101
REMARK H PARENT 8 19 11 21 91 54 59 65
REMARK Flexibility Score: inf
ROOT
ATOM      1  O   UNL A   1      33.760  31.337  27.117  1.00  0.00    -0.377 OA
ENDROOT
BRANCH   1   2
ATOM      2  C   UNL A   1      33.213  30.036  27.235  1.00  0.00     0.188 C 
BRANCH   2   3
ATOM      3  C   UNL A   1      32.673  29.294  26.020  1.00  0.00     0.188 C 
BRANCH   3   4
ATOM      4  O   UNL A   1      33.207  28.009  25.850  1.00  0.00    -0.376 OA
BRANCH   4   5
ATOM      5  C   UNL A   1      34.022  27.746  24.725  1.00  0.00     0.202 C 
BRANCH   5   6
ATOM      6  C   UNL A   1      34.018  28.502  23.366  1.00  0.00     0.261 C 
BRANCH   6   7
ATOM      7  O   UNL A   1      33.033  28.234  22.345  1.00  0.00    -0.463 OA
BRANCH   7   8
ATOM      8  C   UNL A   1      32.863  26.934  22.017  1.00  0.00     0.311 C 
ATOM      9  O   UNL A   1      33.653  26.333  21.286  1.00  0.00    -0.252 OA
BRANCH   8  10
ATOM     10  C   UNL A   1      31.591  26.229  22.532  1.00  0.00     0.121 C 
ATOM     11  C   UNL A   1      31.574  24.925  23.385  1.00  0.00     0.098 C 
ATOM     12  C   UNL A   1      30.295  24.669  24.214  1.00  0.00     0.026 C 
ATOM     13  C   UNL A   1      29.616  25.901  24.772  1.00  0.00     0.002 C 
ATOM     14  C   UNL A   1      30.770  27.372  23.157  1.00  0.00     0.017 C 
ATOM     15  C   UNL A   1      29.419  26.926  23.677  1.00  0.00     0.001 C 
BRANCH  11  16
ATOM     16  N   UNL A   1      31.821  23.616  22.710  1.00  0.00    -0.335 N 
ATOM     17  N   UNL A   1      32.645  21.909  24.141  1.00  0.00    -0.333 N 
ATOM     18  C   UNL A   1      32.255  22.375  22.956  1.00  0.00     0.315 C 
ATOM     19  H   UNL A   1      32.407  20.966  24.293  1.00  0.00     0.165 HD
ATOM     20  O   UNL A   1      32.205  21.560  22.029  1.00  0.00    -0.249 OA
ATOM     21  H   UNL A   1      31.584  23.693  21.757  1.00  0.00     0.165 HD
BRANCH  17  22
ATOM     22  C   UNL A   1      33.346  22.513  25.243  1.00  0.00     0.164 C 
BRANCH  22  23
ATOM     23  C   UNL A   1      34.804  22.133  25.322  1.00  0.00     0.027 A 
ATOM     24  C   UNL A   1      34.549  19.634  24.820  1.00  0.00     0.045 C 
ATOM     25  C   UNL A   1      35.340  20.878  25.056  1.00  0.00    -0.035 A 
ATOM     26  C   UNL A   1      36.771  20.927  24.979  1.00  0.00     0.015 A 
ATOM     27  C   UNL A   1      37.273  22.177  25.251  1.00  0.00     0.065 A 
ATOM     28  S   UNL A   1      36.041  23.263  25.708  1.00  0.00    -0.147 S 
ENDBRANCH  22  23
ENDBRANCH  17  22
ENDBRANCH  11  16
ENDBRANCH   8  10
ENDBRANCH   7   8
ENDBRANCH   6   7
ENDBRANCH   5   6
ENDBRANCH   4   5
ENDBRANCH   3   4
ENDBRANCH   2   3
ENDBRANCH   1   2
BRANCH   1  29
ATOM     29  C   UNL A   1      35.044  31.612  27.654  1.00  0.00     0.188 C 
BRANCH  29  30
ATOM     30  C   UNL A   1      35.729  30.582  28.568  1.00  0.00     0.188 C 
BRANCH  30  31
ATOM     31  O   UNL A   1      35.818  30.955  29.932  1.00  0.00    -0.376 OA
BRANCH  31  32
ATOM     32  C   UNL A   1      35.451  32.279  30.290  1.00  0.00     0.202 C 
BRANCH  32  33
ATOM     33  C   UNL A   1      35.388  32.657  31.779  1.00  0.00     0.261 C 
BRANCH  33  34
ATOM     34  O   UNL A   1      36.613  33.081  32.399  1.00  0.00    -0.460 OA
BRANCH  34  35
ATOM     35  C   UNL A   1      36.995  32.493  33.557  1.00  0.00     0.338 C 
ATOM     36  O   UNL A   1      36.435  32.536  34.628  1.00  0.00    -0.246 OA
BRANCH  35  37
ATOM     37  C   UNL A   1      38.139  31.612  33.225  1.00  0.00     0.060 A 
ATOM     38  C   UNL A   1      38.171  30.309  33.741  1.00  0.00     0.016 A 
ATOM     39  C   UNL A   1      39.148  32.061  32.373  1.00  0.00     0.016 A 
ATOM     40  C   UNL A   1      39.226  29.455  33.419  1.00  0.00     0.010 A 
ATOM     41  C   UNL A   1      40.219  31.217  32.076  1.00  0.00     0.010 A 
ATOM     42  C   UNL A   1      40.277  29.922  32.621  1.00  0.00    -0.014 A 
BRANCH  42  43
ATOM     43  C   UNL A   1      41.539  29.152  32.539  1.00  0.00     0.031 A 
ATOM     44  C   UNL A   1      42.498  29.253  33.693  1.00  0.00     0.074 A 
ATOM     45  C   UNL A   1      41.848  28.413  31.460  1.00  0.00     0.049 A 
ATOM     46  N   UNL A   1      43.700  28.763  33.819  1.00  0.00    -0.248 NA
ATOM     47  C   UNL A   1      42.033  30.026  34.858  1.00  0.00     0.031 C 
ATOM     48  C   UNL A   1      40.995  28.230  30.288  1.00  0.00     0.029 A 
ATOM     49  N   UNL A   1      42.992  27.712  31.163  1.00  0.00    -0.354 N 
ATOM     50  C   UNL A   1      44.158  29.209  35.052  1.00  0.00     0.074 A 
ATOM     51  C   UNL A   1      43.102  30.004  35.638  1.00  0.00     0.031 C 
ATOM     52  C   UNL A   1      41.667  27.508  29.374  1.00  0.00     0.029 A 
ATOM     53  C   UNL A   1      43.007  27.211  29.883  1.00  0.00     0.049 A 
ATOM     54  H   UNL A   1      43.729  27.583  31.803  1.00  0.00     0.167 HD
ATOM     55  C   UNL A   1      45.352  28.979  35.644  1.00  0.00     0.034 A 
ATOM     56  C   UNL A   1      44.001  26.623  29.187  1.00  0.00     0.034 A 
ATOM     57  C   UNL A   1      46.395  28.184  35.057  1.00  0.00     0.049 A 
ATOM     58  C   UNL A   1      45.333  26.393  29.854  1.00  0.00     0.074 A 
ATOM     59  C   UNL A   1      47.616  27.831  35.603  1.00  0.00     0.029 A 
ATOM     60  N   UNL A   1      46.353  27.644  33.781  1.00  0.00    -0.354 N 
ATOM     61  N   UNL A   1      45.713  26.712  31.068  1.00  0.00    -0.248 NA
ATOM     62  C   UNL A   1      46.364  25.698  29.069  1.00  0.00     0.031 C 
ATOM     63  C   UNL A   1      48.335  27.125  34.634  1.00  0.00     0.029 A 
ATOM     64  C   UNL A   1      47.537  26.985  33.507  1.00  0.00     0.049 A 
ATOM     65  H   UNL A   1      45.591  27.718  33.161  1.00  0.00     0.167 HD
ATOM     66  C   UNL A   1      47.010  26.227  31.205  1.00  0.00     0.074 A 
ATOM     67  C   UNL A   1      47.348  25.584  29.953  1.00  0.00     0.031 C 
ATOM     68  C   UNL A   1      47.844  26.311  32.271  1.00  0.00     0.034 A 
BRANCH  55  69
ATOM     69  C   UNL A   1      45.599  29.620  36.983  1.00  0.00     0.023 A 
ATOM     70  C   UNL A   1      45.987  30.974  37.065  1.00  0.00     0.012 A 
ATOM     71  C   UNL A   1      45.425  28.878  38.167  1.00  0.00     0.148 A 
ATOM     72  C   UNL A   1      46.244  31.563  38.302  1.00  0.00     0.002 A 
ATOM     73  C   UNL A   1      45.631  29.488  39.398  1.00  0.00     0.091 A 
ATOM     74  F   UNL A   1      45.082  27.586  38.070  1.00  0.00    -0.205 F 
ATOM     75  C   UNL A   1      46.057  30.825  39.468  1.00  0.00     0.022 A 
BRANCH  73  76
ATOM     76  S   UNL A   1      45.334  28.643  40.954  1.00  0.00     0.127 S 
ATOM     77  O   UNL A   1      46.698  28.379  41.411  1.00  0.00    -0.237 OA
ATOM     78  O   UNL A   1      44.620  29.662  41.725  1.00  0.00    -0.237 OA
ATOM     79  O   UNL A   1      44.544  27.465  40.627  1.00  0.00    -0.744 OA
ENDBRANCH  73  76
ENDBRANCH  55  69
BRANCH  56  80
ATOM     80  C   UNL A   1      43.768  26.220  27.771  1.00  0.00     0.023 A 
ATOM     81  C   UNL A   1      43.925  27.160  26.736  1.00  0.00     0.012 A 
ATOM     82  C   UNL A   1      43.434  24.889  27.448  1.00  0.00     0.148 A 
ATOM     83  C   UNL A   1      43.735  26.787  25.404  1.00  0.00     0.002 A 
ATOM     84  C   UNL A   1      43.304  24.511  26.117  1.00  0.00     0.091 A 
ATOM     85  F   UNL A   1      43.275  24.014  28.450  1.00  0.00    -0.205 F 
ATOM     86  C   UNL A   1      43.438  25.462  25.094  1.00  0.00     0.022 A 
BRANCH  84  87
ATOM     87  S   UNL A   1      43.055  22.804  25.617  1.00  0.00     0.127 S 
ATOM     88  O   UNL A   1      43.261  22.881  24.173  1.00  0.00    -0.237 OA
ATOM     89  O   UNL A   1      44.118  22.121  26.356  1.00  0.00    -0.237 OA
ATOM     90  O   UNL A   1      41.707  22.457  26.041  1.00  0.00    -0.744 OA
ENDBRANCH  84  87
ENDBRANCH  56  80
BRANCH  68  91
ATOM     91  C   UNL A   1      49.196  25.649  32.170  1.00  0.00     0.023 A 
ATOM     92  C   UNL A   1      50.248  26.285  31.484  1.00  0.00     0.012 A 
ATOM     93  C   UNL A   1      49.447  24.448  32.864  1.00  0.00     0.148 A 
ATOM     94  C   UNL A   1      51.525  25.723  31.471  1.00  0.00     0.002 A 
ATOM     95  C   UNL A   1      50.733  23.922  32.892  1.00  0.00     0.091 A 
ATOM     96  F   UNL A   1      48.427  23.853  33.499  1.00  0.00    -0.205 F 
ATOM     97  C   UNL A   1      51.770  24.553  32.185  1.00  0.00     0.022 A 
BRANCH  95  98
ATOM     98  S   UNL A   1      51.165  22.479  33.870  1.00  0.00     0.127 S 
ATOM     99  O   UNL A   1      50.693  21.390  33.017  1.00  0.00    -0.237 OA
ATOM    100  O   UNL A   1      52.621  22.596  33.962  1.00  0.00    -0.237 OA
ATOM    101  O   UNL A   1      50.463  22.624  35.138  1.00  0.00    -0.744 OA
ENDBRANCH  95  98
ENDBRANCH  68  91
ENDBRANCH  42  43
ENDBRANCH  35  37
ENDBRANCH  34  35
ENDBRANCH  33  34
ENDBRANCH  32  33
ENDBRANCH  31  32
ENDBRANCH  30  31
ENDBRANCH  29  30
ENDBRANCH   1  29
TORSDOF 26
ENDMDL
MODEL 2
REMARK VINA RESULT:      -8.7      4.114      6.105
REMARK SMILES Cc1ccsc1CNC(=O)N[C@@H]1CCCC[C@H]1C(=O)OCCOCCOCCOCCOC(=O)c1ccc(-c2c3nc(c(-c4cccc(S(=O)(=O)[O-])c4F)c4ccc([nH]4)c(-c4cccc(S(=O)(=O)[O-])c4F)c4nc(c(-c5cccc(S(=O)(=O)[O-])c5F)c5ccc2[nH]5)C=C4)C=C3)cc1
REMARK SMILES IDX 26 1 25 2 24 3 23 4 22 5 21 6 20 7 18 8 19 9 17 10 12 11
REMARK SMILES IDX 13 12 14 13 16 14 15 15 11 16 8 17 9 18 10 20 7 22 6 23 1 24
REMARK SMILES IDX 2 25 3 26 4 27 5 28 27 29 28 30 29 31 30 32 31 33 32 34
REMARK SMILES IDX 33 35 34 36 35 37 36 38 97 39 37 40 96 41 38 42 39 43 40 44
REMARK SMILES IDX 90 45 41 46 95 47 89 48 91 49 42 50 94 51 88 52 87 53 43 55
REMARK SMILES IDX 75 56 55 57 74 58 56 59 59 60 73 61 92 62 57 63 58 64 72 66
REMARK SMILES IDX 93 67 60 68 44 69 45 70 53 71 46 72 48 73 54 74 47 75 49 76
REMARK SMILES IDX 50 77 51 78 52 79 76 80 77 81 85 82 78 83 80 84 86 85 79 86
REMARK SMILES IDX 81 87 82 88 83 89 84 90 61 91 62 92 70 93 63 94 65 95 71 96
REMARK SMILES IDX 64 97 66 98 67 99 68 100 69 101
REMARK H PARENT 8 19 11 21 91 54 59 65
REMARK Flexibility Score: inf
ROOT
ATOM      1  O   UNL A   1      33.293  29.317  25.750  1.00  0.00    -0.377 OA
ENDROOT
BRANCH   1   2
ATOM      2  C   UNL A   1      32.458  28.824  24.717  1.00  0.00     0.188 C 
BRANCH   2   3
ATOM      3  C   UNL A   1      32.845  28.971  23.252  1.00  0.00     0.188 C 
BRANCH   3   4
ATOM      4  O   UNL A   1      32.053  28.220  22.371  1.00  0.00    -0.376 OA
BRANCH   4   5
ATOM      5  C   UNL A   1      32.213  26.817  22.329  1.00  0.00     0.202 C 
BRANCH   5   6
ATOM      6  C   UNL A   1      33.544  26.021  22.452  1.00  0.00     0.261 C 
BRANCH   6   7
ATOM      7  O   UNL A   1      33.635  24.798  23.216  1.00  0.00    -0.463 OA
BRANCH   7   8
ATOM      8  C   UNL A   1      33.944  24.942  24.524  1.00  0.00     0.311 C 
ATOM      9  O   UNL A   1      34.415  25.989  24.975  1.00  0.00    -0.252 OA
BRANCH   8  10
ATOM     10  C   UNL A   1      33.759  23.714  25.439  1.00  0.00     0.121 C 
ATOM     11  C   UNL A   1      34.776  23.246  26.523  1.00  0.00     0.098 C 
ATOM     12  C   UNL A   1      34.208  22.350  27.648  1.00  0.00     0.026 C 
ATOM     13  C   UNL A   1      32.789  22.654  28.078  1.00  0.00     0.002 C 
ATOM     14  C   UNL A   1      32.327  23.879  25.982  1.00  0.00     0.017 C 
ATOM     15  C   UNL A   1      31.885  22.731  26.867  1.00  0.00     0.001 C 
BRANCH  11  16
ATOM     16  N   UNL A   1      36.011  22.526  26.093  1.00  0.00    -0.335 N 
ATOM     17  N   UNL A   1      35.616  20.426  25.054  1.00  0.00    -0.333 N 
ATOM     18  C   UNL A   1      36.413  21.393  25.507  1.00  0.00     0.315 C 
ATOM     19  H   UNL A   1      35.946  19.993  24.234  1.00  0.00     0.165 HD
ATOM     20  O   UNL A   1      37.621  21.266  25.281  1.00  0.00    -0.249 OA
ATOM     21  H   UNL A   1      36.799  23.071  26.319  1.00  0.00     0.165 HD
BRANCH  17  22
ATOM     22  C   UNL A   1      34.366  19.892  25.527  1.00  0.00     0.164 C 
BRANCH  22  23
ATOM     23  C   UNL A   1      33.624  19.074  24.499  1.00  0.00     0.027 A 
ATOM     24  C   UNL A   1      32.194  20.955  23.510  1.00  0.00     0.045 C 
ATOM     25  C   UNL A   1      32.724  19.560  23.557  1.00  0.00    -0.035 A 
ATOM     26  C   UNL A   1      32.399  18.561  22.581  1.00  0.00     0.015 A 
ATOM     27  C   UNL A   1      32.994  17.351  22.844  1.00  0.00     0.065 A 
ATOM     28  S   UNL A   1      33.850  17.379  24.318  1.00  0.00    -0.147 S 
ENDBRANCH  22  23
ENDBRANCH  17  22
ENDBRANCH  11  16
ENDBRANCH   8  10
ENDBRANCH   7   8
ENDBRANCH   6   7
ENDBRANCH   5   6
ENDBRANCH   4   5
ENDBRANCH   3   4
ENDBRANCH   2   3
ENDBRANCH   1   2
BRANCH   1  29
ATOM     29  C   UNL A   1      32.890  30.453  26.498  1.00  0.00     0.188 C 
BRANCH  29  30
ATOM     30  C   UNL A   1      33.789  30.984  27.628  1.00  0.00     0.188 C 
BRANCH  30  31
ATOM     31  O   UNL A   1      34.332  32.273  27.406  1.00  0.00    -0.376 OA
BRANCH  31  32
ATOM     32  C   UNL A   1      33.740  33.376  28.075  1.00  0.00     0.202 C 
BRANCH  32  33
ATOM     33  C   UNL A   1      34.279  33.789  29.455  1.00  0.00     0.261 C 
BRANCH  33  34
ATOM     34  O   UNL A   1      33.711  34.964  30.054  1.00  0.00    -0.460 OA
BRANCH  34  35
ATOM     35  C   UNL A   1      33.362  34.926  31.362  1.00  0.00     0.338 C 
ATOM     36  O   UNL A   1      32.272  35.127  31.842  1.00  0.00    -0.246 OA
BRANCH  35  37
ATOM     37  C   UNL A   1      34.534  34.392  32.095  1.00  0.00     0.060 A 
ATOM     38  C   UNL A   1      35.673  35.196  32.244  1.00  0.00     0.016 A 
ATOM     39  C   UNL A   1      34.485  33.121  32.668  1.00  0.00     0.016 A 
ATOM     40  C   UNL A   1      36.777  34.722  32.953  1.00  0.00     0.010 A 
ATOM     41  C   UNL A   1      35.601  32.635  33.351  1.00  0.00     0.010 A 
ATOM     42  C   UNL A   1      36.761  33.421  33.471  1.00  0.00    -0.014 A 
BRANCH  42  43
ATOM     43  C   UNL A   1      38.021  32.797  33.934  1.00  0.00     0.031 A 
ATOM     44  C   UNL A   1      38.443  33.042  35.355  1.00  0.00     0.074 A 
ATOM     45  C   UNL A   1      38.791  32.064  33.112  1.00  0.00     0.049 A 
ATOM     46  N   UNL A   1      39.542  32.696  35.967  1.00  0.00    -0.248 NA
ATOM     47  C   UNL A   1      37.494  33.794  36.195  1.00  0.00     0.031 C 
ATOM     48  C   UNL A   1      38.481  31.749  31.719  1.00  0.00     0.029 A 
ATOM     49  N   UNL A   1      40.020  31.488  33.326  1.00  0.00    -0.354 N 
ATOM     50  C   UNL A   1      39.443  33.229  37.246  1.00  0.00     0.074 A 
ATOM     51  C   UNL A   1      38.174  33.917  37.324  1.00  0.00     0.031 C 
ATOM     52  C   UNL A   1      39.518  31.079  31.186  1.00  0.00     0.029 A 
ATOM     53  C   UNL A   1      40.576  30.952  32.189  1.00  0.00     0.049 A 
ATOM     54  H   UNL A   1      40.459  31.463  34.207  1.00  0.00     0.167 HD
ATOM     55  C   UNL A   1      40.330  33.154  38.264  1.00  0.00     0.034 A 
ATOM     56  C   UNL A   1      41.812  30.458  31.971  1.00  0.00     0.034 A 
ATOM     57  C   UNL A   1      41.586  32.464  38.180  1.00  0.00     0.049 A 
ATOM     58  C   UNL A   1      42.796  30.401  33.111  1.00  0.00     0.074 A 
ATOM     59  C   UNL A   1      42.527  32.269  39.175  1.00  0.00     0.029 A 
ATOM     60  N   UNL A   1      42.093  31.882  37.028  1.00  0.00    -0.354 N 
ATOM     61  N   UNL A   1      42.644  30.799  34.352  1.00  0.00    -0.248 NA
ATOM     62  C   UNL A   1      44.110  29.803  32.834  1.00  0.00     0.031 C 
ATOM     63  C   UNL A   1      43.627  31.618  38.609  1.00  0.00     0.029 A 
ATOM     64  C   UNL A   1      43.346  31.354  37.276  1.00  0.00     0.049 A 
ATOM     65  H   UNL A   1      41.628  31.851  36.160  1.00  0.00     0.167 HD
ATOM     66  C   UNL A   1      43.825  30.468  35.010  1.00  0.00     0.074 A 
ATOM     67  C   UNL A   1      44.680  29.828  34.032  1.00  0.00     0.031 C 
ATOM     68  C   UNL A   1      44.169  30.679  36.304  1.00  0.00     0.034 A 
BRANCH  55  69
ATOM     69  C   UNL A   1      39.977  33.861  39.545  1.00  0.00     0.023 A 
ATOM     70  C   UNL A   1      40.532  35.124  39.838  1.00  0.00     0.012 A 
ATOM     71  C   UNL A   1      39.074  33.275  40.453  1.00  0.00     0.148 A 
ATOM     72  C   UNL A   1      40.231  35.769  41.038  1.00  0.00     0.002 A 
ATOM     73  C   UNL A   1      38.738  33.949  41.620  1.00  0.00     0.091 A 
ATOM     74  F   UNL A   1      38.577  32.063  40.171  1.00  0.00    -0.205 F 
ATOM     75  C   UNL A   1      39.327  35.187  41.923  1.00  0.00     0.022 A 
BRANCH  73  76
ATOM     76  S   UNL A   1      37.520  33.319  42.780  1.00  0.00     0.127 S 
ATOM     77  O   UNL A   1      37.980  31.944  42.972  1.00  0.00    -0.237 OA
ATOM     78  O   UNL A   1      37.716  34.194  43.936  1.00  0.00    -0.237 OA
ATOM     79  O   UNL A   1      36.228  33.460  42.123  1.00  0.00    -0.744 OA
ENDBRANCH  73  76
ENDBRANCH  55  69
BRANCH  56  80
ATOM     80  C   UNL A   1      42.185  29.986  30.607  1.00  0.00     0.023 A 
ATOM     81  C   UNL A   1      42.769  30.878  29.689  1.00  0.00     0.012 A 
ATOM     82  C   UNL A   1      42.000  28.639  30.236  1.00  0.00     0.148 A 
ATOM     83  C   UNL A   1      43.146  30.442  28.418  1.00  0.00     0.002 A 
ATOM     84  C   UNL A   1      42.431  28.198  28.991  1.00  0.00     0.091 A 
ATOM     85  F   UNL A   1      41.428  27.811  31.121  1.00  0.00    -0.205 F 
ATOM     86  C   UNL A   1      42.990  29.101  28.074  1.00  0.00     0.022 A 
BRANCH  84  87
ATOM     87  S   UNL A   1      42.393  26.467  28.513  1.00  0.00     0.127 S 
ATOM     88  O   UNL A   1      43.030  26.505  27.199  1.00  0.00    -0.237 OA
ATOM     89  O   UNL A   1      43.197  25.850  29.569  1.00  0.00    -0.237 OA
ATOM     90  O   UNL A   1      40.990  26.083  28.520  1.00  0.00    -0.744 OA
ENDBRANCH  84  87
ENDBRANCH  56  80
BRANCH  68  91
ATOM     91  C   UNL A   1      45.508  30.172  36.776  1.00  0.00     0.023 A 
ATOM     92  C   UNL A   1      45.638  28.858  37.265  1.00  0.00     0.012 A 
ATOM     93  C   UNL A   1      46.660  30.971  36.620  1.00  0.00     0.148 A 
ATOM     94  C   UNL A   1      46.892  28.354  37.611  1.00  0.00     0.002 A 
ATOM     95  C   UNL A   1      47.911  30.444  36.915  1.00  0.00     0.091 A 
ATOM     96  F   UNL A   1      46.511  32.223  36.165  1.00  0.00    -0.205 F 
ATOM     97  C   UNL A   1      48.027  29.139  37.422  1.00  0.00     0.022 A 
BRANCH  95  98
ATOM     98  S   UNL A   1      49.435  31.343  36.605  1.00  0.00     0.127 S 
ATOM     99  O   UNL A   1      50.432  30.450  37.194  1.00  0.00    -0.237 OA
ATOM    100  O   UNL A   1      49.461  31.408  35.143  1.00  0.00    -0.237 OA
ATOM    101  O   UNL A   1      49.287  32.631  37.269  1.00  0.00    -0.744 OA
ENDBRANCH  95  98
ENDBRANCH  68  91
ENDBRANCH  42  43
ENDBRANCH  35  37
ENDBRANCH  34  35
ENDBRANCH  33  34
ENDBRANCH  32  33
ENDBRANCH  31  32
ENDBRANCH  30  31
ENDBRANCH  29  30
ENDBRANCH   1  29
TORSDOF 26
ENDMDL
MODEL 3
REMARK VINA RESULT:      -8.7      4.881      8.035
REMARK SMILES Cc1ccsc1CNC(=O)N[C@@H]1CCCC[C@H]1C(=O)OCCOCCOCCOCCOC(=O)c1ccc(-c2c3nc(c(-c4cccc(S(=O)(=O)[O-])c4F)c4ccc([nH]4)c(-c4cccc(S(=O)(=O)[O-])c4F)c4nc(c(-c5cccc(S(=O)(=O)[O-])c5F)c5ccc2[nH]5)C=C4)C=C3)cc1
REMARK SMILES IDX 26 1 25 2 24 3 23 4 22 5 21 6 20 7 18 8 19 9 17 10 12 11
REMARK SMILES IDX 13 12 14 13 16 14 15 15 11 16 8 17 9 18 10 20 7 22 6 23 1 24
REMARK SMILES IDX 2 25 3 26 4 27 5 28 27 29 28 30 29 31 30 32 31 33 32 34
REMARK SMILES IDX 33 35 34 36 35 37 36 38 97 39 37 40 96 41 38 42 39 43 40 44
REMARK SMILES IDX 90 45 41 46 95 47 89 48 91 49 42 50 94 51 88 52 87 53 43 55
REMARK SMILES IDX 75 56 55 57 74 58 56 59 59 60 73 61 92 62 57 63 58 64 72 66
REMARK SMILES IDX 93 67 60 68 44 69 45 70 53 71 46 72 48 73 54 74 47 75 49 76
REMARK SMILES IDX 50 77 51 78 52 79 76 80 77 81 85 82 78 83 80 84 86 85 79 86
REMARK SMILES IDX 81 87 82 88 83 89 84 90 61 91 62 92 70 93 63 94 65 95 71 96
REMARK SMILES IDX 64 97 66 98 67 99 68 100 69 101
REMARK H PARENT 8 19 11 21 91 54 59 65
REMARK Flexibility Score: inf
ROOT
ATOM      1  O   UNL A   1      33.838  30.880  27.557  1.00  0.00    -0.377 OA
ENDROOT
BRANCH   1   2
ATOM      2  C   UNL A   1      34.018  29.862  26.588  1.00  0.00     0.188 C 
BRANCH   2   3
ATOM      3  C   UNL A   1      33.736  28.402  26.917  1.00  0.00     0.188 C 
BRANCH   3   4
ATOM      4  O   UNL A   1      32.543  28.194  27.624  1.00  0.00    -0.376 OA
BRANCH   4   5
ATOM      5  C   UNL A   1      31.386  27.795  26.917  1.00  0.00     0.202 C 
BRANCH   5   6
ATOM      6  C   UNL A   1      30.990  26.348  26.508  1.00  0.00     0.261 C 
BRANCH   6   7
ATOM      7  O   UNL A   1      31.906  25.238  26.638  1.00  0.00    -0.463 OA
BRANCH   7   8
ATOM      8  C   UNL A   1      31.339  24.022  26.798  1.00  0.00     0.311 C 
ATOM      9  O   UNL A   1      30.201  23.884  27.250  1.00  0.00    -0.252 OA
BRANCH   8  10
ATOM     10  C   UNL A   1      32.200  22.786  26.465  1.00  0.00     0.121 C 
ATOM     11  C   UNL A   1      32.934  22.546  25.112  1.00  0.00     0.098 C 
ATOM     12  C   UNL A   1      34.119  21.554  25.147  1.00  0.00     0.026 C 
ATOM     13  C   UNL A   1      34.939  21.552  26.419  1.00  0.00     0.002 C 
ATOM     14  C   UNL A   1      33.123  22.645  27.690  1.00  0.00     0.017 C 
ATOM     15  C   UNL A   1      34.029  21.432  27.622  1.00  0.00     0.001 C 
BRANCH  11  16
ATOM     16  N   UNL A   1      32.142  22.102  23.927  1.00  0.00    -0.335 N 
ATOM     17  N   UNL A   1      33.104  22.667  21.830  1.00  0.00    -0.333 N 
ATOM     18  C   UNL A   1      32.153  22.127  22.590  1.00  0.00     0.315 C 
ATOM     19  H   UNL A   1      33.274  22.172  20.997  1.00  0.00     0.165 HD
ATOM     20  O   UNL A   1      31.253  21.518  22.002  1.00  0.00    -0.249 OA
ATOM     21  H   UNL A   1      31.333  21.632  24.236  1.00  0.00     0.165 HD
BRANCH  17  22
ATOM     22  C   UNL A   1      33.933  23.832  21.989  1.00  0.00     0.164 C 
BRANCH  22  23
ATOM     23  C   UNL A   1      33.174  25.072  22.394  1.00  0.00     0.027 A 
ATOM     24  C   UNL A   1      34.398  25.536  24.596  1.00  0.00     0.045 C 
ATOM     25  C   UNL A   1      33.434  25.867  23.505  1.00  0.00    -0.035 A 
ATOM     26  C   UNL A   1      32.694  27.094  23.454  1.00  0.00     0.015 A 
ATOM     27  C   UNL A   1      31.860  27.164  22.364  1.00  0.00     0.065 A 
ATOM     28  S   UNL A   1      31.877  25.715  21.466  1.00  0.00    -0.147 S 
ENDBRANCH  22  23
ENDBRANCH  17  22
ENDBRANCH  11  16
ENDBRANCH   8  10
ENDBRANCH   7   8
ENDBRANCH   6   7
ENDBRANCH   5   6
ENDBRANCH   4   5
ENDBRANCH   3   4
ENDBRANCH   2   3
ENDBRANCH   1   2
BRANCH   1  29
ATOM     29  C   UNL A   1      34.928  31.717  27.909  1.00  0.00     0.188 C 
BRANCH  29  30
ATOM     30  C   UNL A   1      34.727  33.240  28.001  1.00  0.00     0.188 C 
BRANCH  30  31
ATOM     31  O   UNL A   1      35.369  33.864  29.098  1.00  0.00    -0.376 OA
BRANCH  31  32
ATOM     32  C   UNL A   1      34.610  34.104  30.273  1.00  0.00     0.202 C 
BRANCH  32  33
ATOM     33  C   UNL A   1      34.800  33.177  31.485  1.00  0.00     0.261 C 
BRANCH  33  34
ATOM     34  O   UNL A   1      35.799  32.151  31.374  1.00  0.00    -0.460 OA
BRANCH  34  35
ATOM     35  C   UNL A   1      36.732  32.040  32.349  1.00  0.00     0.338 C 
ATOM     36  O   UNL A   1      36.571  32.144  33.542  1.00  0.00    -0.246 OA
BRANCH  35  37
ATOM     37  C   UNL A   1      37.973  31.567  31.692  1.00  0.00     0.060 A 
ATOM     38  C   UNL A   1      39.023  31.079  32.483  1.00  0.00     0.016 A 
ATOM     39  C   UNL A   1      38.076  31.566  30.300  1.00  0.00     0.016 A 
ATOM     40  C   UNL A   1      40.190  30.605  31.883  1.00  0.00     0.010 A 
ATOM     41  C   UNL A   1      39.255  31.121  29.702  1.00  0.00     0.010 A 
ATOM     42  C   UNL A   1      40.327  30.666  30.491  1.00  0.00    -0.014 A 
BRANCH  42  43
ATOM     43  C   UNL A   1      41.659  30.475  29.873  1.00  0.00     0.031 A 
ATOM     44  C   UNL A   1      42.073  29.073  29.522  1.00  0.00     0.074 A 
ATOM     45  C   UNL A   1      42.495  31.505  29.661  1.00  0.00     0.049 A 
ATOM     46  N   UNL A   1      43.215  28.633  29.069  1.00  0.00    -0.248 NA
ATOM     47  C   UNL A   1      41.057  28.025  29.722  1.00  0.00     0.031 C 
ATOM     48  C   UNL A   1      42.200  32.906  29.950  1.00  0.00     0.029 A 
ATOM     49  N   UNL A   1      43.786  31.518  29.191  1.00  0.00    -0.354 N 
ATOM     50  C   UNL A   1      43.075  27.254  28.978  1.00  0.00     0.074 A 
ATOM     51  C   UNL A   1      41.736  26.931  29.417  1.00  0.00     0.031 C 
ATOM     52  C   UNL A   1      43.300  33.640  29.699  1.00  0.00     0.029 A 
ATOM     53  C   UNL A   1      44.382  32.754  29.268  1.00  0.00     0.049 A 
ATOM     54  H   UNL A   1      44.240  30.720  28.834  1.00  0.00     0.167 HD
ATOM     55  C   UNL A   1      43.981  26.338  28.568  1.00  0.00     0.034 A 
ATOM     56  C   UNL A   1      45.663  33.120  29.059  1.00  0.00     0.034 A 
ATOM     57  C   UNL A   1      45.308  26.668  28.128  1.00  0.00     0.049 A 
ATOM     58  C   UNL A   1      46.665  32.083  28.623  1.00  0.00     0.074 A 
ATOM     59  C   UNL A   1      46.281  25.823  27.626  1.00  0.00     0.029 A 
ATOM     60  N   UNL A   1      45.860  27.940  28.166  1.00  0.00    -0.354 N 
ATOM     61  N   UNL A   1      46.489  30.799  28.423  1.00  0.00    -0.248 NA
ATOM     62  C   UNL A   1      48.035  32.545  28.356  1.00  0.00     0.031 C 
ATOM     63  C   UNL A   1      47.440  26.575  27.413  1.00  0.00     0.029 A 
ATOM     64  C   UNL A   1      47.169  27.900  27.725  1.00  0.00     0.049 A 
ATOM     65  H   UNL A   1      45.387  28.751  28.463  1.00  0.00     0.167 HD
ATOM     66  C   UNL A   1      47.711  30.308  27.973  1.00  0.00     0.074 A 
ATOM     67  C   UNL A   1      48.618  31.435  27.921  1.00  0.00     0.031 C 
ATOM     68  C   UNL A   1      48.049  29.038  27.637  1.00  0.00     0.034 A 
BRANCH  55  69
ATOM     69  C   UNL A   1      43.570  24.891  28.603  1.00  0.00     0.023 A 
ATOM     70  C   UNL A   1      43.708  24.140  29.789  1.00  0.00     0.012 A 
ATOM     71  C   UNL A   1      43.027  24.279  27.457  1.00  0.00     0.148 A 
ATOM     72  C   UNL A   1      43.355  22.790  29.818  1.00  0.00     0.002 A 
ATOM     73  C   UNL A   1      42.628  22.950  27.510  1.00  0.00     0.091 A 
ATOM     74  F   UNL A   1      42.928  25.001  26.332  1.00  0.00    -0.205 F 
ATOM     75  C   UNL A   1      42.806  22.199  28.683  1.00  0.00     0.022 A 
BRANCH  73  76
ATOM     76  S   UNL A   1      41.834  22.127  26.125  1.00  0.00     0.127 S 
ATOM     77  O   UNL A   1      40.489  22.699  26.175  1.00  0.00    -0.237 OA
ATOM     78  O   UNL A   1      42.646  22.576  24.994  1.00  0.00    -0.237 OA
ATOM     79  O   UNL A   1      41.917  20.700  26.404  1.00  0.00    -0.744 OA
ENDBRANCH  73  76
ENDBRANCH  55  69
BRANCH  56  80
ATOM     80  C   UNL A   1      46.065  34.540  29.272  1.00  0.00     0.023 A 
ATOM     81  C   UNL A   1      46.642  34.932  30.494  1.00  0.00     0.012 A 
ATOM     82  C   UNL A   1      45.917  35.491  28.243  1.00  0.00     0.148 A 
ATOM     83  C   UNL A   1      47.047  36.253  30.696  1.00  0.00     0.002 A 
ATOM     84  C   UNL A   1      46.376  36.790  28.430  1.00  0.00     0.091 A 
ATOM     85  F   UNL A   1      45.352  35.099  27.094  1.00  0.00    -0.205 F 
ATOM     86  C   UNL A   1      46.926  37.177  29.661  1.00  0.00     0.022 A 
BRANCH  84  87
ATOM     87  S   UNL A   1      46.385  38.010  27.112  1.00  0.00     0.127 S 
ATOM     88  O   UNL A   1      47.094  39.123  27.737  1.00  0.00    -0.237 OA
ATOM     89  O   UNL A   1      47.133  37.311  26.066  1.00  0.00    -0.237 OA
ATOM     90  O   UNL A   1      44.987  38.259  26.790  1.00  0.00    -0.744 OA
ENDBRANCH  84  87
ENDBRANCH  56  80
BRANCH  68  91
ATOM     91  C   UNL A   1      49.446  28.785  27.129  1.00  0.00     0.023 A 
ATOM     92  C   UNL A   1      49.739  28.925  25.759  1.00  0.00     0.012 A 
ATOM     93  C   UNL A   1      50.491  28.523  28.038  1.00  0.00     0.148 A 
ATOM     94  C   UNL A   1      51.049  28.787  25.299  1.00  0.00     0.002 A 
ATOM     95  C   UNL A   1      51.800  28.441  27.581  1.00  0.00     0.091 A 
ATOM     96  F   UNL A   1      50.187  28.381  29.336  1.00  0.00    -0.205 F 
ATOM     97  C   UNL A   1      52.080  28.560  26.209  1.00  0.00     0.022 A 
BRANCH  95  98
ATOM     98  S   UNL A   1      53.201  28.256  28.690  1.00  0.00     0.127 S 
ATOM     99  O   UNL A   1      52.921  26.963  29.310  1.00  0.00    -0.237 OA
ATOM    100  O   UNL A   1      54.331  28.255  27.760  1.00  0.00    -0.237 OA
ATOM    101  O   UNL A   1      53.158  29.399  29.591  1.00  0.00    -0.744 OA
ENDBRANCH  95  98
ENDBRANCH  68  91
ENDBRANCH  42  43
ENDBRANCH  35  37
ENDBRANCH  34  35
ENDBRANCH  33  34
ENDBRANCH  32  33
ENDBRANCH  31  32
ENDBRANCH  30  31
ENDBRANCH  29  30
ENDBRANCH   1  29
TORSDOF 26
ENDMDL
