MODEL 1
REMARK VINA RESULT:     -11.0      0.000      0.000
REMARK SMILES O=C(OCCOCCOCCOCCOC(=O)c1nccnc1C(=O)Nc1n[nH]c2ncccc12)c1ccc(-c2c3nc(c(-c4cccc(S(=O)(=O)[O-])c4F)c4ccc([nH]4)c(-c4cccc(S(=O)(=O)[O-])c4F)c4nc(c(-c5cccc(S(=O)(=O)[O-])c5F)c5ccc2[nH]5)C=C4)C=C3)cc1
REMARK SMILES IDX 8 1 7 2 6 3 5 4 4 5 3 6 2 7 1 8 36 9 37 10 98 11 38 12 97 13
REMARK SMILES IDX 39 14 40 15 41 16 91 17 42 18 96 19 90 20 92 21 43 22 95 23
REMARK SMILES IDX 89 24 88 25 44 27 76 28 56 29 75 30 57 31 60 32 74 33 93 34
REMARK SMILES IDX 58 35 59 36 73 38 94 39 61 40 45 41 46 42 54 43 47 44 49 45
REMARK SMILES IDX 55 46 48 47 50 48 51 49 52 50 53 51 77 52 78 53 86 54 79 55
REMARK SMILES IDX 81 56 87 57 80 58 82 59 83 60 84 61 85 62 62 63 63 64 71 65
REMARK SMILES IDX 64 66 66 67 72 68 65 69 67 70 68 71 69 72 70 73 9 74 10 75
REMARK SMILES IDX 11 76 12 77 13 78 14 79 15 80 16 81 17 82 18 83 19 84 23 85
REMARK SMILES IDX 20 86 22 87 21 88 24 89 25 90 26 91 27 93 28 94 35 95 29 96
REMARK SMILES IDX 30 97 34 98 31 100 33 101 32 102
REMARK H PARENT 92 26 60 37 26 92 29 99
REMARK Flexibility Score: inf
ROOT
ATOM      1  C   UNL A   1      36.110  23.678  25.494  1.00  0.00     0.188 C 
ENDROOT
BRANCH   1   2
ATOM      2  C   UNL A   1      35.813  23.328  24.045  1.00  0.00     0.188 C 
BRANCH   2   3
ATOM      3  O   UNL A   1      36.159  21.981  23.774  1.00  0.00    -0.376 OA
BRANCH   3   4
ATOM      4  C   UNL A   1      36.442  21.175  24.904  1.00  0.00     0.202 C 
BRANCH   4   5
ATOM      5  C   UNL A   1      37.713  20.377  24.624  1.00  0.00     0.261 C 
BRANCH   5   6
ATOM      6  O   UNL A   1      38.441  20.140  25.846  1.00  0.00    -0.460 OA
BRANCH   6   7
ATOM      7  C   UNL A   1      39.686  20.561  26.185  1.00  0.00     0.338 C 
ATOM      8  O   UNL A   1      40.619  19.773  26.028  1.00  0.00    -0.246 OA
BRANCH   7   9
ATOM      9  C   UNL A   1      40.026  21.948  26.658  1.00  0.00     0.060 A 
ATOM     10  C   UNL A   1      39.583  23.150  26.095  1.00  0.00     0.016 A 
ATOM     11  C   UNL A   1      40.832  22.030  27.810  1.00  0.00     0.016 A 
ATOM     12  C   UNL A   1      39.939  24.385  26.622  1.00  0.00     0.010 A 
ATOM     13  C   UNL A   1      41.238  23.266  28.323  1.00  0.00     0.010 A 
ATOM     14  C   UNL A   1      40.821  24.443  27.693  1.00  0.00    -0.014 A 
BRANCH  14  15
ATOM     15  C   UNL A   1      41.553  25.707  27.874  1.00  0.00     0.031 A 
ATOM     16  C   UNL A   1      40.841  26.783  28.644  1.00  0.00     0.074 A 
ATOM     17  C   UNL A   1      42.834  25.831  27.495  1.00  0.00     0.049 A 
ATOM     18  N   UNL A   1      41.230  27.990  28.942  1.00  0.00    -0.248 NA
ATOM     19  C   UNL A   1      39.507  26.434  29.171  1.00  0.00     0.031 C 
ATOM     20  C   UNL A   1      43.637  24.781  26.868  1.00  0.00     0.029 A 
ATOM     21  N   UNL A   1      43.686  26.896  27.595  1.00  0.00    -0.354 N 
ATOM     22  C   UNL A   1      40.168  28.560  29.635  1.00  0.00     0.074 A 
ATOM     23  C   UNL A   1      39.131  27.563  29.744  1.00  0.00     0.031 C 
ATOM     24  C   UNL A   1      44.867  25.264  26.623  1.00  0.00     0.029 A 
ATOM     25  C   UNL A   1      44.918  26.665  27.032  1.00  0.00     0.049 A 
ATOM     26  H   UNL A   1      43.442  27.746  28.027  1.00  0.00     0.167 HD
ATOM     27  C   UNL A   1      40.064  29.816  30.121  1.00  0.00     0.034 A 
ATOM     28  C   UNL A   1      45.946  27.515  26.844  1.00  0.00     0.034 A 
ATOM     29  C   UNL A   1      41.108  30.787  29.988  1.00  0.00     0.049 A 
ATOM     30  C   UNL A   1      45.783  28.932  27.333  1.00  0.00     0.074 A 
ATOM     31  C   UNL A   1      41.120  32.108  30.384  1.00  0.00     0.029 A 
ATOM     32  N   UNL A   1      42.336  30.529  29.390  1.00  0.00    -0.354 N 
ATOM     33  N   UNL A   1      44.776  29.471  27.983  1.00  0.00    -0.248 NA
ATOM     34  C   UNL A   1      46.894  29.856  27.077  1.00  0.00     0.031 C 
ATOM     35  C   UNL A   1      42.347  32.660  29.996  1.00  0.00     0.029 A 
ATOM     36  C   UNL A   1      43.115  31.668  29.398  1.00  0.00     0.049 A 
ATOM     37  H   UNL A   1      42.610  29.661  29.017  1.00  0.00     0.167 HD
ATOM     38  C   UNL A   1      45.147  30.783  28.248  1.00  0.00     0.074 A 
ATOM     39  C   UNL A   1      46.478  30.953  27.696  1.00  0.00     0.031 C 
ATOM     40  C   UNL A   1      44.456  31.767  28.879  1.00  0.00     0.034 A 
BRANCH  27  41
ATOM     41  C   UNL A   1      38.752  30.194  30.754  1.00  0.00     0.023 A 
ATOM     42  C   UNL A   1      38.431  29.749  32.054  1.00  0.00     0.012 A 
ATOM     43  C   UNL A   1      37.804  30.938  30.026  1.00  0.00     0.148 A 
ATOM     44  C   UNL A   1      37.168  29.994  32.596  1.00  0.00     0.002 A 
ATOM     45  C   UNL A   1      36.566  31.218  30.590  1.00  0.00     0.091 A 
ATOM     46  F   UNL A   1      38.113  31.320  28.779  1.00  0.00    -0.205 F 
ATOM     47  C   UNL A   1      36.240  30.732  31.866  1.00  0.00     0.022 A 
BRANCH  45  48
ATOM     48  S   UNL A   1      35.326  32.209  29.752  1.00  0.00     0.127 S 
ATOM     49  O   UNL A   1      34.358  32.440  30.822  1.00  0.00    -0.237 OA
ATOM     50  O   UNL A   1      36.095  33.391  29.358  1.00  0.00    -0.237 OA
ATOM     51  O   UNL A   1      34.850  31.398  28.640  1.00  0.00    -0.744 OA
ENDBRANCH  45  48
ENDBRANCH  27  41
BRANCH  28  52
ATOM     52  C   UNL A   1      47.199  27.053  26.181  1.00  0.00     0.023 A 
ATOM     53  C   UNL A   1      47.396  27.305  24.808  1.00  0.00     0.012 A 
ATOM     54  C   UNL A   1      48.208  26.386  26.903  1.00  0.00     0.148 A 
ATOM     55  C   UNL A   1      48.563  26.884  24.167  1.00  0.00     0.002 A 
ATOM     56  C   UNL A   1      49.391  26.018  26.271  1.00  0.00     0.091 A 
ATOM     57  F   UNL A   1      47.998  26.136  28.203  1.00  0.00    -0.205 F 
ATOM     58  C   UNL A   1      49.564  26.251  24.899  1.00  0.00     0.022 A 
BRANCH  56  59
ATOM     59  S   UNL A   1      50.785  25.315  27.161  1.00  0.00     0.127 S 
ATOM     60  O   UNL A   1      51.227  26.448  27.970  1.00  0.00    -0.237 OA
ATOM     61  O   UNL A   1      50.145  24.233  27.911  1.00  0.00    -0.237 OA
ATOM     62  O   UNL A   1      51.721  24.867  26.139  1.00  0.00    -0.744 OA
ENDBRANCH  56  59
ENDBRANCH  28  52
BRANCH  40  63
ATOM     63  C   UNL A   1      45.148  33.089  29.059  1.00  0.00     0.023 A 
ATOM     64  C   UNL A   1      45.990  33.301  30.167  1.00  0.00     0.012 A 
ATOM     65  C   UNL A   1      45.038  34.080  28.065  1.00  0.00     0.148 A 
ATOM     66  C   UNL A   1      46.692  34.497  30.297  1.00  0.00     0.002 A 
ATOM     67  C   UNL A   1      45.785  35.245  28.173  1.00  0.00     0.091 A 
ATOM     68  F   UNL A   1      44.214  33.861  27.030  1.00  0.00    -0.205 F 
ATOM     69  C   UNL A   1      46.602  35.461  29.295  1.00  0.00     0.022 A 
BRANCH  67  70
ATOM     70  S   UNL A   1      45.815  36.481  26.872  1.00  0.00     0.127 S 
ATOM     71  O   UNL A   1      46.875  37.375  27.334  1.00  0.00    -0.237 OA
ATOM     72  O   UNL A   1      46.158  35.684  25.694  1.00  0.00    -0.237 OA
ATOM     73  O   UNL A   1      44.477  37.058  26.838  1.00  0.00    -0.744 OA
ENDBRANCH  67  70
ENDBRANCH  40  63
ENDBRANCH  14  15
ENDBRANCH   7   9
ENDBRANCH   6   7
ENDBRANCH   5   6
ENDBRANCH   4   5
ENDBRANCH   3   4
ENDBRANCH   2   3
ENDBRANCH   1   2
BRANCH   1  74
ATOM     74  O   UNL A   1      35.684  24.970  25.923  1.00  0.00    -0.377 OA
BRANCH  74  75
ATOM     75  C   UNL A   1      34.487  25.557  25.385  1.00  0.00     0.188 C 
BRANCH  75  76
ATOM     76  C   UNL A   1      33.768  26.737  26.079  1.00  0.00     0.188 C 
BRANCH  76  77
ATOM     77  O   UNL A   1      33.626  27.868  25.231  1.00  0.00    -0.376 OA
BRANCH  77  78
ATOM     78  C   UNL A   1      32.824  28.951  25.695  1.00  0.00     0.202 C 
BRANCH  78  79
ATOM     79  C   UNL A   1      31.460  28.398  26.479  1.00  0.00     0.261 C 
BRANCH  79  80
ATOM     80  O   UNL A   1      30.510  26.595  26.315  1.00  0.00    -0.458 OA
BRANCH  80  81
ATOM     81  C   UNL A   1      30.146  25.215  26.427  1.00  0.00     0.359 C 
ATOM     82  O   UNL A   1      29.014  24.895  26.793  1.00  0.00    -0.244 OA
BRANCH  81  83
ATOM     83  C   UNL A   1      31.134  24.091  26.193  1.00  0.00     0.179 A 
ATOM     84  N   UNL A   1      31.740  23.766  27.397  1.00  0.00    -0.245 NA
ATOM     85  C   UNL A   1      31.473  23.411  25.008  1.00  0.00     0.161 A 
ATOM     86  C   UNL A   1      32.658  22.779  27.394  1.00  0.00     0.132 A 
ATOM     87  N   UNL A   1      32.452  22.434  25.063  1.00  0.00    -0.247 NA
ATOM     88  C   UNL A   1      33.015  22.128  26.244  1.00  0.00     0.132 A 
BRANCH  85  89
ATOM     89  C   UNL A   1      30.953  23.453  23.577  1.00  0.00     0.278 C 
ATOM     90  O   UNL A   1      30.709  22.372  23.021  1.00  0.00    -0.267 OA
ATOM     91  N   UNL A   1      30.677  24.547  22.807  1.00  0.00    -0.303 N 
ATOM     92  H   UNL A   1      30.173  24.356  21.984  1.00  0.00     0.172 HD
BRANCH  91  93
ATOM     93  C   UNL A   1      30.984  25.850  22.995  1.00  0.00     0.164 A 
ATOM     94  N   UNL A   1      32.236  26.257  22.743  1.00  0.00    -0.155 NA
ATOM     95  C   UNL A   1      30.090  26.876  23.310  1.00  0.00     0.063 A 
ATOM     96  N   UNL A   1      32.197  27.568  22.362  1.00  0.00    -0.259 N 
ATOM     97  C   UNL A   1      30.980  28.158  22.506  1.00  0.00     0.157 A 
ATOM     98  C   UNL A   1      28.319  27.146  23.643  1.00  0.00     0.017 A 
ATOM     99  H   UNL A   1      32.984  28.047  22.014  1.00  0.00     0.192 HD
ATOM    100  N   UNL A   1      30.277  29.596  21.906  1.00  0.00    -0.237 NA
ATOM    101  C   UNL A   1      27.520  28.610  22.995  1.00  0.00     0.021 A 
ATOM    102  C   UNL A   1      28.543  29.773  22.177  1.00  0.00     0.113 A 
ENDBRANCH  91  93
ENDBRANCH  85  89
ENDBRANCH  81  83
ENDBRANCH  80  81
ENDBRANCH  79  80
ENDBRANCH  78  79
ENDBRANCH  77  78
ENDBRANCH  76  77
ENDBRANCH  75  76
ENDBRANCH  74  75
ENDBRANCH   1  74
TORSDOF 25
ENDMDL
MODEL 2
REMARK VINA RESULT:      -9.5      2.116      2.757
REMARK SMILES O=C(OCCOCCOCCOCCOC(=O)c1nccnc1C(=O)Nc1n[nH]c2ncccc12)c1ccc(-c2c3nc(c(-c4cccc(S(=O)(=O)[O-])c4F)c4ccc([nH]4)c(-c4cccc(S(=O)(=O)[O-])c4F)c4nc(c(-c5cccc(S(=O)(=O)[O-])c5F)c5ccc2[nH]5)C=C4)C=C3)cc1
REMARK SMILES IDX 8 1 7 2 6 3 5 4 4 5 3 6 2 7 1 8 36 9 37 10 98 11 38 12 97 13
REMARK SMILES IDX 39 14 40 15 41 16 91 17 42 18 96 19 90 20 92 21 43 22 95 23
REMARK SMILES IDX 89 24 88 25 44 27 76 28 56 29 75 30 57 31 60 32 74 33 93 34
REMARK SMILES IDX 58 35 59 36 73 38 94 39 61 40 45 41 46 42 54 43 47 44 49 45
REMARK SMILES IDX 55 46 48 47 50 48 51 49 52 50 53 51 77 52 78 53 86 54 79 55
REMARK SMILES IDX 81 56 87 57 80 58 82 59 83 60 84 61 85 62 62 63 63 64 71 65
REMARK SMILES IDX 64 66 66 67 72 68 65 69 67 70 68 71 69 72 70 73 9 74 10 75
REMARK SMILES IDX 11 76 12 77 13 78 14 79 15 80 16 81 17 82 18 83 19 84 23 85
REMARK SMILES IDX 20 86 22 87 21 88 24 89 25 90 26 91 27 93 28 94 35 95 29 96
REMARK SMILES IDX 30 97 34 98 31 100 33 101 32 102
REMARK H PARENT 92 26 60 37 26 92 29 99
REMARK Flexibility Score: inf
ROOT
ATOM      1  C   UNL A   1      34.751  23.004  26.209  1.00  0.00     0.188 C 
ENDROOT
BRANCH   1   2
ATOM      2  C   UNL A   1      35.174  21.703  25.546  1.00  0.00     0.188 C 
BRANCH   2   3
ATOM      3  O   UNL A   1      36.408  21.863  24.870  1.00  0.00    -0.376 OA
BRANCH   3   4
ATOM      4  C   UNL A   1      37.373  20.850  25.093  1.00  0.00     0.202 C 
BRANCH   4   5
ATOM      5  C   UNL A   1      38.628  21.496  25.676  1.00  0.00     0.261 C 
BRANCH   5   6
ATOM      6  O   UNL A   1      39.706  20.540  25.740  1.00  0.00    -0.460 OA
BRANCH   6   7
ATOM      7  C   UNL A   1      40.750  20.498  26.607  1.00  0.00     0.338 C 
ATOM      8  O   UNL A   1      40.908  19.467  27.262  1.00  0.00    -0.246 OA
BRANCH   7   9
ATOM      9  C   UNL A   1      41.778  21.583  26.768  1.00  0.00     0.060 A 
ATOM     10  C   UNL A   1      42.582  21.807  27.891  1.00  0.00     0.016 A 
ATOM     11  C   UNL A   1      41.974  22.422  25.654  1.00  0.00     0.016 A 
ATOM     12  C   UNL A   1      43.522  22.829  27.933  1.00  0.00     0.010 A 
ATOM     13  C   UNL A   1      42.882  23.485  25.699  1.00  0.00     0.010 A 
ATOM     14  C   UNL A   1      43.623  23.709  26.864  1.00  0.00    -0.014 A 
BRANCH  14  15
ATOM     15  C   UNL A   1      44.220  25.024  27.149  1.00  0.00     0.031 A 
ATOM     16  C   UNL A   1      43.384  25.971  27.962  1.00  0.00     0.074 A 
ATOM     17  C   UNL A   1      45.491  25.297  26.821  1.00  0.00     0.049 A 
ATOM     18  N   UNL A   1      43.642  27.188  28.348  1.00  0.00    -0.248 NA
ATOM     19  C   UNL A   1      42.077  25.459  28.421  1.00  0.00     0.031 C 
ATOM     20  C   UNL A   1      46.411  24.375  26.155  1.00  0.00     0.029 A 
ATOM     21  N   UNL A   1      46.230  26.431  27.016  1.00  0.00    -0.354 N 
ATOM     22  C   UNL A   1      42.512  27.604  29.041  1.00  0.00     0.074 A 
ATOM     23  C   UNL A   1      41.576  26.506  29.052  1.00  0.00     0.031 C 
ATOM     24  C   UNL A   1      47.593  24.991  25.982  1.00  0.00     0.029 A 
ATOM     25  C   UNL A   1      47.493  26.359  26.480  1.00  0.00     0.049 A 
ATOM     26  H   UNL A   1      45.891  27.223  27.493  1.00  0.00     0.167 HD
ATOM     27  C   UNL A   1      42.269  28.809  29.602  1.00  0.00     0.034 A 
ATOM     28  C   UNL A   1      48.437  27.317  26.382  1.00  0.00     0.034 A 
ATOM     29  C   UNL A   1      43.216  29.884  29.566  1.00  0.00     0.049 A 
ATOM     30  C   UNL A   1      48.120  28.675  26.954  1.00  0.00     0.074 A 
ATOM     31  C   UNL A   1      43.085  31.171  30.046  1.00  0.00     0.029 A 
ATOM     32  N   UNL A   1      44.478  29.787  28.994  1.00  0.00    -0.354 N 
ATOM     33  N   UNL A   1      47.048  29.069  27.603  1.00  0.00    -0.248 NA
ATOM     34  C   UNL A   1      49.141  29.718  26.794  1.00  0.00     0.031 C 
ATOM     35  C   UNL A   1      44.261  31.864  29.734  1.00  0.00     0.029 A 
ATOM     36  C   UNL A   1      45.139  30.993  29.100  1.00  0.00     0.049 A 
ATOM     37  H   UNL A   1      44.848  28.977  28.575  1.00  0.00     0.167 HD
ATOM     38  C   UNL A   1      47.280  30.390  27.964  1.00  0.00     0.074 A 
ATOM     39  C   UNL A   1      48.601  30.726  27.468  1.00  0.00     0.031 C 
ATOM     40  C   UNL A   1      46.477  31.258  28.633  1.00  0.00     0.034 A 
BRANCH  27  41
ATOM     41  C   UNL A   1      40.911  29.014  30.215  1.00  0.00     0.023 A 
ATOM     42  C   UNL A   1      40.673  28.666  31.561  1.00  0.00     0.012 A 
ATOM     43  C   UNL A   1      39.845  29.490  29.427  1.00  0.00     0.148 A 
ATOM     44  C   UNL A   1      39.386  28.740  32.096  1.00  0.00     0.002 A 
ATOM     45  C   UNL A   1      38.577  29.605  29.981  1.00  0.00     0.091 A 
ATOM     46  F   UNL A   1      40.082  29.780  28.141  1.00  0.00    -0.205 F 
ATOM     47  C   UNL A   1      38.341  29.214  31.308  1.00  0.00     0.022 A 
BRANCH  45  48
ATOM     48  S   UNL A   1      37.179  30.259  29.062  1.00  0.00     0.127 S 
ATOM     49  O   UNL A   1      36.155  30.344  30.101  1.00  0.00    -0.237 OA
ATOM     50  O   UNL A   1      37.692  31.550  28.604  1.00  0.00    -0.237 OA
ATOM     51  O   UNL A   1      36.915  29.300  27.998  1.00  0.00    -0.744 OA
ENDBRANCH  45  48
ENDBRANCH  27  41
BRANCH  28  52
ATOM     52  C   UNL A   1      49.746  27.024  25.731  1.00  0.00     0.023 A 
ATOM     53  C   UNL A   1      50.789  26.452  26.486  1.00  0.00     0.012 A 
ATOM     54  C   UNL A   1      49.960  27.286  24.363  1.00  0.00     0.148 A 
ATOM     55  C   UNL A   1      52.023  26.167  25.897  1.00  0.00     0.002 A 
ATOM     56  C   UNL A   1      51.172  26.950  23.770  1.00  0.00     0.091 A 
ATOM     57  F   UNL A   1      48.966  27.849  23.662  1.00  0.00    -0.205 F 
ATOM     58  C   UNL A   1      52.211  26.405  24.538  1.00  0.00     0.022 A 
BRANCH  56  59
ATOM     59  S   UNL A   1      51.459  27.101  22.002  1.00  0.00     0.127 S 
ATOM     60  O   UNL A   1      51.595  28.547  21.844  1.00  0.00    -0.237 OA
ATOM     61  O   UNL A   1      52.699  26.343  21.836  1.00  0.00    -0.237 OA
ATOM     62  O   UNL A   1      50.297  26.503  21.360  1.00  0.00    -0.744 OA
ENDBRANCH  56  59
ENDBRANCH  28  52
BRANCH  40  63
ATOM     63  C   UNL A   1      47.029  32.626  28.920  1.00  0.00     0.023 A 
ATOM     64  C   UNL A   1      47.911  32.820  29.999  1.00  0.00     0.012 A 
ATOM     65  C   UNL A   1      46.748  33.694  28.046  1.00  0.00     0.148 A 
ATOM     66  C   UNL A   1      48.484  34.070  30.222  1.00  0.00     0.002 A 
ATOM     67  C   UNL A   1      47.367  34.920  28.241  1.00  0.00     0.091 A 
ATOM     68  F   UNL A   1      45.889  33.487  27.037  1.00  0.00    -0.205 F 
ATOM     69  C   UNL A   1      48.225  35.115  29.336  1.00  0.00     0.022 A 
BRANCH  67  70
ATOM     70  S   UNL A   1      47.179  36.277  27.082  1.00  0.00     0.127 S 
ATOM     71  O   UNL A   1      47.631  37.416  27.879  1.00  0.00    -0.237 OA
ATOM     72  O   UNL A   1      48.084  35.890  25.999  1.00  0.00    -0.237 OA
ATOM     73  O   UNL A   1      45.770  36.292  26.710  1.00  0.00    -0.744 OA
ENDBRANCH  67  70
ENDBRANCH  40  63
ENDBRANCH  14  15
ENDBRANCH   7   9
ENDBRANCH   6   7
ENDBRANCH   5   6
ENDBRANCH   4   5
ENDBRANCH   3   4
ENDBRANCH   2   3
ENDBRANCH   1   2
BRANCH   1  74
ATOM     74  O   UNL A   1      35.336  24.192  25.680  1.00  0.00    -0.377 OA
BRANCH  74  75
ATOM     75  C   UNL A   1      34.505  25.255  25.187  1.00  0.00     0.188 C 
BRANCH  75  76
ATOM     76  C   UNL A   1      33.488  25.988  26.093  1.00  0.00     0.188 C 
BRANCH  76  77
ATOM     77  O   UNL A   1      33.875  27.323  26.384  1.00  0.00    -0.376 OA
BRANCH  77  78
ATOM     78  C   UNL A   1      32.968  28.132  27.128  1.00  0.00     0.202 C 
BRANCH  78  79
ATOM     79  C   UNL A   1      31.444  27.457  27.158  1.00  0.00     0.261 C 
BRANCH  79  80
ATOM     80  O   UNL A   1      30.394  26.553  25.654  1.00  0.00    -0.458 OA
BRANCH  80  81
ATOM     81  C   UNL A   1      30.007  25.745  24.538  1.00  0.00     0.359 C 
ATOM     82  O   UNL A   1      28.836  25.727  24.155  1.00  0.00    -0.244 OA
BRANCH  81  83
ATOM     83  C   UNL A   1      30.973  24.816  23.831  1.00  0.00     0.179 A 
ATOM     84  N   UNL A   1      31.053  23.627  24.540  1.00  0.00    -0.245 NA
ATOM     85  C   UNL A   1      31.724  25.009  22.657  1.00  0.00     0.161 A 
ATOM     86  C   UNL A   1      31.869  22.665  24.064  1.00  0.00     0.132 A 
ATOM     87  N   UNL A   1      32.574  23.999  22.242  1.00  0.00    -0.247 NA
ATOM     88  C   UNL A   1      32.624  22.850  22.938  1.00  0.00     0.132 A 
BRANCH  85  89
ATOM     89  C   UNL A   1      31.803  26.122  21.620  1.00  0.00     0.278 C 
ATOM     90  O   UNL A   1      32.184  25.821  20.479  1.00  0.00    -0.267 OA
ATOM     91  N   UNL A   1      31.470  27.439  21.764  1.00  0.00    -0.303 N 
ATOM     92  H   UNL A   1      31.415  27.946  20.921  1.00  0.00     0.172 HD
BRANCH  91  93
ATOM     93  C   UNL A   1      31.204  28.159  22.877  1.00  0.00     0.164 A 
ATOM     94  N   UNL A   1      32.223  28.512  23.672  1.00  0.00    -0.155 NA
ATOM     95  C   UNL A   1      29.968  28.700  23.238  1.00  0.00     0.063 A 
ATOM     96  N   UNL A   1      31.899  29.683  24.298  1.00  0.00    -0.259 N 
ATOM     97  C   UNL A   1      30.612  30.081  24.111  1.00  0.00     0.157 A 
ATOM     98  C   UNL A   1      28.245  28.790  22.651  1.00  0.00     0.017 A 
ATOM     99  H   UNL A   1      32.542  30.194  24.839  1.00  0.00     0.192 HD
ATOM    100  N   UNL A   1      29.776  31.552  24.347  1.00  0.00    -0.237 NA
ATOM    101  C   UNL A   1      27.340  30.324  22.827  1.00  0.00     0.021 A 
ATOM    102  C   UNL A   1      28.143  31.622  23.685  1.00  0.00     0.113 A 
ENDBRANCH  91  93
ENDBRANCH  85  89
ENDBRANCH  81  83
ENDBRANCH  80  81
ENDBRANCH  79  80
ENDBRANCH  78  79
ENDBRANCH  77  78
ENDBRANCH  76  77
ENDBRANCH  75  76
ENDBRANCH  74  75
ENDBRANCH   1  74
TORSDOF 25
ENDMDL
MODEL 3
REMARK VINA RESULT:      -8.5      3.618      9.097
REMARK SMILES O=C(OCCOCCOCCOCCOC(=O)c1nccnc1C(=O)Nc1n[nH]c2ncccc12)c1ccc(-c2c3nc(c(-c4cccc(S(=O)(=O)[O-])c4F)c4ccc([nH]4)c(-c4cccc(S(=O)(=O)[O-])c4F)c4nc(c(-c5cccc(S(=O)(=O)[O-])c5F)c5ccc2[nH]5)C=C4)C=C3)cc1
REMARK SMILES IDX 8 1 7 2 6 3 5 4 4 5 3 6 2 7 1 8 36 9 37 10 98 11 38 12 97 13
REMARK SMILES IDX 39 14 40 15 41 16 91 17 42 18 96 19 90 20 92 21 43 22 95 23
REMARK SMILES IDX 89 24 88 25 44 27 76 28 56 29 75 30 57 31 60 32 74 33 93 34
REMARK SMILES IDX 58 35 59 36 73 38 94 39 61 40 45 41 46 42 54 43 47 44 49 45
REMARK SMILES IDX 55 46 48 47 50 48 51 49 52 50 53 51 77 52 78 53 86 54 79 55
REMARK SMILES IDX 81 56 87 57 80 58 82 59 83 60 84 61 85 62 62 63 63 64 71 65
REMARK SMILES IDX 64 66 66 67 72 68 65 69 67 70 68 71 69 72 70 73 9 74 10 75
REMARK SMILES IDX 11 76 12 77 13 78 14 79 15 80 16 81 17 82 18 83 19 84 23 85
REMARK SMILES IDX 20 86 22 87 21 88 24 89 25 90 26 91 27 93 28 94 35 95 29 96
REMARK SMILES IDX 30 97 34 98 31 100 33 101 32 102
REMARK H PARENT 92 26 60 37 26 92 29 99
REMARK Flexibility Score: inf
ROOT
ATOM      1  C   UNL A   1      37.008  20.616  25.325  1.00  0.00     0.188 C 
ENDROOT
BRANCH   1   2
ATOM      2  C   UNL A   1      37.503  22.011  24.977  1.00  0.00     0.188 C 
BRANCH   2   3
ATOM      3  O   UNL A   1      38.530  22.415  25.865  1.00  0.00    -0.376 OA
BRANCH   3   4
ATOM      4  C   UNL A   1      38.421  23.729  26.382  1.00  0.00     0.202 C 
BRANCH   4   5
ATOM      5  C   UNL A   1      39.792  24.163  26.897  1.00  0.00     0.261 C 
BRANCH   5   6
ATOM      6  O   UNL A   1      40.294  25.272  26.123  1.00  0.00    -0.460 OA
BRANCH   6   7
ATOM      7  C   UNL A   1      41.579  25.681  25.966  1.00  0.00     0.338 C 
ATOM      8  O   UNL A   1      42.306  25.014  25.230  1.00  0.00    -0.246 OA
BRANCH   7   9
ATOM      9  C   UNL A   1      42.160  26.936  26.558  1.00  0.00     0.060 A 
ATOM     10  C   UNL A   1      43.072  27.011  27.616  1.00  0.00     0.016 A 
ATOM     11  C   UNL A   1      41.776  28.145  25.947  1.00  0.00     0.016 A 
ATOM     12  C   UNL A   1      43.567  28.224  28.078  1.00  0.00     0.010 A 
ATOM     13  C   UNL A   1      42.229  29.376  26.431  1.00  0.00     0.010 A 
ATOM     14  C   UNL A   1      43.092  29.409  27.530  1.00  0.00    -0.014 A 
BRANCH  14  15
ATOM     15  C   UNL A   1      43.231  30.618  28.358  1.00  0.00     0.031 A 
ATOM     16  C   UNL A   1      44.361  31.541  28.003  1.00  0.00     0.074 A 
ATOM     17  C   UNL A   1      42.313  30.938  29.282  1.00  0.00     0.049 A 
ATOM     18  N   UNL A   1      44.730  32.659  28.560  1.00  0.00    -0.248 NA
ATOM     19  C   UNL A   1      45.176  31.155  26.834  1.00  0.00     0.031 C 
ATOM     20  C   UNL A   1      41.111  30.162  29.586  1.00  0.00     0.029 A 
ATOM     21  N   UNL A   1      42.245  32.013  30.126  1.00  0.00    -0.354 N 
ATOM     22  C   UNL A   1      45.851  33.074  27.850  1.00  0.00     0.074 A 
ATOM     23  C   UNL A   1      46.086  32.112  26.802  1.00  0.00     0.031 C 
ATOM     24  C   UNL A   1      40.430  30.781  30.566  1.00  0.00     0.029 A 
ATOM     25  C   UNL A   1      41.174  31.965  30.985  1.00  0.00     0.049 A 
ATOM     26  H   UNL A   1      42.899  32.748  30.119  1.00  0.00     0.167 HD
ATOM     27  C   UNL A   1      46.627  34.158  28.070  1.00  0.00     0.034 A 
ATOM     28  C   UNL A   1      40.867  32.780  32.014  1.00  0.00     0.034 A 
ATOM     29  C   UNL A   1      46.372  35.091  29.126  1.00  0.00     0.049 A 
ATOM     30  C   UNL A   1      41.784  33.945  32.285  1.00  0.00     0.074 A 
ATOM     31  C   UNL A   1      47.101  36.202  29.497  1.00  0.00     0.029 A 
ATOM     32  N   UNL A   1      45.292  35.003  29.996  1.00  0.00    -0.354 N 
ATOM     33  N   UNL A   1      42.846  34.333  31.617  1.00  0.00    -0.248 NA
ATOM     34  C   UNL A   1      41.460  34.792  33.439  1.00  0.00     0.031 C 
ATOM     35  C   UNL A   1      46.478  36.768  30.615  1.00  0.00     0.029 A 
ATOM     36  C   UNL A   1      45.336  36.034  30.911  1.00  0.00     0.049 A 
ATOM     37  H   UNL A   1      44.597  34.307  29.964  1.00  0.00     0.167 HD
ATOM     38  C   UNL A   1      43.295  35.489  32.243  1.00  0.00     0.074 A 
ATOM     39  C   UNL A   1      42.380  35.743  33.339  1.00  0.00     0.031 C 
ATOM     40  C   UNL A   1      44.368  36.270  31.954  1.00  0.00     0.034 A 
BRANCH  27  41
ATOM     41  C   UNL A   1      47.840  34.314  27.195  1.00  0.00     0.023 A 
ATOM     42  C   UNL A   1      47.770  35.060  26.000  1.00  0.00     0.012 A 
ATOM     43  C   UNL A   1      49.041  33.658  27.528  1.00  0.00     0.148 A 
ATOM     44  C   UNL A   1      48.857  35.105  25.126  1.00  0.00     0.002 A 
ATOM     45  C   UNL A   1      50.134  33.746  26.676  1.00  0.00     0.091 A 
ATOM     46  F   UNL A   1      49.078  32.924  28.649  1.00  0.00    -0.205 F 
ATOM     47  C   UNL A   1      50.040  34.453  25.467  1.00  0.00     0.022 A 
BRANCH  45  48
ATOM     48  S   UNL A   1      51.717  32.989  27.057  1.00  0.00     0.127 S 
ATOM     49  O   UNL A   1      51.377  31.567  27.041  1.00  0.00    -0.237 OA
ATOM     50  O   UNL A   1      52.545  33.431  25.935  1.00  0.00    -0.237 OA
ATOM     51  O   UNL A   1      52.116  33.524  28.352  1.00  0.00    -0.744 OA
ENDBRANCH  45  48
ENDBRANCH  27  41
BRANCH  28  52
ATOM     52  C   UNL A   1      39.653  32.526  32.843  1.00  0.00     0.023 A 
ATOM     53  C   UNL A   1      39.734  31.666  33.956  1.00  0.00     0.012 A 
ATOM     54  C   UNL A   1      38.424  33.151  32.552  1.00  0.00     0.148 A 
ATOM     55  C   UNL A   1      38.611  31.416  34.748  1.00  0.00     0.002 A 
ATOM     56  C   UNL A   1      37.323  32.941  33.376  1.00  0.00     0.091 A 
ATOM     57  F   UNL A   1      38.357  33.951  31.479  1.00  0.00    -0.205 F 
ATOM     58  C   UNL A   1      37.410  32.061  34.465  1.00  0.00     0.022 A 
BRANCH  56  59
ATOM     59  S   UNL A   1      35.774  33.827  33.166  1.00  0.00     0.127 S 
ATOM     60  O   UNL A   1      34.933  33.205  34.185  1.00  0.00    -0.237 OA
ATOM     61  O   UNL A   1      36.177  35.204  33.454  1.00  0.00    -0.237 OA
ATOM     62  O   UNL A   1      35.370  33.595  31.786  1.00  0.00    -0.744 OA
ENDBRANCH  56  59
ENDBRANCH  28  52
BRANCH  40  63
ATOM     63  C   UNL A   1      44.573  37.499  32.793  1.00  0.00     0.023 A 
ATOM     64  C   UNL A   1      45.411  37.451  33.924  1.00  0.00     0.012 A 
ATOM     65  C   UNL A   1      44.013  38.726  32.390  1.00  0.00     0.148 A 
ATOM     66  C   UNL A   1      45.663  38.606  34.660  1.00  0.00     0.002 A 
ATOM     67  C   UNL A   1      44.316  39.882  33.095  1.00  0.00     0.091 A 
ATOM     68  F   UNL A   1      43.203  38.740  31.321  1.00  0.00    -0.205 F 
ATOM     69  C   UNL A   1      45.130  39.823  34.237  1.00  0.00     0.022 A 
BRANCH  67  70
ATOM     70  S   UNL A   1      43.766  41.502  32.550  1.00  0.00     0.127 S 
ATOM     71  O   UNL A   1      44.411  41.611  31.243  1.00  0.00    -0.237 OA
ATOM     72  O   UNL A   1      42.312  41.337  32.503  1.00  0.00    -0.237 OA
ATOM     73  O   UNL A   1      44.231  42.443  33.561  1.00  0.00    -0.744 OA
ENDBRANCH  67  70
ENDBRANCH  40  63
ENDBRANCH  14  15
ENDBRANCH   7   9
ENDBRANCH   6   7
ENDBRANCH   5   6
ENDBRANCH   4   5
ENDBRANCH   3   4
ENDBRANCH   2   3
ENDBRANCH   1   2
BRANCH   1  74
ATOM     74  O   UNL A   1      35.687  20.297  24.892  1.00  0.00    -0.377 OA
BRANCH  74  75
ATOM     75  C   UNL A   1      35.280  18.926  24.750  1.00  0.00     0.188 C 
BRANCH  75  76
ATOM     76  C   UNL A   1      33.852  18.537  24.302  1.00  0.00     0.188 C 
BRANCH  76  77
ATOM     77  O   UNL A   1      32.844  19.242  25.012  1.00  0.00    -0.376 OA
BRANCH  77  78
ATOM     78  C   UNL A   1      32.144  20.277  24.325  1.00  0.00     0.202 C 
BRANCH  78  79
ATOM     79  C   UNL A   1      32.364  21.752  25.072  1.00  0.00     0.261 C 
BRANCH  79  80
ATOM     80  O   UNL A   1      30.975  23.027  25.863  1.00  0.00    -0.458 OA
BRANCH  80  81
ATOM     81  C   UNL A   1      30.247  24.190  26.268  1.00  0.00     0.359 C 
ATOM     82  O   UNL A   1      29.518  24.158  27.260  1.00  0.00    -0.244 OA
BRANCH  81  83
ATOM     83  C   UNL A   1      30.260  25.478  25.469  1.00  0.00     0.179 A 
ATOM     84  N   UNL A   1      29.164  25.491  24.620  1.00  0.00    -0.245 NA
ATOM     85  C   UNL A   1      31.171  26.550  25.490  1.00  0.00     0.161 A 
ATOM     86  C   UNL A   1      29.000  26.564  23.821  1.00  0.00     0.132 A 
ATOM     87  N   UNL A   1      30.970  27.605  24.617  1.00  0.00    -0.247 NA
ATOM     88  C   UNL A   1      29.894  27.602  23.812  1.00  0.00     0.132 A 
BRANCH  85  89
ATOM     89  C   UNL A   1      32.392  26.888  26.335  1.00  0.00     0.278 C 
ATOM     90  O   UNL A   1      32.248  27.710  27.252  1.00  0.00    -0.267 OA
ATOM     91  N   UNL A   1      33.653  26.371  26.246  1.00  0.00    -0.303 N 
ATOM     92  H   UNL A   1      34.241  26.584  27.007  1.00  0.00     0.172 HD
BRANCH  91  93
ATOM     93  C   UNL A   1      34.224  25.614  25.283  1.00  0.00     0.164 A 
ATOM     94  N   UNL A   1      34.817  24.465  25.637  1.00  0.00    -0.155 NA
ATOM     95  C   UNL A   1      34.155  25.834  23.906  1.00  0.00     0.063 A 
ATOM     96  N   UNL A   1      34.737  23.595  24.587  1.00  0.00    -0.259 N 
ATOM     97  C   UNL A   1      34.264  24.146  23.437  1.00  0.00     0.157 A 
ATOM     98  C   UNL A   1      33.456  27.010  22.702  1.00  0.00     0.017 A 
ATOM     99  H   UNL A   1      35.000  22.649  24.657  1.00  0.00     0.192 HD
ATOM    100  N   UNL A   1      33.653  23.505  21.975  1.00  0.00    -0.237 NA
ATOM    101  C   UNL A   1      32.756  26.388  21.176  1.00  0.00     0.021 A 
ATOM    102  C   UNL A   1      32.908  24.670  20.879  1.00  0.00     0.113 A 
ENDBRANCH  91  93
ENDBRANCH  85  89
ENDBRANCH  81  83
ENDBRANCH  80  81
ENDBRANCH  79  80
ENDBRANCH  78  79
ENDBRANCH  77  78
ENDBRANCH  76  77
ENDBRANCH  75  76
ENDBRANCH  74  75
ENDBRANCH   1  74
TORSDOF 25
ENDMDL
