MODEL 1
REMARK VINA RESULT:      -9.1      0.000      0.000
REMARK SMILES C[C@@H]1C[C@@H](C)CN(C(=O)CCn2ccc(C(=O)OCCOCCOCCOCCOC(=O)c3ccc(-c4c5nc(c(-c6cccc(S(=O)(=O)[O-])c6F)c6ccc([nH]6)c(-c6cccc(S(=O)(=O)[O-])c6F)c6nc(c(-c7cccc(S(=O)(=O)[O-])c7F)c7ccc4[nH]7)C=C6)C=C5)cc3)n2)C1
REMARK SMILES IDX 24 1 23 2 22 3 21 4 20 5 19 6 18 7 16 8 17 9 15 10 12 11
REMARK SMILES IDX 13 12 96 13 14 14 11 15 10 16 8 17 1 18 2 19 3 20 97 21 4 22
REMARK SMILES IDX 7 23 6 24 5 25 9 26 25 27 26 28 27 29 28 30 29 31 30 32
REMARK SMILES IDX 31 33 32 34 33 35 34 36 95 37 35 38 94 39 36 40 37 41 38 42
REMARK SMILES IDX 88 43 39 44 93 45 87 46 89 47 40 48 92 49 86 50 85 51 41 53
REMARK SMILES IDX 73 54 53 55 72 56 54 57 57 58 71 59 90 60 55 61 56 62 70 64
REMARK SMILES IDX 91 65 58 66 42 67 43 68 51 69 44 70 46 71 52 72 45 73 47 74
REMARK SMILES IDX 48 75 49 76 50 77 74 78 75 79 83 80 76 81 78 82 84 83 77 84
REMARK SMILES IDX 79 85 80 86 81 87 82 88 59 89 60 90 68 91 61 92 63 93 69 94
REMARK SMILES IDX 62 95 64 96 65 97 66 98 67 99
REMARK H PARENT 89 52 57 63
REMARK Flexibility Score: inf
ROOT
ATOM      1  O   UNL A   1      35.529  23.035  26.397  1.00  0.00    -0.377 OA
ENDROOT
BRANCH   1   2
ATOM      2  C   UNL A   1      34.976  21.801  26.839  1.00  0.00     0.188 C 
BRANCH   2   3
ATOM      3  C   UNL A   1      33.713  22.085  27.649  1.00  0.00     0.188 C 
BRANCH   3   4
ATOM      4  O   UNL A   1      33.280  23.442  27.520  1.00  0.00    -0.376 OA
BRANCH   4   5
ATOM      5  C   UNL A   1      31.952  23.614  27.024  1.00  0.00     0.202 C 
BRANCH   5   6
ATOM      6  C   UNL A   1      31.136  22.319  27.026  1.00  0.00     0.261 C 
BRANCH   6   7
ATOM      7  O   UNL A   1      30.764  21.866  25.711  1.00  0.00    -0.458 OA
BRANCH   7   8
ATOM      8  C   UNL A   1      31.726  21.200  25.003  1.00  0.00     0.358 C 
ATOM      9  O   UNL A   1      32.071  20.044  25.229  1.00  0.00    -0.244 OA
BRANCH   8  10
ATOM     10  C   UNL A   1      32.300  21.981  23.892  1.00  0.00     0.170 A 
ATOM     11  N   UNL A   1      33.344  23.489  22.791  1.00  0.00    -0.271 N 
ATOM     12  C   UNL A   1      32.803  22.679  21.834  1.00  0.00     0.109 A 
ATOM     13  N   UNL A   1      33.101  23.057  24.047  1.00  0.00    -0.166 NA
ATOM     14  C   UNL A   1      32.123  21.696  22.510  1.00  0.00     0.057 A 
BRANCH  11  15
ATOM     15  C   UNL A   1      34.168  24.668  22.551  1.00  0.00     0.154 C 
BRANCH  15  16
ATOM     16  C   UNL A   1      33.644  25.942  23.220  1.00  0.00     0.124 C 
BRANCH  16  17
ATOM     17  C   UNL A   1      32.235  26.240  22.746  1.00  0.00     0.224 C 
ATOM     18  C   UNL A   1      31.109  29.418  22.170  1.00  0.00     0.009 C 
ATOM     19  C   UNL A   1      30.199  28.844  23.262  1.00  0.00     0.006 C 
ATOM     20  C   UNL A   1      30.672  29.258  24.677  1.00  0.00     0.010 C 
ATOM     21  C   UNL A   1      30.070  27.312  23.134  1.00  0.00     0.122 C 
ATOM     22  C   UNL A   1      31.804  28.390  25.247  1.00  0.00     0.006 C 
ATOM     23  N   UNL A   1      31.280  26.673  23.651  1.00  0.00    -0.342 N 
ATOM     24  C   UNL A   1      31.485  26.910  25.073  1.00  0.00     0.122 C 
ATOM     25  C   UNL A   1      32.145  28.720  26.693  1.00  0.00     0.009 C 
ATOM     26  O   UNL A   1      31.997  26.131  21.540  1.00  0.00    -0.275 OA
ENDBRANCH  16  17
ENDBRANCH  15  16
ENDBRANCH  11  15
ENDBRANCH   8  10
ENDBRANCH   7   8
ENDBRANCH   6   7
ENDBRANCH   5   6
ENDBRANCH   4   5
ENDBRANCH   3   4
ENDBRANCH   2   3
ENDBRANCH   1   2
BRANCH   1  27
ATOM     27  C   UNL A   1      36.569  22.944  25.426  1.00  0.00     0.188 C 
BRANCH  27  28
ATOM     28  C   UNL A   1      37.336  21.620  25.372  1.00  0.00     0.188 C 
BRANCH  28  29
ATOM     29  O   UNL A   1      38.704  21.615  25.781  1.00  0.00    -0.376 OA
BRANCH  29  30
ATOM     30  C   UNL A   1      39.241  22.762  26.435  1.00  0.00     0.202 C 
BRANCH  30  31
ATOM     31  C   UNL A   1      40.754  22.881  26.404  1.00  0.00     0.261 C 
BRANCH  31  32
ATOM     32  O   UNL A   1      41.144  24.079  27.069  1.00  0.00    -0.460 OA
BRANCH  32  33
ATOM     33  C   UNL A   1      41.122  25.191  26.308  1.00  0.00     0.338 C 
ATOM     34  O   UNL A   1      41.725  25.383  25.267  1.00  0.00    -0.246 OA
BRANCH  33  35
ATOM     35  C   UNL A   1      40.351  26.229  27.007  1.00  0.00     0.060 A 
ATOM     36  C   UNL A   1      40.553  27.532  26.550  1.00  0.00     0.016 A 
ATOM     37  C   UNL A   1      39.788  25.955  28.263  1.00  0.00     0.016 A 
ATOM     38  C   UNL A   1      40.479  28.551  27.470  1.00  0.00     0.010 A 
ATOM     39  C   UNL A   1      39.715  26.976  29.182  1.00  0.00     0.010 A 
ATOM     40  C   UNL A   1      40.187  28.229  28.799  1.00  0.00    -0.014 A 
BRANCH  40  41
ATOM     41  C   UNL A   1      40.573  29.206  29.793  1.00  0.00     0.031 A 
ATOM     42  C   UNL A   1      39.506  30.077  30.298  1.00  0.00     0.074 A 
ATOM     43  C   UNL A   1      41.836  29.290  30.252  1.00  0.00     0.049 A 
ATOM     44  N   UNL A   1      39.395  31.355  30.151  1.00  0.00    -0.248 NA
ATOM     45  C   UNL A   1      38.387  29.427  30.987  1.00  0.00     0.031 C 
ATOM     46  C   UNL A   1      42.913  28.306  30.103  1.00  0.00     0.029 A 
ATOM     47  N   UNL A   1      42.371  30.229  31.079  1.00  0.00    -0.354 N 
ATOM     48  C   UNL A   1      38.276  31.705  30.895  1.00  0.00     0.074 A 
ATOM     49  C   UNL A   1      37.619  30.477  31.269  1.00  0.00     0.031 C 
ATOM     50  C   UNL A   1      43.871  28.573  31.017  1.00  0.00     0.029 A 
ATOM     51  C   UNL A   1      43.533  29.809  31.705  1.00  0.00     0.049 A 
ATOM     52  H   UNL A   1      41.972  31.117  31.220  1.00  0.00     0.167 HD
ATOM     53  C   UNL A   1      38.057  32.973  31.328  1.00  0.00     0.034 A 
ATOM     54  C   UNL A   1      44.113  30.388  32.778  1.00  0.00     0.034 A 
ATOM     55  C   UNL A   1      38.892  33.945  30.682  1.00  0.00     0.049 A 
ATOM     56  C   UNL A   1      43.609  31.777  32.882  1.00  0.00     0.074 A 
ATOM     57  C   UNL A   1      39.060  34.389  29.388  1.00  0.00     0.029 A 
ATOM     58  N   UNL A   1      39.967  34.417  31.393  1.00  0.00    -0.354 N 
ATOM     59  N   UNL A   1      43.897  32.732  32.041  1.00  0.00    -0.248 NA
ATOM     60  C   UNL A   1      42.489  32.048  33.770  1.00  0.00     0.031 C 
ATOM     61  C   UNL A   1      40.429  34.772  29.292  1.00  0.00     0.029 A 
ATOM     62  C   UNL A   1      41.026  34.520  30.529  1.00  0.00     0.049 A 
ATOM     63  H   UNL A   1      39.975  34.642  32.352  1.00  0.00     0.167 HD
ATOM     64  C   UNL A   1      42.763  33.534  32.013  1.00  0.00     0.074 A 
ATOM     65  C   UNL A   1      42.006  33.155  33.199  1.00  0.00     0.031 C 
ATOM     66  C   UNL A   1      42.401  34.216  30.884  1.00  0.00     0.034 A 
BRANCH  53  67
ATOM     67  C   UNL A   1      37.247  33.291  32.545  1.00  0.00     0.023 A 
ATOM     68  C   UNL A   1      36.052  34.018  32.389  1.00  0.00     0.012 A 
ATOM     69  C   UNL A   1      37.704  33.062  33.860  1.00  0.00     0.148 A 
ATOM     70  C   UNL A   1      35.332  34.473  33.498  1.00  0.00     0.002 A 
ATOM     71  C   UNL A   1      36.935  33.428  34.957  1.00  0.00     0.091 A 
ATOM     72  F   UNL A   1      38.940  32.584  34.067  1.00  0.00    -0.205 F 
ATOM     73  C   UNL A   1      35.757  34.154  34.784  1.00  0.00     0.022 A 
BRANCH  71  74
ATOM     74  S   UNL A   1      37.424  32.897  36.598  1.00  0.00     0.127 S 
ATOM     75  O   UNL A   1      36.250  33.238  37.392  1.00  0.00    -0.237 OA
ATOM     76  O   UNL A   1      37.651  31.462  36.414  1.00  0.00    -0.237 OA
ATOM     77  O   UNL A   1      38.641  33.658  36.862  1.00  0.00    -0.744 OA
ENDBRANCH  71  74
ENDBRANCH  53  67
BRANCH  54  78
ATOM     78  C   UNL A   1      44.912  29.747  33.844  1.00  0.00     0.023 A 
ATOM     79  C   UNL A   1      46.175  30.267  34.178  1.00  0.00     0.012 A 
ATOM     80  C   UNL A   1      44.351  28.761  34.688  1.00  0.00     0.148 A 
ATOM     81  C   UNL A   1      46.854  29.827  35.320  1.00  0.00     0.002 A 
ATOM     82  C   UNL A   1      45.041  28.308  35.807  1.00  0.00     0.091 A 
ATOM     83  F   UNL A   1      43.104  28.332  34.449  1.00  0.00    -0.205 F 
ATOM     84  C   UNL A   1      46.291  28.847  36.134  1.00  0.00     0.022 A 
BRANCH  82  85
ATOM     85  S   UNL A   1      44.366  27.028  36.873  1.00  0.00     0.127 S 
ATOM     86  O   UNL A   1      44.250  25.889  35.959  1.00  0.00    -0.237 OA
ATOM     87  O   UNL A   1      45.406  26.895  37.887  1.00  0.00    -0.237 OA
ATOM     88  O   UNL A   1      43.082  27.547  37.332  1.00  0.00    -0.744 OA
ENDBRANCH  82  85
ENDBRANCH  54  78
BRANCH  66  89
ATOM     89  C   UNL A   1      43.419  34.348  29.771  1.00  0.00     0.023 A 
ATOM     90  C   UNL A   1      44.312  35.439  29.724  1.00  0.00     0.012 A 
ATOM     91  C   UNL A   1      43.610  33.281  28.873  1.00  0.00     0.148 A 
ATOM     92  C   UNL A   1      45.349  35.482  28.790  1.00  0.00     0.002 A 
ATOM     93  C   UNL A   1      44.675  33.305  27.975  1.00  0.00     0.091 A 
ATOM     94  F   UNL A   1      42.765  32.240  28.928  1.00  0.00    -0.205 F 
ATOM     95  C   UNL A   1      45.539  34.409  27.923  1.00  0.00     0.022 A 
BRANCH  93  96
ATOM     96  S   UNL A   1      45.059  31.889  26.937  1.00  0.00     0.127 S 
ATOM     97  O   UNL A   1      45.292  30.836  27.923  1.00  0.00    -0.237 OA
ATOM     98  O   UNL A   1      43.836  31.726  26.149  1.00  0.00    -0.237 OA
ATOM     99  O   UNL A   1      46.218  32.289  26.147  1.00  0.00    -0.744 OA
ENDBRANCH  93  96
ENDBRANCH  66  89
ENDBRANCH  40  41
ENDBRANCH  33  35
ENDBRANCH  32  33
ENDBRANCH  31  32
ENDBRANCH  30  31
ENDBRANCH  29  30
ENDBRANCH  28  29
ENDBRANCH  27  28
ENDBRANCH   1  27
TORSDOF 26
ENDMDL
MODEL 2
REMARK VINA RESULT:      -8.6      3.892      5.965
REMARK SMILES C[C@@H]1C[C@@H](C)CN(C(=O)CCn2ccc(C(=O)OCCOCCOCCOCCOC(=O)c3ccc(-c4c5nc(c(-c6cccc(S(=O)(=O)[O-])c6F)c6ccc([nH]6)c(-c6cccc(S(=O)(=O)[O-])c6F)c6nc(c(-c7cccc(S(=O)(=O)[O-])c7F)c7ccc4[nH]7)C=C6)C=C5)cc3)n2)C1
REMARK SMILES IDX 24 1 23 2 22 3 21 4 20 5 19 6 18 7 16 8 17 9 15 10 12 11
REMARK SMILES IDX 13 12 96 13 14 14 11 15 10 16 8 17 1 18 2 19 3 20 97 21 4 22
REMARK SMILES IDX 7 23 6 24 5 25 9 26 25 27 26 28 27 29 28 30 29 31 30 32
REMARK SMILES IDX 31 33 32 34 33 35 34 36 95 37 35 38 94 39 36 40 37 41 38 42
REMARK SMILES IDX 88 43 39 44 93 45 87 46 89 47 40 48 92 49 86 50 85 51 41 53
REMARK SMILES IDX 73 54 53 55 72 56 54 57 57 58 71 59 90 60 55 61 56 62 70 64
REMARK SMILES IDX 91 65 58 66 42 67 43 68 51 69 44 70 46 71 52 72 45 73 47 74
REMARK SMILES IDX 48 75 49 76 50 77 74 78 75 79 83 80 76 81 78 82 84 83 77 84
REMARK SMILES IDX 79 85 80 86 81 87 82 88 59 89 60 90 68 91 61 92 63 93 69 94
REMARK SMILES IDX 62 95 64 96 65 97 66 98 67 99
REMARK H PARENT 89 52 57 63
REMARK Flexibility Score: inf
ROOT
ATOM      1  O   UNL A   1      35.233  22.934  26.239  1.00  0.00    -0.377 OA
ENDROOT
BRANCH   1   2
ATOM      2  C   UNL A   1      34.797  21.579  26.229  1.00  0.00     0.188 C 
BRANCH   2   3
ATOM      3  C   UNL A   1      33.678  21.411  27.253  1.00  0.00     0.188 C 
BRANCH   3   4
ATOM      4  O   UNL A   1      32.863  22.582  27.364  1.00  0.00    -0.376 OA
BRANCH   4   5
ATOM      5  C   UNL A   1      31.522  22.439  26.893  1.00  0.00     0.202 C 
BRANCH   5   6
ATOM      6  C   UNL A   1      31.438  21.813  25.499  1.00  0.00     0.261 C 
BRANCH   6   7
ATOM      7  O   UNL A   1      31.304  22.776  24.438  1.00  0.00    -0.458 OA
BRANCH   7   8
ATOM      8  C   UNL A   1      32.463  23.181  23.835  1.00  0.00     0.358 C 
ATOM      9  O   UNL A   1      33.077  22.517  23.005  1.00  0.00    -0.244 OA
BRANCH   8  10
ATOM     10  C   UNL A   1      32.907  24.530  24.237  1.00  0.00     0.170 A 
ATOM     11  N   UNL A   1      33.053  26.403  25.258  1.00  0.00    -0.271 N 
ATOM     12  C   UNL A   1      33.999  26.474  24.275  1.00  0.00     0.109 A 
ATOM     13  N   UNL A   1      32.416  25.213  25.292  1.00  0.00    -0.166 NA
ATOM     14  C   UNL A   1      33.930  25.281  23.597  1.00  0.00     0.057 A 
BRANCH  11  15
ATOM     15  C   UNL A   1      32.764  27.437  26.245  1.00  0.00     0.154 C 
BRANCH  15  16
ATOM     16  C   UNL A   1      31.454  28.189  25.995  1.00  0.00     0.124 C 
BRANCH  16  17
ATOM     17  C   UNL A   1      31.528  28.948  24.685  1.00  0.00     0.224 C 
ATOM     18  C   UNL A   1      29.045  31.045  23.617  1.00  0.00     0.009 C 
ATOM     19  C   UNL A   1      29.167  29.960  22.542  1.00  0.00     0.006 C 
ATOM     20  C   UNL A   1      28.132  28.828  22.752  1.00  0.00     0.010 C 
ATOM     21  C   UNL A   1      30.604  29.405  22.465  1.00  0.00     0.122 C 
ATOM     22  C   UNL A   1      28.552  27.769  23.784  1.00  0.00     0.006 C 
ATOM     23  N   UNL A   1      30.835  28.485  23.578  1.00  0.00    -0.342 N 
ATOM     24  C   UNL A   1      29.981  27.307  23.527  1.00  0.00     0.122 C 
ATOM     25  C   UNL A   1      27.591  26.591  23.862  1.00  0.00     0.009 C 
ATOM     26  O   UNL A   1      32.176  29.998  24.663  1.00  0.00    -0.275 OA
ENDBRANCH  16  17
ENDBRANCH  15  16
ENDBRANCH  11  15
ENDBRANCH   8  10
ENDBRANCH   7   8
ENDBRANCH   6   7
ENDBRANCH   5   6
ENDBRANCH   4   5
ENDBRANCH   3   4
ENDBRANCH   2   3
ENDBRANCH   1   2
BRANCH   1  27
ATOM     27  C   UNL A   1      36.345  23.240  25.402  1.00  0.00     0.188 C 
BRANCH  27  28
ATOM     28  C   UNL A   1      36.665  22.229  24.297  1.00  0.00     0.188 C 
BRANCH  28  29
ATOM     29  O   UNL A   1      37.649  21.229  24.561  1.00  0.00    -0.376 OA
BRANCH  29  30
ATOM     30  C   UNL A   1      38.490  21.361  25.704  1.00  0.00     0.202 C 
BRANCH  30  31
ATOM     31  C   UNL A   1      39.584  20.318  25.832  1.00  0.00     0.261 C 
BRANCH  31  32
ATOM     32  O   UNL A   1      40.617  20.821  26.675  1.00  0.00    -0.460 OA
BRANCH  32  33
ATOM     33  C   UNL A   1      41.715  21.266  26.033  1.00  0.00     0.338 C 
ATOM     34  O   UNL A   1      42.616  20.593  25.564  1.00  0.00    -0.246 OA
BRANCH  33  35
ATOM     35  C   UNL A   1      41.745  22.733  26.102  1.00  0.00     0.060 A 
ATOM     36  C   UNL A   1      42.874  23.334  25.544  1.00  0.00     0.016 A 
ATOM     37  C   UNL A   1      40.907  23.408  27.003  1.00  0.00     0.016 A 
ATOM     38  C   UNL A   1      43.332  24.495  26.121  1.00  0.00     0.010 A 
ATOM     39  C   UNL A   1      41.366  24.569  27.580  1.00  0.00     0.010 A 
ATOM     40  C   UNL A   1      42.634  25.016  27.216  1.00  0.00    -0.014 A 
BRANCH  40  41
ATOM     41  C   UNL A   1      43.369  25.921  28.071  1.00  0.00     0.031 A 
ATOM     42  C   UNL A   1      43.335  27.340  27.697  1.00  0.00     0.074 A 
ATOM     43  C   UNL A   1      44.022  25.489  29.166  1.00  0.00     0.049 A 
ATOM     44  N   UNL A   1      44.321  28.077  27.308  1.00  0.00    -0.248 NA
ATOM     45  C   UNL A   1      42.023  27.993  27.686  1.00  0.00     0.031 C 
ATOM     46  C   UNL A   1      43.882  24.198  29.844  1.00  0.00     0.029 A 
ATOM     47  N   UNL A   1      44.852  26.193  29.983  1.00  0.00    -0.354 N 
ATOM     48  C   UNL A   1      43.786  29.351  27.178  1.00  0.00     0.074 A 
ATOM     49  C   UNL A   1      42.354  29.219  27.285  1.00  0.00     0.031 C 
ATOM     50  C   UNL A   1      44.394  24.306  31.089  1.00  0.00     0.029 A 
ATOM     51  C   UNL A   1      45.009  25.616  31.232  1.00  0.00     0.049 A 
ATOM     52  H   UNL A   1      45.297  27.029  29.714  1.00  0.00     0.167 HD
ATOM     53  C   UNL A   1      44.557  30.469  27.185  1.00  0.00     0.034 A 
ATOM     54  C   UNL A   1      45.517  26.218  32.329  1.00  0.00     0.034 A 
ATOM     55  C   UNL A   1      45.954  30.195  27.010  1.00  0.00     0.049 A 
ATOM     56  C   UNL A   1      46.308  27.390  31.888  1.00  0.00     0.074 A 
ATOM     57  C   UNL A   1      46.728  29.637  26.015  1.00  0.00     0.029 A 
ATOM     58  N   UNL A   1      46.745  30.243  28.130  1.00  0.00    -0.354 N 
ATOM     59  N   UNL A   1      47.437  27.317  31.239  1.00  0.00    -0.248 NA
ATOM     60  C   UNL A   1      45.674  28.699  31.884  1.00  0.00     0.031 C 
ATOM     61  C   UNL A   1      47.818  29.011  26.685  1.00  0.00     0.029 A 
ATOM     62  C   UNL A   1      47.636  29.204  28.057  1.00  0.00     0.049 A 
ATOM     63  H   UNL A   1      46.685  30.905  28.856  1.00  0.00     0.167 HD
ATOM     64  C   UNL A   1      47.448  28.436  30.415  1.00  0.00     0.074 A 
ATOM     65  C   UNL A   1      46.425  29.315  30.968  1.00  0.00     0.031 C 
ATOM     66  C   UNL A   1      48.072  28.420  29.199  1.00  0.00     0.034 A 
BRANCH  53  67
ATOM     67  C   UNL A   1      44.048  31.809  27.616  1.00  0.00     0.023 A 
ATOM     68  C   UNL A   1      44.189  32.898  26.737  1.00  0.00     0.012 A 
ATOM     69  C   UNL A   1      43.599  32.081  28.926  1.00  0.00     0.148 A 
ATOM     70  C   UNL A   1      43.870  34.199  27.141  1.00  0.00     0.002 A 
ATOM     71  C   UNL A   1      43.190  33.356  29.290  1.00  0.00     0.091 A 
ATOM     72  F   UNL A   1      43.666  31.129  29.868  1.00  0.00    -0.205 F 
ATOM     73  C   UNL A   1      43.343  34.426  28.408  1.00  0.00     0.022 A 
BRANCH  71  74
ATOM     74  S   UNL A   1      42.391  33.612  30.874  1.00  0.00     0.127 S 
ATOM     75  O   UNL A   1      41.198  32.783  30.751  1.00  0.00    -0.237 OA
ATOM     76  O   UNL A   1      43.393  33.116  31.820  1.00  0.00    -0.237 OA
ATOM     77  O   UNL A   1      42.186  35.056  30.932  1.00  0.00    -0.744 OA
ENDBRANCH  71  74
ENDBRANCH  53  67
BRANCH  54  78
ATOM     78  C   UNL A   1      45.185  25.968  33.748  1.00  0.00     0.023 A 
ATOM     79  C   UNL A   1      46.196  25.577  34.643  1.00  0.00     0.012 A 
ATOM     80  C   UNL A   1      43.923  26.324  34.279  1.00  0.00     0.148 A 
ATOM     81  C   UNL A   1      45.962  25.548  36.023  1.00  0.00     0.002 A 
ATOM     82  C   UNL A   1      43.688  26.269  35.648  1.00  0.00     0.091 A 
ATOM     83  F   UNL A   1      42.981  26.804  33.454  1.00  0.00    -0.205 F 
ATOM     84  C   UNL A   1      44.710  25.891  36.526  1.00  0.00     0.022 A 
BRANCH  82  85
ATOM     85  S   UNL A   1      42.081  26.679  36.343  1.00  0.00     0.127 S 
ATOM     86  O   UNL A   1      42.295  26.458  37.774  1.00  0.00    -0.237 OA
ATOM     87  O   UNL A   1      41.929  28.077  35.956  1.00  0.00    -0.237 OA
ATOM     88  O   UNL A   1      41.147  25.737  35.734  1.00  0.00    -0.744 OA
ENDBRANCH  82  85
ENDBRANCH  54  78
BRANCH  66  89
ATOM     89  C   UNL A   1      49.026  27.283  28.899  1.00  0.00     0.023 A 
ATOM     90  C   UNL A   1      48.550  26.016  28.503  1.00  0.00     0.012 A 
ATOM     91  C   UNL A   1      50.409  27.536  28.828  1.00  0.00     0.148 A 
ATOM     92  C   UNL A   1      49.427  25.016  28.078  1.00  0.00     0.002 A 
ATOM     93  C   UNL A   1      51.276  26.553  28.357  1.00  0.00     0.091 A 
ATOM     94  F   UNL A   1      50.857  28.747  29.194  1.00  0.00    -0.205 F 
ATOM     95  C   UNL A   1      50.790  25.288  27.993  1.00  0.00     0.022 A 
BRANCH  93  96
ATOM     96  S   UNL A   1      53.020  26.893  28.084  1.00  0.00     0.127 S 
ATOM     97  O   UNL A   1      53.464  25.690  27.384  1.00  0.00    -0.237 OA
ATOM     98  O   UNL A   1      52.987  28.102  27.258  1.00  0.00    -0.237 OA
ATOM     99  O   UNL A   1      53.588  27.103  29.411  1.00  0.00    -0.744 OA
ENDBRANCH  93  96
ENDBRANCH  66  89
ENDBRANCH  40  41
ENDBRANCH  33  35
ENDBRANCH  32  33
ENDBRANCH  31  32
ENDBRANCH  30  31
ENDBRANCH  29  30
ENDBRANCH  28  29
ENDBRANCH  27  28
ENDBRANCH   1  27
TORSDOF 26
ENDMDL
MODEL 3
REMARK VINA RESULT:      -8.5      5.149      9.844
REMARK SMILES C[C@@H]1C[C@@H](C)CN(C(=O)CCn2ccc(C(=O)OCCOCCOCCOCCOC(=O)c3ccc(-c4c5nc(c(-c6cccc(S(=O)(=O)[O-])c6F)c6ccc([nH]6)c(-c6cccc(S(=O)(=O)[O-])c6F)c6nc(c(-c7cccc(S(=O)(=O)[O-])c7F)c7ccc4[nH]7)C=C6)C=C5)cc3)n2)C1
REMARK SMILES IDX 24 1 23 2 22 3 21 4 20 5 19 6 18 7 16 8 17 9 15 10 12 11
REMARK SMILES IDX 13 12 96 13 14 14 11 15 10 16 8 17 1 18 2 19 3 20 97 21 4 22
REMARK SMILES IDX 7 23 6 24 5 25 9 26 25 27 26 28 27 29 28 30 29 31 30 32
REMARK SMILES IDX 31 33 32 34 33 35 34 36 95 37 35 38 94 39 36 40 37 41 38 42
REMARK SMILES IDX 88 43 39 44 93 45 87 46 89 47 40 48 92 49 86 50 85 51 41 53
REMARK SMILES IDX 73 54 53 55 72 56 54 57 57 58 71 59 90 60 55 61 56 62 70 64
REMARK SMILES IDX 91 65 58 66 42 67 43 68 51 69 44 70 46 71 52 72 45 73 47 74
REMARK SMILES IDX 48 75 49 76 50 77 74 78 75 79 83 80 76 81 78 82 84 83 77 84
REMARK SMILES IDX 79 85 80 86 81 87 82 88 59 89 60 90 68 91 61 92 63 93 69 94
REMARK SMILES IDX 62 95 64 96 65 97 66 98 67 99
REMARK H PARENT 89 52 57 63
REMARK Flexibility Score: inf
ROOT
ATOM      1  O   UNL A   1      40.128  22.391  27.623  1.00  0.00    -0.377 OA
ENDROOT
BRANCH   1   2
ATOM      2  C   UNL A   1      39.730  23.363  26.662  1.00  0.00     0.188 C 
BRANCH   2   3
ATOM      3  C   UNL A   1      38.277  23.107  26.269  1.00  0.00     0.188 C 
BRANCH   3   4
ATOM      4  O   UNL A   1      38.168  22.286  25.102  1.00  0.00    -0.376 OA
BRANCH   4   5
ATOM      5  C   UNL A   1      38.185  20.878  25.343  1.00  0.00     0.202 C 
BRANCH   5   6
ATOM      6  C   UNL A   1      36.901  20.175  24.895  1.00  0.00     0.261 C 
BRANCH   6   7
ATOM      7  O   UNL A   1      35.802  21.073  24.654  1.00  0.00    -0.458 OA
BRANCH   7   8
ATOM      8  C   UNL A   1      34.570  20.651  25.071  1.00  0.00     0.358 C 
ATOM      9  O   UNL A   1      34.088  19.556  24.798  1.00  0.00    -0.244 OA
BRANCH   8  10
ATOM     10  C   UNL A   1      33.865  21.621  25.930  1.00  0.00     0.170 A 
ATOM     11  N   UNL A   1      32.754  23.326  26.586  1.00  0.00    -0.271 N 
ATOM     12  C   UNL A   1      33.055  22.651  27.735  1.00  0.00     0.109 A 
ATOM     13  N   UNL A   1      33.185  22.694  25.474  1.00  0.00    -0.166 NA
ATOM     14  C   UNL A   1      33.772  21.546  27.347  1.00  0.00     0.057 A 
BRANCH  11  15
ATOM     15  C   UNL A   1      31.988  24.563  26.495  1.00  0.00     0.154 C 
BRANCH  15  16
ATOM     16  C   UNL A   1      32.819  25.783  26.087  1.00  0.00     0.124 C 
BRANCH  16  17
ATOM     17  C   UNL A   1      31.978  27.042  26.174  1.00  0.00     0.224 C 
ATOM     18  C   UNL A   1      29.708  27.921  23.771  1.00  0.00     0.009 C 
ATOM     19  C   UNL A   1      30.723  29.068  23.826  1.00  0.00     0.006 C 
ATOM     20  C   UNL A   1      31.820  28.912  22.745  1.00  0.00     0.010 C 
ATOM     21  C   UNL A   1      31.334  29.209  25.236  1.00  0.00     0.122 C 
ATOM     22  C   UNL A   1      32.963  27.961  23.133  1.00  0.00     0.006 C 
ATOM     23  N   UNL A   1      32.335  28.163  25.443  1.00  0.00    -0.342 N 
ATOM     24  C   UNL A   1      33.469  28.275  24.536  1.00  0.00     0.122 C 
ATOM     25  C   UNL A   1      34.100  27.942  22.122  1.00  0.00     0.009 C 
ATOM     26  O   UNL A   1      30.959  27.007  26.869  1.00  0.00    -0.275 OA
ENDBRANCH  16  17
ENDBRANCH  15  16
ENDBRANCH  11  15
ENDBRANCH   8  10
ENDBRANCH   7   8
ENDBRANCH   6   7
ENDBRANCH   5   6
ENDBRANCH   4   5
ENDBRANCH   3   4
ENDBRANCH   2   3
ENDBRANCH   1   2
BRANCH   1  27
ATOM     27  C   UNL A   1      41.248  21.584  27.270  1.00  0.00     0.188 C 
BRANCH  27  28
ATOM     28  C   UNL A   1      41.115  20.081  27.533  1.00  0.00     0.188 C 
BRANCH  28  29
ATOM     29  O   UNL A   1      42.237  19.245  27.252  1.00  0.00    -0.376 OA
BRANCH  29  30
ATOM     30  C   UNL A   1      42.473  18.818  25.913  1.00  0.00     0.202 C 
BRANCH  30  31
ATOM     31  C   UNL A   1      43.708  19.401  25.251  1.00  0.00     0.261 C 
BRANCH  31  32
ATOM     32  O   UNL A   1      43.443  20.746  24.863  1.00  0.00    -0.460 OA
BRANCH  32  33
ATOM     33  C   UNL A   1      44.532  21.528  24.725  1.00  0.00     0.338 C 
ATOM     34  O   UNL A   1      45.585  21.235  24.188  1.00  0.00    -0.246 OA
BRANCH  33  35
ATOM     35  C   UNL A   1      44.313  22.781  25.461  1.00  0.00     0.060 A 
ATOM     36  C   UNL A   1      44.086  23.907  24.670  1.00  0.00     0.016 A 
ATOM     37  C   UNL A   1      44.702  22.878  26.807  1.00  0.00     0.016 A 
ATOM     38  C   UNL A   1      44.544  25.118  25.133  1.00  0.00     0.010 A 
ATOM     39  C   UNL A   1      45.160  24.090  27.268  1.00  0.00     0.010 A 
ATOM     40  C   UNL A   1      45.190  25.156  26.373  1.00  0.00    -0.014 A 
BRANCH  40  41
ATOM     41  C   UNL A   1      46.052  26.293  26.609  1.00  0.00     0.031 A 
ATOM     42  C   UNL A   1      47.432  26.175  26.125  1.00  0.00     0.074 A 
ATOM     43  C   UNL A   1      45.603  27.409  27.213  1.00  0.00     0.049 A 
ATOM     44  N   UNL A   1      48.515  26.140  26.827  1.00  0.00    -0.248 NA
ATOM     45  C   UNL A   1      47.617  25.999  24.682  1.00  0.00     0.031 C 
ATOM     46  C   UNL A   1      44.212  27.806  27.449  1.00  0.00     0.029 A 
ATOM     47  N   UNL A   1      46.319  28.495  27.615  1.00  0.00    -0.354 N 
ATOM     48  C   UNL A   1      49.545  26.123  25.897  1.00  0.00     0.074 A 
ATOM     49  C   UNL A   1      48.942  25.898  24.606  1.00  0.00     0.031 C 
ATOM     50  C   UNL A   1      44.178  29.131  27.709  1.00  0.00     0.029 A 
ATOM     51  C   UNL A   1      45.542  29.628  27.790  1.00  0.00     0.049 A 
ATOM     52  H   UNL A   1      47.292  28.478  27.765  1.00  0.00     0.167 HD
ATOM     53  C   UNL A   1      50.814  26.490  26.210  1.00  0.00     0.034 A 
ATOM     54  C   UNL A   1      45.996  30.896  27.891  1.00  0.00     0.034 A 
ATOM     55  C   UNL A   1      51.048  26.572  27.623  1.00  0.00     0.049 A 
ATOM     56  C   UNL A   1      47.428  30.845  28.266  1.00  0.00     0.074 A 
ATOM     57  C   UNL A   1      51.019  25.683  28.676  1.00  0.00     0.029 A 
ATOM     58  N   UNL A   1      51.078  27.826  28.180  1.00  0.00    -0.354 N 
ATOM     59  N   UNL A   1      47.874  30.450  29.426  1.00  0.00    -0.248 NA
ATOM     60  C   UNL A   1      48.429  30.935  27.214  1.00  0.00     0.031 C 
ATOM     61  C   UNL A   1      50.632  26.450  29.812  1.00  0.00     0.029 A 
ATOM     62  C   UNL A   1      50.425  27.763  29.384  1.00  0.00     0.049 A 
ATOM     63  H   UNL A   1      51.494  28.626  27.786  1.00  0.00     0.167 HD
ATOM     64  C   UNL A   1      49.100  29.856  29.152  1.00  0.00     0.074 A 
ATOM     65  C   UNL A   1      49.450  30.322  27.817  1.00  0.00     0.031 C 
ATOM     66  C   UNL A   1      49.572  28.817  29.905  1.00  0.00     0.034 A 
BRANCH  53  67
ATOM     67  C   UNL A   1      51.779  27.030  25.202  1.00  0.00     0.023 A 
ATOM     68  C   UNL A   1      52.926  26.274  24.894  1.00  0.00     0.012 A 
ATOM     69  C   UNL A   1      51.699  28.337  24.677  1.00  0.00     0.148 A 
ATOM     70  C   UNL A   1      53.935  26.792  24.076  1.00  0.00     0.002 A 
ATOM     71  C   UNL A   1      52.654  28.809  23.787  1.00  0.00     0.091 A 
ATOM     72  F   UNL A   1      50.754  29.180  25.119  1.00  0.00    -0.205 F 
ATOM     73  C   UNL A   1      53.787  28.049  23.498  1.00  0.00     0.022 A 
BRANCH  71  74
ATOM     74  S   UNL A   1      52.387  30.371  22.947  1.00  0.00     0.127 S 
ATOM     75  O   UNL A   1      53.609  30.509  22.164  1.00  0.00    -0.237 OA
ATOM     76  O   UNL A   1      51.178  30.108  22.163  1.00  0.00    -0.237 OA
ATOM     77  O   UNL A   1      52.191  31.322  24.035  1.00  0.00    -0.744 OA
ENDBRANCH  71  74
ENDBRANCH  53  67
BRANCH  54  78
ATOM     78  C   UNL A   1      45.324  32.145  27.474  1.00  0.00     0.023 A 
ATOM     79  C   UNL A   1      45.012  32.351  26.119  1.00  0.00     0.012 A 
ATOM     80  C   UNL A   1      44.787  33.042  28.427  1.00  0.00     0.148 A 
ATOM     81  C   UNL A   1      44.186  33.411  25.724  1.00  0.00     0.002 A 
ATOM     82  C   UNL A   1      43.989  34.108  28.028  1.00  0.00     0.091 A 
ATOM     83  F   UNL A   1      44.982  32.799  29.731  1.00  0.00    -0.205 F 
ATOM     84  C   UNL A   1      43.676  34.290  26.677  1.00  0.00     0.022 A 
BRANCH  82  85
ATOM     85  S   UNL A   1      43.327  35.283  29.217  1.00  0.00     0.127 S 
ATOM     86  O   UNL A   1      42.941  36.407  28.363  1.00  0.00    -0.237 OA
ATOM     87  O   UNL A   1      42.211  34.540  29.792  1.00  0.00    -0.237 OA
ATOM     88  O   UNL A   1      44.434  35.582  30.119  1.00  0.00    -0.744 OA
ENDBRANCH  82  85
ENDBRANCH  54  78
BRANCH  66  89
ATOM     89  C   UNL A   1      48.904  28.534  31.233  1.00  0.00     0.023 A 
ATOM     90  C   UNL A   1      49.318  29.187  32.413  1.00  0.00     0.012 A 
ATOM     91  C   UNL A   1      47.733  27.754  31.270  1.00  0.00     0.148 A 
ATOM     92  C   UNL A   1      48.604  29.044  33.605  1.00  0.00     0.002 A 
ATOM     93  C   UNL A   1      46.997  27.652  32.448  1.00  0.00     0.091 A 
ATOM     94  F   UNL A   1      47.336  27.143  30.143  1.00  0.00    -0.205 F 
ATOM     95  C   UNL A   1      47.436  28.287  33.620  1.00  0.00     0.022 A 
BRANCH  93  96
ATOM     96  S   UNL A   1      45.407  26.815  32.492  1.00  0.00     0.127 S 
ATOM     97  O   UNL A   1      44.806  27.356  33.708  1.00  0.00    -0.237 OA
ATOM     98  O   UNL A   1      44.774  27.259  31.249  1.00  0.00    -0.237 OA
ATOM     99  O   UNL A   1      45.719  25.390  32.517  1.00  0.00    -0.744 OA
ENDBRANCH  93  96
ENDBRANCH  66  89
ENDBRANCH  40  41
ENDBRANCH  33  35
ENDBRANCH  32  33
ENDBRANCH  31  32
ENDBRANCH  30  31
ENDBRANCH  29  30
ENDBRANCH  28  29
ENDBRANCH  27  28
ENDBRANCH   1  27
TORSDOF 26
ENDMDL
