MODEL 1
REMARK VINA RESULT:      -8.5      0.000      0.000
REMARK SMILES Cc1c(Cl)cc2c(c1C)O[C@H](C(F)(F)F)C(C(=O)OCCOCCOCCOCCOC(=O)c1ccc(-c3c4nc(c(-c5cccc(S(=O)(=O)[O-])c5F)c5ccc([nH]5)c(-c5cccc(S(=O)(=O)[O-])c5F)c5nc(c(-c6cccc(S(=O)(=O)[O-])c6F)c6ccc3[nH]6)C=C5)C=C4)cc1)=C2
REMARK SMILES IDX 26 1 25 2 24 3 23 4 22 5 21 6 20 7 19 8 17 9 18 10 16 11
REMARK SMILES IDX 1 12 2 13 3 14 8 15 4 16 5 17 7 18 9 19 6 20 10 21 97 22
REMARK SMILES IDX 11 23 12 24 13 25 14 26 15 27 27 28 28 29 29 30 30 31 31 32
REMARK SMILES IDX 32 33 33 34 34 35 35 36 96 37 36 38 95 39 37 40 38 41 39 42
REMARK SMILES IDX 89 43 40 44 94 45 88 46 90 47 41 48 93 49 87 50 86 51 42 53
REMARK SMILES IDX 74 54 54 55 73 56 55 57 58 58 72 59 91 60 56 61 57 62 71 64
REMARK SMILES IDX 92 65 59 66 43 67 44 68 52 69 45 70 47 71 53 72 46 73 48 74
REMARK SMILES IDX 49 75 50 76 51 77 75 78 76 79 84 80 77 81 79 82 85 83 78 84
REMARK SMILES IDX 80 85 81 86 82 87 83 88 60 89 61 90 69 91 62 92 64 93 70 94
REMARK SMILES IDX 63 95 65 96 66 97 67 98 68 99
REMARK H PARENT 90 52 58 63
REMARK Flexibility Score: inf
ROOT
ATOM      1  C   UNL A   1      40.390  29.037  30.158  1.00  0.00     0.188 C 
ENDROOT
BRANCH   1   2
ATOM      2  O   UNL A   1      41.019  28.965  28.878  1.00  0.00    -0.377 OA
BRANCH   2   3
ATOM      3  C   UNL A   1      42.314  28.393  28.797  1.00  0.00     0.188 C 
BRANCH   3   4
ATOM      4  C   UNL A   1      42.712  27.999  27.363  1.00  0.00     0.188 C 
BRANCH   4   5
ATOM      5  O   UNL A   1      41.609  27.975  26.467  1.00  0.00    -0.376 OA
BRANCH   5   6
ATOM      6  C   UNL A   1      41.233  26.751  25.854  1.00  0.00     0.202 C 
BRANCH   6   7
ATOM      7  C   UNL A   1      42.241  25.604  25.653  1.00  0.00     0.261 C 
BRANCH   7   8
ATOM      8  O   UNL A   1      42.251  24.578  26.650  1.00  0.00    -0.460 OA
BRANCH   8   9
ATOM      9  C   UNL A   1      41.192  24.481  27.472  1.00  0.00     0.338 C 
ATOM     10  O   UNL A   1      41.004  25.106  28.501  1.00  0.00    -0.246 OA
BRANCH   9  11
ATOM     11  C   UNL A   1      40.188  23.620  26.806  1.00  0.00     0.087 C 
ATOM     12  C   UNL A   1      34.794  20.554  24.910  1.00  0.00     0.046 C 
ATOM     13  C   UNL A   1      35.899  21.537  25.202  1.00  0.00    -0.026 A 
ATOM     14  C   UNL A   1      35.627  22.888  25.489  1.00  0.00     0.045 A 
ATOM     15  C   UNL A   1      37.246  21.094  25.242  1.00  0.00    -0.004 A 
ATOM     16  Cl  UNL A   1      34.034  23.562  25.392  1.00  0.00    -0.084 Cl
ATOM     17  C   UNL A   1      36.643  23.754  25.900  1.00  0.00     0.032 A 
ATOM     18  C   UNL A   1      38.261  21.987  25.653  1.00  0.00     0.131 A 
ATOM     19  C   UNL A   1      37.647  19.680  24.894  1.00  0.00     0.049 C 
ATOM     20  C   UNL A   1      37.950  23.290  26.035  1.00  0.00     0.019 A 
ATOM     21  O   UNL A   1      39.537  21.498  25.667  1.00  0.00    -0.475 OA
ATOM     22  C   UNL A   1      38.963  24.133  26.645  1.00  0.00     0.027 C 
ATOM     23  C   UNL A   1      40.603  22.264  26.294  1.00  0.00     0.316 C 
BRANCH  23  24
ATOM     24  C   UNL A   1      41.226  21.396  27.396  1.00  0.00     0.430 C 
ATOM     25  F   UNL A   1      40.994  20.082  27.177  1.00  0.00    -0.167 F 
ATOM     26  F   UNL A   1      42.565  21.564  27.475  1.00  0.00    -0.167 F 
ATOM     27  F   UNL A   1      40.709  21.703  28.610  1.00  0.00    -0.167 F 
ENDBRANCH  23  24
ENDBRANCH   9  11
ENDBRANCH   8   9
ENDBRANCH   7   8
ENDBRANCH   6   7
ENDBRANCH   5   6
ENDBRANCH   4   5
ENDBRANCH   3   4
ENDBRANCH   2   3
ENDBRANCH   1   2
BRANCH   1  28
ATOM     28  C   UNL A   1      39.032  29.749  30.371  1.00  0.00     0.188 C 
BRANCH  28  29
ATOM     29  O   UNL A   1      38.241  29.884  29.194  1.00  0.00    -0.376 OA
BRANCH  29  30
ATOM     30  C   UNL A   1      37.654  31.152  28.943  1.00  0.00     0.202 C 
BRANCH  30  31
ATOM     31  C   UNL A   1      37.080  31.856  30.178  1.00  0.00     0.261 C 
BRANCH  31  32
ATOM     32  O   UNL A   1      37.090  33.290  30.131  1.00  0.00    -0.460 OA
BRANCH  32  33
ATOM     33  C   UNL A   1      37.748  33.946  31.112  1.00  0.00     0.338 C 
ATOM     34  O   UNL A   1      37.379  34.116  32.260  1.00  0.00    -0.246 OA
BRANCH  33  35
ATOM     35  C   UNL A   1      39.094  34.260  30.596  1.00  0.00     0.060 A 
ATOM     36  C   UNL A   1      39.245  34.619  29.251  1.00  0.00     0.016 A 
ATOM     37  C   UNL A   1      40.196  34.239  31.455  1.00  0.00     0.016 A 
ATOM     38  C   UNL A   1      40.509  34.940  28.756  1.00  0.00     0.010 A 
ATOM     39  C   UNL A   1      41.462  34.545  30.954  1.00  0.00     0.010 A 
ATOM     40  C   UNL A   1      41.628  34.873  29.598  1.00  0.00    -0.014 A 
BRANCH  40  41
ATOM     41  C   UNL A   1      42.991  34.993  29.028  1.00  0.00     0.031 A 
ATOM     42  C   UNL A   1      43.511  36.363  28.695  1.00  0.00     0.074 A 
ATOM     43  C   UNL A   1      43.752  33.905  28.813  1.00  0.00     0.049 A 
ATOM     44  N   UNL A   1      44.672  36.710  28.209  1.00  0.00    -0.248 NA
ATOM     45  C   UNL A   1      42.599  37.494  28.943  1.00  0.00     0.031 C 
ATOM     46  C   UNL A   1      43.355  32.526  29.096  1.00  0.00     0.029 A 
ATOM     47  N   UNL A   1      45.019  33.791  28.295  1.00  0.00    -0.354 N 
ATOM     48  C   UNL A   1      44.633  38.093  28.089  1.00  0.00     0.074 A 
ATOM     49  C   UNL A   1      43.322  38.522  28.523  1.00  0.00     0.031 C 
ATOM     50  C   UNL A   1      44.357  31.704  28.739  1.00  0.00     0.029 A 
ATOM     51  C   UNL A   1      45.457  32.493  28.187  1.00  0.00     0.049 A 
ATOM     52  H   UNL A   1      45.562  34.567  28.027  1.00  0.00     0.167 HD
ATOM     53  C   UNL A   1      45.609  38.934  27.679  1.00  0.00     0.034 A 
ATOM     54  C   UNL A   1      46.614  32.000  27.695  1.00  0.00     0.034 A 
ATOM     55  C   UNL A   1      46.913  38.505  27.254  1.00  0.00     0.049 A 
ATOM     56  C   UNL A   1      47.671  32.957  27.202  1.00  0.00     0.074 A 
ATOM     57  C   UNL A   1      47.979  39.284  26.845  1.00  0.00     0.029 A 
ATOM     58  N   UNL A   1      47.325  37.184  27.174  1.00  0.00    -0.354 N 
ATOM     59  N   UNL A   1      47.661  34.268  27.202  1.00  0.00    -0.248 NA
ATOM     60  C   UNL A   1      48.911  32.369  26.668  1.00  0.00     0.031 C 
ATOM     61  C   UNL A   1      49.029  38.433  26.490  1.00  0.00     0.029 A 
ATOM     62  C   UNL A   1      48.628  37.125  26.713  1.00  0.00     0.049 A 
ATOM     63  H   UNL A   1      46.774  36.403  27.411  1.00  0.00     0.167 HD
ATOM     64  C   UNL A   1      48.903  34.662  26.712  1.00  0.00     0.074 A 
ATOM     65  C   UNL A   1      49.645  33.450  26.434  1.00  0.00     0.031 C 
ATOM     66  C   UNL A   1      49.380  35.913  26.501  1.00  0.00     0.034 A 
BRANCH  53  67
ATOM     67  C   UNL A   1      45.330  40.412  27.716  1.00  0.00     0.023 A 
ATOM     68  C   UNL A   1      45.373  41.091  28.952  1.00  0.00     0.012 A 
ATOM     69  C   UNL A   1      45.119  41.144  26.532  1.00  0.00     0.148 A 
ATOM     70  C   UNL A   1      45.190  42.472  29.010  1.00  0.00     0.002 A 
ATOM     71  C   UNL A   1      44.984  42.526  26.593  1.00  0.00     0.091 A 
ATOM     72  F   UNL A   1      45.060  40.476  25.371  1.00  0.00    -0.205 F 
ATOM     73  C   UNL A   1      45.009  43.190  27.831  1.00  0.00     0.022 A 
BRANCH  71  74
ATOM     74  S   UNL A   1      44.832  43.552  25.127  1.00  0.00     0.127 S 
ATOM     75  O   UNL A   1      45.903  43.022  24.284  1.00  0.00    -0.237 OA
ATOM     76  O   UNL A   1      43.481  43.232  24.668  1.00  0.00    -0.237 OA
ATOM     77  O   UNL A   1      45.017  44.926  25.575  1.00  0.00    -0.744 OA
ENDBRANCH  71  74
ENDBRANCH  53  67
BRANCH  54  78
ATOM     78  C   UNL A   1      46.862  30.529  27.712  1.00  0.00     0.023 A 
ATOM     79  C   UNL A   1      47.279  29.912  28.908  1.00  0.00     0.012 A 
ATOM     80  C   UNL A   1      46.652  29.733  26.569  1.00  0.00     0.148 A 
ATOM     81  C   UNL A   1      47.504  28.536  28.961  1.00  0.00     0.002 A 
ATOM     82  C   UNL A   1      46.823  28.355  26.642  1.00  0.00     0.091 A 
ATOM     83  F   UNL A   1      46.273  30.340  25.435  1.00  0.00    -0.205 F 
ATOM     84  C   UNL A   1      47.265  27.757  27.833  1.00  0.00     0.022 A 
BRANCH  82  85
ATOM     85  S   UNL A   1      46.414  27.254  25.282  1.00  0.00     0.127 S 
ATOM     86  O   UNL A   1      47.466  27.565  24.319  1.00  0.00    -0.237 OA
ATOM     87  O   UNL A   1      46.527  25.942  25.918  1.00  0.00    -0.237 OA
ATOM     88  O   UNL A   1      45.062  27.615  24.877  1.00  0.00    -0.744 OA
ENDBRANCH  82  85
ENDBRANCH  54  78
BRANCH  66  89
ATOM     89  C   UNL A   1      50.784  36.072  25.975  1.00  0.00     0.023 A 
ATOM     90  C   UNL A   1      51.007  36.145  24.587  1.00  0.00     0.012 A 
ATOM     91  C   UNL A   1      51.857  36.305  26.862  1.00  0.00     0.148 A 
ATOM     92  C   UNL A   1      52.276  36.435  24.087  1.00  0.00     0.002 A 
ATOM     93  C   UNL A   1      53.105  36.646  26.358  1.00  0.00     0.091 A 
ATOM     94  F   UNL A   1      51.624  36.219  28.180  1.00  0.00    -0.205 F 
ATOM     95  C   UNL A   1      53.320  36.702  24.972  1.00  0.00     0.022 A 
BRANCH  93  96
ATOM     96  S   UNL A   1      54.481  37.118  27.415  1.00  0.00     0.127 S 
ATOM     97  O   UNL A   1      55.530  37.391  26.434  1.00  0.00    -0.237 OA
ATOM     98  O   UNL A   1      53.955  38.304  28.092  1.00  0.00    -0.237 OA
ATOM     99  O   UNL A   1      54.730  35.979  28.288  1.00  0.00    -0.744 OA
ENDBRANCH  93  96
ENDBRANCH  66  89
ENDBRANCH  40  41
ENDBRANCH  33  35
ENDBRANCH  32  33
ENDBRANCH  31  32
ENDBRANCH  30  31
ENDBRANCH  29  30
ENDBRANCH  28  29
ENDBRANCH   1  28
TORSDOF 24
ENDMDL
MODEL 2
REMARK VINA RESULT:      -7.7      6.464     15.073
REMARK SMILES Cc1c(Cl)cc2c(c1C)O[C@H](C(F)(F)F)C(C(=O)OCCOCCOCCOCCOC(=O)c1ccc(-c3c4nc(c(-c5cccc(S(=O)(=O)[O-])c5F)c5ccc([nH]5)c(-c5cccc(S(=O)(=O)[O-])c5F)c5nc(c(-c6cccc(S(=O)(=O)[O-])c6F)c6ccc3[nH]6)C=C5)C=C4)cc1)=C2
REMARK SMILES IDX 26 1 25 2 24 3 23 4 22 5 21 6 20 7 19 8 17 9 18 10 16 11
REMARK SMILES IDX 1 12 2 13 3 14 8 15 4 16 5 17 7 18 9 19 6 20 10 21 97 22
REMARK SMILES IDX 11 23 12 24 13 25 14 26 15 27 27 28 28 29 29 30 30 31 31 32
REMARK SMILES IDX 32 33 33 34 34 35 35 36 96 37 36 38 95 39 37 40 38 41 39 42
REMARK SMILES IDX 89 43 40 44 94 45 88 46 90 47 41 48 93 49 87 50 86 51 42 53
REMARK SMILES IDX 74 54 54 55 73 56 55 57 58 58 72 59 91 60 56 61 57 62 71 64
REMARK SMILES IDX 92 65 59 66 43 67 44 68 52 69 45 70 47 71 53 72 46 73 48 74
REMARK SMILES IDX 49 75 50 76 51 77 75 78 76 79 84 80 77 81 79 82 85 83 78 84
REMARK SMILES IDX 80 85 81 86 82 87 83 88 60 89 61 90 69 91 62 92 64 93 70 94
REMARK SMILES IDX 63 95 65 96 66 97 67 98 68 99
REMARK H PARENT 90 52 58 63
REMARK Flexibility Score: inf
ROOT
ATOM      1  C   UNL A   1      47.660  41.089  21.650  1.00  0.00     0.188 C 
ENDROOT
BRANCH   1   2
ATOM      2  O   UNL A   1      47.448  42.012  20.581  1.00  0.00    -0.377 OA
BRANCH   2   3
ATOM      3  C   UNL A   1      47.839  43.361  20.770  1.00  0.00     0.188 C 
BRANCH   3   4
ATOM      4  C   UNL A   1      49.222  43.502  21.432  1.00  0.00     0.188 C 
BRANCH   4   5
ATOM      5  O   UNL A   1      49.220  44.396  22.536  1.00  0.00    -0.376 OA
BRANCH   5   6
ATOM      6  C   UNL A   1      48.231  44.260  23.545  1.00  0.00     0.202 C 
BRANCH   6   7
ATOM      7  C   UNL A   1      47.380  45.456  24.010  1.00  0.00     0.261 C 
BRANCH   7   8
ATOM      8  O   UNL A   1      46.038  45.518  23.516  1.00  0.00    -0.460 OA
BRANCH   8   9
ATOM      9  C   UNL A   1      45.323  44.381  23.477  1.00  0.00     0.338 C 
ATOM     10  O   UNL A   1      45.139  43.599  24.394  1.00  0.00    -0.246 OA
BRANCH   9  11
ATOM     11  C   UNL A   1      44.626  44.338  22.172  1.00  0.00     0.087 C 
ATOM     12  C   UNL A   1      41.829  45.722  16.484  1.00  0.00     0.046 C 
ATOM     13  C   UNL A   1      42.767  45.476  17.637  1.00  0.00    -0.026 A 
ATOM     14  C   UNL A   1      43.930  46.249  17.820  1.00  0.00     0.045 A 
ATOM     15  C   UNL A   1      42.459  44.478  18.598  1.00  0.00    -0.004 A 
ATOM     16  Cl  UNL A   1      44.451  47.437  16.672  1.00  0.00    -0.084 Cl
ATOM     17  C   UNL A   1      44.712  46.109  18.969  1.00  0.00     0.032 A 
ATOM     18  C   UNL A   1      43.267  44.348  19.750  1.00  0.00     0.131 A 
ATOM     19  C   UNL A   1      41.268  43.560  18.462  1.00  0.00     0.049 C 
ATOM     20  C   UNL A   1      44.351  45.198  19.959  1.00  0.00     0.019 A 
ATOM     21  O   UNL A   1      42.918  43.367  20.635  1.00  0.00    -0.475 OA
ATOM     22  C   UNL A   1      45.049  45.191  21.232  1.00  0.00     0.027 C 
ATOM     23  C   UNL A   1      43.543  43.314  21.947  1.00  0.00     0.316 C 
BRANCH  23  24
ATOM     24  C   UNL A   1      42.433  43.405  23.005  1.00  0.00     0.430 C 
ATOM     25  F   UNL A   1      42.359  44.645  23.535  1.00  0.00    -0.167 F 
ATOM     26  F   UNL A   1      41.219  43.110  22.489  1.00  0.00    -0.167 F 
ATOM     27  F   UNL A   1      42.659  42.540  24.023  1.00  0.00    -0.167 F 
ENDBRANCH  23  24
ENDBRANCH   9  11
ENDBRANCH   8   9
ENDBRANCH   7   8
ENDBRANCH   6   7
ENDBRANCH   5   6
ENDBRANCH   4   5
ENDBRANCH   3   4
ENDBRANCH   2   3
ENDBRANCH   1   2
BRANCH   1  28
ATOM     28  C   UNL A   1      46.931  41.219  23.009  1.00  0.00     0.188 C 
BRANCH  28  29
ATOM     29  O   UNL A   1      46.601  39.978  23.627  1.00  0.00    -0.376 OA
BRANCH  29  30
ATOM     30  C   UNL A   1      46.732  39.896  25.037  1.00  0.00     0.202 C 
BRANCH  30  31
ATOM     31  C   UNL A   1      45.423  40.046  25.820  1.00  0.00     0.261 C 
BRANCH  31  32
ATOM     32  O   UNL A   1      44.986  38.876  26.525  1.00  0.00    -0.460 OA
BRANCH  32  33
ATOM     33  C   UNL A   1      43.689  38.815  26.899  1.00  0.00     0.338 C 
ATOM     34  O   UNL A   1      42.763  39.469  26.456  1.00  0.00    -0.246 OA
BRANCH  33  35
ATOM     35  C   UNL A   1      43.557  37.667  27.818  1.00  0.00     0.060 A 
ATOM     36  C   UNL A   1      44.613  37.358  28.683  1.00  0.00     0.016 A 
ATOM     37  C   UNL A   1      42.373  36.927  27.847  1.00  0.00     0.016 A 
ATOM     38  C   UNL A   1      44.492  36.289  29.571  1.00  0.00     0.010 A 
ATOM     39  C   UNL A   1      42.259  35.848  28.725  1.00  0.00     0.010 A 
ATOM     40  C   UNL A   1      43.326  35.509  29.574  1.00  0.00    -0.014 A 
BRANCH  40  41
ATOM     41  C   UNL A   1      43.282  34.248  30.349  1.00  0.00     0.031 A 
ATOM     42  C   UNL A   1      42.868  34.308  31.793  1.00  0.00     0.074 A 
ATOM     43  C   UNL A   1      43.602  33.071  29.781  1.00  0.00     0.049 A 
ATOM     44  N   UNL A   1      42.739  33.336  32.656  1.00  0.00    -0.248 NA
ATOM     45  C   UNL A   1      42.557  35.642  32.336  1.00  0.00     0.031 C 
ATOM     46  C   UNL A   1      44.019  32.889  28.392  1.00  0.00     0.029 A 
ATOM     47  N   UNL A   1      43.635  31.805  30.311  1.00  0.00    -0.354 N 
ATOM     48  C   UNL A   1      42.337  33.937  33.843  1.00  0.00     0.074 A 
ATOM     49  C   UNL A   1      42.273  35.361  33.599  1.00  0.00     0.031 C 
ATOM     50  C   UNL A   1      44.274  31.586  28.182  1.00  0.00     0.029 A 
ATOM     51  C   UNL A   1      44.057  30.844  29.423  1.00  0.00     0.049 A 
ATOM     52  H   UNL A   1      43.380  31.604  31.241  1.00  0.00     0.167 HD
ATOM     53  C   UNL A   1      42.023  33.353  35.021  1.00  0.00     0.034 A 
ATOM     54  C   UNL A   1      44.249  29.520  29.595  1.00  0.00     0.034 A 
ATOM     55  C   UNL A   1      42.082  31.937  35.257  1.00  0.00     0.049 A 
ATOM     56  C   UNL A   1      43.935  28.899  30.934  1.00  0.00     0.074 A 
ATOM     57  C   UNL A   1      41.759  31.247  36.411  1.00  0.00     0.029 A 
ATOM     58  N   UNL A   1      42.498  30.995  34.328  1.00  0.00    -0.354 N 
ATOM     59  N   UNL A   1      43.447  29.464  32.011  1.00  0.00    -0.248 NA
ATOM     60  C   UNL A   1      44.169  27.452  31.073  1.00  0.00     0.031 C 
ATOM     61  C   UNL A   1      42.006  29.890  36.191  1.00  0.00     0.029 A 
ATOM     62  C   UNL A   1      42.449  29.731  34.887  1.00  0.00     0.049 A 
ATOM     63  H   UNL A   1      42.785  31.196  33.408  1.00  0.00     0.167 HD
ATOM     64  C   UNL A   1      43.274  28.440  32.939  1.00  0.00     0.074 A 
ATOM     65  C   UNL A   1      43.701  27.217  32.292  1.00  0.00     0.031 C 
ATOM     66  C   UNL A   1      42.816  28.510  34.212  1.00  0.00     0.034 A 
BRANCH  53  67
ATOM     67  C   UNL A   1      41.537  34.236  36.139  1.00  0.00     0.023 A 
ATOM     68  C   UNL A   1      40.155  34.488  36.266  1.00  0.00     0.012 A 
ATOM     69  C   UNL A   1      42.424  34.735  37.111  1.00  0.00     0.148 A 
ATOM     70  C   UNL A   1      39.668  35.243  37.333  1.00  0.00     0.002 A 
ATOM     71  C   UNL A   1      41.926  35.446  38.196  1.00  0.00     0.091 A 
ATOM     72  F   UNL A   1      43.736  34.501  36.959  1.00  0.00    -0.205 F 
ATOM     73  C   UNL A   1      40.550  35.709  38.304  1.00  0.00     0.022 A 
BRANCH  71  74
ATOM     74  S   UNL A   1      42.966  36.016  39.544  1.00  0.00     0.127 S 
ATOM     75  O   UNL A   1      42.013  36.779  40.350  1.00  0.00    -0.237 OA
ATOM     76  O   UNL A   1      43.403  34.757  40.148  1.00  0.00    -0.237 OA
ATOM     77  O   UNL A   1      44.028  36.801  38.931  1.00  0.00    -0.744 OA
ENDBRANCH  71  74
ENDBRANCH  53  67
BRANCH  54  78
ATOM     78  C   UNL A   1      44.697  28.678  28.448  1.00  0.00     0.023 A 
ATOM     79  C   UNL A   1      46.076  28.539  28.190  1.00  0.00     0.012 A 
ATOM     80  C   UNL A   1      43.776  27.987  27.637  1.00  0.00     0.148 A 
ATOM     81  C   UNL A   1      46.527  27.746  27.134  1.00  0.00     0.002 A 
ATOM     82  C   UNL A   1      44.234  27.153  26.622  1.00  0.00     0.091 A 
ATOM     83  F   UNL A   1      42.468  28.146  27.886  1.00  0.00    -0.205 F 
ATOM     84  C   UNL A   1      45.608  27.044  26.359  1.00  0.00     0.022 A 
BRANCH  82  85
ATOM     85  S   UNL A   1      43.137  26.109  25.656  1.00  0.00     0.127 S 
ATOM     86  O   UNL A   1      42.347  25.459  26.699  1.00  0.00    -0.237 OA
ATOM     87  O   UNL A   1      42.411  27.096  24.859  1.00  0.00    -0.237 OA
ATOM     88  O   UNL A   1      44.007  25.231  24.886  1.00  0.00    -0.744 OA
ENDBRANCH  82  85
ENDBRANCH  54  78
BRANCH  66  89
ATOM     89  C   UNL A   1      42.704  27.237  35.011  1.00  0.00     0.023 A 
ATOM     90  C   UNL A   1      41.522  26.474  34.950  1.00  0.00     0.012 A 
ATOM     91  C   UNL A   1      43.826  26.721  35.694  1.00  0.00     0.148 A 
ATOM     92  C   UNL A   1      41.453  25.224  35.564  1.00  0.00     0.002 A 
ATOM     93  C   UNL A   1      43.767  25.453  36.257  1.00  0.00     0.091 A 
ATOM     94  F   UNL A   1      44.938  27.469  35.748  1.00  0.00    -0.205 F 
ATOM     95  C   UNL A   1      42.579  24.707  36.202  1.00  0.00     0.022 A 
BRANCH  93  96
ATOM     96  S   UNL A   1      45.196  24.654  36.999  1.00  0.00     0.127 S 
ATOM     97  O   UNL A   1      46.298  25.269  36.260  1.00  0.00    -0.237 OA
ATOM     98  O   UNL A   1      45.090  25.073  38.397  1.00  0.00    -0.237 OA
ATOM     99  O   UNL A   1      45.022  23.225  36.778  1.00  0.00    -0.744 OA
ENDBRANCH  93  96
ENDBRANCH  66  89
ENDBRANCH  40  41
ENDBRANCH  33  35
ENDBRANCH  32  33
ENDBRANCH  31  32
ENDBRANCH  30  31
ENDBRANCH  29  30
ENDBRANCH  28  29
ENDBRANCH   1  28
TORSDOF 24
ENDMDL
MODEL 3
REMARK VINA RESULT:      -7.7      8.334     13.762
REMARK SMILES Cc1c(Cl)cc2c(c1C)O[C@H](C(F)(F)F)C(C(=O)OCCOCCOCCOCCOC(=O)c1ccc(-c3c4nc(c(-c5cccc(S(=O)(=O)[O-])c5F)c5ccc([nH]5)c(-c5cccc(S(=O)(=O)[O-])c5F)c5nc(c(-c6cccc(S(=O)(=O)[O-])c6F)c6ccc3[nH]6)C=C5)C=C4)cc1)=C2
REMARK SMILES IDX 26 1 25 2 24 3 23 4 22 5 21 6 20 7 19 8 17 9 18 10 16 11
REMARK SMILES IDX 1 12 2 13 3 14 8 15 4 16 5 17 7 18 9 19 6 20 10 21 97 22
REMARK SMILES IDX 11 23 12 24 13 25 14 26 15 27 27 28 28 29 29 30 30 31 31 32
REMARK SMILES IDX 32 33 33 34 34 35 35 36 96 37 36 38 95 39 37 40 38 41 39 42
REMARK SMILES IDX 89 43 40 44 94 45 88 46 90 47 41 48 93 49 87 50 86 51 42 53
REMARK SMILES IDX 74 54 54 55 73 56 55 57 58 58 72 59 91 60 56 61 57 62 71 64
REMARK SMILES IDX 92 65 59 66 43 67 44 68 52 69 45 70 47 71 53 72 46 73 48 74
REMARK SMILES IDX 49 75 50 76 51 77 75 78 76 79 84 80 77 81 79 82 85 83 78 84
REMARK SMILES IDX 80 85 81 86 82 87 83 88 60 89 61 90 69 91 62 92 64 93 70 94
REMARK SMILES IDX 63 95 65 96 66 97 67 98 68 99
REMARK H PARENT 90 52 58 63
REMARK Flexibility Score: inf
ROOT
ATOM      1  C   UNL A   1      45.658  31.890  26.850  1.00  0.00     0.188 C 
ENDROOT
BRANCH   1   2
ATOM      2  O   UNL A   1      44.764  30.896  26.349  1.00  0.00    -0.377 OA
BRANCH   2   3
ATOM      3  C   UNL A   1      43.861  30.287  27.256  1.00  0.00     0.188 C 
BRANCH   3   4
ATOM      4  C   UNL A   1      43.055  29.137  26.625  1.00  0.00     0.188 C 
BRANCH   4   5
ATOM      5  O   UNL A   1      41.918  28.768  27.393  1.00  0.00    -0.376 OA
BRANCH   5   6
ATOM      6  C   UNL A   1      41.411  27.445  27.302  1.00  0.00     0.202 C 
BRANCH   6   7
ATOM      7  C   UNL A   1      41.316  26.529  28.536  1.00  0.00     0.261 C 
BRANCH   7   8
ATOM      8  O   UNL A   1      40.684  25.260  28.344  1.00  0.00    -0.460 OA
BRANCH   8   9
ATOM      9  C   UNL A   1      41.318  24.342  27.594  1.00  0.00     0.338 C 
ATOM     10  O   UNL A   1      42.511  24.093  27.594  1.00  0.00    -0.246 OA
BRANCH   9  11
ATOM     11  C   UNL A   1      40.283  23.541  26.902  1.00  0.00     0.087 C 
ATOM     12  C   UNL A   1      34.774  20.765  24.894  1.00  0.00     0.046 C 
ATOM     13  C   UNL A   1      35.919  21.689  25.216  1.00  0.00    -0.026 A 
ATOM     14  C   UNL A   1      35.707  23.046  25.527  1.00  0.00     0.045 A 
ATOM     15  C   UNL A   1      37.245  21.184  25.260  1.00  0.00    -0.004 A 
ATOM     16  Cl  UNL A   1      34.148  23.794  25.427  1.00  0.00    -0.084 Cl
ATOM     17  C   UNL A   1      36.758  23.856  25.965  1.00  0.00     0.032 A 
ATOM     18  C   UNL A   1      38.295  22.021  25.698  1.00  0.00     0.131 A 
ATOM     19  C   UNL A   1      37.584  19.760  24.888  1.00  0.00     0.049 C 
ATOM     20  C   UNL A   1      38.040  23.330  26.103  1.00  0.00     0.019 A 
ATOM     21  O   UNL A   1      39.548  21.474  25.715  1.00  0.00    -0.475 OA
ATOM     22  C   UNL A   1      39.085  24.113  26.740  1.00  0.00     0.027 C 
ATOM     23  C   UNL A   1      40.640  22.178  26.367  1.00  0.00     0.316 C 
BRANCH  23  24
ATOM     24  C   UNL A   1      41.211  21.261  27.458  1.00  0.00     0.430 C 
ATOM     25  F   UNL A   1      40.870  21.692  28.692  1.00  0.00    -0.167 F 
ATOM     26  F   UNL A   1      40.765  19.991  27.334  1.00  0.00    -0.167 F 
ATOM     27  F   UNL A   1      42.564  21.219  27.401  1.00  0.00    -0.167 F 
ENDBRANCH  23  24
ENDBRANCH   9  11
ENDBRANCH   8   9
ENDBRANCH   7   8
ENDBRANCH   6   7
ENDBRANCH   5   6
ENDBRANCH   4   5
ENDBRANCH   3   4
ENDBRANCH   2   3
ENDBRANCH   1   2
BRANCH   1  28
ATOM     28  C   UNL A   1      45.286  32.815  28.034  1.00  0.00     0.188 C 
BRANCH  28  29
ATOM     29  O   UNL A   1      46.066  34.003  28.129  1.00  0.00    -0.376 OA
BRANCH  29  30
ATOM     30  C   UNL A   1      45.920  34.788  29.301  1.00  0.00     0.202 C 
BRANCH  30  31
ATOM     31  C   UNL A   1      45.847  36.301  29.064  1.00  0.00     0.261 C 
BRANCH  31  32
ATOM     32  O   UNL A   1      44.763  36.977  29.715  1.00  0.00    -0.460 OA
BRANCH  32  33
ATOM     33  C   UNL A   1      45.070  37.915  30.637  1.00  0.00     0.338 C 
ATOM     34  O   UNL A   1      45.607  38.991  30.444  1.00  0.00    -0.246 OA
BRANCH  33  35
ATOM     35  C   UNL A   1      44.460  37.486  31.911  1.00  0.00     0.060 A 
ATOM     36  C   UNL A   1      44.725  36.200  32.397  1.00  0.00     0.016 A 
ATOM     37  C   UNL A   1      43.665  38.373  32.640  1.00  0.00     0.016 A 
ATOM     38  C   UNL A   1      44.172  35.791  33.611  1.00  0.00     0.010 A 
ATOM     39  C   UNL A   1      43.100  37.956  33.846  1.00  0.00     0.010 A 
ATOM     40  C   UNL A   1      43.331  36.656  34.325  1.00  0.00    -0.014 A 
BRANCH  40  41
ATOM     41  C   UNL A   1      42.569  36.151  35.491  1.00  0.00     0.031 A 
ATOM     42  C   UNL A   1      41.322  35.349  35.240  1.00  0.00     0.074 A 
ATOM     43  C   UNL A   1      42.977  36.398  36.749  1.00  0.00     0.049 A 
ATOM     44  N   UNL A   1      40.511  34.793  36.099  1.00  0.00    -0.248 NA
ATOM     45  C   UNL A   1      40.940  35.147  33.831  1.00  0.00     0.031 C 
ATOM     46  C   UNL A   1      44.168  37.164  37.115  1.00  0.00     0.029 A 
ATOM     47  N   UNL A   1      42.425  36.037  37.953  1.00  0.00    -0.354 N 
ATOM     48  C   UNL A   1      39.522  34.179  35.341  1.00  0.00     0.074 A 
ATOM     49  C   UNL A   1      39.815  34.456  33.952  1.00  0.00     0.031 C 
ATOM     50  C   UNL A   1      44.251  37.222  38.455  1.00  0.00     0.029 A 
ATOM     51  C   UNL A   1      43.114  36.515  39.042  1.00  0.00     0.049 A 
ATOM     52  H   UNL A   1      41.612  35.487  38.028  1.00  0.00     0.167 HD
ATOM     53  C   UNL A   1      38.478  33.429  35.761  1.00  0.00     0.034 A 
ATOM     54  C   UNL A   1      42.852  36.397  40.361  1.00  0.00     0.034 A 
ATOM     55  C   UNL A   1      38.194  33.151  37.142  1.00  0.00     0.049 A 
ATOM     56  C   UNL A   1      41.654  35.593  40.805  1.00  0.00     0.074 A 
ATOM     57  C   UNL A   1      37.173  32.380  37.667  1.00  0.00     0.029 A 
ATOM     58  N   UNL A   1      38.923  33.639  38.215  1.00  0.00    -0.354 N 
ATOM     59  N   UNL A   1      40.794  34.924  40.076  1.00  0.00    -0.248 NA
ATOM     60  C   UNL A   1      41.408  35.501  42.253  1.00  0.00     0.031 C 
ATOM     61  C   UNL A   1      37.267  32.424  39.060  1.00  0.00     0.029 A 
ATOM     62  C   UNL A   1      38.369  33.192  39.401  1.00  0.00     0.049 A 
ATOM     63  H   UNL A   1      39.718  34.216  38.144  1.00  0.00     0.167 HD
ATOM     64  C   UNL A   1      39.934  34.298  40.973  1.00  0.00     0.074 A 
ATOM     65  C   UNL A   1      40.382  34.660  42.301  1.00  0.00     0.031 C 
ATOM     66  C   UNL A   1      38.863  33.507  40.719  1.00  0.00     0.034 A 
BRANCH  53  67
ATOM     67  C   UNL A   1      37.589  32.810  34.718  1.00  0.00     0.023 A 
ATOM     68  C   UNL A   1      36.497  33.549  34.216  1.00  0.00     0.012 A 
ATOM     69  C   UNL A   1      37.880  31.547  34.168  1.00  0.00     0.148 A 
ATOM     70  C   UNL A   1      35.698  33.032  33.198  1.00  0.00     0.002 A 
ATOM     71  C   UNL A   1      37.107  31.058  33.121  1.00  0.00     0.091 A 
ATOM     72  F   UNL A   1      38.909  30.852  34.675  1.00  0.00    -0.205 F 
ATOM     73  C   UNL A   1      36.011  31.795  32.642  1.00  0.00     0.022 A 
BRANCH  71  74
ATOM     74  S   UNL A   1      37.476  29.516  32.279  1.00  0.00     0.127 S 
ATOM     75  O   UNL A   1      36.449  29.496  31.238  1.00  0.00    -0.237 OA
ATOM     76  O   UNL A   1      38.835  29.752  31.790  1.00  0.00    -0.237 OA
ATOM     77  O   UNL A   1      37.362  28.469  33.284  1.00  0.00    -0.744 OA
ENDBRANCH  71  74
ENDBRANCH  53  67
BRANCH  54  78
ATOM     78  C   UNL A   1      43.782  36.998  41.360  1.00  0.00     0.023 A 
ATOM     79  C   UNL A   1      44.864  36.235  41.843  1.00  0.00     0.012 A 
ATOM     80  C   UNL A   1      43.628  38.325  41.807  1.00  0.00     0.148 A 
ATOM     81  C   UNL A   1      45.761  36.773  42.766  1.00  0.00     0.002 A 
ATOM     82  C   UNL A   1      44.557  38.875  42.683  1.00  0.00     0.091 A 
ATOM     83  F   UNL A   1      42.582  39.029  41.351  1.00  0.00    -0.205 F 
ATOM     84  C   UNL A   1      45.615  38.095  43.176  1.00  0.00     0.022 A 
BRANCH  82  85
ATOM     85  S   UNL A   1      44.528  40.605  43.166  1.00  0.00     0.127 S 
ATOM     86  O   UNL A   1      45.707  40.696  44.024  1.00  0.00    -0.237 OA
ATOM     87  O   UNL A   1      44.653  41.277  41.873  1.00  0.00    -0.237 OA
ATOM     88  O   UNL A   1      43.248  40.807  43.831  1.00  0.00    -0.744 OA
ENDBRANCH  82  85
ENDBRANCH  54  78
BRANCH  66  89
ATOM     89  C   UNL A   1      38.099  32.930  41.883  1.00  0.00     0.023 A 
ATOM     90  C   UNL A   1      38.492  31.695  42.435  1.00  0.00     0.012 A 
ATOM     91  C   UNL A   1      37.094  33.686  42.524  1.00  0.00     0.148 A 
ATOM     92  C   UNL A   1      37.891  31.216  43.598  1.00  0.00     0.002 A 
ATOM     93  C   UNL A   1      36.539  33.227  43.712  1.00  0.00     0.091 A 
ATOM     94  F   UNL A   1      36.728  34.853  41.975  1.00  0.00    -0.205 F 
ATOM     95  C   UNL A   1      36.928  31.989  44.245  1.00  0.00     0.022 A 
BRANCH  93  96
ATOM     96  S   UNL A   1      35.377  34.201  44.677  1.00  0.00     0.127 S 
ATOM     97  O   UNL A   1      36.130  35.435  44.894  1.00  0.00    -0.237 OA
ATOM     98  O   UNL A   1      34.246  34.330  43.758  1.00  0.00    -0.237 OA
ATOM     99  O   UNL A   1      35.098  33.425  45.878  1.00  0.00    -0.744 OA
ENDBRANCH  93  96
ENDBRANCH  66  89
ENDBRANCH  40  41
ENDBRANCH  33  35
ENDBRANCH  32  33
ENDBRANCH  31  32
ENDBRANCH  30  31
ENDBRANCH  29  30
ENDBRANCH  28  29
ENDBRANCH   1  28
TORSDOF 24
ENDMDL
