MODEL 1
REMARK VINA RESULT:      -9.1      0.000      0.000
REMARK SMILES CC(C)CSc1cc2c(cc1Cl)C=C(C(=O)OCCOCCOCCOCCOC(=O)c1ccc(-c3c4nc(c(-c5cccc(S(=O)(=O)[O-])c5F)c5ccc([nH]5)c(-c5cccc(S(=O)(=O)[O-])c5F)c5nc(c(-c6cccc(S(=O)(=O)[O-])c6F)c6ccc3[nH]6)C=C5)C=C4)cc1)[C@H](C(F)(F)F)O2
REMARK SMILES IDX 23 1 22 2 21 3 20 4 19 5 18 6 17 7 15 8 16 9 14 10 6 11 7 12
REMARK SMILES IDX 11 13 8 14 10 15 12 16 9 17 100 18 13 19 95 20 5 21 4 22
REMARK SMILES IDX 2 23 1 24 3 25 96 26 97 27 98 28 99 29 24 30 25 31 26 32
REMARK SMILES IDX 27 33 28 34 29 35 30 36 31 37 32 38 33 39 94 40 34 41 93 42
REMARK SMILES IDX 35 43 36 44 37 45 87 46 38 47 92 48 86 49 88 50 39 51 91 52
REMARK SMILES IDX 85 53 84 54 40 56 72 57 52 58 71 59 53 60 56 61 70 62 89 63
REMARK SMILES IDX 54 64 55 65 69 67 90 68 57 69 41 70 42 71 50 72 43 73 45 74
REMARK SMILES IDX 51 75 44 76 46 77 47 78 48 79 49 80 73 81 74 82 82 83 75 84
REMARK SMILES IDX 77 85 83 86 76 87 78 88 79 89 80 90 81 91 58 92 59 93 67 94
REMARK SMILES IDX 60 95 62 96 68 97 61 98 63 99 64 100 65 101 66 102
REMARK H PARENT 88 55 56 66
REMARK Flexibility Score: inf
ROOT
ATOM      1  O   UNL A   1      34.986  24.736  24.633  1.00  0.00    -0.377 OA
ENDROOT
BRANCH   1   2
ATOM      2  C   UNL A   1      34.555  26.068  24.420  1.00  0.00     0.188 C 
BRANCH   2   3
ATOM      3  C   UNL A   1      33.883  26.394  23.081  1.00  0.00     0.188 C 
BRANCH   3   4
ATOM      4  O   UNL A   1      33.937  27.759  22.742  1.00  0.00    -0.376 OA
BRANCH   4   5
ATOM      5  C   UNL A   1      32.977  28.675  23.247  1.00  0.00     0.202 C 
BRANCH   5   6
ATOM      6  C   UNL A   1      32.700  28.948  24.739  1.00  0.00     0.261 C 
BRANCH   6   7
ATOM      7  O   UNL A   1      31.399  28.614  25.238  1.00  0.00    -0.460 OA
BRANCH   7   8
ATOM      8  C   UNL A   1      31.379  27.698  26.229  1.00  0.00     0.338 C 
ATOM      9  O   UNL A   1      31.389  27.926  27.430  1.00  0.00    -0.246 OA
BRANCH   8  10
ATOM     10  C   UNL A   1      31.182  26.340  25.700  1.00  0.00     0.087 C 
ATOM     11  C   UNL A   1      32.324  21.582  24.548  1.00  0.00     0.030 A 
ATOM     12  C   UNL A   1      31.750  22.653  23.842  1.00  0.00     0.063 A 
ATOM     13  C   UNL A   1      32.659  21.767  25.901  1.00  0.00     0.055 A 
ATOM     14  C   UNL A   1      31.520  23.881  24.471  1.00  0.00     0.129 A 
ATOM     15  C   UNL A   1      32.413  22.990  26.531  1.00  0.00     0.033 A 
ATOM     16  Cl  UNL A   1      33.392  20.525  26.863  1.00  0.00    -0.083 Cl
ATOM     17  C   UNL A   1      31.861  24.052  25.812  1.00  0.00     0.019 A 
ATOM     18  O   UNL A   1      31.041  24.897  23.685  1.00  0.00    -0.475 OA
ATOM     19  C   UNL A   1      31.771  25.369  26.411  1.00  0.00     0.027 C 
ATOM     20  C   UNL A   1      30.588  26.130  24.336  1.00  0.00     0.316 C 
BRANCH  11  21
ATOM     21  S   UNL A   1      32.718  20.065  23.678  1.00  0.00    -0.124 SA
BRANCH  21  22
ATOM     22  C   UNL A   1      32.232  18.787  24.891  1.00  0.00     0.078 C 
BRANCH  22  23
ATOM     23  C   UNL A   1      33.329  17.752  25.207  1.00  0.00    -0.007 C 
ATOM     24  C   UNL A   1      32.787  16.329  25.346  1.00  0.00     0.008 C 
ATOM     25  C   UNL A   1      34.379  17.775  24.090  1.00  0.00     0.008 C 
ENDBRANCH  22  23
ENDBRANCH  21  22
ENDBRANCH  11  21
BRANCH  20  26
ATOM     26  C   UNL A   1      29.052  26.184  24.270  1.00  0.00     0.430 C 
ATOM     27  F   UNL A   1      28.644  27.449  23.983  1.00  0.00    -0.167 F 
ATOM     28  F   UNL A   1      28.553  25.383  23.301  1.00  0.00    -0.167 F 
ATOM     29  F   UNL A   1      28.466  25.859  25.440  1.00  0.00    -0.167 F 
ENDBRANCH  20  26
ENDBRANCH   8  10
ENDBRANCH   7   8
ENDBRANCH   6   7
ENDBRANCH   5   6
ENDBRANCH   4   5
ENDBRANCH   3   4
ENDBRANCH   2   3
ENDBRANCH   1   2
BRANCH   1  30
ATOM     30  C   UNL A   1      35.121  23.858  23.514  1.00  0.00     0.188 C 
BRANCH  30  31
ATOM     31  C   UNL A   1      36.320  22.893  23.413  1.00  0.00     0.188 C 
BRANCH  31  32
ATOM     32  O   UNL A   1      36.321  21.707  24.203  1.00  0.00    -0.376 OA
BRANCH  32  33
ATOM     33  C   UNL A   1      37.165  21.653  25.347  1.00  0.00     0.202 C 
BRANCH  33  34
ATOM     34  C   UNL A   1      38.312  20.655  25.265  1.00  0.00     0.261 C 
BRANCH  34  35
ATOM     35  O   UNL A   1      39.089  20.670  26.471  1.00  0.00    -0.460 OA
BRANCH  35  36
ATOM     36  C   UNL A   1      40.399  20.371  26.319  1.00  0.00     0.338 C 
ATOM     37  O   UNL A   1      40.872  19.350  25.846  1.00  0.00    -0.246 OA
BRANCH  36  38
ATOM     38  C   UNL A   1      41.203  21.560  26.663  1.00  0.00     0.060 A 
ATOM     39  C   UNL A   1      41.601  22.472  25.681  1.00  0.00     0.016 A 
ATOM     40  C   UNL A   1      41.519  21.780  28.010  1.00  0.00     0.016 A 
ATOM     41  C   UNL A   1      42.262  23.639  26.062  1.00  0.00     0.010 A 
ATOM     42  C   UNL A   1      42.176  22.949  28.388  1.00  0.00     0.010 A 
ATOM     43  C   UNL A   1      42.512  23.904  27.421  1.00  0.00    -0.014 A 
BRANCH  43  44
ATOM     44  C   UNL A   1      42.897  25.271  27.836  1.00  0.00     0.031 A 
ATOM     45  C   UNL A   1      44.308  25.761  27.767  1.00  0.00     0.074 A 
ATOM     46  C   UNL A   1      41.922  26.064  28.323  1.00  0.00     0.049 A 
ATOM     47  N   UNL A   1      44.761  26.964  28.008  1.00  0.00    -0.248 NA
ATOM     48  C   UNL A   1      45.346  24.789  27.393  1.00  0.00     0.031 C 
ATOM     49  C   UNL A   1      40.528  25.653  28.512  1.00  0.00     0.029 A 
ATOM     50  N   UNL A   1      41.945  27.367  28.746  1.00  0.00    -0.354 N 
ATOM     51  C   UNL A   1      46.133  26.901  27.817  1.00  0.00     0.074 A 
ATOM     52  C   UNL A   1      46.446  25.532  27.461  1.00  0.00     0.031 C 
ATOM     53  C   UNL A   1      39.824  26.691  28.983  1.00  0.00     0.029 A 
ATOM     54  C   UNL A   1      40.716  27.833  29.149  1.00  0.00     0.049 A 
ATOM     55  H   UNL A   1      42.762  27.916  28.760  1.00  0.00     0.167 HD
ATOM     56  C   UNL A   1      47.038  27.903  27.909  1.00  0.00     0.034 A 
ATOM     57  C   UNL A   1      40.341  29.048  29.591  1.00  0.00     0.034 A 
ATOM     58  C   UNL A   1      46.709  29.260  28.256  1.00  0.00     0.049 A 
ATOM     59  C   UNL A   1      41.360  30.145  29.660  1.00  0.00     0.074 A 
ATOM     60  C   UNL A   1      47.550  30.357  28.307  1.00  0.00     0.029 A 
ATOM     61  N   UNL A   1      45.450  29.703  28.629  1.00  0.00    -0.354 N 
ATOM     62  N   UNL A   1      42.628  30.103  29.334  1.00  0.00    -0.248 NA
ATOM     63  C   UNL A   1      40.899  31.460  30.127  1.00  0.00     0.031 C 
ATOM     64  C   UNL A   1      46.804  31.461  28.730  1.00  0.00     0.029 A 
ATOM     65  C   UNL A   1      45.494  31.055  28.919  1.00  0.00     0.049 A 
ATOM     66  H   UNL A   1      44.643  29.140  28.679  1.00  0.00     0.167 HD
ATOM     67  C   UNL A   1      43.113  31.388  29.531  1.00  0.00     0.074 A 
ATOM     68  C   UNL A   1      42.002  32.190  30.001  1.00  0.00     0.031 C 
ATOM     69  C   UNL A   1      44.371  31.853  29.344  1.00  0.00     0.034 A 
BRANCH  56  70
ATOM     70  C   UNL A   1      48.471  27.606  27.565  1.00  0.00     0.023 A 
ATOM     71  C   UNL A   1      49.302  27.033  28.548  1.00  0.00     0.012 A 
ATOM     72  C   UNL A   1      48.952  27.761  26.250  1.00  0.00     0.148 A 
ATOM     73  C   UNL A   1      50.596  26.622  28.230  1.00  0.00     0.002 A 
ATOM     74  C   UNL A   1      50.234  27.326  25.934  1.00  0.00     0.091 A 
ATOM     75  F   UNL A   1      48.143  28.314  25.336  1.00  0.00    -0.205 F 
ATOM     76  C   UNL A   1      51.057  26.759  26.922  1.00  0.00     0.022 A 
BRANCH  74  77
ATOM     77  S   UNL A   1      50.910  27.410  24.273  1.00  0.00     0.127 S 
ATOM     78  O   UNL A   1      51.064  28.853  24.092  1.00  0.00    -0.237 OA
ATOM     79  O   UNL A   1      52.167  26.676  24.415  1.00  0.00    -0.237 OA
ATOM     80  O   UNL A   1      49.926  26.781  23.402  1.00  0.00    -0.744 OA
ENDBRANCH  74  77
ENDBRANCH  56  70
BRANCH  57  81
ATOM     81  C   UNL A   1      38.909  29.285  29.910  1.00  0.00     0.023 A 
ATOM     82  C   UNL A   1      38.452  29.066  31.223  1.00  0.00     0.012 A 
ATOM     83  C   UNL A   1      38.032  29.828  28.951  1.00  0.00     0.148 A 
ATOM     84  C   UNL A   1      37.140  29.381  31.576  1.00  0.00     0.002 A 
ATOM     85  C   UNL A   1      36.738  30.171  29.319  1.00  0.00     0.091 A 
ATOM     86  F   UNL A   1      38.499  30.033  27.712  1.00  0.00    -0.205 F 
ATOM     87  C   UNL A   1      36.287  29.942  30.629  1.00  0.00     0.022 A 
BRANCH  85  88
ATOM     88  S   UNL A   1      35.597  30.990  28.200  1.00  0.00     0.127 S 
ATOM     89  O   UNL A   1      36.389  32.132  27.749  1.00  0.00    -0.237 OA
ATOM     90  O   UNL A   1      35.375  29.955  27.190  1.00  0.00    -0.237 OA
ATOM     91  O   UNL A   1      34.424  31.322  28.999  1.00  0.00    -0.744 OA
ENDBRANCH  85  88
ENDBRANCH  57  81
BRANCH  69  92
ATOM     92  C   UNL A   1      44.643  33.304  29.622  1.00  0.00     0.023 A 
ATOM     93  C   UNL A   1      45.139  33.688  30.881  1.00  0.00     0.012 A 
ATOM     94  C   UNL A   1      44.565  34.253  28.583  1.00  0.00     0.148 A 
ATOM     95  C   UNL A   1      45.559  34.998  31.103  1.00  0.00     0.002 A 
ATOM     96  C   UNL A   1      45.018  35.547  28.800  1.00  0.00     0.091 A 
ATOM     97  F   UNL A   1      44.085  33.857  27.395  1.00  0.00    -0.205 F 
ATOM     98  C   UNL A   1      45.514  35.922  30.061  1.00  0.00     0.022 A 
BRANCH  96  99
ATOM     99  S   UNL A   1      45.070  36.788  27.502  1.00  0.00     0.127 S 
ATOM    100  O   UNL A   1      45.889  37.830  28.121  1.00  0.00    -0.237 OA
ATOM    101  O   UNL A   1      45.724  36.064  26.412  1.00  0.00    -0.237 OA
ATOM    102  O   UNL A   1      43.687  37.165  27.245  1.00  0.00    -0.744 OA
ENDBRANCH  96  99
ENDBRANCH  69  92
ENDBRANCH  43  44
ENDBRANCH  36  38
ENDBRANCH  35  36
ENDBRANCH  34  35
ENDBRANCH  33  34
ENDBRANCH  32  33
ENDBRANCH  31  32
ENDBRANCH  30  31
ENDBRANCH   1  30
TORSDOF 27
ENDMDL
MODEL 2
REMARK VINA RESULT:      -8.2      3.594      5.629
REMARK SMILES CC(C)CSc1cc2c(cc1Cl)C=C(C(=O)OCCOCCOCCOCCOC(=O)c1ccc(-c3c4nc(c(-c5cccc(S(=O)(=O)[O-])c5F)c5ccc([nH]5)c(-c5cccc(S(=O)(=O)[O-])c5F)c5nc(c(-c6cccc(S(=O)(=O)[O-])c6F)c6ccc3[nH]6)C=C5)C=C4)cc1)[C@H](C(F)(F)F)O2
REMARK SMILES IDX 23 1 22 2 21 3 20 4 19 5 18 6 17 7 15 8 16 9 14 10 6 11 7 12
REMARK SMILES IDX 11 13 8 14 10 15 12 16 9 17 100 18 13 19 95 20 5 21 4 22
REMARK SMILES IDX 2 23 1 24 3 25 96 26 97 27 98 28 99 29 24 30 25 31 26 32
REMARK SMILES IDX 27 33 28 34 29 35 30 36 31 37 32 38 33 39 94 40 34 41 93 42
REMARK SMILES IDX 35 43 36 44 37 45 87 46 38 47 92 48 86 49 88 50 39 51 91 52
REMARK SMILES IDX 85 53 84 54 40 56 72 57 52 58 71 59 53 60 56 61 70 62 89 63
REMARK SMILES IDX 54 64 55 65 69 67 90 68 57 69 41 70 42 71 50 72 43 73 45 74
REMARK SMILES IDX 51 75 44 76 46 77 47 78 48 79 49 80 73 81 74 82 82 83 75 84
REMARK SMILES IDX 77 85 83 86 76 87 78 88 79 89 80 90 81 91 58 92 59 93 67 94
REMARK SMILES IDX 60 95 62 96 68 97 61 98 63 99 64 100 65 101 66 102
REMARK H PARENT 88 55 56 66
REMARK Flexibility Score: inf
ROOT
ATOM      1  O   UNL A   1      35.461  23.796  24.431  1.00  0.00    -0.377 OA
ENDROOT
BRANCH   1   2
ATOM      2  C   UNL A   1      34.728  24.580  23.507  1.00  0.00     0.188 C 
BRANCH   2   3
ATOM      3  C   UNL A   1      33.413  24.005  22.968  1.00  0.00     0.188 C 
BRANCH   3   4
ATOM      4  O   UNL A   1      33.180  24.307  21.613  1.00  0.00    -0.376 OA
BRANCH   4   5
ATOM      5  C   UNL A   1      32.735  25.596  21.219  1.00  0.00     0.202 C 
BRANCH   5   6
ATOM      6  C   UNL A   1      32.268  26.711  22.176  1.00  0.00     0.261 C 
BRANCH   6   7
ATOM      7  O   UNL A   1      31.056  26.486  22.907  1.00  0.00    -0.460 OA
BRANCH   7   8
ATOM      8  C   UNL A   1      30.621  27.532  23.640  1.00  0.00     0.338 C 
ATOM      9  O   UNL A   1      29.550  28.110  23.519  1.00  0.00    -0.246 OA
BRANCH   8  10
ATOM     10  C   UNL A   1      31.539  27.828  24.751  1.00  0.00     0.087 C 
ATOM     11  C   UNL A   1      34.731  30.503  27.565  1.00  0.00     0.030 A 
ATOM     12  C   UNL A   1      34.748  29.205  27.025  1.00  0.00     0.063 A 
ATOM     13  C   UNL A   1      33.594  31.305  27.361  1.00  0.00     0.055 A 
ATOM     14  C   UNL A   1      33.657  28.722  26.294  1.00  0.00     0.129 A 
ATOM     15  C   UNL A   1      32.500  30.814  26.645  1.00  0.00     0.033 A 
ATOM     16  Cl  UNL A   1      33.472  32.927  27.962  1.00  0.00    -0.083 Cl
ATOM     17  C   UNL A   1      32.539  29.531  26.096  1.00  0.00     0.019 A 
ATOM     18  O   UNL A   1      33.794  27.482  25.728  1.00  0.00    -0.475 OA
ATOM     19  C   UNL A   1      31.484  29.087  25.205  1.00  0.00     0.027 C 
ATOM     20  C   UNL A   1      32.612  26.849  25.136  1.00  0.00     0.316 C 
BRANCH  11  21
ATOM     21  S   UNL A   1      36.194  31.132  28.389  1.00  0.00    -0.124 SA
BRANCH  21  22
ATOM     22  C   UNL A   1      37.398  29.782  28.121  1.00  0.00     0.078 C 
BRANCH  22  23
ATOM     23  C   UNL A   1      37.561  28.822  29.315  1.00  0.00    -0.007 C 
ATOM     24  C   UNL A   1      38.921  28.123  29.341  1.00  0.00     0.008 C 
ATOM     25  C   UNL A   1      37.383  29.607  30.621  1.00  0.00     0.008 C 
ENDBRANCH  22  23
ENDBRANCH  21  22
ENDBRANCH  11  21
BRANCH  20  26
ATOM     26  C   UNL A   1      32.159  25.701  26.053  1.00  0.00     0.430 C 
ATOM     27  F   UNL A   1      33.237  24.978  26.460  1.00  0.00    -0.167 F 
ATOM     28  F   UNL A   1      31.545  26.150  27.171  1.00  0.00    -0.167 F 
ATOM     29  F   UNL A   1      31.337  24.829  25.433  1.00  0.00    -0.167 F 
ENDBRANCH  20  26
ENDBRANCH   8  10
ENDBRANCH   7   8
ENDBRANCH   6   7
ENDBRANCH   5   6
ENDBRANCH   4   5
ENDBRANCH   3   4
ENDBRANCH   2   3
ENDBRANCH   1   2
BRANCH   1  30
ATOM     30  C   UNL A   1      35.341  22.372  24.388  1.00  0.00     0.188 C 
BRANCH  30  31
ATOM     31  C   UNL A   1      36.595  21.482  24.277  1.00  0.00     0.188 C 
BRANCH  31  32
ATOM     32  O   UNL A   1      37.328  21.169  25.459  1.00  0.00    -0.376 OA
BRANCH  32  33
ATOM     33  C   UNL A   1      38.490  21.931  25.760  1.00  0.00     0.202 C 
BRANCH  33  34
ATOM     34  C   UNL A   1      39.621  21.160  26.429  1.00  0.00     0.261 C 
BRANCH  34  35
ATOM     35  O   UNL A   1      40.770  21.998  26.613  1.00  0.00    -0.460 OA
BRANCH  35  36
ATOM     36  C   UNL A   1      41.914  21.543  26.052  1.00  0.00     0.338 C 
ATOM     37  O   UNL A   1      42.068  20.505  25.430  1.00  0.00    -0.246 OA
BRANCH  36  38
ATOM     38  C   UNL A   1      42.946  22.594  26.157  1.00  0.00     0.060 A 
ATOM     39  C   UNL A   1      42.983  23.663  25.257  1.00  0.00     0.016 A 
ATOM     40  C   UNL A   1      43.864  22.518  27.213  1.00  0.00     0.016 A 
ATOM     41  C   UNL A   1      43.902  24.691  25.458  1.00  0.00     0.010 A 
ATOM     42  C   UNL A   1      44.779  23.549  27.413  1.00  0.00     0.010 A 
ATOM     43  C   UNL A   1      44.774  24.661  26.562  1.00  0.00    -0.014 A 
BRANCH  43  44
ATOM     44  C   UNL A   1      45.495  25.894  26.953  1.00  0.00     0.031 A 
ATOM     45  C   UNL A   1      46.880  26.196  26.477  1.00  0.00     0.074 A 
ATOM     46  C   UNL A   1      44.864  26.733  27.797  1.00  0.00     0.049 A 
ATOM     47  N   UNL A   1      47.582  27.282  26.667  1.00  0.00    -0.248 NA
ATOM     48  C   UNL A   1      47.572  25.156  25.703  1.00  0.00     0.031 C 
ATOM     49  C   UNL A   1      43.545  26.489  28.388  1.00  0.00     0.029 A 
ATOM     50  N   UNL A   1      45.237  27.950  28.307  1.00  0.00    -0.354 N 
ATOM     51  C   UNL A   1      48.800  27.064  26.039  1.00  0.00     0.074 A 
ATOM     52  C   UNL A   1      48.751  25.729  25.479  1.00  0.00     0.031 C 
ATOM     53  C   UNL A   1      43.205  27.536  29.153  1.00  0.00     0.029 A 
ATOM     54  C   UNL A   1      44.287  28.514  29.125  1.00  0.00     0.049 A 
ATOM     55  H   UNL A   1      46.100  28.377  28.106  1.00  0.00     0.167 HD
ATOM     56  C   UNL A   1      49.846  27.913  25.925  1.00  0.00     0.034 A 
ATOM     57  C   UNL A   1      44.278  29.694  29.772  1.00  0.00     0.034 A 
ATOM     58  C   UNL A   1      49.876  29.241  26.481  1.00  0.00     0.049 A 
ATOM     59  C   UNL A   1      45.441  30.626  29.608  1.00  0.00     0.074 A 
ATOM     60  C   UNL A   1      50.867  30.197  26.357  1.00  0.00     0.029 A 
ATOM     61  N   UNL A   1      48.885  29.791  27.279  1.00  0.00    -0.354 N 
ATOM     62  N   UNL A   1      46.523  30.461  28.889  1.00  0.00    -0.248 NA
ATOM     63  C   UNL A   1      45.375  31.911  30.317  1.00  0.00     0.031 C 
ATOM     64  C   UNL A   1      50.485  31.320  27.096  1.00  0.00     0.029 A 
ATOM     65  C   UNL A   1      49.245  31.071  27.660  1.00  0.00     0.049 A 
ATOM     66  H   UNL A   1      48.048  29.339  27.535  1.00  0.00     0.167 HD
ATOM     67  C   UNL A   1      47.257  31.630  29.035  1.00  0.00     0.074 A 
ATOM     68  C   UNL A   1      46.495  32.498  29.908  1.00  0.00     0.031 C 
ATOM     69  C   UNL A   1      48.459  31.944  28.495  1.00  0.00     0.034 A 
BRANCH  56  70
ATOM     70  C   UNL A   1      51.034  27.479  25.112  1.00  0.00     0.023 A 
ATOM     71  C   UNL A   1      51.153  27.932  23.783  1.00  0.00     0.012 A 
ATOM     72  C   UNL A   1      52.087  26.748  25.695  1.00  0.00     0.148 A 
ATOM     73  C   UNL A   1      52.302  27.660  23.042  1.00  0.00     0.002 A 
ATOM     74  C   UNL A   1      53.241  26.503  24.958  1.00  0.00     0.091 A 
ATOM     75  F   UNL A   1      51.947  26.324  26.959  1.00  0.00    -0.205 F 
ATOM     76  C   UNL A   1      53.349  26.957  23.633  1.00  0.00     0.022 A 
BRANCH  74  77
ATOM     77  S   UNL A   1      54.668  25.648  25.636  1.00  0.00     0.127 S 
ATOM     78  O   UNL A   1      54.145  24.292  25.802  1.00  0.00    -0.237 OA
ATOM     79  O   UNL A   1      55.652  25.796  24.565  1.00  0.00    -0.237 OA
ATOM     80  O   UNL A   1      55.001  26.336  26.876  1.00  0.00    -0.744 OA
ENDBRANCH  74  77
ENDBRANCH  56  70
BRANCH  57  81
ATOM     81  C   UNL A   1      43.073  30.073  30.556  1.00  0.00     0.023 A 
ATOM     82  C   UNL A   1      42.076  30.859  29.948  1.00  0.00     0.012 A 
ATOM     83  C   UNL A   1      42.865  29.570  31.855  1.00  0.00     0.148 A 
ATOM     84  C   UNL A   1      40.889  31.140  30.622  1.00  0.00     0.002 A 
ATOM     85  C   UNL A   1      41.665  29.825  32.507  1.00  0.00     0.091 A 
ATOM     86  F   UNL A   1      43.828  28.818  32.404  1.00  0.00    -0.205 F 
ATOM     87  C   UNL A   1      40.679  30.617  31.897  1.00  0.00     0.022 A 
BRANCH  85  88
ATOM     88  S   UNL A   1      41.260  29.115  34.105  1.00  0.00     0.127 S 
ATOM     89  O   UNL A   1      42.203  29.803  34.985  1.00  0.00    -0.237 OA
ATOM     90  O   UNL A   1      39.863  29.516  34.264  1.00  0.00    -0.237 OA
ATOM     91  O   UNL A   1      41.470  27.680  33.968  1.00  0.00    -0.744 OA
ENDBRANCH  85  88
ENDBRANCH  57  81
BRANCH  69  92
ATOM     92  C   UNL A   1      49.046  33.292  28.800  1.00  0.00     0.023 A 
ATOM     93  C   UNL A   1      48.684  34.400  28.012  1.00  0.00     0.012 A 
ATOM     94  C   UNL A   1      49.817  33.484  29.963  1.00  0.00     0.148 A 
ATOM     95  C   UNL A   1      49.079  35.685  28.381  1.00  0.00     0.002 A 
ATOM     96  C   UNL A   1      50.178  34.769  30.343  1.00  0.00     0.091 A 
ATOM     97  F   UNL A   1      50.148  32.408  30.691  1.00  0.00    -0.205 F 
ATOM     98  C   UNL A   1      49.811  35.872  29.552  1.00  0.00     0.022 A 
BRANCH  96  99
ATOM     99  S   UNL A   1      51.054  35.120  31.872  1.00  0.00     0.127 S 
ATOM    100  O   UNL A   1      50.138  34.572  32.872  1.00  0.00    -0.237 OA
ATOM    101  O   UNL A   1      52.292  34.362  31.696  1.00  0.00    -0.237 OA
ATOM    102  O   UNL A   1      51.222  36.566  31.921  1.00  0.00    -0.744 OA
ENDBRANCH  96  99
ENDBRANCH  69  92
ENDBRANCH  43  44
ENDBRANCH  36  38
ENDBRANCH  35  36
ENDBRANCH  34  35
ENDBRANCH  33  34
ENDBRANCH  32  33
ENDBRANCH  31  32
ENDBRANCH  30  31
ENDBRANCH   1  30
TORSDOF 27
ENDMDL
MODEL 3
REMARK VINA RESULT:      -8.1      7.938     13.888
REMARK SMILES CC(C)CSc1cc2c(cc1Cl)C=C(C(=O)OCCOCCOCCOCCOC(=O)c1ccc(-c3c4nc(c(-c5cccc(S(=O)(=O)[O-])c5F)c5ccc([nH]5)c(-c5cccc(S(=O)(=O)[O-])c5F)c5nc(c(-c6cccc(S(=O)(=O)[O-])c6F)c6ccc3[nH]6)C=C5)C=C4)cc1)[C@H](C(F)(F)F)O2
REMARK SMILES IDX 23 1 22 2 21 3 20 4 19 5 18 6 17 7 15 8 16 9 14 10 6 11 7 12
REMARK SMILES IDX 11 13 8 14 10 15 12 16 9 17 100 18 13 19 95 20 5 21 4 22
REMARK SMILES IDX 2 23 1 24 3 25 96 26 97 27 98 28 99 29 24 30 25 31 26 32
REMARK SMILES IDX 27 33 28 34 29 35 30 36 31 37 32 38 33 39 94 40 34 41 93 42
REMARK SMILES IDX 35 43 36 44 37 45 87 46 38 47 92 48 86 49 88 50 39 51 91 52
REMARK SMILES IDX 85 53 84 54 40 56 72 57 52 58 71 59 53 60 56 61 70 62 89 63
REMARK SMILES IDX 54 64 55 65 69 67 90 68 57 69 41 70 42 71 50 72 43 73 45 74
REMARK SMILES IDX 51 75 44 76 46 77 47 78 48 79 49 80 73 81 74 82 82 83 75 84
REMARK SMILES IDX 77 85 83 86 76 87 78 88 79 89 80 90 81 91 58 92 59 93 67 94
REMARK SMILES IDX 60 95 62 96 68 97 61 98 63 99 64 100 65 101 66 102
REMARK H PARENT 88 55 56 66
REMARK Flexibility Score: inf
ROOT
ATOM      1  O   UNL A   1      54.082  26.390  33.214  1.00  0.00    -0.377 OA
ENDROOT
BRANCH   1   2
ATOM      2  C   UNL A   1      54.331  25.043  33.572  1.00  0.00     0.188 C 
BRANCH   2   3
ATOM      3  C   UNL A   1      53.367  23.975  33.044  1.00  0.00     0.188 C 
BRANCH   3   4
ATOM      4  O   UNL A   1      52.120  24.490  32.643  1.00  0.00    -0.376 OA
BRANCH   4   5
ATOM      5  C   UNL A   1      51.001  23.637  32.462  1.00  0.00     0.202 C 
BRANCH   5   6
ATOM      6  C   UNL A   1      50.012  23.214  33.568  1.00  0.00     0.261 C 
BRANCH   6   7
ATOM      7  O   UNL A   1      50.301  22.004  34.280  1.00  0.00    -0.460 OA
BRANCH   7   8
ATOM      8  C   UNL A   1      49.450  20.982  34.049  1.00  0.00     0.338 C 
ATOM      9  O   UNL A   1      49.454  20.238  33.079  1.00  0.00    -0.246 OA
BRANCH   8  10
ATOM     10  C   UNL A   1      48.572  20.742  35.205  1.00  0.00     0.087 C 
ATOM     11  C   UNL A   1      47.018  18.690  39.522  1.00  0.00     0.030 A 
ATOM     12  C   UNL A   1      46.414  18.933  38.276  1.00  0.00     0.063 A 
ATOM     13  C   UNL A   1      48.345  19.110  39.723  1.00  0.00     0.055 A 
ATOM     14  C   UNL A   1      47.120  19.575  37.254  1.00  0.00     0.129 A 
ATOM     15  C   UNL A   1      49.042  19.767  38.706  1.00  0.00     0.033 A 
ATOM     16  Cl  UNL A   1      49.196  18.845  41.210  1.00  0.00    -0.083 Cl
ATOM     17  C   UNL A   1      48.437  19.982  37.466  1.00  0.00     0.019 A 
ATOM     18  O   UNL A   1      46.487  19.690  36.044  1.00  0.00    -0.475 OA
ATOM     19  C   UNL A   1      49.213  20.499  36.356  1.00  0.00     0.027 C 
ATOM     20  C   UNL A   1      47.097  20.535  35.014  1.00  0.00     0.316 C 
BRANCH  11  21
ATOM     21  S   UNL A   1      46.126  17.755  40.765  1.00  0.00    -0.124 SA
BRANCH  21  22
ATOM     22  C   UNL A   1      45.313  16.460  39.763  1.00  0.00     0.078 C 
BRANCH  22  23
ATOM     23  C   UNL A   1      43.986  15.937  40.347  1.00  0.00    -0.007 C 
ATOM     24  C   UNL A   1      43.866  16.160  41.855  1.00  0.00     0.008 C 
ATOM     25  C   UNL A   1      42.816  16.641  39.648  1.00  0.00     0.008 C 
ENDBRANCH  22  23
ENDBRANCH  21  22
ENDBRANCH  11  21
BRANCH  20  26
ATOM     26  C   UNL A   1      46.263  21.820  34.875  1.00  0.00     0.430 C 
ATOM     27  F   UNL A   1      47.085  22.897  34.751  1.00  0.00    -0.167 F 
ATOM     28  F   UNL A   1      45.473  21.802  33.778  1.00  0.00    -0.167 F 
ATOM     29  F   UNL A   1      45.492  22.062  35.955  1.00  0.00    -0.167 F 
ENDBRANCH  20  26
ENDBRANCH   8  10
ENDBRANCH   7   8
ENDBRANCH   6   7
ENDBRANCH   5   6
ENDBRANCH   4   5
ENDBRANCH   3   4
ENDBRANCH   2   3
ENDBRANCH   1   2
BRANCH   1  30
ATOM     30  C   UNL A   1      53.742  27.333  34.234  1.00  0.00     0.188 C 
BRANCH  30  31
ATOM     31  C   UNL A   1      53.710  26.908  35.716  1.00  0.00     0.188 C 
BRANCH  31  32
ATOM     32  O   UNL A   1      52.526  26.310  36.239  1.00  0.00    -0.376 OA
BRANCH  32  33
ATOM     33  C   UNL A   1      51.319  26.430  35.497  1.00  0.00     0.202 C 
BRANCH  33  34
ATOM     34  C   UNL A   1      50.037  26.306  36.312  1.00  0.00     0.261 C 
BRANCH  34  35
ATOM     35  O   UNL A   1      48.905  26.107  35.454  1.00  0.00    -0.460 OA
BRANCH  35  36
ATOM     36  C   UNL A   1      47.798  25.623  36.061  1.00  0.00     0.338 C 
ATOM     37  O   UNL A   1      47.751  24.821  36.980  1.00  0.00    -0.246 OA
BRANCH  36  38
ATOM     38  C   UNL A   1      46.619  26.352  35.552  1.00  0.00     0.060 A 
ATOM     39  C   UNL A   1      46.739  27.638  35.020  1.00  0.00     0.016 A 
ATOM     40  C   UNL A   1      45.378  25.701  35.573  1.00  0.00     0.016 A 
ATOM     41  C   UNL A   1      45.623  28.247  34.448  1.00  0.00     0.010 A 
ATOM     42  C   UNL A   1      44.264  26.310  34.998  1.00  0.00     0.010 A 
ATOM     43  C   UNL A   1      44.391  27.567  34.395  1.00  0.00    -0.014 A 
BRANCH  43  44
ATOM     44  C   UNL A   1      43.323  28.069  33.502  1.00  0.00     0.031 A 
ATOM     45  C   UNL A   1      43.228  27.669  32.064  1.00  0.00     0.074 A 
ATOM     46  C   UNL A   1      42.442  28.943  34.027  1.00  0.00     0.049 A 
ATOM     47  N   UNL A   1      42.289  27.959  31.203  1.00  0.00    -0.248 NA
ATOM     48  C   UNL A   1      44.321  26.853  31.514  1.00  0.00     0.031 C 
ATOM     49  C   UNL A   1      42.497  29.463  35.396  1.00  0.00     0.029 A 
ATOM     50  N   UNL A   1      41.338  29.548  33.485  1.00  0.00    -0.354 N 
ATOM     51  C   UNL A   1      42.669  27.366  30.008  1.00  0.00     0.074 A 
ATOM     52  C   UNL A   1      43.941  26.715  30.248  1.00  0.00     0.031 C 
ATOM     53  C   UNL A   1      41.456  30.284  35.597  1.00  0.00     0.029 A 
ATOM     54  C   UNL A   1      40.673  30.365  34.369  1.00  0.00     0.049 A 
ATOM     55  H   UNL A   1      41.049  29.410  32.554  1.00  0.00     0.167 HD
ATOM     56  C   UNL A   1      42.001  27.351  28.832  1.00  0.00     0.034 A 
ATOM     57  C   UNL A   1      39.549  31.089  34.216  1.00  0.00     0.034 A 
ATOM     58  C   UNL A   1      40.734  27.997  28.612  1.00  0.00     0.049 A 
ATOM     59  C   UNL A   1      38.817  31.034  32.909  1.00  0.00     0.074 A 
ATOM     60  C   UNL A   1      39.951  27.976  27.472  1.00  0.00     0.029 A 
ATOM     61  N   UNL A   1      40.074  28.790  29.537  1.00  0.00    -0.354 N 
ATOM     62  N   UNL A   1      39.117  30.348  31.834  1.00  0.00    -0.248 NA
ATOM     63  C   UNL A   1      37.584  31.825  32.797  1.00  0.00     0.031 C 
ATOM     64  C   UNL A   1      38.826  28.774  27.700  1.00  0.00     0.029 A 
ATOM     65  C   UNL A   1      38.898  29.271  28.991  1.00  0.00     0.049 A 
ATOM     66  H   UNL A   1      40.395  28.982  30.449  1.00  0.00     0.167 HD
ATOM     67  C   UNL A   1      38.099  30.601  30.926  1.00  0.00     0.074 A 
ATOM     68  C   UNL A   1      37.169  31.501  31.577  1.00  0.00     0.031 C 
ATOM     69  C   UNL A   1      37.958  30.131  29.664  1.00  0.00     0.034 A 
BRANCH  56  70
ATOM     70  C   UNL A   1      42.578  26.558  27.692  1.00  0.00     0.023 A 
ATOM     71  C   UNL A   1      43.422  27.207  26.769  1.00  0.00     0.012 A 
ATOM     72  C   UNL A   1      42.403  25.162  27.614  1.00  0.00     0.148 A 
ATOM     73  C   UNL A   1      44.080  26.480  25.778  1.00  0.00     0.002 A 
ATOM     74  C   UNL A   1      43.082  24.440  26.639  1.00  0.00     0.091 A 
ATOM     75  F   UNL A   1      41.591  24.570  28.501  1.00  0.00    -0.205 F 
ATOM     76  C   UNL A   1      43.919  25.097  25.721  1.00  0.00     0.022 A 
BRANCH  74  77
ATOM     77  S   UNL A   1      42.985  22.652  26.504  1.00  0.00     0.127 S 
ATOM     78  O   UNL A   1      42.483  22.488  25.140  1.00  0.00    -0.237 OA
ATOM     79  O   UNL A   1      44.379  22.253  26.693  1.00  0.00    -0.237 OA
ATOM     80  O   UNL A   1      42.074  22.216  27.553  1.00  0.00    -0.744 OA
ENDBRANCH  74  77
ENDBRANCH  56  70
BRANCH  57  81
ATOM     81  C   UNL A   1      39.022  31.849  35.380  1.00  0.00     0.023 A 
ATOM     82  C   UNL A   1      38.115  31.224  36.255  1.00  0.00     0.012 A 
ATOM     83  C   UNL A   1      39.497  33.141  35.678  1.00  0.00     0.148 A 
ATOM     84  C   UNL A   1      37.686  31.874  37.412  1.00  0.00     0.002 A 
ATOM     85  C   UNL A   1      39.093  33.769  36.849  1.00  0.00     0.091 A 
ATOM     86  F   UNL A   1      40.366  33.706  34.830  1.00  0.00    -0.205 F 
ATOM     87  C   UNL A   1      38.181  33.141  37.714  1.00  0.00     0.022 A 
BRANCH  85  88
ATOM     88  S   UNL A   1      39.749  35.354  37.376  1.00  0.00     0.127 S 
ATOM     89  O   UNL A   1      38.990  35.599  38.600  1.00  0.00    -0.237 OA
ATOM     90  O   UNL A   1      41.163  35.040  37.579  1.00  0.00    -0.237 OA
ATOM     91  O   UNL A   1      39.483  36.279  36.282  1.00  0.00    -0.744 OA
ENDBRANCH  85  88
ENDBRANCH  57  81
BRANCH  69  92
ATOM     92  C   UNL A   1      36.747  30.550  28.879  1.00  0.00     0.023 A 
ATOM     93  C   UNL A   1      35.864  29.570  28.391  1.00  0.00     0.012 A 
ATOM     94  C   UNL A   1      36.406  31.913  28.774  1.00  0.00     0.148 A 
ATOM     95  C   UNL A   1      34.651  29.940  27.813  1.00  0.00     0.002 A 
ATOM     96  C   UNL A   1      35.181  32.273  28.229  1.00  0.00     0.091 A 
ATOM     97  F   UNL A   1      37.270  32.824  29.245  1.00  0.00    -0.205 F 
ATOM     98  C   UNL A   1      34.303  31.288  27.745  1.00  0.00     0.022 A 
BRANCH  96  99
ATOM     99  S   UNL A   1      34.609  33.975  28.166  1.00  0.00     0.127 S 
ATOM    100  O   UNL A   1      33.166  33.798  28.007  1.00  0.00    -0.237 OA
ATOM    101  O   UNL A   1      35.022  34.486  29.473  1.00  0.00    -0.237 OA
ATOM    102  O   UNL A   1      35.281  34.587  27.028  1.00  0.00    -0.744 OA
ENDBRANCH  96  99
ENDBRANCH  69  92
ENDBRANCH  43  44
ENDBRANCH  36  38
ENDBRANCH  35  36
ENDBRANCH  34  35
ENDBRANCH  33  34
ENDBRANCH  32  33
ENDBRANCH  31  32
ENDBRANCH  30  31
ENDBRANCH   1  30
TORSDOF 27
ENDMDL
