MODEL 1
REMARK VINA RESULT:      -5.4      0.000      0.000
REMARK SMILES C[C@H](c1cccc(-c2cc(C(=O)OCCOCCOCCOCCOC(=O)c3ccc(-c4c5nc(c(-c6cccc(S(=O)(=O)[O-])c6F)c6ccc([nH]6)c(-c6cccc(S(=O)(=O)[O-])c6F)c6nc(c(-c7cccc(S(=O)(=O)[O-])c7F)c7ccc4[nH]7)C=C6)C=C5)cc3)cc(S(=O)(=O)N3CCOCC3)c2)c1)[NH+](C)C
REMARK SMILES IDX 19 1 18 2 17 3 16 4 15 5 14 6 13 7 11 8 12 9 10 10 8 11 9 12
REMARK SMILES IDX 102 13 92 14 91 15 7 16 3 17 4 18 103 19 5 20 6 21 2 22 1 23
REMARK SMILES IDX 104 24 105 25 106 26 93 28 94 29 95 30 96 31 97 32 101 33
REMARK SMILES IDX 98 34 100 35 99 36 20 37 21 38 22 39 23 40 24 41 25 42 26 43
REMARK SMILES IDX 27 44 28 45 29 46 90 47 30 48 89 49 31 50 32 51 33 52 83 53
REMARK SMILES IDX 34 54 88 55 82 56 84 57 35 58 87 59 81 60 80 61 36 63 68 64
REMARK SMILES IDX 48 65 67 66 49 67 52 68 66 69 85 70 50 71 51 72 65 74 86 75
REMARK SMILES IDX 53 76 37 77 38 78 46 79 39 80 41 81 47 82 40 83 42 84 43 85
REMARK SMILES IDX 44 86 45 87 69 88 70 89 78 90 71 91 73 92 79 93 72 94 74 95
REMARK SMILES IDX 75 96 76 97 77 98 54 99 55 100 63 101 56 102 58 103 64 104
REMARK SMILES IDX 57 105 59 106 60 107 61 108 62 109
REMARK H PARENT 104 27 84 62 52 73
REMARK Flexibility Score: inf
ROOT
ATOM      1  O   UNL A   1      47.482  29.246  26.157  1.00  0.00    -0.377 OA
ENDROOT
BRANCH   1   2
ATOM      2  C   UNL A   1      46.968  29.749  27.373  1.00  0.00     0.188 C 
BRANCH   2   3
ATOM      3  C   UNL A   1      46.005  30.950  27.345  1.00  0.00     0.188 C 
BRANCH   3   4
ATOM      4  O   UNL A   1      45.271  31.148  28.547  1.00  0.00    -0.376 OA
BRANCH   4   5
ATOM      5  C   UNL A   1      43.944  31.641  28.394  1.00  0.00     0.202 C 
BRANCH   5   6
ATOM      6  C   UNL A   1      42.995  30.687  27.661  1.00  0.00     0.261 C 
BRANCH   6   7
ATOM      7  O   UNL A   1      43.182  29.306  27.998  1.00  0.00    -0.460 OA
BRANCH   7   8
ATOM      8  C   UNL A   1      43.375  28.422  26.994  1.00  0.00     0.338 C 
ATOM      9  O   UNL A   1      43.564  28.665  25.817  1.00  0.00    -0.246 OA
BRANCH   8  10
ATOM     10  C   UNL A   1      43.638  27.123  27.658  1.00  0.00     0.062 A 
ATOM     11  C   UNL A   1      44.061  25.999  29.767  1.00  0.00    -0.016 A 
ATOM     12  C   UNL A   1      44.115  27.152  28.979  1.00  0.00     0.024 A 
ATOM     13  C   UNL A   1      43.539  24.829  29.202  1.00  0.00     0.030 A 
ATOM     14  C   UNL A   1      43.186  24.767  27.855  1.00  0.00     0.084 A 
ATOM     15  C   UNL A   1      43.226  25.919  27.071  1.00  0.00     0.037 A 
BRANCH  11  16
ATOM     16  C   UNL A   1      44.652  25.942  31.104  1.00  0.00    -0.018 A 
ATOM     17  C   UNL A   1      44.307  26.388  33.504  1.00  0.00     0.010 A 
ATOM     18  C   UNL A   1      45.627  25.974  33.734  1.00  0.00     0.010 A 
ATOM     19  C   UNL A   1      43.865  26.386  32.178  1.00  0.00     0.018 A 
ATOM     20  C   UNL A   1      46.446  25.558  32.675  1.00  0.00     0.001 A 
ATOM     21  C   UNL A   1      45.958  25.531  31.365  1.00  0.00     0.009 A 
BRANCH  17  22
ATOM     22  C   UNL A   1      43.435  26.926  34.641  1.00  0.00     0.211 C 
ATOM     23  C   UNL A   1      41.996  27.127  34.131  1.00  0.00     0.081 C 
BRANCH  22  24
ATOM     24  N   UNL A   1      43.564  26.213  35.942  1.00  0.00    -0.334 N 
ATOM     25  C   UNL A   1      42.755  26.844  36.988  1.00  0.00     0.333 C 
ATOM     26  C   UNL A   1      43.282  24.778  35.932  1.00  0.00     0.333 C 
ATOM     27  H   UNL A   1      44.561  26.298  36.142  1.00  0.00     0.348 HD
ENDBRANCH  22  24
ENDBRANCH  17  22
ENDBRANCH  11  16
BRANCH  14  28
ATOM     28  S   UNL A   1      42.743  23.208  27.117  1.00  0.00     0.243 S 
ATOM     29  O   UNL A   1      42.532  22.281  28.205  1.00  0.00    -0.207 OA
ATOM     30  O   UNL A   1      41.736  23.505  26.124  1.00  0.00    -0.207 OA
BRANCH  28  31
ATOM     31  N   UNL A   1      44.117  22.742  26.278  1.00  0.00    -0.193 NA
ATOM     32  C   UNL A   1      45.485  23.032  26.747  1.00  0.00     0.131 C 
ATOM     33  C   UNL A   1      44.049  22.053  24.982  1.00  0.00     0.131 C 
ATOM     34  C   UNL A   1      46.300  23.721  25.643  1.00  0.00     0.177 C 
ATOM     35  C   UNL A   1      44.862  22.852  23.960  1.00  0.00     0.177 C 
ATOM     36  O   UNL A   1      46.222  23.032  24.383  1.00  0.00    -0.379 OA
ENDBRANCH  28  31
ENDBRANCH  14  28
ENDBRANCH   8  10
ENDBRANCH   7   8
ENDBRANCH   6   7
ENDBRANCH   5   6
ENDBRANCH   4   5
ENDBRANCH   3   4
ENDBRANCH   2   3
ENDBRANCH   1   2
BRANCH   1  37
ATOM     37  C   UNL A   1      46.836  28.150  25.523  1.00  0.00     0.188 C 
BRANCH  37  38
ATOM     38  C   UNL A   1      46.988  27.919  24.004  1.00  0.00     0.188 C 
BRANCH  38  39
ATOM     39  O   UNL A   1      47.647  26.713  23.632  1.00  0.00    -0.376 OA
BRANCH  39  40
ATOM     40  C   UNL A   1      48.715  26.297  24.471  1.00  0.00     0.202 C 
BRANCH  40  41
ATOM     41  C   UNL A   1      50.016  27.087  24.288  1.00  0.00     0.261 C 
BRANCH  41  42
ATOM     42  O   UNL A   1      50.418  27.867  25.422  1.00  0.00    -0.460 OA
BRANCH  42  43
ATOM     43  C   UNL A   1      51.209  27.270  26.341  1.00  0.00     0.338 C 
ATOM     44  O   UNL A   1      52.306  26.774  26.162  1.00  0.00    -0.246 OA
BRANCH  43  45
ATOM     45  C   UNL A   1      50.591  27.492  27.660  1.00  0.00     0.060 A 
ATOM     46  C   UNL A   1      51.181  28.407  28.543  1.00  0.00     0.016 A 
ATOM     47  C   UNL A   1      49.415  26.823  28.004  1.00  0.00     0.016 A 
ATOM     48  C   UNL A   1      50.600  28.638  29.789  1.00  0.00     0.010 A 
ATOM     49  C   UNL A   1      48.847  27.041  29.259  1.00  0.00     0.010 A 
ATOM     50  C   UNL A   1      49.451  27.929  30.165  1.00  0.00    -0.014 A 
BRANCH  50  51
ATOM     51  C   UNL A   1      48.968  27.984  31.562  1.00  0.00     0.031 A 
ATOM     52  C   UNL A   1      49.501  26.980  32.544  1.00  0.00     0.074 A 
ATOM     53  C   UNL A   1      48.042  28.880  31.943  1.00  0.00     0.049 A 
ATOM     54  N   UNL A   1      49.194  26.807  33.801  1.00  0.00    -0.248 NA
ATOM     55  C   UNL A   1      50.513  26.041  32.033  1.00  0.00     0.031 C 
ATOM     56  C   UNL A   1      47.435  29.888  31.076  1.00  0.00     0.029 A 
ATOM     57  N   UNL A   1      47.423  29.056  33.155  1.00  0.00    -0.354 N 
ATOM     58  C   UNL A   1      49.956  25.729  34.229  1.00  0.00     0.074 A 
ATOM     59  C   UNL A   1      50.728  25.275  33.092  1.00  0.00     0.031 C 
ATOM     60  C   UNL A   1      46.498  30.553  31.775  1.00  0.00     0.029 A 
ATOM     61  C   UNL A   1      46.427  30.003  33.128  1.00  0.00     0.049 A 
ATOM     62  H   UNL A   1      47.668  28.553  33.965  1.00  0.00     0.167 HD
ATOM     63  C   UNL A   1      50.023  25.172  35.462  1.00  0.00     0.034 A 
ATOM     64  C   UNL A   1      45.541  30.362  34.078  1.00  0.00     0.034 A 
ATOM     65  C   UNL A   1      49.254  25.621  36.590  1.00  0.00     0.049 A 
ATOM     66  C   UNL A   1      45.609  29.711  35.436  1.00  0.00     0.074 A 
ATOM     67  C   UNL A   1      49.290  25.164  37.894  1.00  0.00     0.029 A 
ATOM     68  N   UNL A   1      48.288  26.616  36.541  1.00  0.00    -0.354 N 
ATOM     69  N   UNL A   1      46.439  28.793  35.872  1.00  0.00    -0.248 NA
ATOM     70  C   UNL A   1      44.639  30.167  36.442  1.00  0.00     0.031 C 
ATOM     71  C   UNL A   1      48.324  25.862  38.629  1.00  0.00     0.029 A 
ATOM     72  C   UNL A   1      47.705  26.772  37.787  1.00  0.00     0.049 A 
ATOM     73  H   UNL A   1      48.052  27.134  35.738  1.00  0.00     0.167 HD
ATOM     74  C   UNL A   1      46.106  28.577  37.206  1.00  0.00     0.074 A 
ATOM     75  C   UNL A   1      45.016  29.481  37.514  1.00  0.00     0.031 C 
ATOM     76  C   UNL A   1      46.644  27.701  38.092  1.00  0.00     0.034 A 
BRANCH  63  77
ATOM     77  C   UNL A   1      50.984  24.029  35.648  1.00  0.00     0.023 A 
ATOM     78  C   UNL A   1      52.313  24.294  36.038  1.00  0.00     0.012 A 
ATOM     79  C   UNL A   1      50.575  22.697  35.448  1.00  0.00     0.148 A 
ATOM     80  C   UNL A   1      53.230  23.255  36.187  1.00  0.00     0.002 A 
ATOM     81  C   UNL A   1      51.484  21.663  35.641  1.00  0.00     0.091 A 
ATOM     82  F   UNL A   1      49.316  22.465  35.048  1.00  0.00    -0.205 F 
ATOM     83  C   UNL A   1      52.815  21.940  35.997  1.00  0.00     0.022 A 
BRANCH  81  84
ATOM     84  S   UNL A   1      51.020  19.934  35.489  1.00  0.00     0.127 S 
ATOM     85  O   UNL A   1      52.219  19.262  35.987  1.00  0.00    -0.237 OA
ATOM     86  O   UNL A   1      49.860  19.846  36.377  1.00  0.00    -0.237 OA
ATOM     87  O   UNL A   1      50.719  19.727  34.080  1.00  0.00    -0.744 OA
ENDBRANCH  81  84
ENDBRANCH  63  77
BRANCH  64  88
ATOM     88  C   UNL A   1      44.528  31.412  33.778  1.00  0.00     0.023 A 
ATOM     89  C   UNL A   1      44.835  32.765  34.021  1.00  0.00     0.012 A 
ATOM     90  C   UNL A   1      43.282  31.078  33.213  1.00  0.00     0.148 A 
ATOM     91  C   UNL A   1      43.911  33.766  33.720  1.00  0.00     0.002 A 
ATOM     92  C   UNL A   1      42.388  32.084  32.867  1.00  0.00     0.091 A 
ATOM     93  F   UNL A   1      43.006  29.783  33.006  1.00  0.00    -0.205 F 
ATOM     94  C   UNL A   1      42.694  33.428  33.133  1.00  0.00     0.022 A 
BRANCH  92  95
ATOM     95  S   UNL A   1      40.851  31.759  31.996  1.00  0.00     0.127 S 
ATOM     96  O   UNL A   1      40.072  31.061  33.015  1.00  0.00    -0.237 OA
ATOM     97  O   UNL A   1      40.392  33.115  31.692  1.00  0.00    -0.237 OA
ATOM     98  O   UNL A   1      41.217  30.966  30.832  1.00  0.00    -0.744 OA
ENDBRANCH  92  95
ENDBRANCH  64  88
BRANCH  76  99
ATOM     99  C   UNL A   1      46.073  27.673  39.487  1.00  0.00     0.023 A 
ATOM    100  C   UNL A   1      45.074  26.736  39.813  1.00  0.00     0.012 A 
ATOM    101  C   UNL A   1      46.582  28.518  40.494  1.00  0.00     0.148 A 
ATOM    102  C   UNL A   1      44.569  26.658  41.110  1.00  0.00     0.002 A 
ATOM    103  C   UNL A   1      46.107  28.403  41.796  1.00  0.00     0.091 A 
ATOM    104  F   UNL A   1      47.521  29.415  40.163  1.00  0.00    -0.205 F 
ATOM    105  C   UNL A   1      45.093  27.482  42.103  1.00  0.00     0.022 A 
BRANCH 103 106
ATOM    106  S   UNL A   1      46.788  29.355  43.159  1.00  0.00     0.127 S 
ATOM    107  O   UNL A   1      46.002  28.862  44.289  1.00  0.00    -0.237 OA
ATOM    108  O   UNL A   1      48.190  28.937  43.162  1.00  0.00    -0.237 OA
ATOM    109  O   UNL A   1      46.576  30.755  42.816  1.00  0.00    -0.744 OA
ENDBRANCH 103 106
ENDBRANCH  76  99
ENDBRANCH  50  51
ENDBRANCH  43  45
ENDBRANCH  42  43
ENDBRANCH  41  42
ENDBRANCH  40  41
ENDBRANCH  39  40
ENDBRANCH  38  39
ENDBRANCH  37  38
ENDBRANCH   1  37
TORSDOF 28
ENDMDL
MODEL 2
REMARK VINA RESULT:      -5.4      4.373     12.801
REMARK SMILES C[C@H](c1cccc(-c2cc(C(=O)OCCOCCOCCOCCOC(=O)c3ccc(-c4c5nc(c(-c6cccc(S(=O)(=O)[O-])c6F)c6ccc([nH]6)c(-c6cccc(S(=O)(=O)[O-])c6F)c6nc(c(-c7cccc(S(=O)(=O)[O-])c7F)c7ccc4[nH]7)C=C6)C=C5)cc3)cc(S(=O)(=O)N3CCOCC3)c2)c1)[NH+](C)C
REMARK SMILES IDX 19 1 18 2 17 3 16 4 15 5 14 6 13 7 11 8 12 9 10 10 8 11 9 12
REMARK SMILES IDX 102 13 92 14 91 15 7 16 3 17 4 18 103 19 5 20 6 21 2 22 1 23
REMARK SMILES IDX 104 24 105 25 106 26 93 28 94 29 95 30 96 31 97 32 101 33
REMARK SMILES IDX 98 34 100 35 99 36 20 37 21 38 22 39 23 40 24 41 25 42 26 43
REMARK SMILES IDX 27 44 28 45 29 46 90 47 30 48 89 49 31 50 32 51 33 52 83 53
REMARK SMILES IDX 34 54 88 55 82 56 84 57 35 58 87 59 81 60 80 61 36 63 68 64
REMARK SMILES IDX 48 65 67 66 49 67 52 68 66 69 85 70 50 71 51 72 65 74 86 75
REMARK SMILES IDX 53 76 37 77 38 78 46 79 39 80 41 81 47 82 40 83 42 84 43 85
REMARK SMILES IDX 44 86 45 87 69 88 70 89 78 90 71 91 73 92 79 93 72 94 74 95
REMARK SMILES IDX 75 96 76 97 77 98 54 99 55 100 63 101 56 102 58 103 64 104
REMARK SMILES IDX 57 105 59 106 60 107 61 108 62 109
REMARK H PARENT 104 27 84 62 52 73
REMARK Flexibility Score: inf
ROOT
ATOM      1  O   UNL A   1      49.383  31.916  36.259  1.00  0.00    -0.377 OA
ENDROOT
BRANCH   1   2
ATOM      2  C   UNL A   1      50.307  32.957  36.018  1.00  0.00     0.188 C 
BRANCH   2   3
ATOM      3  C   UNL A   1      50.219  33.754  34.703  1.00  0.00     0.188 C 
BRANCH   3   4
ATOM      4  O   UNL A   1      49.649  35.050  34.833  1.00  0.00    -0.376 OA
BRANCH   4   5
ATOM      5  C   UNL A   1      48.386  35.244  34.205  1.00  0.00     0.202 C 
BRANCH   5   6
ATOM      6  C   UNL A   1      47.990  36.713  34.023  1.00  0.00     0.261 C 
BRANCH   6   7
ATOM      7  O   UNL A   1      46.594  36.971  34.232  1.00  0.00    -0.460 OA
BRANCH   7   8
ATOM      8  C   UNL A   1      45.849  37.361  33.175  1.00  0.00     0.338 C 
ATOM      9  O   UNL A   1      46.127  38.204  32.342  1.00  0.00    -0.246 OA
BRANCH   8  10
ATOM     10  C   UNL A   1      44.785  36.339  33.043  1.00  0.00     0.062 A 
ATOM     11  C   UNL A   1      42.558  35.662  33.734  1.00  0.00    -0.016 A 
ATOM     12  C   UNL A   1      43.745  36.357  33.988  1.00  0.00     0.024 A 
ATOM     13  C   UNL A   1      42.447  34.948  32.535  1.00  0.00     0.030 A 
ATOM     14  C   UNL A   1      43.525  34.825  31.660  1.00  0.00     0.084 A 
ATOM     15  C   UNL A   1      44.704  35.527  31.903  1.00  0.00     0.037 A 
BRANCH  11  16
ATOM     16  C   UNL A   1      41.495  35.549  34.732  1.00  0.00    -0.018 A 
ATOM     17  C   UNL A   1      39.418  34.385  35.371  1.00  0.00     0.010 A 
ATOM     18  C   UNL A   1      39.336  35.222  36.493  1.00  0.00     0.010 A 
ATOM     19  C   UNL A   1      40.491  34.596  34.500  1.00  0.00     0.018 A 
ATOM     20  C   UNL A   1      40.308  36.205  36.730  1.00  0.00     0.001 A 
ATOM     21  C   UNL A   1      41.390  36.362  35.859  1.00  0.00     0.009 A 
BRANCH  17  22
ATOM     22  C   UNL A   1      38.317  33.369  35.057  1.00  0.00     0.211 C 
ATOM     23  C   UNL A   1      37.966  32.583  36.334  1.00  0.00     0.081 C 
BRANCH  22  24
ATOM     24  N   UNL A   1      37.157  33.897  34.286  1.00  0.00    -0.334 N 
ATOM     25  C   UNL A   1      37.003  33.208  33.002  1.00  0.00     0.333 C 
ATOM     26  C   UNL A   1      35.865  33.906  34.971  1.00  0.00     0.333 C 
ATOM     27  H   UNL A   1      37.408  34.877  34.154  1.00  0.00     0.348 HD
ENDBRANCH  22  24
ENDBRANCH  17  22
ENDBRANCH  11  16
BRANCH  14  28
ATOM     28  S   UNL A   1      43.422  33.725  30.262  1.00  0.00     0.243 S 
ATOM     29  O   UNL A   1      44.698  33.052  30.173  1.00  0.00    -0.207 OA
ATOM     30  O   UNL A   1      42.165  33.025  30.393  1.00  0.00    -0.207 OA
BRANCH  28  31
ATOM     31  N   UNL A   1      43.266  34.746  28.943  1.00  0.00    -0.193 NA
ATOM     32  C   UNL A   1      44.419  35.307  28.215  1.00  0.00     0.131 C 
ATOM     33  C   UNL A   1      41.956  35.198  28.452  1.00  0.00     0.131 C 
ATOM     34  C   UNL A   1      44.299  36.834  28.104  1.00  0.00     0.177 C 
ATOM     35  C   UNL A   1      41.944  36.728  28.424  1.00  0.00     0.177 C 
ATOM     36  O   UNL A   1      43.012  37.256  27.621  1.00  0.00    -0.379 OA
ENDBRANCH  28  31
ENDBRANCH  14  28
ENDBRANCH   8  10
ENDBRANCH   7   8
ENDBRANCH   6   7
ENDBRANCH   5   6
ENDBRANCH   4   5
ENDBRANCH   3   4
ENDBRANCH   2   3
ENDBRANCH   1   2
BRANCH   1  37
ATOM     37  C   UNL A   1      48.612  31.925  37.452  1.00  0.00     0.188 C 
BRANCH  37  38
ATOM     38  C   UNL A   1      47.645  33.090  37.755  1.00  0.00     0.188 C 
BRANCH  38  39
ATOM     39  O   UNL A   1      47.227  33.201  39.111  1.00  0.00    -0.376 OA
BRANCH  39  40
ATOM     40  C   UNL A   1      46.427  32.138  39.611  1.00  0.00     0.202 C 
BRANCH  40  41
ATOM     41  C   UNL A   1      44.924  32.434  39.648  1.00  0.00     0.261 C 
BRANCH  41  42
ATOM     42  O   UNL A   1      44.497  33.516  38.810  1.00  0.00    -0.460 OA
BRANCH  42  43
ATOM     43  C   UNL A   1      43.193  33.550  38.452  1.00  0.00     0.338 C 
ATOM     44  O   UNL A   1      42.310  34.230  38.942  1.00  0.00    -0.246 OA
BRANCH  43  45
ATOM     45  C   UNL A   1      43.057  32.751  37.222  1.00  0.00     0.060 A 
ATOM     46  C   UNL A   1      42.225  31.623  37.232  1.00  0.00     0.016 A 
ATOM     47  C   UNL A   1      43.722  33.138  36.058  1.00  0.00     0.016 A 
ATOM     48  C   UNL A   1      42.075  30.865  36.072  1.00  0.00     0.010 A 
ATOM     49  C   UNL A   1      43.586  32.366  34.904  1.00  0.00     0.010 A 
ATOM     50  C   UNL A   1      42.784  31.213  34.914  1.00  0.00    -0.014 A 
BRANCH  50  51
ATOM     51  C   UNL A   1      42.822  30.289  33.760  1.00  0.00     0.031 A 
ATOM     52  C   UNL A   1      41.642  30.255  32.831  1.00  0.00     0.074 A 
ATOM     53  C   UNL A   1      43.865  29.464  33.563  1.00  0.00     0.049 A 
ATOM     54  N   UNL A   1      41.432  29.501  31.786  1.00  0.00    -0.248 NA
ATOM     55  C   UNL A   1      40.550  31.197  33.127  1.00  0.00     0.031 C 
ATOM     56  C   UNL A   1      45.054  29.390  34.409  1.00  0.00     0.029 A 
ATOM     57  N   UNL A   1      44.066  28.502  32.607  1.00  0.00    -0.354 N 
ATOM     58  C   UNL A   1      40.178  29.859  31.311  1.00  0.00     0.074 A 
ATOM     59  C   UNL A   1      39.666  30.886  32.193  1.00  0.00     0.031 C 
ATOM     60  C   UNL A   1      45.846  28.403  33.956  1.00  0.00     0.029 A 
ATOM     61  C   UNL A   1      45.209  27.764  32.805  1.00  0.00     0.049 A 
ATOM     62  H   UNL A   1      43.452  28.353  31.852  1.00  0.00     0.167 HD
ATOM     63  C   UNL A   1      39.514  29.389  30.228  1.00  0.00     0.034 A 
ATOM     64  C   UNL A   1      45.672  26.681  32.150  1.00  0.00     0.034 A 
ATOM     65  C   UNL A   1      40.022  28.366  29.355  1.00  0.00     0.049 A 
ATOM     66  C   UNL A   1      44.905  26.150  30.965  1.00  0.00     0.074 A 
ATOM     67  C   UNL A   1      39.455  27.861  28.200  1.00  0.00     0.029 A 
ATOM     68  N   UNL A   1      41.206  27.672  29.556  1.00  0.00    -0.354 N 
ATOM     69  N   UNL A   1      43.790  26.596  30.435  1.00  0.00    -0.248 NA
ATOM     70  C   UNL A   1      45.474  24.988  30.270  1.00  0.00     0.031 C 
ATOM     71  C   UNL A   1      40.283  26.839  27.718  1.00  0.00     0.029 A 
ATOM     72  C   UNL A   1      41.378  26.728  28.560  1.00  0.00     0.049 A 
ATOM     73  H   UNL A   1      41.833  27.830  30.300  1.00  0.00     0.167 HD
ATOM     74  C   UNL A   1      43.537  25.784  29.334  1.00  0.00     0.074 A 
ATOM     75  C   UNL A   1      44.630  24.835  29.258  1.00  0.00     0.031 C 
ATOM     76  C   UNL A   1      42.489  25.811  28.473  1.00  0.00     0.034 A 
BRANCH  63  77
ATOM     77  C   UNL A   1      38.174  30.003  29.925  1.00  0.00     0.023 A 
ATOM     78  C   UNL A   1      37.005  29.229  30.080  1.00  0.00     0.012 A 
ATOM     79  C   UNL A   1      38.067  31.340  29.499  1.00  0.00     0.148 A 
ATOM     80  C   UNL A   1      35.754  29.765  29.776  1.00  0.00     0.002 A 
ATOM     81  C   UNL A   1      36.812  31.880  29.240  1.00  0.00     0.091 A 
ATOM     82  F   UNL A   1      39.191  32.051  29.328  1.00  0.00    -0.205 F 
ATOM     83  C   UNL A   1      35.657  31.091  29.365  1.00  0.00     0.022 A 
BRANCH  81  84
ATOM     84  S   UNL A   1      36.584  33.600  28.775  1.00  0.00     0.127 S 
ATOM     85  O   UNL A   1      35.840  33.471  27.522  1.00  0.00    -0.237 OA
ATOM     86  O   UNL A   1      35.801  34.122  29.896  1.00  0.00    -0.237 OA
ATOM     87  O   UNL A   1      37.922  34.161  28.660  1.00  0.00    -0.744 OA
ENDBRANCH  81  84
ENDBRANCH  63  77
BRANCH  64  88
ATOM     88  C   UNL A   1      46.943  26.043  32.592  1.00  0.00     0.023 A 
ATOM     89  C   UNL A   1      48.167  26.483  32.053  1.00  0.00     0.012 A 
ATOM     90  C   UNL A   1      46.945  25.034  33.575  1.00  0.00     0.148 A 
ATOM     91  C   UNL A   1      49.371  25.918  32.474  1.00  0.00     0.002 A 
ATOM     92  C   UNL A   1      48.150  24.513  34.028  1.00  0.00     0.091 A 
ATOM     93  F   UNL A   1      45.767  24.620  34.062  1.00  0.00    -0.205 F 
ATOM     94  C   UNL A   1      49.364  24.943  33.469  1.00  0.00     0.022 A 
BRANCH  92  95
ATOM     95  S   UNL A   1      48.253  23.345  35.390  1.00  0.00     0.127 S 
ATOM     96  O   UNL A   1      47.444  24.007  36.411  1.00  0.00    -0.237 OA
ATOM     97  O   UNL A   1      47.645  22.151  34.801  1.00  0.00    -0.237 OA
ATOM     98  O   UNL A   1      49.670  23.218  35.696  1.00  0.00    -0.744 OA
ENDBRANCH  92  95
ENDBRANCH  64  88
BRANCH  76  99
ATOM     99  C   UNL A   1      42.466  24.792  27.362  1.00  0.00     0.023 A 
ATOM    100  C   UNL A   1      43.261  24.992  26.216  1.00  0.00     0.012 A 
ATOM    101  C   UNL A   1      41.725  23.600  27.488  1.00  0.00     0.148 A 
ATOM    102  C   UNL A   1      43.296  24.036  25.201  1.00  0.00     0.002 A 
ATOM    103  C   UNL A   1      41.801  22.632  26.494  1.00  0.00     0.091 A 
ATOM    104  F   UNL A   1      40.962  23.434  28.578  1.00  0.00    -0.205 F 
ATOM    105  C   UNL A   1      42.576  22.852  25.345  1.00  0.00     0.022 A 
BRANCH 103 106
ATOM    106  S   UNL A   1      40.984  21.037  26.635  1.00  0.00     0.127 S 
ATOM    107  O   UNL A   1      41.953  20.147  25.997  1.00  0.00    -0.237 OA
ATOM    108  O   UNL A   1      40.867  20.874  28.084  1.00  0.00    -0.237 OA
ATOM    109  O   UNL A   1      39.711  21.175  25.939  1.00  0.00    -0.744 OA
ENDBRANCH 103 106
ENDBRANCH  76  99
ENDBRANCH  50  51
ENDBRANCH  43  45
ENDBRANCH  42  43
ENDBRANCH  41  42
ENDBRANCH  40  41
ENDBRANCH  39  40
ENDBRANCH  38  39
ENDBRANCH  37  38
ENDBRANCH   1  37
TORSDOF 28
ENDMDL
MODEL 3
REMARK VINA RESULT:      -5.1      5.729     10.920
REMARK SMILES C[C@H](c1cccc(-c2cc(C(=O)OCCOCCOCCOCCOC(=O)c3ccc(-c4c5nc(c(-c6cccc(S(=O)(=O)[O-])c6F)c6ccc([nH]6)c(-c6cccc(S(=O)(=O)[O-])c6F)c6nc(c(-c7cccc(S(=O)(=O)[O-])c7F)c7ccc4[nH]7)C=C6)C=C5)cc3)cc(S(=O)(=O)N3CCOCC3)c2)c1)[NH+](C)C
REMARK SMILES IDX 19 1 18 2 17 3 16 4 15 5 14 6 13 7 11 8 12 9 10 10 8 11 9 12
REMARK SMILES IDX 102 13 92 14 91 15 7 16 3 17 4 18 103 19 5 20 6 21 2 22 1 23
REMARK SMILES IDX 104 24 105 25 106 26 93 28 94 29 95 30 96 31 97 32 101 33
REMARK SMILES IDX 98 34 100 35 99 36 20 37 21 38 22 39 23 40 24 41 25 42 26 43
REMARK SMILES IDX 27 44 28 45 29 46 90 47 30 48 89 49 31 50 32 51 33 52 83 53
REMARK SMILES IDX 34 54 88 55 82 56 84 57 35 58 87 59 81 60 80 61 36 63 68 64
REMARK SMILES IDX 48 65 67 66 49 67 52 68 66 69 85 70 50 71 51 72 65 74 86 75
REMARK SMILES IDX 53 76 37 77 38 78 46 79 39 80 41 81 47 82 40 83 42 84 43 85
REMARK SMILES IDX 44 86 45 87 69 88 70 89 78 90 71 91 73 92 79 93 72 94 74 95
REMARK SMILES IDX 75 96 76 97 77 98 54 99 55 100 63 101 56 102 58 103 64 104
REMARK SMILES IDX 57 105 59 106 60 107 61 108 62 109
REMARK H PARENT 104 27 84 62 52 73
REMARK Flexibility Score: inf
ROOT
ATOM      1  O   UNL A   1      44.059  29.348  26.552  1.00  0.00    -0.377 OA
ENDROOT
BRANCH   1   2
ATOM      2  C   UNL A   1      44.727  28.607  27.553  1.00  0.00     0.188 C 
BRANCH   2   3
ATOM      3  C   UNL A   1      44.120  28.531  28.965  1.00  0.00     0.188 C 
BRANCH   3   4
ATOM      4  O   UNL A   1      43.245  27.429  29.175  1.00  0.00    -0.376 OA
BRANCH   4   5
ATOM      5  C   UNL A   1      43.450  26.687  30.372  1.00  0.00     0.202 C 
BRANCH   5   6
ATOM      6  C   UNL A   1      44.901  26.250  30.604  1.00  0.00     0.261 C 
BRANCH   6   7
ATOM      7  O   UNL A   1      45.411  25.364  29.598  1.00  0.00    -0.460 OA
BRANCH   7   8
ATOM      8  C   UNL A   1      46.685  25.533  29.181  1.00  0.00     0.338 C 
ATOM      9  O   UNL A   1      47.697  25.498  29.855  1.00  0.00    -0.246 OA
BRANCH   8  10
ATOM     10  C   UNL A   1      46.631  25.442  27.703  1.00  0.00     0.062 A 
ATOM     11  C   UNL A   1      47.912  25.520  25.642  1.00  0.00    -0.016 A 
ATOM     12  C   UNL A   1      47.755  25.883  26.984  1.00  0.00     0.024 A 
ATOM     13  C   UNL A   1      46.923  24.729  25.045  1.00  0.00     0.030 A 
ATOM     14  C   UNL A   1      45.749  24.401  25.720  1.00  0.00     0.084 A 
ATOM     15  C   UNL A   1      45.596  24.749  27.061  1.00  0.00     0.037 A 
BRANCH  11  16
ATOM     16  C   UNL A   1      48.997  26.049  24.816  1.00  0.00    -0.018 A 
ATOM     17  C   UNL A   1      51.387  26.648  24.732  1.00  0.00     0.010 A 
ATOM     18  C   UNL A   1      51.191  27.100  23.420  1.00  0.00     0.010 A 
ATOM     19  C   UNL A   1      50.265  26.158  25.407  1.00  0.00     0.018 A 
ATOM     20  C   UNL A   1      49.927  27.035  22.816  1.00  0.00     0.001 A 
ATOM     21  C   UNL A   1      48.835  26.501  23.508  1.00  0.00     0.009 A 
BRANCH  17  22
ATOM     22  C   UNL A   1      52.742  26.796  25.429  1.00  0.00     0.211 C 
ATOM     23  C   UNL A   1      52.711  28.025  26.355  1.00  0.00     0.081 C 
BRANCH  22  24
ATOM     24  N   UNL A   1      53.295  25.550  26.029  1.00  0.00    -0.334 N 
ATOM     25  C   UNL A   1      53.354  24.459  25.054  1.00  0.00     0.333 C 
ATOM     26  C   UNL A   1      54.596  25.662  26.687  1.00  0.00     0.333 C 
ATOM     27  H   UNL A   1      52.625  25.348  26.772  1.00  0.00     0.348 HD
ENDBRANCH  22  24
ENDBRANCH  17  22
ENDBRANCH  11  16
BRANCH  14  28
ATOM     28  S   UNL A   1      44.417  23.591  24.858  1.00  0.00     0.243 S 
ATOM     29  O   UNL A   1      43.229  24.375  25.106  1.00  0.00    -0.207 OA
ATOM     30  O   UNL A   1      44.913  23.303  23.533  1.00  0.00    -0.207 OA
BRANCH  28  31
ATOM     31  N   UNL A   1      44.256  22.117  25.639  1.00  0.00    -0.193 NA
ATOM     32  C   UNL A   1      45.083  20.939  25.319  1.00  0.00     0.131 C 
ATOM     33  C   UNL A   1      43.234  21.883  26.669  1.00  0.00     0.131 C 
ATOM     34  C   UNL A   1      44.197  19.716  25.037  1.00  0.00     0.177 C 
ATOM     35  C   UNL A   1      42.394  20.671  26.259  1.00  0.00     0.177 C 
ATOM     36  O   UNL A   1      43.205  19.503  26.055  1.00  0.00    -0.379 OA
ENDBRANCH  28  31
ENDBRANCH  14  28
ENDBRANCH   8  10
ENDBRANCH   7   8
ENDBRANCH   6   7
ENDBRANCH   5   6
ENDBRANCH   4   5
ENDBRANCH   3   4
ENDBRANCH   2   3
ENDBRANCH   1   2
BRANCH   1  37
ATOM     37  C   UNL A   1      42.670  29.139  26.334  1.00  0.00     0.188 C 
BRANCH  37  38
ATOM     38  C   UNL A   1      42.173  27.890  25.575  1.00  0.00     0.188 C 
BRANCH  38  39
ATOM     39  O   UNL A   1      40.810  27.544  25.796  1.00  0.00    -0.376 OA
BRANCH  39  40
ATOM     40  C   UNL A   1      40.519  26.884  27.020  1.00  0.00     0.202 C 
BRANCH  40  41
ATOM     41  C   UNL A   1      39.399  27.529  27.844  1.00  0.00     0.261 C 
BRANCH  41  42
ATOM     42  O   UNL A   1      39.766  27.905  29.178  1.00  0.00    -0.460 OA
BRANCH  42  43
ATOM     43  C   UNL A   1      38.907  28.695  29.861  1.00  0.00     0.338 C 
ATOM     44  O   UNL A   1      37.791  28.406  30.255  1.00  0.00    -0.246 OA
BRANCH  43  45
ATOM     45  C   UNL A   1      39.635  29.924  30.221  1.00  0.00     0.060 A 
ATOM     46  C   UNL A   1      41.017  29.854  30.447  1.00  0.00     0.016 A 
ATOM     47  C   UNL A   1      38.958  31.142  30.300  1.00  0.00     0.016 A 
ATOM     48  C   UNL A   1      41.723  31.011  30.775  1.00  0.00     0.010 A 
ATOM     49  C   UNL A   1      39.664  32.294  30.648  1.00  0.00     0.010 A 
ATOM     50  C   UNL A   1      41.042  32.228  30.912  1.00  0.00    -0.014 A 
BRANCH  50  51
ATOM     51  C   UNL A   1      41.729  33.403  31.490  1.00  0.00     0.031 A 
ATOM     52  C   UNL A   1      41.808  33.522  32.986  1.00  0.00     0.074 A 
ATOM     53  C   UNL A   1      42.237  34.368  30.705  1.00  0.00     0.049 A 
ATOM     54  N   UNL A   1      42.318  34.477  33.715  1.00  0.00    -0.248 NA
ATOM     55  C   UNL A   1      41.225  32.415  33.760  1.00  0.00     0.031 C 
ATOM     56  C   UNL A   1      42.201  34.374  29.244  1.00  0.00     0.029 A 
ATOM     57  N   UNL A   1      42.847  35.551  31.036  1.00  0.00    -0.354 N 
ATOM     58  C   UNL A   1      42.101  34.100  35.033  1.00  0.00     0.074 A 
ATOM     59  C   UNL A   1      41.397  32.836  35.004  1.00  0.00     0.031 C 
ATOM     60  C   UNL A   1      42.730  35.529  28.803  1.00  0.00     0.029 A 
ATOM     61  C   UNL A   1      43.121  36.348  29.950  1.00  0.00     0.049 A 
ATOM     62  H   UNL A   1      43.069  35.806  31.961  1.00  0.00     0.167 HD
ATOM     63  C   UNL A   1      42.469  34.738  36.170  1.00  0.00     0.034 A 
ATOM     64  C   UNL A   1      43.604  37.606  29.891  1.00  0.00     0.034 A 
ATOM     65  C   UNL A   1      43.165  35.994  36.198  1.00  0.00     0.049 A 
ATOM     66  C   UNL A   1      43.979  38.314  31.168  1.00  0.00     0.074 A 
ATOM     67  C   UNL A   1      43.633  36.695  37.294  1.00  0.00     0.029 A 
ATOM     68  N   UNL A   1      43.471  36.753  35.078  1.00  0.00    -0.354 N 
ATOM     69  N   UNL A   1      43.906  37.881  32.405  1.00  0.00    -0.248 NA
ATOM     70  C   UNL A   1      44.531  39.669  31.040  1.00  0.00     0.031 C 
ATOM     71  C   UNL A   1      44.196  37.894  36.839  1.00  0.00     0.029 A 
ATOM     72  C   UNL A   1      44.102  37.926  35.456  1.00  0.00     0.049 A 
ATOM     73  H   UNL A   1      43.268  36.495  34.149  1.00  0.00     0.167 HD
ATOM     74  C   UNL A   1      44.421  38.901  33.198  1.00  0.00     0.074 A 
ATOM     75  C   UNL A   1      44.828  39.963  32.299  1.00  0.00     0.031 C 
ATOM     76  C   UNL A   1      44.535  38.961  34.550  1.00  0.00     0.034 A 
BRANCH  63  77
ATOM     77  C   UNL A   1      42.137  34.062  37.474  1.00  0.00     0.023 A 
ATOM     78  C   UNL A   1      43.078  33.193  38.064  1.00  0.00     0.012 A 
ATOM     79  C   UNL A   1      40.908  34.292  38.119  1.00  0.00     0.148 A 
ATOM     80  C   UNL A   1      42.783  32.530  39.255  1.00  0.00     0.002 A 
ATOM     81  C   UNL A   1      40.638  33.662  39.329  1.00  0.00     0.091 A 
ATOM     82  F   UNL A   1      40.014  35.098  37.528  1.00  0.00    -0.205 F 
ATOM     83  C   UNL A   1      41.568  32.772  39.891  1.00  0.00     0.022 A 
BRANCH  81  84
ATOM     84  S   UNL A   1      39.131  33.967  40.257  1.00  0.00     0.127 S 
ATOM     85  O   UNL A   1      39.016  32.741  41.045  1.00  0.00    -0.237 OA
ATOM     86  O   UNL A   1      39.481  35.159  41.032  1.00  0.00    -0.237 OA
ATOM     87  O   UNL A   1      38.089  34.178  39.262  1.00  0.00    -0.744 OA
ENDBRANCH  81  84
ENDBRANCH  63  77
BRANCH  64  88
ATOM     88  C   UNL A   1      43.781  38.263  28.566  1.00  0.00     0.023 A 
ATOM     89  C   UNL A   1      42.705  38.961  27.986  1.00  0.00     0.012 A 
ATOM     90  C   UNL A   1      45.023  38.235  27.903  1.00  0.00     0.148 A 
ATOM     91  C   UNL A   1      42.859  39.607  26.759  1.00  0.00     0.002 A 
ATOM     92  C   UNL A   1      45.184  38.924  26.707  1.00  0.00     0.091 A 
ATOM     93  F   UNL A   1      46.028  37.551  28.467  1.00  0.00    -0.205 F 
ATOM     94  C   UNL A   1      44.099  39.600  26.126  1.00  0.00     0.022 A 
BRANCH  92  95
ATOM     95  S   UNL A   1      46.772  39.077  25.881  1.00  0.00     0.127 S 
ATOM     96  O   UNL A   1      47.116  37.678  25.637  1.00  0.00    -0.237 OA
ATOM     97  O   UNL A   1      46.410  39.839  24.684  1.00  0.00    -0.237 OA
ATOM     98  O   UNL A   1      47.637  39.783  26.813  1.00  0.00    -0.744 OA
ENDBRANCH  92  95
ENDBRANCH  64  88
BRANCH  76  99
ATOM     99  C   UNL A   1      45.130  40.210  35.150  1.00  0.00     0.023 A 
ATOM    100  C   UNL A   1      44.288  41.284  35.499  1.00  0.00     0.012 A 
ATOM    101  C   UNL A   1      46.506  40.287  35.443  1.00  0.00     0.148 A 
ATOM    102  C   UNL A   1      44.810  42.427  36.103  1.00  0.00     0.002 A 
ATOM    103  C   UNL A   1      47.011  41.410  36.088  1.00  0.00     0.091 A 
ATOM    104  F   UNL A   1      47.294  39.262  35.090  1.00  0.00    -0.205 F 
ATOM    105  C   UNL A   1      46.168  42.485  36.409  1.00  0.00     0.022 A 
BRANCH 103 106
ATOM    106  S   UNL A   1      48.728  41.535  36.605  1.00  0.00     0.127 S 
ATOM    107  O   UNL A   1      49.428  41.523  35.322  1.00  0.00    -0.237 OA
ATOM    108  O   UNL A   1      48.751  42.823  37.300  1.00  0.00    -0.237 OA
ATOM    109  O   UNL A   1      48.975  40.383  37.462  1.00  0.00    -0.744 OA
ENDBRANCH 103 106
ENDBRANCH  76  99
ENDBRANCH  50  51
ENDBRANCH  43  45
ENDBRANCH  42  43
ENDBRANCH  41  42
ENDBRANCH  40  41
ENDBRANCH  39  40
ENDBRANCH  38  39
ENDBRANCH  37  38
ENDBRANCH   1  37
TORSDOF 28
ENDMDL
