MODEL 1
REMARK VINA RESULT:     -10.9      0.000      0.000
REMARK SMILES Cc1cccc(-c2ncc(C[NH+]3CCC4(CC3)NC(=O)C[C@H]4C(=O)OCCOCCOCCOCCOC(=O)c3ccc(-c4c5nc(c(-c6cccc(S(=O)(=O)[O-])c6F)c6ccc([nH]6)c(-c6cccc(S(=O)(=O)[O-])c6F)c6nc(c(-c7cccc(S(=O)(=O)[O-])c7F)c7ccc4[nH]7)C=C6)C=C5)cc3)cn2)c1
REMARK SMILES IDX 31 1 30 2 29 3 28 4 27 5 26 6 25 7 23 8 24 9 22 10 12 11
REMARK SMILES IDX 13 12 17 13 14 15 16 16 15 17 18 18 19 19 21 21 20 22 11 23
REMARK SMILES IDX 10 24 7 25 8 26 104 27 9 28 103 29 6 30 1 31 2 32 3 33
REMARK SMILES IDX 105 34 4 35 5 36 32 37 33 38 34 39 35 40 36 41 37 42 38 43
REMARK SMILES IDX 39 44 40 45 41 46 102 47 42 48 101 49 43 50 44 51 45 52
REMARK SMILES IDX 95 53 46 54 100 55 94 56 96 57 47 58 99 59 93 60 92 61 48 63
REMARK SMILES IDX 80 64 60 65 79 66 61 67 64 68 78 69 97 70 62 71 63 72 77 74
REMARK SMILES IDX 98 75 65 76 49 77 50 78 58 79 51 80 53 81 59 82 52 83 54 84
REMARK SMILES IDX 55 85 56 86 57 87 81 88 82 89 90 90 83 91 85 92 91 93 84 94
REMARK SMILES IDX 86 95 87 96 88 97 89 98 66 99 67 100 75 101 68 102 70 103
REMARK SMILES IDX 76 104 69 105 71 106 72 107 73 108 74 109
REMARK H PARENT 12 14 18 20 96 62 64 73
REMARK Flexibility Score: inf
ROOT
ATOM      1  O   UNL A   1      40.150  21.776  27.457  1.00  0.00    -0.377 OA
ENDROOT
BRANCH   1   2
ATOM      2  C   UNL A   1      39.640  22.303  26.232  1.00  0.00     0.188 C 
BRANCH   2   3
ATOM      3  C   UNL A   1      38.195  21.933  25.831  1.00  0.00     0.188 C 
BRANCH   3   4
ATOM      4  O   UNL A   1      37.968  20.685  25.190  1.00  0.00    -0.376 OA
BRANCH   4   5
ATOM      5  C   UNL A   1      36.597  20.409  25.030  1.00  0.00     0.202 C 
BRANCH   5   6
ATOM      6  C   UNL A   1      35.730  21.569  25.451  1.00  0.00     0.261 C 
BRANCH   6   7
ATOM      7  O   UNL A   1      34.535  21.654  24.657  1.00  0.00    -0.463 OA
BRANCH   7   8
ATOM      8  C   UNL A   1      33.371  21.458  25.297  1.00  0.00     0.311 C 
ATOM      9  O   UNL A   1      32.770  20.397  25.387  1.00  0.00    -0.252 OA
BRANCH   8  10
ATOM     10  C   UNL A   1      32.870  22.719  25.954  1.00  0.00     0.134 C 
ATOM     11  N   UNL A   1      33.810  24.684  22.459  1.00  0.00    -0.331 N 
ATOM     12  C   UNL A   1      34.381  25.021  23.743  1.00  0.00     0.264 C 
ATOM     13  C   UNL A   1      33.051  23.456  22.547  1.00  0.00     0.264 C 
ATOM     14  H   UNL A   1      34.643  24.539  21.891  1.00  0.00     0.348 HD
ATOM     15  C   UNL A   1      33.383  25.030  24.899  1.00  0.00     0.091 C 
ATOM     16  C   UNL A   1      31.945  23.386  23.591  1.00  0.00     0.091 C 
ATOM     17  C   UNL A   1      32.394  23.838  24.983  1.00  0.00     0.064 C 
ATOM     18  N   UNL A   1      31.203  24.338  25.659  1.00  0.00    -0.349 N 
ATOM     19  C   UNL A   1      30.766  23.597  26.712  1.00  0.00     0.221 C 
ATOM     20  H   UNL A   1      30.744  25.161  25.371  1.00  0.00     0.164 HD
ATOM     21  C   UNL A   1      31.733  22.491  26.973  1.00  0.00     0.117 C 
ATOM     22  O   UNL A   1      29.752  23.851  27.357  1.00  0.00    -0.275 OA
BRANCH  11  23
ATOM     23  C   UNL A   1      33.313  25.707  21.539  1.00  0.00     0.302 C 
BRANCH  23  24
ATOM     24  C   UNL A   1      32.393  26.725  22.139  1.00  0.00     0.043 A 
ATOM     25  C   UNL A   1      30.751  28.801  22.681  1.00  0.00     0.159 A 
ATOM     26  N   UNL A   1      30.185  27.631  22.320  1.00  0.00    -0.236 NA
ATOM     27  N   UNL A   1      32.056  28.981  22.925  1.00  0.00    -0.236 NA
ATOM     28  C   UNL A   1      31.027  26.609  22.084  1.00  0.00     0.124 A 
ATOM     29  C   UNL A   1      32.846  27.928  22.643  1.00  0.00     0.124 A 
BRANCH  25  30
ATOM     30  C   UNL A   1      29.886  29.978  22.683  1.00  0.00     0.019 A 
ATOM     31  C   UNL A   1      27.835  32.019  20.178  1.00  0.00     0.044 C 
ATOM     32  C   UNL A   1      28.440  31.543  21.466  1.00  0.00    -0.050 A 
ATOM     33  C   UNL A   1      28.083  32.136  22.679  1.00  0.00     0.003 A 
ATOM     34  C   UNL A   1      29.337  30.467  21.481  1.00  0.00     0.015 A 
ATOM     35  C   UNL A   1      28.647  31.690  23.876  1.00  0.00     0.001 A 
ATOM     36  C   UNL A   1      29.549  30.624  23.877  1.00  0.00     0.012 A 
ENDBRANCH  25  30
ENDBRANCH  23  24
ENDBRANCH  11  23
ENDBRANCH   8  10
ENDBRANCH   7   8
ENDBRANCH   6   7
ENDBRANCH   5   6
ENDBRANCH   4   5
ENDBRANCH   3   4
ENDBRANCH   2   3
ENDBRANCH   1   2
BRANCH   1  37
ATOM     37  C   UNL A   1      40.714  20.446  27.505  1.00  0.00     0.188 C 
BRANCH  37  38
ATOM     38  C   UNL A   1      41.155  19.799  26.194  1.00  0.00     0.188 C 
BRANCH  38  39
ATOM     39  O   UNL A   1      42.493  20.168  25.982  1.00  0.00    -0.376 OA
BRANCH  39  40
ATOM     40  C   UNL A   1      43.417  19.255  25.455  1.00  0.00     0.202 C 
BRANCH  40  41
ATOM     41  C   UNL A   1      44.604  19.847  24.699  1.00  0.00     0.261 C 
BRANCH  41  42
ATOM     42  O   UNL A   1      44.376  21.251  24.481  1.00  0.00    -0.460 OA
BRANCH  42  43
ATOM     43  C   UNL A   1      45.188  22.081  25.201  1.00  0.00     0.338 C 
ATOM     44  O   UNL A   1      46.228  21.729  25.736  1.00  0.00    -0.246 OA
BRANCH  43  45
ATOM     45  C   UNL A   1      44.482  23.376  25.466  1.00  0.00     0.060 A 
ATOM     46  C   UNL A   1      44.875  24.532  24.775  1.00  0.00     0.016 A 
ATOM     47  C   UNL A   1      43.659  23.519  26.576  1.00  0.00     0.016 A 
ATOM     48  C   UNL A   1      44.639  25.817  25.312  1.00  0.00     0.010 A 
ATOM     49  C   UNL A   1      43.424  24.798  27.084  1.00  0.00     0.010 A 
ATOM     50  C   UNL A   1      44.023  25.958  26.543  1.00  0.00    -0.014 A 
BRANCH  50  51
ATOM     51  C   UNL A   1      44.049  27.174  27.425  1.00  0.00     0.031 A 
ATOM     52  C   UNL A   1      42.833  28.078  27.381  1.00  0.00     0.074 A 
ATOM     53  C   UNL A   1      44.840  27.185  28.538  1.00  0.00     0.049 A 
ATOM     54  N   UNL A   1      42.479  28.982  28.241  1.00  0.00    -0.248 NA
ATOM     55  C   UNL A   1      41.893  27.995  26.263  1.00  0.00     0.031 C 
ATOM     56  C   UNL A   1      44.381  27.598  29.857  1.00  0.00     0.029 A 
ATOM     57  N   UNL A   1      46.123  26.723  28.838  1.00  0.00    -0.354 N 
ATOM     58  C   UNL A   1      41.173  29.374  27.957  1.00  0.00     0.074 A 
ATOM     59  C   UNL A   1      40.902  28.790  26.670  1.00  0.00     0.031 C 
ATOM     60  C   UNL A   1      45.290  27.379  30.807  1.00  0.00     0.029 A 
ATOM     61  C   UNL A   1      46.521  27.207  30.105  1.00  0.00     0.049 A 
ATOM     62  H   UNL A   1      46.669  26.147  28.254  1.00  0.00     0.167 HD
ATOM     63  C   UNL A   1      40.421  30.075  28.868  1.00  0.00     0.034 A 
ATOM     64  C   UNL A   1      47.533  28.093  30.341  1.00  0.00     0.034 A 
ATOM     65  C   UNL A   1      41.246  30.625  29.994  1.00  0.00     0.049 A 
ATOM     66  C   UNL A   1      47.045  29.549  30.566  1.00  0.00     0.074 A 
ATOM     67  C   UNL A   1      41.095  30.818  31.365  1.00  0.00     0.029 A 
ATOM     68  N   UNL A   1      42.570  31.014  29.745  1.00  0.00    -0.354 N 
ATOM     69  N   UNL A   1      45.819  29.945  30.864  1.00  0.00    -0.248 NA
ATOM     70  C   UNL A   1      47.940  30.688  30.396  1.00  0.00     0.031 C 
ATOM     71  C   UNL A   1      42.362  31.179  31.933  1.00  0.00     0.029 A 
ATOM     72  C   UNL A   1      43.265  31.339  30.898  1.00  0.00     0.049 A 
ATOM     73  H   UNL A   1      42.964  31.052  28.844  1.00  0.00     0.167 HD
ATOM     74  C   UNL A   1      45.711  31.323  30.735  1.00  0.00     0.074 A 
ATOM     75  C   UNL A   1      47.090  31.725  30.480  1.00  0.00     0.031 C 
ATOM     76  C   UNL A   1      44.533  32.050  30.760  1.00  0.00     0.034 A 
BRANCH  63  77
ATOM     77  C   UNL A   1      38.858  30.187  28.833  1.00  0.00     0.023 A 
ATOM     78  C   UNL A   1      38.129  28.995  28.595  1.00  0.00     0.012 A 
ATOM     79  C   UNL A   1      38.041  31.356  28.915  1.00  0.00     0.148 A 
ATOM     80  C   UNL A   1      36.740  28.957  28.377  1.00  0.00     0.002 A 
ATOM     81  C   UNL A   1      36.636  31.305  28.799  1.00  0.00     0.091 A 
ATOM     82  F   UNL A   1      38.595  32.562  29.042  1.00  0.00    -0.205 F 
ATOM     83  C   UNL A   1      35.989  30.111  28.489  1.00  0.00     0.022 A 
BRANCH  81  84
ATOM     84  S   UNL A   1      35.552  32.733  29.057  1.00  0.00     0.127 S 
ATOM     85  O   UNL A   1      36.455  33.709  29.669  1.00  0.00    -0.237 OA
ATOM     86  O   UNL A   1      35.145  33.066  27.691  1.00  0.00    -0.237 OA
ATOM     87  O   UNL A   1      34.467  32.280  29.918  1.00  0.00    -0.744 OA
ENDBRANCH  81  84
ENDBRANCH  63  77
BRANCH  64  88
ATOM     88  C   UNL A   1      48.845  27.534  29.872  1.00  0.00     0.023 A 
ATOM     89  C   UNL A   1      49.136  26.274  30.464  1.00  0.00     0.012 A 
ATOM     90  C   UNL A   1      49.166  27.724  28.522  1.00  0.00     0.148 A 
ATOM     91  C   UNL A   1      49.380  25.155  29.661  1.00  0.00     0.002 A 
ATOM     92  C   UNL A   1      49.359  26.597  27.718  1.00  0.00     0.091 A 
ATOM     93  F   UNL A   1      49.029  28.954  28.010  1.00  0.00    -0.205 F 
ATOM     94  C   UNL A   1      49.417  25.309  28.281  1.00  0.00     0.022 A 
BRANCH  92  95
ATOM     95  S   UNL A   1      49.064  26.694  25.943  1.00  0.00     0.127 S 
ATOM     96  O   UNL A   1      48.346  25.456  25.672  1.00  0.00    -0.237 OA
ATOM     97  O   UNL A   1      48.267  27.915  25.837  1.00  0.00    -0.237 OA
ATOM     98  O   UNL A   1      50.395  26.811  25.365  1.00  0.00    -0.744 OA
ENDBRANCH  92  95
ENDBRANCH  64  88
BRANCH  76  99
ATOM     99  C   UNL A   1      44.387  33.571  30.509  1.00  0.00     0.023 A 
ATOM    100  C   UNL A   1      44.234  34.121  29.230  1.00  0.00     0.012 A 
ATOM    101  C   UNL A   1      44.414  34.524  31.581  1.00  0.00     0.148 A 
ATOM    102  C   UNL A   1      43.892  35.468  29.038  1.00  0.00     0.002 A 
ATOM    103  C   UNL A   1      44.087  35.863  31.392  1.00  0.00     0.091 A 
ATOM    104  F   UNL A   1      44.832  34.169  32.797  1.00  0.00    -0.205 F 
ATOM    105  C   UNL A   1      43.772  36.329  30.121  1.00  0.00     0.022 A 
BRANCH 103 106
ATOM    106  S   UNL A   1      44.051  37.048  32.749  1.00  0.00     0.127 S 
ATOM    107  O   UNL A   1      43.134  36.396  33.684  1.00  0.00    -0.237 OA
ATOM    108  O   UNL A   1      45.450  37.058  33.177  1.00  0.00    -0.237 OA
ATOM    109  O   UNL A   1      43.579  38.306  32.190  1.00  0.00    -0.744 OA
ENDBRANCH 103 106
ENDBRANCH  76  99
ENDBRANCH  50  51
ENDBRANCH  43  45
ENDBRANCH  42  43
ENDBRANCH  41  42
ENDBRANCH  40  41
ENDBRANCH  39  40
ENDBRANCH  38  39
ENDBRANCH  37  38
ENDBRANCH   1  37
TORSDOF 26
ENDMDL
MODEL 2
REMARK VINA RESULT:     -10.8      2.277      2.777
REMARK SMILES Cc1cccc(-c2ncc(C[NH+]3CCC4(CC3)NC(=O)C[C@H]4C(=O)OCCOCCOCCOCCOC(=O)c3ccc(-c4c5nc(c(-c6cccc(S(=O)(=O)[O-])c6F)c6ccc([nH]6)c(-c6cccc(S(=O)(=O)[O-])c6F)c6nc(c(-c7cccc(S(=O)(=O)[O-])c7F)c7ccc4[nH]7)C=C6)C=C5)cc3)cn2)c1
REMARK SMILES IDX 31 1 30 2 29 3 28 4 27 5 26 6 25 7 23 8 24 9 22 10 12 11
REMARK SMILES IDX 13 12 17 13 14 15 16 16 15 17 18 18 19 19 21 21 20 22 11 23
REMARK SMILES IDX 10 24 7 25 8 26 104 27 9 28 103 29 6 30 1 31 2 32 3 33
REMARK SMILES IDX 105 34 4 35 5 36 32 37 33 38 34 39 35 40 36 41 37 42 38 43
REMARK SMILES IDX 39 44 40 45 41 46 102 47 42 48 101 49 43 50 44 51 45 52
REMARK SMILES IDX 95 53 46 54 100 55 94 56 96 57 47 58 99 59 93 60 92 61 48 63
REMARK SMILES IDX 80 64 60 65 79 66 61 67 64 68 78 69 97 70 62 71 63 72 77 74
REMARK SMILES IDX 98 75 65 76 49 77 50 78 58 79 51 80 53 81 59 82 52 83 54 84
REMARK SMILES IDX 55 85 56 86 57 87 81 88 82 89 90 90 83 91 85 92 91 93 84 94
REMARK SMILES IDX 86 95 87 96 88 97 89 98 66 99 67 100 75 101 68 102 70 103
REMARK SMILES IDX 76 104 69 105 71 106 72 107 73 108 74 109
REMARK H PARENT 12 14 18 20 96 62 64 73
REMARK Flexibility Score: inf
ROOT
ATOM      1  O   UNL A   1      40.152  21.749  27.493  1.00  0.00    -0.377 OA
ENDROOT
BRANCH   1   2
ATOM      2  C   UNL A   1      39.635  22.334  26.297  1.00  0.00     0.188 C 
BRANCH   2   3
ATOM      3  C   UNL A   1      38.173  22.016  25.911  1.00  0.00     0.188 C 
BRANCH   3   4
ATOM      4  O   UNL A   1      37.924  20.916  25.047  1.00  0.00    -0.376 OA
BRANCH   4   5
ATOM      5  C   UNL A   1      36.593  20.465  25.128  1.00  0.00     0.202 C 
BRANCH   5   6
ATOM      6  C   UNL A   1      35.630  21.584  25.435  1.00  0.00     0.261 C 
BRANCH   6   7
ATOM      7  O   UNL A   1      34.457  21.516  24.608  1.00  0.00    -0.463 OA
BRANCH   7   8
ATOM      8  C   UNL A   1      33.286  21.320  25.236  1.00  0.00     0.311 C 
ATOM      9  O   UNL A   1      32.681  20.261  25.316  1.00  0.00    -0.252 OA
BRANCH   8  10
ATOM     10  C   UNL A   1      32.784  22.580  25.897  1.00  0.00     0.134 C 
ATOM     11  N   UNL A   1      33.676  24.543  22.389  1.00  0.00    -0.331 N 
ATOM     12  C   UNL A   1      34.258  24.886  23.666  1.00  0.00     0.264 C 
ATOM     13  C   UNL A   1      32.926  23.311  22.486  1.00  0.00     0.264 C 
ATOM     14  H   UNL A   1      34.505  24.402  21.812  1.00  0.00     0.348 HD
ATOM     15  C   UNL A   1      33.271  24.891  24.832  1.00  0.00     0.091 C 
ATOM     16  C   UNL A   1      31.831  23.235  23.541  1.00  0.00     0.091 C 
ATOM     17  C   UNL A   1      32.291  23.694  24.928  1.00  0.00     0.064 C 
ATOM     18  N   UNL A   1      31.104  24.187  25.615  1.00  0.00    -0.349 N 
ATOM     19  C   UNL A   1      30.682  23.445  26.674  1.00  0.00     0.221 C 
ATOM     20  H   UNL A   1      30.637  25.007  25.330  1.00  0.00     0.164 HD
ATOM     21  C   UNL A   1      31.658  22.347  26.927  1.00  0.00     0.117 C 
ATOM     22  O   UNL A   1      29.673  23.694  27.328  1.00  0.00    -0.275 OA
BRANCH  11  23
ATOM     23  C   UNL A   1      33.164  25.561  21.471  1.00  0.00     0.302 C 
BRANCH  23  24
ATOM     24  C   UNL A   1      32.318  26.628  22.096  1.00  0.00     0.043 A 
ATOM     25  C   UNL A   1      30.755  28.756  22.669  1.00  0.00     0.159 A 
ATOM     26  N   UNL A   1      30.147  27.572  22.447  1.00  0.00    -0.236 NA
ATOM     27  N   UNL A   1      32.080  28.935  22.761  1.00  0.00    -0.236 NA
ATOM     28  C   UNL A   1      30.953  26.526  22.193  1.00  0.00     0.124 A 
ATOM     29  C   UNL A   1      32.829  27.856  22.468  1.00  0.00     0.124 A 
BRANCH  25  30
ATOM     30  C   UNL A   1      29.902  29.941  22.683  1.00  0.00     0.019 A 
ATOM     31  C   UNL A   1      27.920  32.065  20.191  1.00  0.00     0.044 C 
ATOM     32  C   UNL A   1      28.495  31.551  21.478  1.00  0.00    -0.050 A 
ATOM     33  C   UNL A   1      28.121  32.117  22.699  1.00  0.00     0.003 A 
ATOM     34  C   UNL A   1      29.381  30.466  21.484  1.00  0.00     0.015 A 
ATOM     35  C   UNL A   1      28.657  31.637  23.894  1.00  0.00     0.001 A 
ATOM     36  C   UNL A   1      29.548  30.562  23.887  1.00  0.00     0.012 A 
ENDBRANCH  25  30
ENDBRANCH  23  24
ENDBRANCH  11  23
ENDBRANCH   8  10
ENDBRANCH   7   8
ENDBRANCH   6   7
ENDBRANCH   5   6
ENDBRANCH   4   5
ENDBRANCH   3   4
ENDBRANCH   2   3
ENDBRANCH   1   2
BRANCH   1  37
ATOM     37  C   UNL A   1      40.757  20.437  27.465  1.00  0.00     0.188 C 
BRANCH  37  38
ATOM     38  C   UNL A   1      41.323  19.928  26.141  1.00  0.00     0.188 C 
BRANCH  38  39
ATOM     39  O   UNL A   1      42.661  19.573  26.375  1.00  0.00    -0.376 OA
BRANCH  39  40
ATOM     40  C   UNL A   1      43.259  18.516  25.673  1.00  0.00     0.202 C 
BRANCH  40  41
ATOM     41  C   UNL A   1      44.439  18.878  24.775  1.00  0.00     0.261 C 
BRANCH  41  42
ATOM     42  O   UNL A   1      44.325  20.254  24.370  1.00  0.00    -0.460 OA
BRANCH  42  43
ATOM     43  C   UNL A   1      45.252  21.092  24.920  1.00  0.00     0.338 C 
ATOM     44  O   UNL A   1      46.399  20.767  25.185  1.00  0.00    -0.246 OA
BRANCH  43  45
ATOM     45  C   UNL A   1      44.583  22.344  25.400  1.00  0.00     0.060 A 
ATOM     46  C   UNL A   1      44.247  23.346  24.477  1.00  0.00     0.016 A 
ATOM     47  C   UNL A   1      44.555  22.658  26.753  1.00  0.00     0.016 A 
ATOM     48  C   UNL A   1      44.106  24.691  24.882  1.00  0.00     0.010 A 
ATOM     49  C   UNL A   1      44.400  23.991  27.135  1.00  0.00     0.010 A 
ATOM     50  C   UNL A   1      44.312  25.049  26.203  1.00  0.00    -0.014 A 
BRANCH  50  51
ATOM     51  C   UNL A   1      44.593  26.430  26.725  1.00  0.00     0.031 A 
ATOM     52  C   UNL A   1      43.393  27.303  27.031  1.00  0.00     0.074 A 
ATOM     53  C   UNL A   1      45.775  26.684  27.360  1.00  0.00     0.049 A 
ATOM     54  N   UNL A   1      43.352  28.375  27.761  1.00  0.00    -0.248 NA
ATOM     55  C   UNL A   1      42.082  26.977  26.472  1.00  0.00     0.031 C 
ATOM     56  C   UNL A   1      45.880  27.378  28.636  1.00  0.00     0.029 A 
ATOM     57  N   UNL A   1      47.102  26.298  27.160  1.00  0.00    -0.354 N 
ATOM     58  C   UNL A   1      42.018  28.697  27.998  1.00  0.00     0.074 A 
ATOM     59  C   UNL A   1      41.285  27.844  27.100  1.00  0.00     0.031 C 
ATOM     60  C   UNL A   1      47.121  27.373  29.122  1.00  0.00     0.029 A 
ATOM     61  C   UNL A   1      47.950  27.049  28.006  1.00  0.00     0.049 A 
ATOM     62  H   UNL A   1      47.403  25.607  26.526  1.00  0.00     0.167 HD
ATOM     63  C   UNL A   1      41.658  29.583  28.984  1.00  0.00     0.034 A 
ATOM     64  C   UNL A   1      48.879  27.964  27.600  1.00  0.00     0.034 A 
ATOM     65  C   UNL A   1      42.826  30.366  29.508  1.00  0.00     0.049 A 
ATOM     66  C   UNL A   1      48.397  29.434  27.719  1.00  0.00     0.074 A 
ATOM     67  C   UNL A   1      43.250  30.856  30.741  1.00  0.00     0.029 A 
ATOM     68  N   UNL A   1      43.878  30.688  28.640  1.00  0.00    -0.354 N 
ATOM     69  N   UNL A   1      47.381  29.888  28.432  1.00  0.00    -0.248 NA
ATOM     70  C   UNL A   1      49.025  30.506  26.955  1.00  0.00     0.031 C 
ATOM     71  C   UNL A   1      44.598  31.331  30.620  1.00  0.00     0.029 A 
ATOM     72  C   UNL A   1      44.961  31.259  29.288  1.00  0.00     0.049 A 
ATOM     73  H   UNL A   1      43.849  30.527  27.669  1.00  0.00     0.167 HD
ATOM     74  C   UNL A   1      47.099  31.203  28.090  1.00  0.00     0.074 A 
ATOM     75  C   UNL A   1      48.197  31.538  27.190  1.00  0.00     0.031 C 
ATOM     76  C   UNL A   1      45.979  31.920  28.477  1.00  0.00     0.034 A 
BRANCH  63  77
ATOM     77  C   UNL A   1      40.224  29.686  29.607  1.00  0.00     0.023 A 
ATOM     78  C   UNL A   1      39.143  29.894  28.714  1.00  0.00     0.012 A 
ATOM     79  C   UNL A   1      39.843  29.693  30.984  1.00  0.00     0.148 A 
ATOM     80  C   UNL A   1      37.827  30.167  29.126  1.00  0.00     0.002 A 
ATOM     81  C   UNL A   1      38.504  29.863  31.396  1.00  0.00     0.091 A 
ATOM     82  F   UNL A   1      40.765  29.602  31.942  1.00  0.00    -0.205 F 
ATOM     83  C   UNL A   1      37.502  30.140  30.469  1.00  0.00     0.022 A 
BRANCH  81  84
ATOM     84  S   UNL A   1      37.955  29.718  33.116  1.00  0.00     0.127 S 
ATOM     85  O   UNL A   1      37.177  30.943  33.303  1.00  0.00    -0.237 OA
ATOM     86  O   UNL A   1      37.151  28.495  33.084  1.00  0.00    -0.237 OA
ATOM     87  O   UNL A   1      39.161  29.628  33.931  1.00  0.00    -0.744 OA
ENDBRANCH  81  84
ENDBRANCH  63  77
BRANCH  64  88
ATOM     88  C   UNL A   1      49.916  27.313  26.731  1.00  0.00     0.023 A 
ATOM     89  C   UNL A   1      49.502  27.224  25.373  1.00  0.00     0.012 A 
ATOM     90  C   UNL A   1      51.255  27.629  26.998  1.00  0.00     0.148 A 
ATOM     91  C   UNL A   1      50.281  27.789  24.359  1.00  0.00     0.002 A 
ATOM     92  C   UNL A   1      52.008  28.239  25.992  1.00  0.00     0.091 A 
ATOM     93  F   UNL A   1      51.674  27.565  28.268  1.00  0.00    -0.205 F 
ATOM     94  C   UNL A   1      51.504  28.362  24.685  1.00  0.00     0.022 A 
BRANCH  92  95
ATOM     95  S   UNL A   1      53.408  29.289  26.423  1.00  0.00     0.127 S 
ATOM     96  O   UNL A   1      54.048  28.541  27.498  1.00  0.00    -0.237 OA
ATOM     97  O   UNL A   1      54.150  29.331  25.164  1.00  0.00    -0.237 OA
ATOM     98  O   UNL A   1      52.802  30.561  26.790  1.00  0.00    -0.744 OA
ENDBRANCH  92  95
ENDBRANCH  64  88
BRANCH  76  99
ATOM     99  C   UNL A   1      45.599  33.349  28.016  1.00  0.00     0.023 A 
ATOM    100  C   UNL A   1      44.500  33.615  27.190  1.00  0.00     0.012 A 
ATOM    101  C   UNL A   1      46.363  34.500  28.401  1.00  0.00     0.148 A 
ATOM    102  C   UNL A   1      44.046  34.922  26.957  1.00  0.00     0.002 A 
ATOM    103  C   UNL A   1      45.923  35.797  28.162  1.00  0.00     0.091 A 
ATOM    104  F   UNL A   1      47.575  34.362  28.941  1.00  0.00    -0.205 F 
ATOM    105  C   UNL A   1      44.730  36.012  27.481  1.00  0.00     0.022 A 
BRANCH 103 106
ATOM    106  S   UNL A   1      46.847  37.246  28.705  1.00  0.00     0.127 S 
ATOM    107  O   UNL A   1      47.949  37.268  27.744  1.00  0.00    -0.237 OA
ATOM    108  O   UNL A   1      45.862  38.314  28.528  1.00  0.00    -0.237 OA
ATOM    109  O   UNL A   1      47.231  36.999  30.087  1.00  0.00    -0.744 OA
ENDBRANCH 103 106
ENDBRANCH  76  99
ENDBRANCH  50  51
ENDBRANCH  43  45
ENDBRANCH  42  43
ENDBRANCH  41  42
ENDBRANCH  40  41
ENDBRANCH  39  40
ENDBRANCH  38  39
ENDBRANCH  37  38
ENDBRANCH   1  37
TORSDOF 26
ENDMDL
MODEL 3
REMARK VINA RESULT:     -10.6      2.120      2.827
REMARK SMILES Cc1cccc(-c2ncc(C[NH+]3CCC4(CC3)NC(=O)C[C@H]4C(=O)OCCOCCOCCOCCOC(=O)c3ccc(-c4c5nc(c(-c6cccc(S(=O)(=O)[O-])c6F)c6ccc([nH]6)c(-c6cccc(S(=O)(=O)[O-])c6F)c6nc(c(-c7cccc(S(=O)(=O)[O-])c7F)c7ccc4[nH]7)C=C6)C=C5)cc3)cn2)c1
REMARK SMILES IDX 31 1 30 2 29 3 28 4 27 5 26 6 25 7 23 8 24 9 22 10 12 11
REMARK SMILES IDX 13 12 17 13 14 15 16 16 15 17 18 18 19 19 21 21 20 22 11 23
REMARK SMILES IDX 10 24 7 25 8 26 104 27 9 28 103 29 6 30 1 31 2 32 3 33
REMARK SMILES IDX 105 34 4 35 5 36 32 37 33 38 34 39 35 40 36 41 37 42 38 43
REMARK SMILES IDX 39 44 40 45 41 46 102 47 42 48 101 49 43 50 44 51 45 52
REMARK SMILES IDX 95 53 46 54 100 55 94 56 96 57 47 58 99 59 93 60 92 61 48 63
REMARK SMILES IDX 80 64 60 65 79 66 61 67 64 68 78 69 97 70 62 71 63 72 77 74
REMARK SMILES IDX 98 75 65 76 49 77 50 78 58 79 51 80 53 81 59 82 52 83 54 84
REMARK SMILES IDX 55 85 56 86 57 87 81 88 82 89 90 90 83 91 85 92 91 93 84 94
REMARK SMILES IDX 86 95 87 96 88 97 89 98 66 99 67 100 75 101 68 102 70 103
REMARK SMILES IDX 76 104 69 105 71 106 72 107 73 108 74 109
REMARK H PARENT 12 14 18 20 96 62 64 73
REMARK Flexibility Score: inf
ROOT
ATOM      1  O   UNL A   1      40.264  21.700  27.511  1.00  0.00    -0.377 OA
ENDROOT
BRANCH   1   2
ATOM      2  C   UNL A   1      39.793  22.196  26.257  1.00  0.00     0.188 C 
BRANCH   2   3
ATOM      3  C   UNL A   1      38.346  21.849  25.840  1.00  0.00     0.188 C 
BRANCH   3   4
ATOM      4  O   UNL A   1      38.142  20.774  24.932  1.00  0.00    -0.376 OA
BRANCH   4   5
ATOM      5  C   UNL A   1      36.836  20.255  25.005  1.00  0.00     0.202 C 
BRANCH   5   6
ATOM      6  C   UNL A   1      35.804  21.337  25.199  1.00  0.00     0.261 C 
BRANCH   6   7
ATOM      7  O   UNL A   1      34.671  21.151  24.333  1.00  0.00    -0.463 OA
BRANCH   7   8
ATOM      8  C   UNL A   1      33.475  21.011  24.927  1.00  0.00     0.311 C 
ATOM      9  O   UNL A   1      32.764  20.017  24.887  1.00  0.00    -0.252 OA
BRANCH   8  10
ATOM     10  C   UNL A   1      33.090  22.237  25.716  1.00  0.00     0.134 C 
ATOM     11  N   UNL A   1      33.530  24.380  22.227  1.00  0.00    -0.331 N 
ATOM     12  C   UNL A   1      34.287  24.647  23.428  1.00  0.00     0.264 C 
ATOM     13  C   UNL A   1      32.778  23.152  22.361  1.00  0.00     0.264 C 
ATOM     14  H   UNL A   1      34.270  24.262  21.535  1.00  0.00     0.348 HD
ATOM     15  C   UNL A   1      33.469  24.599  24.717  1.00  0.00     0.091 C 
ATOM     16  C   UNL A   1      31.837  23.031  23.551  1.00  0.00     0.091 C 
ATOM     17  C   UNL A   1      32.489  23.408  24.884  1.00  0.00     0.064 C 
ATOM     18  N   UNL A   1      31.416  23.875  25.752  1.00  0.00    -0.349 N 
ATOM     19  C   UNL A   1      31.130  23.081  26.818  1.00  0.00     0.221 C 
ATOM     20  H   UNL A   1      30.929  24.714  25.577  1.00  0.00     0.164 HD
ATOM     21  C   UNL A   1      32.111  21.960  26.877  1.00  0.00     0.117 C 
ATOM     22  O   UNL A   1      30.223  23.305  27.617  1.00  0.00    -0.275 OA
BRANCH  11  23
ATOM     23  C   UNL A   1      32.915  25.452  21.443  1.00  0.00     0.302 C 
BRANCH  23  24
ATOM     24  C   UNL A   1      32.590  26.702  22.200  1.00  0.00     0.043 A 
ATOM     25  C   UNL A   1      32.318  28.701  23.998  1.00  0.00     0.159 A 
ATOM     26  N   UNL A   1      33.319  28.797  23.098  1.00  0.00    -0.236 NA
ATOM     27  N   UNL A   1      31.363  27.761  23.988  1.00  0.00    -0.236 NA
ATOM     28  C   UNL A   1      33.411  27.801  22.199  1.00  0.00     0.124 A 
ATOM     29  C   UNL A   1      31.529  26.779  23.082  1.00  0.00     0.124 A 
BRANCH  25  30
ATOM     30  C   UNL A   1      32.361  29.620  25.132  1.00  0.00     0.019 A 
ATOM     31  C   UNL A   1      34.832  30.683  27.855  1.00  0.00     0.044 C 
ATOM     32  C   UNL A   1      33.596  30.610  27.008  1.00  0.00    -0.050 A 
ATOM     33  C   UNL A   1      32.539  31.499  27.216  1.00  0.00     0.003 A 
ATOM     34  C   UNL A   1      33.496  29.680  25.965  1.00  0.00     0.015 A 
ATOM     35  C   UNL A   1      31.391  31.429  26.427  1.00  0.00     0.001 A 
ATOM     36  C   UNL A   1      31.298  30.490  25.397  1.00  0.00     0.012 A 
ENDBRANCH  25  30
ENDBRANCH  23  24
ENDBRANCH  11  23
ENDBRANCH   8  10
ENDBRANCH   7   8
ENDBRANCH   6   7
ENDBRANCH   5   6
ENDBRANCH   4   5
ENDBRANCH   3   4
ENDBRANCH   2   3
ENDBRANCH   1   2
BRANCH   1  37
ATOM     37  C   UNL A   1      40.779  20.355  27.620  1.00  0.00     0.188 C 
BRANCH  37  38
ATOM     38  C   UNL A   1      41.327  19.684  26.362  1.00  0.00     0.188 C 
BRANCH  38  39
ATOM     39  O   UNL A   1      42.642  19.284  26.649  1.00  0.00    -0.376 OA
BRANCH  39  40
ATOM     40  C   UNL A   1      43.293  18.329  25.855  1.00  0.00     0.202 C 
BRANCH  40  41
ATOM     41  C   UNL A   1      44.197  18.866  24.748  1.00  0.00     0.261 C 
BRANCH  41  42
ATOM     42  O   UNL A   1      43.932  20.267  24.556  1.00  0.00    -0.460 OA
BRANCH  42  43
ATOM     43  C   UNL A   1      44.849  21.105  25.125  1.00  0.00     0.338 C 
ATOM     44  O   UNL A   1      45.988  20.779  25.419  1.00  0.00    -0.246 OA
BRANCH  43  45
ATOM     45  C   UNL A   1      44.172  22.362  25.583  1.00  0.00     0.060 A 
ATOM     46  C   UNL A   1      43.794  23.328  24.638  1.00  0.00     0.016 A 
ATOM     47  C   UNL A   1      44.175  22.719  26.925  1.00  0.00     0.016 A 
ATOM     48  C   UNL A   1      43.642  24.683  25.003  1.00  0.00     0.010 A 
ATOM     49  C   UNL A   1      44.008  24.061  27.269  1.00  0.00     0.010 A 
ATOM     50  C   UNL A   1      43.877  25.086  26.306  1.00  0.00    -0.014 A 
BRANCH  50  51
ATOM     51  C   UNL A   1      44.149  26.488  26.776  1.00  0.00     0.031 A 
ATOM     52  C   UNL A   1      42.943  27.363  27.054  1.00  0.00     0.074 A 
ATOM     53  C   UNL A   1      45.331  26.775  27.397  1.00  0.00     0.049 A 
ATOM     54  N   UNL A   1      42.896  28.461  27.744  1.00  0.00    -0.248 NA
ATOM     55  C   UNL A   1      41.633  27.006  26.511  1.00  0.00     0.031 C 
ATOM     56  C   UNL A   1      45.433  27.516  28.646  1.00  0.00     0.029 A 
ATOM     57  N   UNL A   1      46.660  26.392  27.208  1.00  0.00    -0.354 N 
ATOM     58  C   UNL A   1      41.559  28.781  27.973  1.00  0.00     0.074 A 
ATOM     59  C   UNL A   1      40.831  27.890  27.109  1.00  0.00     0.031 C 
ATOM     60  C   UNL A   1      46.676  27.538  29.129  1.00  0.00     0.029 A 
ATOM     61  C   UNL A   1      47.505  27.180  28.023  1.00  0.00     0.049 A 
ATOM     62  H   UNL A   1      46.964  25.680  26.599  1.00  0.00     0.167 HD
ATOM     63  C   UNL A   1      41.195  29.699  28.927  1.00  0.00     0.034 A 
ATOM     64  C   UNL A   1      48.425  28.086  27.580  1.00  0.00     0.034 A 
ATOM     65  C   UNL A   1      42.359  30.510  29.418  1.00  0.00     0.049 A 
ATOM     66  C   UNL A   1      47.932  29.556  27.646  1.00  0.00     0.074 A 
ATOM     67  C   UNL A   1      42.783  31.049  30.631  1.00  0.00     0.029 A 
ATOM     68  N   UNL A   1      43.406  30.808  28.535  1.00  0.00    -0.354 N 
ATOM     69  N   UNL A   1      46.914  30.028  28.346  1.00  0.00    -0.248 NA
ATOM     70  C   UNL A   1      48.549  30.604  26.842  1.00  0.00     0.031 C 
ATOM     71  C   UNL A   1      44.127  31.530  30.488  1.00  0.00     0.029 A 
ATOM     72  C   UNL A   1      44.486  31.411  29.159  1.00  0.00     0.049 A 
ATOM     73  H   UNL A   1      43.376  30.611  27.571  1.00  0.00     0.167 HD
ATOM     74  C   UNL A   1      46.621  31.328  27.957  1.00  0.00     0.074 A 
ATOM     75  C   UNL A   1      47.714  31.638  27.041  1.00  0.00     0.031 C 
ATOM     76  C   UNL A   1      45.497  32.050  28.321  1.00  0.00     0.034 A 
BRANCH  63  77
ATOM     77  C   UNL A   1      39.762  29.814  29.550  1.00  0.00     0.023 A 
ATOM     78  C   UNL A   1      39.042  28.609  29.744  1.00  0.00     0.012 A 
ATOM     79  C   UNL A   1      39.019  30.990  29.876  1.00  0.00     0.148 A 
ATOM     80  C   UNL A   1      37.693  28.558  30.140  1.00  0.00     0.002 A 
ATOM     81  C   UNL A   1      37.699  30.935  30.371  1.00  0.00     0.091 A 
ATOM     82  F   UNL A   1      39.533  32.200  29.656  1.00  0.00    -0.205 F 
ATOM     83  C   UNL A   1      37.022  29.720  30.466  1.00  0.00     0.022 A 
BRANCH  81  84
ATOM     84  S   UNL A   1      36.779  32.385  30.948  1.00  0.00     0.127 S 
ATOM     85  O   UNL A   1      36.987  33.343  29.862  1.00  0.00    -0.237 OA
ATOM     86  O   UNL A   1      35.412  31.870  31.040  1.00  0.00    -0.237 OA
ATOM     87  O   UNL A   1      37.368  32.770  32.225  1.00  0.00    -0.744 OA
ENDBRANCH  81  84
ENDBRANCH  63  77
BRANCH  64  88
ATOM     88  C   UNL A   1      49.465  27.412  26.733  1.00  0.00     0.023 A 
ATOM     89  C   UNL A   1      49.304  27.704  25.350  1.00  0.00     0.012 A 
ATOM     90  C   UNL A   1      50.764  27.353  27.252  1.00  0.00     0.148 A 
ATOM     91  C   UNL A   1      50.352  28.275  24.622  1.00  0.00     0.002 A 
ATOM     92  C   UNL A   1      51.795  27.971  26.540  1.00  0.00     0.091 A 
ATOM     93  F   UNL A   1      50.918  26.932  28.515  1.00  0.00    -0.205 F 
ATOM     94  C   UNL A   1      51.578  28.474  25.245  1.00  0.00     0.022 A 
BRANCH  92  95
ATOM     95  S   UNL A   1      53.262  28.561  27.404  1.00  0.00     0.127 S 
ATOM     96  O   UNL A   1      52.700  29.180  28.597  1.00  0.00    -0.237 OA
ATOM     97  O   UNL A   1      53.997  27.318  27.632  1.00  0.00    -0.237 OA
ATOM     98  O   UNL A   1      53.904  29.455  26.451  1.00  0.00    -0.744 OA
ENDBRANCH  92  95
ENDBRANCH  64  88
BRANCH  76  99
ATOM     99  C   UNL A   1      45.104  33.457  27.809  1.00  0.00     0.023 A 
ATOM    100  C   UNL A   1      44.786  33.719  26.470  1.00  0.00     0.012 A 
ATOM    101  C   UNL A   1      45.052  34.596  28.679  1.00  0.00     0.148 A 
ATOM    102  C   UNL A   1      44.230  34.943  26.065  1.00  0.00     0.002 A 
ATOM    103  C   UNL A   1      44.513  35.813  28.279  1.00  0.00     0.091 A 
ATOM    104  F   UNL A   1      45.597  34.546  29.897  1.00  0.00    -0.205 F 
ATOM    105  C   UNL A   1      44.050  35.974  26.978  1.00  0.00     0.022 A 
BRANCH 103 106
ATOM    106  S   UNL A   1      44.383  37.224  29.392  1.00  0.00     0.127 S 
ATOM    107  O   UNL A   1      43.841  36.597  30.598  1.00  0.00    -0.237 OA
ATOM    108  O   UNL A   1      45.779  37.650  29.502  1.00  0.00    -0.237 OA
ATOM    109  O   UNL A   1      43.505  38.187  28.743  1.00  0.00    -0.744 OA
ENDBRANCH 103 106
ENDBRANCH  76  99
ENDBRANCH  50  51
ENDBRANCH  43  45
ENDBRANCH  42  43
ENDBRANCH  41  42
ENDBRANCH  40  41
ENDBRANCH  39  40
ENDBRANCH  38  39
ENDBRANCH  37  38
ENDBRANCH   1  37
TORSDOF 26
ENDMDL
