MODEL 1
REMARK VINA RESULT:      -6.5      0.000      0.000
REMARK SMILES Cc1nc(C)c(C(=O)N[C@@H](CCS(C)(=O)=O)C(=O)OCCOCCOCCOCCOC(=O)c2ccc(-c3c4nc(c(-c5cccc(S(=O)(=O)[O-])c5F)c5ccc([nH]5)c(-c5cccc(S(=O)(=O)[O-])c5F)c5nc(c(-c6cccc(S(=O)(=O)[O-])c6F)c6ccc3[nH]6)C=C5)C=C4)cc2)s1
REMARK SMILES IDX 25 1 24 2 23 3 22 4 21 5 20 6 19 7 17 8 18 9 10 10 9 11 7 12
REMARK SMILES IDX 8 13 6 15 1 16 2 17 3 18 97 19 4 20 5 21 11 22 12 23 13 24
REMARK SMILES IDX 14 25 15 26 16 27 26 28 27 29 28 30 29 31 30 32 31 33 32 34
REMARK SMILES IDX 33 35 34 36 35 37 96 38 36 39 95 40 37 41 38 42 39 43 89 44
REMARK SMILES IDX 40 45 94 46 88 47 90 48 41 49 93 50 87 51 86 52 42 54 74 55
REMARK SMILES IDX 54 56 73 57 55 58 58 59 72 60 91 61 56 62 57 63 71 65 92 66
REMARK SMILES IDX 59 67 43 68 44 69 52 70 45 71 47 72 53 73 46 74 48 75 49 76
REMARK SMILES IDX 50 77 51 78 75 79 76 80 84 81 77 82 79 83 85 84 78 85 80 86
REMARK SMILES IDX 81 87 82 88 83 89 60 90 61 91 69 92 62 93 64 94 70 95 63 96
REMARK SMILES IDX 65 97 66 98 67 99 68 100
REMARK H PARENT 9 14 90 53 58 64
REMARK Flexibility Score: inf
ROOT
ATOM      1  O   UNL A   1      41.222  27.421  26.971  1.00  0.00    -0.377 OA
ENDROOT
BRANCH   1   2
ATOM      2  C   UNL A   1      40.273  28.466  26.934  1.00  0.00     0.188 C 
BRANCH   2   3
ATOM      3  C   UNL A   1      39.278  28.504  28.110  1.00  0.00     0.188 C 
BRANCH   3   4
ATOM      4  O   UNL A   1      39.661  29.045  29.370  1.00  0.00    -0.376 OA
BRANCH   4   5
ATOM      5  C   UNL A   1      40.088  30.400  29.441  1.00  0.00     0.202 C 
BRANCH   5   6
ATOM      6  C   UNL A   1      39.997  31.148  30.774  1.00  0.00     0.261 C 
BRANCH   6   7
ATOM      7  O   UNL A   1      40.303  32.556  30.710  1.00  0.00    -0.462 OA
BRANCH   7   8
ATOM      8  C   UNL A   1      39.318  33.436  30.988  1.00  0.00     0.328 C 
ATOM      9  O   UNL A   1      39.507  34.617  31.265  1.00  0.00    -0.250 OA
BRANCH   8  10
ATOM     10  C   UNL A   1      37.938  32.767  31.170  1.00  0.00     0.193 C 
BRANCH  10  11
ATOM     11  N   UNL A   1      37.189  32.929  32.420  1.00  0.00    -0.338 N 
ATOM     12  C   UNL A   1      37.226  32.291  33.653  1.00  0.00     0.263 C 
ATOM     13  O   UNL A   1      36.304  32.616  34.407  1.00  0.00    -0.268 OA
ATOM     14  H   UNL A   1      36.513  33.643  32.376  1.00  0.00     0.164 HD
BRANCH  12  15
ATOM     15  C   UNL A   1      38.266  31.358  34.096  1.00  0.00     0.115 A 
ATOM     16  C   UNL A   1      41.404  29.827  35.847  1.00  0.00     0.079 C 
ATOM     17  C   UNL A   1      40.158  30.179  35.113  1.00  0.00     0.091 A 
ATOM     18  N   UNL A   1      39.536  29.375  34.289  1.00  0.00    -0.246 NA
ATOM     19  S   UNL A   1      39.432  31.705  35.309  1.00  0.00    -0.113 S 
ATOM     20  C   UNL A   1      38.434  30.017  33.726  1.00  0.00     0.061 A 
ATOM     21  C   UNL A   1      37.613  29.168  32.813  1.00  0.00     0.068 C 
ENDBRANCH  12  15
ENDBRANCH  10  11
BRANCH  10  22
ATOM     22  C   UNL A   1      37.066  33.058  29.929  1.00  0.00     0.053 C 
BRANCH  22  23
ATOM     23  C   UNL A   1      35.602  32.630  29.901  1.00  0.00     0.139 C 
BRANCH  23  24
ATOM     24  S   UNL A   1      34.610  32.950  28.452  1.00  0.00     0.147 S 
ATOM     25  C   UNL A   1      33.442  34.231  28.850  1.00  0.00     0.158 C 
ATOM     26  O   UNL A   1      35.495  33.522  27.460  1.00  0.00    -0.229 OA
ATOM     27  O   UNL A   1      33.865  31.743  28.164  1.00  0.00    -0.229 OA
ENDBRANCH  23  24
ENDBRANCH  22  23
ENDBRANCH  10  22
ENDBRANCH   8  10
ENDBRANCH   7   8
ENDBRANCH   6   7
ENDBRANCH   5   6
ENDBRANCH   4   5
ENDBRANCH   3   4
ENDBRANCH   2   3
ENDBRANCH   1   2
BRANCH   1  28
ATOM     28  C   UNL A   1      40.926  26.268  26.191  1.00  0.00     0.188 C 
BRANCH  28  29
ATOM     29  C   UNL A   1      40.476  25.013  26.966  1.00  0.00     0.188 C 
BRANCH  29  30
ATOM     30  O   UNL A   1      41.049  23.801  26.492  1.00  0.00    -0.376 OA
BRANCH  30  31
ATOM     31  C   UNL A   1      42.122  23.210  27.210  1.00  0.00     0.202 C 
BRANCH  31  32
ATOM     32  C   UNL A   1      43.488  23.918  27.234  1.00  0.00     0.261 C 
BRANCH  32  33
ATOM     33  O   UNL A   1      44.625  23.112  27.567  1.00  0.00    -0.460 OA
BRANCH  33  34
ATOM     34  C   UNL A   1      45.492  22.807  26.576  1.00  0.00     0.338 C 
ATOM     35  O   UNL A   1      45.471  21.826  25.863  1.00  0.00    -0.246 OA
BRANCH  34  36
ATOM     36  C   UNL A   1      46.354  23.991  26.367  1.00  0.00     0.060 A 
ATOM     37  C   UNL A   1      47.069  24.506  27.457  1.00  0.00     0.016 A 
ATOM     38  C   UNL A   1      46.452  24.585  25.108  1.00  0.00     0.016 A 
ATOM     39  C   UNL A   1      47.853  25.647  27.299  1.00  0.00     0.010 A 
ATOM     40  C   UNL A   1      47.215  25.745  24.958  1.00  0.00     0.010 A 
ATOM     41  C   UNL A   1      47.887  26.300  26.062  1.00  0.00    -0.014 A 
BRANCH  41  42
ATOM     42  C   UNL A   1      48.436  27.673  25.981  1.00  0.00     0.031 A 
ATOM     43  C   UNL A   1      49.861  27.840  25.529  1.00  0.00     0.074 A 
ATOM     44  C   UNL A   1      47.688  28.747  26.288  1.00  0.00     0.049 A 
ATOM     45  N   UNL A   1      50.578  28.927  25.426  1.00  0.00    -0.248 NA
ATOM     46  C   UNL A   1      50.577  26.610  25.145  1.00  0.00     0.031 C 
ATOM     47  C   UNL A   1      46.291  28.712  26.715  1.00  0.00     0.029 A 
ATOM     48  N   UNL A   1      48.017  30.079  26.312  1.00  0.00    -0.354 N 
ATOM     49  C   UNL A   1      51.834  28.512  24.999  1.00  0.00     0.074 A 
ATOM     50  C   UNL A   1      51.787  27.072  24.871  1.00  0.00     0.031 C 
ATOM     51  C   UNL A   1      45.890  29.966  26.992  1.00  0.00     0.029 A 
ATOM     52  C   UNL A   1      47.010  30.883  26.792  1.00  0.00     0.049 A 
ATOM     53  H   UNL A   1      48.890  30.425  26.015  1.00  0.00     0.167 HD
ATOM     54  C   UNL A   1      52.927  29.263  24.730  1.00  0.00     0.034 A 
ATOM     55  C   UNL A   1      47.010  32.202  27.066  1.00  0.00     0.034 A 
ATOM     56  C   UNL A   1      52.966  30.694  24.849  1.00  0.00     0.049 A 
ATOM     57  C   UNL A   1      48.256  33.010  26.799  1.00  0.00     0.074 A 
ATOM     58  C   UNL A   1      54.013  31.551  24.561  1.00  0.00     0.029 A 
ATOM     59  N   UNL A   1      51.920  31.478  25.310  1.00  0.00    -0.354 N 
ATOM     60  N   UNL A   1      49.403  32.622  26.297  1.00  0.00    -0.248 NA
ATOM     61  C   UNL A   1      48.196  34.446  27.108  1.00  0.00     0.031 C 
ATOM     62  C   UNL A   1      53.613  32.851  24.888  1.00  0.00     0.029 A 
ATOM     63  C   UNL A   1      52.301  32.808  25.333  1.00  0.00     0.049 A 
ATOM     64  H   UNL A   1      51.037  31.138  25.581  1.00  0.00     0.167 HD
ATOM     65  C   UNL A   1      50.184  33.768  26.194  1.00  0.00     0.074 A 
ATOM     66  C   UNL A   1      49.372  34.870  26.666  1.00  0.00     0.031 C 
ATOM     67  C   UNL A   1      51.463  33.900  25.757  1.00  0.00     0.034 A 
BRANCH  54  68
ATOM     68  C   UNL A   1      54.172  28.549  24.274  1.00  0.00     0.023 A 
ATOM     69  C   UNL A   1      55.096  28.067  25.225  1.00  0.00     0.012 A 
ATOM     70  C   UNL A   1      54.400  28.309  22.905  1.00  0.00     0.148 A 
ATOM     71  C   UNL A   1      56.242  27.385  24.818  1.00  0.00     0.002 A 
ATOM     72  C   UNL A   1      55.519  27.586  22.511  1.00  0.00     0.091 A 
ATOM     73  F   UNL A   1      53.522  28.795  22.017  1.00  0.00    -0.205 F 
ATOM     74  C   UNL A   1      56.447  27.135  23.464  1.00  0.00     0.022 A 
BRANCH  72  75
ATOM     75  S   UNL A   1      55.832  27.142  20.799  1.00  0.00     0.127 S 
ATOM     76  O   UNL A   1      57.022  26.302  20.925  1.00  0.00    -0.237 OA
ATOM     77  O   UNL A   1      54.610  26.418  20.444  1.00  0.00    -0.237 OA
ATOM     78  O   UNL A   1      56.028  28.395  20.084  1.00  0.00    -0.744 OA
ENDBRANCH  72  75
ENDBRANCH  54  68
BRANCH  55  79
ATOM     79  C   UNL A   1      45.788  32.855  27.616  1.00  0.00     0.023 A 
ATOM     80  C   UNL A   1      44.839  33.412  26.736  1.00  0.00     0.012 A 
ATOM     81  C   UNL A   1      45.569  32.944  29.006  1.00  0.00     0.148 A 
ATOM     82  C   UNL A   1      43.714  34.075  27.229  1.00  0.00     0.002 A 
ATOM     83  C   UNL A   1      44.422  33.561  29.489  1.00  0.00     0.091 A 
ATOM     84  F   UNL A   1      46.494  32.425  29.827  1.00  0.00    -0.205 F 
ATOM     85  C   UNL A   1      43.501  34.141  28.603  1.00  0.00     0.022 A 
BRANCH  83  86
ATOM     86  S   UNL A   1      44.014  33.612  31.237  1.00  0.00     0.127 S 
ATOM     87  O   UNL A   1      43.811  32.196  31.537  1.00  0.00    -0.237 OA
ATOM     88  O   UNL A   1      45.229  34.192  31.812  1.00  0.00    -0.237 OA
ATOM     89  O   UNL A   1      42.829  34.453  31.342  1.00  0.00    -0.744 OA
ENDBRANCH  83  86
ENDBRANCH  55  79
BRANCH  67  90
ATOM     90  C   UNL A   1      52.054  35.287  25.717  1.00  0.00     0.023 A 
ATOM     91  C   UNL A   1      51.964  36.062  24.545  1.00  0.00     0.012 A 
ATOM     92  C   UNL A   1      52.632  35.848  26.874  1.00  0.00     0.148 A 
ATOM     93  C   UNL A   1      52.475  37.360  24.511  1.00  0.00     0.002 A 
ATOM     94  C   UNL A   1      53.090  37.160  26.850  1.00  0.00     0.091 A 
ATOM     95  F   UNL A   1      52.720  35.091  27.977  1.00  0.00    -0.205 F 
ATOM     96  C   UNL A   1      53.026  37.912  25.666  1.00  0.00     0.022 A 
BRANCH  94  97
ATOM     97  S   UNL A   1      53.722  37.990  28.312  1.00  0.00     0.127 S 
ATOM     98  O   UNL A   1      54.981  37.280  28.536  1.00  0.00    -0.237 OA
ATOM     99  O   UNL A   1      53.873  39.368  27.844  1.00  0.00    -0.237 OA
ATOM    100  O   UNL A   1      52.714  37.809  29.347  1.00  0.00    -0.744 OA
ENDBRANCH  94  97
ENDBRANCH  67  90
ENDBRANCH  41  42
ENDBRANCH  34  36
ENDBRANCH  33  34
ENDBRANCH  32  33
ENDBRANCH  31  32
ENDBRANCH  30  31
ENDBRANCH  29  30
ENDBRANCH  28  29
ENDBRANCH   1  28
TORSDOF 28
ENDMDL
MODEL 2
REMARK VINA RESULT:      -6.3      4.826      9.818
REMARK SMILES Cc1nc(C)c(C(=O)N[C@@H](CCS(C)(=O)=O)C(=O)OCCOCCOCCOCCOC(=O)c2ccc(-c3c4nc(c(-c5cccc(S(=O)(=O)[O-])c5F)c5ccc([nH]5)c(-c5cccc(S(=O)(=O)[O-])c5F)c5nc(c(-c6cccc(S(=O)(=O)[O-])c6F)c6ccc3[nH]6)C=C5)C=C4)cc2)s1
REMARK SMILES IDX 25 1 24 2 23 3 22 4 21 5 20 6 19 7 17 8 18 9 10 10 9 11 7 12
REMARK SMILES IDX 8 13 6 15 1 16 2 17 3 18 97 19 4 20 5 21 11 22 12 23 13 24
REMARK SMILES IDX 14 25 15 26 16 27 26 28 27 29 28 30 29 31 30 32 31 33 32 34
REMARK SMILES IDX 33 35 34 36 35 37 96 38 36 39 95 40 37 41 38 42 39 43 89 44
REMARK SMILES IDX 40 45 94 46 88 47 90 48 41 49 93 50 87 51 86 52 42 54 74 55
REMARK SMILES IDX 54 56 73 57 55 58 58 59 72 60 91 61 56 62 57 63 71 65 92 66
REMARK SMILES IDX 59 67 43 68 44 69 52 70 45 71 47 72 53 73 46 74 48 75 49 76
REMARK SMILES IDX 50 77 51 78 75 79 76 80 84 81 77 82 79 83 85 84 78 85 80 86
REMARK SMILES IDX 81 87 82 88 83 89 60 90 61 91 69 92 62 93 64 94 70 95 63 96
REMARK SMILES IDX 65 97 66 98 67 99 68 100
REMARK H PARENT 9 14 90 53 58 64
REMARK Flexibility Score: inf
ROOT
ATOM      1  O   UNL A   1      39.999  28.104  29.121  1.00  0.00    -0.377 OA
ENDROOT
BRANCH   1   2
ATOM      2  C   UNL A   1      40.381  27.320  28.012  1.00  0.00     0.188 C 
BRANCH   2   3
ATOM      3  C   UNL A   1      39.593  26.009  27.821  1.00  0.00     0.188 C 
BRANCH   3   4
ATOM      4  O   UNL A   1      40.273  24.775  27.614  1.00  0.00    -0.376 OA
BRANCH   4   5
ATOM      5  C   UNL A   1      39.532  23.637  27.192  1.00  0.00     0.202 C 
BRANCH   5   6
ATOM      6  C   UNL A   1      40.277  22.363  26.785  1.00  0.00     0.261 C 
BRANCH   6   7
ATOM      7  O   UNL A   1      41.593  22.571  26.231  1.00  0.00    -0.462 OA
BRANCH   7   8
ATOM      8  C   UNL A   1      42.661  22.360  27.029  1.00  0.00     0.328 C 
ATOM      9  O   UNL A   1      42.587  21.952  28.185  1.00  0.00    -0.250 OA
BRANCH   8  10
ATOM     10  C   UNL A   1      43.978  22.912  26.443  1.00  0.00     0.193 C 
BRANCH  10  11
ATOM     11  N   UNL A   1      45.072  23.331  27.327  1.00  0.00    -0.338 N 
ATOM     12  C   UNL A   1      46.019  24.344  27.271  1.00  0.00     0.263 C 
ATOM     13  O   UNL A   1      46.885  24.261  28.147  1.00  0.00    -0.268 OA
ATOM     14  H   UNL A   1      45.151  22.772  28.134  1.00  0.00     0.164 HD
BRANCH  12  15
ATOM     15  C   UNL A   1      46.011  25.464  26.325  1.00  0.00     0.115 A 
ATOM     16  C   UNL A   1      47.045  28.005  23.546  1.00  0.00     0.079 C 
ATOM     17  C   UNL A   1      46.432  27.147  24.595  1.00  0.00     0.091 A 
ATOM     18  N   UNL A   1      45.298  27.411  25.193  1.00  0.00    -0.246 NA
ATOM     19  S   UNL A   1      47.189  25.710  25.100  1.00  0.00    -0.113 S 
ATOM     20  C   UNL A   1      45.023  26.444  26.159  1.00  0.00     0.061 A 
ATOM     21  C   UNL A   1      43.719  26.615  26.864  1.00  0.00     0.068 C 
ENDBRANCH  12  15
ENDBRANCH  10  11
BRANCH  10  22
ATOM     22  C   UNL A   1      44.467  21.972  25.319  1.00  0.00     0.053 C 
BRANCH  22  23
ATOM     23  C   UNL A   1      44.193  20.473  25.398  1.00  0.00     0.139 C 
BRANCH  23  24
ATOM     24  S   UNL A   1      45.420  19.315  24.818  1.00  0.00     0.147 S 
ATOM     25  C   UNL A   1      45.194  19.095  23.067  1.00  0.00     0.158 C 
ATOM     26  O   UNL A   1      46.707  19.961  24.968  1.00  0.00    -0.229 OA
ATOM     27  O   UNL A   1      45.156  18.046  25.461  1.00  0.00    -0.229 OA
ENDBRANCH  23  24
ENDBRANCH  22  23
ENDBRANCH  10  22
ENDBRANCH   8  10
ENDBRANCH   7   8
ENDBRANCH   6   7
ENDBRANCH   5   6
ENDBRANCH   4   5
ENDBRANCH   3   4
ENDBRANCH   2   3
ENDBRANCH   1   2
BRANCH   1  28
ATOM     28  C   UNL A   1      40.883  28.100  30.236  1.00  0.00     0.188 C 
BRANCH  28  29
ATOM     29  C   UNL A   1      40.993  29.417  31.031  1.00  0.00     0.188 C 
BRANCH  29  30
ATOM     30  O   UNL A   1      41.430  29.251  32.373  1.00  0.00    -0.376 OA
BRANCH  30  31
ATOM     31  C   UNL A   1      40.507  29.442  33.435  1.00  0.00     0.202 C 
BRANCH  31  32
ATOM     32  C   UNL A   1      39.456  30.560  33.323  1.00  0.00     0.261 C 
BRANCH  32  33
ATOM     33  O   UNL A   1      39.949  31.905  33.286  1.00  0.00    -0.460 OA
BRANCH  33  34
ATOM     34  C   UNL A   1      39.439  32.737  32.351  1.00  0.00     0.338 C 
ATOM     35  O   UNL A   1      38.267  32.973  32.144  1.00  0.00    -0.246 OA
BRANCH  34  36
ATOM     36  C   UNL A   1      40.572  33.481  31.760  1.00  0.00     0.060 A 
ATOM     37  C   UNL A   1      40.717  33.495  30.366  1.00  0.00     0.016 A 
ATOM     38  C   UNL A   1      41.483  34.155  32.576  1.00  0.00     0.016 A 
ATOM     39  C   UNL A   1      41.800  34.151  29.784  1.00  0.00     0.010 A 
ATOM     40  C   UNL A   1      42.584  34.786  31.993  1.00  0.00     0.010 A 
ATOM     41  C   UNL A   1      42.766  34.753  30.599  1.00  0.00    -0.014 A 
BRANCH  41  42
ATOM     42  C   UNL A   1      44.067  35.147  30.012  1.00  0.00     0.031 A 
ATOM     43  C   UNL A   1      45.198  34.157  30.068  1.00  0.00     0.074 A 
ATOM     44  C   UNL A   1      44.239  36.348  29.432  1.00  0.00     0.049 A 
ATOM     45  N   UNL A   1      46.436  34.286  29.671  1.00  0.00    -0.248 NA
ATOM     46  C   UNL A   1      44.891  32.841  30.657  1.00  0.00     0.031 C 
ATOM     47  C   UNL A   1      43.213  37.379  29.298  1.00  0.00     0.029 A 
ATOM     48  N   UNL A   1      45.360  36.909  28.872  1.00  0.00    -0.354 N 
ATOM     49  C   UNL A   1      47.062  33.088  29.991  1.00  0.00     0.074 A 
ATOM     50  C   UNL A   1      46.073  32.245  30.623  1.00  0.00     0.031 C 
ATOM     51  C   UNL A   1      43.761  38.464  28.722  1.00  0.00     0.029 A 
ATOM     52  C   UNL A   1      45.180  38.214  28.478  1.00  0.00     0.049 A 
ATOM     53  H   UNL A   1      46.210  36.424  28.764  1.00  0.00     0.167 HD
ATOM     54  C   UNL A   1      48.345  32.718  29.770  1.00  0.00     0.034 A 
ATOM     55  C   UNL A   1      46.070  39.108  28.005  1.00  0.00     0.034 A 
ATOM     56  C   UNL A   1      49.322  33.556  29.131  1.00  0.00     0.049 A 
ATOM     57  C   UNL A   1      47.505  38.684  27.809  1.00  0.00     0.074 A 
ATOM     58  C   UNL A   1      50.638  33.259  28.825  1.00  0.00     0.029 A 
ATOM     59  N   UNL A   1      49.098  34.860  28.719  1.00  0.00    -0.354 N 
ATOM     60  N   UNL A   1      48.060  37.515  28.018  1.00  0.00    -0.248 NA
ATOM     61  C   UNL A   1      48.431  39.698  27.282  1.00  0.00     0.031 C 
ATOM     62  C   UNL A   1      51.222  34.400  28.264  1.00  0.00     0.029 A 
ATOM     63  C   UNL A   1      50.256  35.390  28.177  1.00  0.00     0.049 A 
ATOM     64  H   UNL A   1      48.242  35.338  28.800  1.00  0.00     0.167 HD
ATOM     65  C   UNL A   1      49.385  37.641  27.613  1.00  0.00     0.074 A 
ATOM     66  C   UNL A   1      49.544  38.995  27.125  1.00  0.00     0.031 C 
ATOM     67  C   UNL A   1      50.384  36.724  27.648  1.00  0.00     0.034 A 
BRANCH  54  68
ATOM     68  C   UNL A   1      48.765  31.344  30.219  1.00  0.00     0.023 A 
ATOM     69  C   UNL A   1      49.409  31.175  31.462  1.00  0.00     0.012 A 
ATOM     70  C   UNL A   1      48.474  30.213  29.431  1.00  0.00     0.148 A 
ATOM     71  C   UNL A   1      49.784  29.905  31.900  1.00  0.00     0.002 A 
ATOM     72  C   UNL A   1      48.807  28.947  29.898  1.00  0.00     0.091 A 
ATOM     73  F   UNL A   1      47.883  30.397  28.243  1.00  0.00    -0.205 F 
ATOM     74  C   UNL A   1      49.473  28.792  31.124  1.00  0.00     0.022 A 
BRANCH  72  75
ATOM     75  S   UNL A   1      48.377  27.445  29.012  1.00  0.00     0.127 S 
ATOM     76  O   UNL A   1      49.002  26.421  29.847  1.00  0.00    -0.237 OA
ATOM     77  O   UNL A   1      46.915  27.467  29.066  1.00  0.00    -0.237 OA
ATOM     78  O   UNL A   1      48.939  27.587  27.676  1.00  0.00    -0.744 OA
ENDBRANCH  72  75
ENDBRANCH  54  68
BRANCH  55  79
ATOM     79  C   UNL A   1      45.638  40.494  27.670  1.00  0.00     0.023 A 
ATOM     80  C   UNL A   1      45.765  41.516  28.631  1.00  0.00     0.012 A 
ATOM     81  C   UNL A   1      45.086  40.802  26.410  1.00  0.00     0.148 A 
ATOM     82  C   UNL A   1      45.318  42.809  28.359  1.00  0.00     0.002 A 
ATOM     83  C   UNL A   1      44.689  42.104  26.127  1.00  0.00     0.091 A 
ATOM     84  F   UNL A   1      44.955  39.812  25.516  1.00  0.00    -0.205 F 
ATOM     85  C   UNL A   1      44.789  43.105  27.105  1.00  0.00     0.022 A 
BRANCH  83  86
ATOM     86  S   UNL A   1      44.086  42.601  24.510  1.00  0.00     0.127 S 
ATOM     87  O   UNL A   1      45.160  42.138  23.635  1.00  0.00    -0.237 OA
ATOM     88  O   UNL A   1      42.840  41.839  24.408  1.00  0.00    -0.237 OA
ATOM     89  O   UNL A   1      43.911  44.046  24.581  1.00  0.00    -0.744 OA
ENDBRANCH  83  86
ENDBRANCH  55  79
BRANCH  67  90
ATOM     90  C   UNL A   1      51.731  37.128  27.101  1.00  0.00     0.023 A 
ATOM     91  C   UNL A   1      52.001  37.009  25.724  1.00  0.00     0.012 A 
ATOM     92  C   UNL A   1      52.702  37.700  27.948  1.00  0.00     0.148 A 
ATOM     93  C   UNL A   1      53.229  37.415  25.204  1.00  0.00     0.002 A 
ATOM     94  C   UNL A   1      53.902  38.152  27.415  1.00  0.00     0.091 A 
ATOM     95  F   UNL A   1      52.432  37.794  29.258  1.00  0.00    -0.205 F 
ATOM     96  C   UNL A   1      54.174  37.997  26.046  1.00  0.00     0.022 A 
BRANCH  94  97
ATOM     97  S   UNL A   1      55.137  39.005  28.402  1.00  0.00     0.127 S 
ATOM     98  O   UNL A   1      54.383  40.157  28.894  1.00  0.00    -0.237 OA
ATOM     99  O   UNL A   1      55.461  38.006  29.421  1.00  0.00    -0.237 OA
ATOM    100  O   UNL A   1      56.232  39.320  27.494  1.00  0.00    -0.744 OA
ENDBRANCH  94  97
ENDBRANCH  67  90
ENDBRANCH  41  42
ENDBRANCH  34  36
ENDBRANCH  33  34
ENDBRANCH  32  33
ENDBRANCH  31  32
ENDBRANCH  30  31
ENDBRANCH  29  30
ENDBRANCH  28  29
ENDBRANCH   1  28
TORSDOF 28
ENDMDL
MODEL 3
REMARK VINA RESULT:      -6.3      6.594     12.503
REMARK SMILES Cc1nc(C)c(C(=O)N[C@@H](CCS(C)(=O)=O)C(=O)OCCOCCOCCOCCOC(=O)c2ccc(-c3c4nc(c(-c5cccc(S(=O)(=O)[O-])c5F)c5ccc([nH]5)c(-c5cccc(S(=O)(=O)[O-])c5F)c5nc(c(-c6cccc(S(=O)(=O)[O-])c6F)c6ccc3[nH]6)C=C5)C=C4)cc2)s1
REMARK SMILES IDX 25 1 24 2 23 3 22 4 21 5 20 6 19 7 17 8 18 9 10 10 9 11 7 12
REMARK SMILES IDX 8 13 6 15 1 16 2 17 3 18 97 19 4 20 5 21 11 22 12 23 13 24
REMARK SMILES IDX 14 25 15 26 16 27 26 28 27 29 28 30 29 31 30 32 31 33 32 34
REMARK SMILES IDX 33 35 34 36 35 37 96 38 36 39 95 40 37 41 38 42 39 43 89 44
REMARK SMILES IDX 40 45 94 46 88 47 90 48 41 49 93 50 87 51 86 52 42 54 74 55
REMARK SMILES IDX 54 56 73 57 55 58 58 59 72 60 91 61 56 62 57 63 71 65 92 66
REMARK SMILES IDX 59 67 43 68 44 69 52 70 45 71 47 72 53 73 46 74 48 75 49 76
REMARK SMILES IDX 50 77 51 78 75 79 76 80 84 81 77 82 79 83 85 84 78 85 80 86
REMARK SMILES IDX 81 87 82 88 83 89 60 90 61 91 69 92 62 93 64 94 70 95 63 96
REMARK SMILES IDX 65 97 66 98 67 99 68 100
REMARK H PARENT 9 14 90 53 58 64
REMARK Flexibility Score: inf
ROOT
ATOM      1  O   UNL A   1      49.634  24.797  34.496  1.00  0.00    -0.377 OA
ENDROOT
BRANCH   1   2
ATOM      2  C   UNL A   1      48.498  24.329  33.801  1.00  0.00     0.188 C 
BRANCH   2   3
ATOM      3  C   UNL A   1      47.275  25.267  33.814  1.00  0.00     0.188 C 
BRANCH   3   4
ATOM      4  O   UNL A   1      45.959  24.749  33.654  1.00  0.00    -0.376 OA
BRANCH   4   5
ATOM      5  C   UNL A   1      45.145  25.241  32.596  1.00  0.00     0.202 C 
BRANCH   5   6
ATOM      6  C   UNL A   1      44.999  24.416  31.315  1.00  0.00     0.261 C 
BRANCH   6   7
ATOM      7  O   UNL A   1      43.976  24.873  30.404  1.00  0.00    -0.462 OA
BRANCH   7   8
ATOM      8  C   UNL A   1      43.415  23.970  29.572  1.00  0.00     0.328 C 
ATOM      9  O   UNL A   1      43.609  22.759  29.637  1.00  0.00    -0.250 OA
BRANCH   8  10
ATOM     10  C   UNL A   1      42.696  24.616  28.368  1.00  0.00     0.193 C 
BRANCH  10  11
ATOM     11  N   UNL A   1      41.318  24.243  28.033  1.00  0.00    -0.338 N 
ATOM     12  C   UNL A   1      40.754  23.220  27.282  1.00  0.00     0.263 C 
ATOM     13  O   UNL A   1      39.540  23.349  27.103  1.00  0.00    -0.268 OA
ATOM     14  H   UNL A   1      40.647  24.848  28.425  1.00  0.00     0.164 HD
BRANCH  12  15
ATOM     15  C   UNL A   1      41.469  22.046  26.772  1.00  0.00     0.115 A 
ATOM     16  C   UNL A   1      42.711  18.385  26.220  1.00  0.00     0.079 C 
ATOM     17  C   UNL A   1      42.370  19.833  26.231  1.00  0.00     0.091 A 
ATOM     18  N   UNL A   1      42.995  20.743  25.525  1.00  0.00    -0.246 NA
ATOM     19  S   UNL A   1      41.095  20.423  27.190  1.00  0.00    -0.113 S 
ATOM     20  C   UNL A   1      42.472  22.007  25.794  1.00  0.00     0.061 A 
ATOM     21  C   UNL A   1      43.073  23.116  24.996  1.00  0.00     0.068 C 
ENDBRANCH  12  15
ENDBRANCH  10  11
BRANCH  10  22
ATOM     22  C   UNL A   1      42.884  26.148  28.427  1.00  0.00     0.053 C 
BRANCH  22  23
ATOM     23  C   UNL A   1      41.789  27.036  29.011  1.00  0.00     0.139 C 
BRANCH  23  24
ATOM     24  S   UNL A   1      40.570  27.768  27.933  1.00  0.00     0.147 S 
ATOM     25  C   UNL A   1      39.709  29.030  28.843  1.00  0.00     0.158 C 
ATOM     26  O   UNL A   1      41.299  28.463  26.893  1.00  0.00    -0.229 OA
ATOM     27  O   UNL A   1      39.615  26.734  27.595  1.00  0.00    -0.229 OA
ENDBRANCH  23  24
ENDBRANCH  22  23
ENDBRANCH  10  22
ENDBRANCH   8  10
ENDBRANCH   7   8
ENDBRANCH   6   7
ENDBRANCH   5   6
ENDBRANCH   4   5
ENDBRANCH   3   4
ENDBRANCH   2   3
ENDBRANCH   1   2
BRANCH   1  28
ATOM     28  C   UNL A   1      50.722  25.252  33.701  1.00  0.00     0.188 C 
BRANCH  28  29
ATOM     29  C   UNL A   1      50.518  25.216  32.173  1.00  0.00     0.188 C 
BRANCH  29  30
ATOM     30  O   UNL A   1      50.361  26.497  31.576  1.00  0.00    -0.376 OA
BRANCH  30  31
ATOM     31  C   UNL A   1      51.079  26.805  30.391  1.00  0.00     0.202 C 
BRANCH  31  32
ATOM     32  C   UNL A   1      50.518  26.346  29.033  1.00  0.00     0.261 C 
BRANCH  32  33
ATOM     33  O   UNL A   1      49.102  26.474  28.846  1.00  0.00    -0.460 OA
BRANCH  33  34
ATOM     34  C   UNL A   1      48.659  27.491  28.075  1.00  0.00     0.338 C 
ATOM     35  O   UNL A   1      48.953  27.716  26.920  1.00  0.00    -0.246 OA
BRANCH  34  36
ATOM     36  C   UNL A   1      47.575  28.168  28.822  1.00  0.00     0.060 A 
ATOM     37  C   UNL A   1      47.650  29.554  29.012  1.00  0.00     0.016 A 
ATOM     38  C   UNL A   1      46.499  27.438  29.329  1.00  0.00     0.016 A 
ATOM     39  C   UNL A   1      46.667  30.210  29.749  1.00  0.00     0.010 A 
ATOM     40  C   UNL A   1      45.529  28.093  30.092  1.00  0.00     0.010 A 
ATOM     41  C   UNL A   1      45.632  29.474  30.337  1.00  0.00    -0.014 A 
BRANCH  41  42
ATOM     42  C   UNL A   1      44.793  30.105  31.380  1.00  0.00     0.031 A 
ATOM     43  C   UNL A   1      45.230  29.976  32.814  1.00  0.00     0.074 A 
ATOM     44  C   UNL A   1      43.678  30.787  31.066  1.00  0.00     0.049 A 
ATOM     45  N   UNL A   1      44.643  30.396  33.903  1.00  0.00    -0.248 NA
ATOM     46  C   UNL A   1      46.504  29.274  33.052  1.00  0.00     0.031 C 
ATOM     47  C   UNL A   1      43.167  30.999  29.714  1.00  0.00     0.029 A 
ATOM     48  N   UNL A   1      42.758  31.404  31.877  1.00  0.00    -0.354 N 
ATOM     49  C   UNL A   1      45.453  29.981  34.953  1.00  0.00     0.074 A 
ATOM     50  C   UNL A   1      46.570  29.269  34.375  1.00  0.00     0.031 C 
ATOM     51  C   UNL A   1      42.004  31.670  29.790  1.00  0.00     0.029 A 
ATOM     52  C   UNL A   1      41.676  31.906  31.194  1.00  0.00     0.049 A 
ATOM     53  H   UNL A   1      42.864  31.479  32.853  1.00  0.00     0.167 HD
ATOM     54  C   UNL A   1      45.287  30.183  36.281  1.00  0.00     0.034 A 
ATOM     55  C   UNL A   1      40.540  32.463  31.657  1.00  0.00     0.034 A 
ATOM     56  C   UNL A   1      44.181  30.900  36.851  1.00  0.00     0.049 A 
ATOM     57  C   UNL A   1      40.359  32.637  33.145  1.00  0.00     0.074 A 
ATOM     58  C   UNL A   1      43.942  31.194  38.181  1.00  0.00     0.029 A 
ATOM     59  N   UNL A   1      43.118  31.420  36.127  1.00  0.00    -0.354 N 
ATOM     60  N   UNL A   1      41.180  32.334  34.121  1.00  0.00    -0.248 NA
ATOM     61  C   UNL A   1      39.104  33.258  33.593  1.00  0.00     0.031 C 
ATOM     62  C   UNL A   1      42.712  31.855  38.266  1.00  0.00     0.029 A 
ATOM     63  C   UNL A   1      42.210  32.017  36.984  1.00  0.00     0.049 A 
ATOM     64  H   UNL A   1      43.024  31.371  35.149  1.00  0.00     0.167 HD
ATOM     65  C   UNL A   1      40.561  32.762  35.291  1.00  0.00     0.074 A 
ATOM     66  C   UNL A   1      39.305  33.365  34.900  1.00  0.00     0.031 C 
ATOM     67  C   UNL A   1      40.988  32.659  36.575  1.00  0.00     0.034 A 
BRANCH  54  68
ATOM     68  C   UNL A   1      46.331  29.623  37.210  1.00  0.00     0.023 A 
ATOM     69  C   UNL A   1      47.476  30.384  37.523  1.00  0.00     0.012 A 
ATOM     70  C   UNL A   1      46.151  28.363  37.814  1.00  0.00     0.148 A 
ATOM     71  C   UNL A   1      48.441  29.886  38.400  1.00  0.00     0.002 A 
ATOM     72  C   UNL A   1      47.092  27.896  38.723  1.00  0.00     0.091 A 
ATOM     73  F   UNL A   1      45.068  27.646  37.484  1.00  0.00    -0.205 F 
ATOM     74  C   UNL A   1      48.243  28.650  39.007  1.00  0.00     0.022 A 
BRANCH  72  75
ATOM     75  S   UNL A   1      46.890  26.353  39.620  1.00  0.00     0.127 S 
ATOM     76  O   UNL A   1      48.003  26.414  40.566  1.00  0.00    -0.237 OA
ATOM     77  O   UNL A   1      45.567  26.522  40.223  1.00  0.00    -0.237 OA
ATOM     78  O   UNL A   1      46.975  25.292  38.626  1.00  0.00    -0.744 OA
ENDBRANCH  72  75
ENDBRANCH  54  68
BRANCH  55  79
ATOM     79  C   UNL A   1      39.481  32.911  30.708  1.00  0.00     0.023 A 
ATOM     80  C   UNL A   1      39.629  34.135  30.027  1.00  0.00     0.012 A 
ATOM     81  C   UNL A   1      38.321  32.141  30.491  1.00  0.00     0.148 A 
ATOM     82  C   UNL A   1      38.627  34.601  29.174  1.00  0.00     0.002 A 
ATOM     83  C   UNL A   1      37.351  32.586  29.602  1.00  0.00     0.091 A 
ATOM     84  F   UNL A   1      38.190  30.988  31.164  1.00  0.00    -0.205 F 
ATOM     85  C   UNL A   1      37.493  33.823  28.955  1.00  0.00     0.022 A 
BRANCH  83  86
ATOM     86  S   UNL A   1      35.902  31.610  29.183  1.00  0.00     0.127 S 
ATOM     87  O   UNL A   1      36.463  30.262  29.107  1.00  0.00    -0.237 OA
ATOM     88  O   UNL A   1      35.035  31.849  30.337  1.00  0.00    -0.237 OA
ATOM     89  O   UNL A   1      35.408  32.156  27.926  1.00  0.00    -0.744 OA
ENDBRANCH  83  86
ENDBRANCH  55  79
BRANCH  67  90
ATOM     90  C   UNL A   1      40.118  33.252  37.655  1.00  0.00     0.023 A 
ATOM     91  C   UNL A   1      39.145  32.461  38.297  1.00  0.00     0.012 A 
ATOM     92  C   UNL A   1      40.323  34.579  38.086  1.00  0.00     0.148 A 
ATOM     93  C   UNL A   1      38.363  32.991  39.322  1.00  0.00     0.002 A 
ATOM     94  C   UNL A   1      39.578  35.084  39.145  1.00  0.00     0.091 A 
ATOM     95  F   UNL A   1      41.245  35.321  37.456  1.00  0.00    -0.205 F 
ATOM     96  C   UNL A   1      38.588  34.297  39.754  1.00  0.00     0.022 A 
BRANCH  94  97
ATOM     97  S   UNL A   1      39.864  36.717  39.836  1.00  0.00     0.127 S 
ATOM     98  O   UNL A   1      39.302  36.575  41.178  1.00  0.00    -0.237 OA
ATOM     99  O   UNL A   1      41.324  36.819  39.792  1.00  0.00    -0.237 OA
ATOM    100  O   UNL A   1      39.166  37.652  38.964  1.00  0.00    -0.744 OA
ENDBRANCH  94  97
ENDBRANCH  67  90
ENDBRANCH  41  42
ENDBRANCH  34  36
ENDBRANCH  33  34
ENDBRANCH  32  33
ENDBRANCH  31  32
ENDBRANCH  30  31
ENDBRANCH  29  30
ENDBRANCH  28  29
ENDBRANCH   1  28
TORSDOF 28
ENDMDL
