MODEL 1
REMARK VINA RESULT:     -10.8      0.000      0.000
REMARK SMILES O=C(OCCOCCOCCOCCOC(=O)[C@@H](Cc1c[nH]c2ccccc12)NC(=O)c1ccc(F)cc1F)c1ccc(-c2c3nc(c(-c4cccc(S(=O)(=O)[O-])c4F)c4ccc([nH]4)c(-c4cccc(S(=O)(=O)[O-])c4F)c4nc(c(-c5cccc(S(=O)(=O)[O-])c5F)c5ccc2[nH]5)C=C4)C=C3)cc1
REMARK SMILES IDX 8 1 7 2 6 3 5 4 4 5 3 6 2 7 1 8 40 9 41 10 102 11 42 12
REMARK SMILES IDX 101 13 43 14 44 15 45 16 95 17 46 18 100 19 94 20 96 21
REMARK SMILES IDX 47 22 99 23 93 24 92 25 48 27 80 28 60 29 79 30 61 31 64 32
REMARK SMILES IDX 78 33 97 34 62 35 63 36 77 38 98 39 65 40 49 41 50 42 58 43
REMARK SMILES IDX 51 44 53 45 59 46 52 47 54 48 55 49 56 50 57 51 81 52 82 53
REMARK SMILES IDX 90 54 83 55 85 56 91 57 84 58 86 59 87 60 88 61 89 62 66 63
REMARK SMILES IDX 67 64 75 65 68 66 70 67 76 68 69 69 71 70 72 71 73 72 74 73
REMARK SMILES IDX 9 74 10 75 11 76 12 77 13 78 14 79 15 80 16 81 17 82 18 83
REMARK SMILES IDX 19 84 20 85 21 86 28 87 22 88 23 89 27 90 24 92 26 93 25 94
REMARK SMILES IDX 29 95 30 96 31 98 32 99 33 100 38 101 34 102 37 103 39 104
REMARK SMILES IDX 35 105 36 106
REMARK H PARENT 96 26 64 37 22 91 29 97
REMARK Flexibility Score: inf
ROOT
ATOM      1  C   UNL A   1      28.565  31.380  23.398  1.00  0.00     0.188 C 
ENDROOT
BRANCH   1   2
ATOM      2  C   UNL A   1      29.482  32.361  24.098  1.00  0.00     0.188 C 
BRANCH   2   3
ATOM      3  O   UNL A   1      30.079  31.718  25.205  1.00  0.00    -0.376 OA
BRANCH   3   4
ATOM      4  C   UNL A   1      31.069  32.368  25.967  1.00  0.00     0.202 C 
BRANCH   4   5
ATOM      5  C   UNL A   1      31.949  31.532  26.880  1.00  0.00     0.261 C 
BRANCH   5   6
ATOM      6  O   UNL A   1      33.095  32.158  27.510  1.00  0.00    -0.460 OA
BRANCH   6   7
ATOM      7  C   UNL A   1      33.275  33.241  28.299  1.00  0.00     0.338 C 
ATOM      8  O   UNL A   1      32.518  34.200  28.185  1.00  0.00    -0.246 OA
BRANCH   7   9
ATOM      9  C   UNL A   1      34.342  33.313  29.317  1.00  0.00     0.060 A 
ATOM     10  C   UNL A   1      34.442  34.352  30.231  1.00  0.00     0.016 A 
ATOM     11  C   UNL A   1      35.198  32.220  29.472  1.00  0.00     0.016 A 
ATOM     12  C   UNL A   1      35.545  34.485  31.051  1.00  0.00     0.010 A 
ATOM     13  C   UNL A   1      36.223  32.265  30.421  1.00  0.00     0.010 A 
ATOM     14  C   UNL A   1      36.460  33.446  31.142  1.00  0.00    -0.014 A 
BRANCH  14  15
ATOM     15  C   UNL A   1      37.731  33.686  31.860  1.00  0.00     0.031 A 
ATOM     16  C   UNL A   1      38.911  34.141  31.050  1.00  0.00     0.074 A 
ATOM     17  C   UNL A   1      37.783  33.627  33.204  1.00  0.00     0.049 A 
ATOM     18  N   UNL A   1      40.151  34.311  31.415  1.00  0.00    -0.248 NA
ATOM     19  C   UNL A   1      38.663  34.443  29.627  1.00  0.00     0.031 C 
ATOM     20  C   UNL A   1      36.652  33.317  34.085  1.00  0.00     0.029 A 
ATOM     21  N   UNL A   1      38.818  33.858  34.070  1.00  0.00    -0.354 N 
ATOM     22  C   UNL A   1      40.842  34.633  30.252  1.00  0.00     0.074 A 
ATOM     23  C   UNL A   1      39.885  34.665  29.173  1.00  0.00     0.031 C 
ATOM     24  C   UNL A   1      37.044  33.422  35.364  1.00  0.00     0.029 A 
ATOM     25  C   UNL A   1      38.474  33.699  35.393  1.00  0.00     0.049 A 
ATOM     26  H   UNL A   1      39.722  34.112  33.775  1.00  0.00     0.167 HD
ATOM     27  C   UNL A   1      42.164  34.871  30.104  1.00  0.00     0.034 A 
ATOM     28  C   UNL A   1      39.244  33.729  36.496  1.00  0.00     0.034 A 
ATOM     29  C   UNL A   1      43.075  34.893  31.212  1.00  0.00     0.049 A 
ATOM     30  C   UNL A   1      40.716  33.974  36.304  1.00  0.00     0.074 A 
ATOM     31  C   UNL A   1      44.441  35.092  31.207  1.00  0.00     0.029 A 
ATOM     32  N   UNL A   1      42.694  34.714  32.536  1.00  0.00    -0.354 N 
ATOM     33  N   UNL A   1      41.369  34.241  35.197  1.00  0.00    -0.248 NA
ATOM     34  C   UNL A   1      41.558  33.923  37.505  1.00  0.00     0.031 C 
ATOM     35  C   UNL A   1      44.890  35.007  32.529  1.00  0.00     0.029 A 
ATOM     36  C   UNL A   1      43.798  34.793  33.360  1.00  0.00     0.049 A 
ATOM     37  H   UNL A   1      41.771  34.554  32.841  1.00  0.00     0.167 HD
ATOM     38  C   UNL A   1      42.695  34.416  35.568  1.00  0.00     0.074 A 
ATOM     39  C   UNL A   1      42.744  34.249  37.009  1.00  0.00     0.031 C 
ATOM     40  C   UNL A   1      43.780  34.672  34.796  1.00  0.00     0.034 A 
BRANCH  27  41
ATOM     41  C   UNL A   1      42.678  35.057  28.702  1.00  0.00     0.023 A 
ATOM     42  C   UNL A   1      42.479  36.271  28.014  1.00  0.00     0.012 A 
ATOM     43  C   UNL A   1      43.328  33.992  28.047  1.00  0.00     0.148 A 
ATOM     44  C   UNL A   1      42.874  36.406  26.682  1.00  0.00     0.002 A 
ATOM     45  C   UNL A   1      43.760  34.148  26.736  1.00  0.00     0.091 A 
ATOM     46  F   UNL A   1      43.478  32.834  28.706  1.00  0.00    -0.205 F 
ATOM     47  C   UNL A   1      43.519  35.348  26.046  1.00  0.00     0.022 A 
BRANCH  45  48
ATOM     48  S   UNL A   1      44.651  32.865  25.852  1.00  0.00     0.127 S 
ATOM     49  O   UNL A   1      45.981  32.963  26.452  1.00  0.00    -0.237 OA
ATOM     50  O   UNL A   1      43.903  31.664  26.221  1.00  0.00    -0.237 OA
ATOM     51  O   UNL A   1      44.577  33.221  24.442  1.00  0.00    -0.744 OA
ENDBRANCH  45  48
ENDBRANCH  27  41
BRANCH  28  52
ATOM     52  C   UNL A   1      38.651  33.510  37.850  1.00  0.00     0.023 A 
ATOM     53  C   UNL A   1      38.029  32.282  38.150  1.00  0.00     0.012 A 
ATOM     54  C   UNL A   1      38.719  34.501  38.851  1.00  0.00     0.148 A 
ATOM     55  C   UNL A   1      37.464  32.057  39.408  1.00  0.00     0.002 A 
ATOM     56  C   UNL A   1      38.208  34.247  40.120  1.00  0.00     0.091 A 
ATOM     57  F   UNL A   1      39.291  35.674  38.547  1.00  0.00    -0.205 F 
ATOM     58  C   UNL A   1      37.564  33.033  40.395  1.00  0.00     0.022 A 
BRANCH  56  59
ATOM     59  S   UNL A   1      38.420  35.401  41.483  1.00  0.00     0.127 S 
ATOM     60  O   UNL A   1      39.749  35.030  41.980  1.00  0.00    -0.237 OA
ATOM     61  O   UNL A   1      38.366  36.695  40.792  1.00  0.00    -0.237 OA
ATOM     62  O   UNL A   1      37.315  35.157  42.382  1.00  0.00    -0.744 OA
ENDBRANCH  56  59
ENDBRANCH  28  52
BRANCH  40  63
ATOM     63  C   UNL A   1      45.094  34.841  35.504  1.00  0.00     0.023 A 
ATOM     64  C   UNL A   1      45.462  36.101  36.012  1.00  0.00     0.012 A 
ATOM     65  C   UNL A   1      45.916  33.723  35.736  1.00  0.00     0.148 A 
ATOM     66  C   UNL A   1      46.654  36.250  36.717  1.00  0.00     0.002 A 
ATOM     67  C   UNL A   1      47.072  33.870  36.488  1.00  0.00     0.091 A 
ATOM     68  F   UNL A   1      45.550  32.540  35.220  1.00  0.00    -0.205 F 
ATOM     69  C   UNL A   1      47.450  35.134  36.968  1.00  0.00     0.022 A 
BRANCH  67  70
ATOM     70  S   UNL A   1      48.086  32.464  36.952  1.00  0.00     0.127 S 
ATOM     71  O   UNL A   1      48.584  32.014  35.654  1.00  0.00    -0.237 OA
ATOM     72  O   UNL A   1      49.095  33.079  37.814  1.00  0.00    -0.237 OA
ATOM     73  O   UNL A   1      47.194  31.539  37.638  1.00  0.00    -0.744 OA
ENDBRANCH  67  70
ENDBRANCH  40  63
ENDBRANCH  14  15
ENDBRANCH   7   9
ENDBRANCH   6   7
ENDBRANCH   5   6
ENDBRANCH   4   5
ENDBRANCH   3   4
ENDBRANCH   2   3
ENDBRANCH   1   2
BRANCH   1  74
ATOM     74  O   UNL A   1      29.033  30.947  22.124  1.00  0.00    -0.377 OA
BRANCH  74  75
ATOM     75  C   UNL A   1      29.505  29.612  21.956  1.00  0.00     0.188 C 
BRANCH  75  76
ATOM     76  C   UNL A   1      28.922  28.476  22.819  1.00  0.00     0.188 C 
BRANCH  76  77
ATOM     77  O   UNL A   1      29.885  27.565  23.310  1.00  0.00    -0.376 OA
BRANCH  77  78
ATOM     78  C   UNL A   1      29.420  26.309  23.808  1.00  0.00     0.202 C 
BRANCH  78  79
ATOM     79  C   UNL A   1      29.643  25.915  25.284  1.00  0.00     0.261 C 
BRANCH  79  80
ATOM     80  O   UNL A   1      31.026  25.767  25.677  1.00  0.00    -0.462 OA
BRANCH  80  81
ATOM     81  C   UNL A   1      31.376  24.548  26.160  1.00  0.00     0.329 C 
ATOM     82  O   UNL A   1      31.004  24.138  27.261  1.00  0.00    -0.250 OA
BRANCH  81  83
ATOM     83  C   UNL A   1      32.176  23.612  25.214  1.00  0.00     0.197 C 
BRANCH  83  84
ATOM     84  C   UNL A   1      31.827  22.188  24.767  1.00  0.00     0.074 C 
BRANCH  84  85
ATOM     85  C   UNL A   1      32.813  21.065  24.763  1.00  0.00    -0.020 A 
ATOM     86  C   UNL A   1      33.848  20.995  25.688  1.00  0.00     0.087 A 
ATOM     87  C   UNL A   1      32.906  19.883  23.964  1.00  0.00     0.003 A 
ATOM     88  N   UNL A   1      34.477  19.794  25.550  1.00  0.00    -0.361 N 
ATOM     89  C   UNL A   1      33.888  19.072  24.541  1.00  0.00     0.046 A 
ATOM     90  C   UNL A   1      32.214  19.375  22.846  1.00  0.00     0.010 A 
ATOM     91  H   UNL A   1      35.240  19.489  26.093  1.00  0.00     0.166 HD
ATOM     92  C   UNL A   1      34.141  17.762  24.121  1.00  0.00     0.026 A 
ATOM     93  C   UNL A   1      32.440  18.063  22.422  1.00  0.00     0.001 A 
ATOM     94  C   UNL A   1      33.380  17.263  23.064  1.00  0.00     0.002 A 
ENDBRANCH  84  85
ENDBRANCH  83  84
BRANCH  83  95
ATOM     95  N   UNL A   1      32.550  24.373  24.002  1.00  0.00    -0.338 N 
ATOM     96  C   UNL A   1      33.779  24.565  23.427  1.00  0.00     0.254 C 
ATOM     97  H   UNL A   1      31.801  24.811  23.536  1.00  0.00     0.164 HD
ATOM     98  O   UNL A   1      33.879  25.264  22.422  1.00  0.00    -0.269 OA
BRANCH  96  99
ATOM     99  C   UNL A   1      34.983  23.906  23.970  1.00  0.00     0.075 A 
ATOM    100  C   UNL A   1      35.668  22.919  23.244  1.00  0.00     0.020 A 
ATOM    101  C   UNL A   1      35.499  24.353  25.187  1.00  0.00     0.138 A 
ATOM    102  C   UNL A   1      36.836  22.360  23.770  1.00  0.00     0.040 A 
ATOM    103  C   UNL A   1      36.670  23.810  25.705  1.00  0.00     0.079 A 
ATOM    104  F   UNL A   1      34.880  25.314  25.886  1.00  0.00    -0.206 F 
ATOM    105  C   UNL A   1      37.327  22.815  24.992  1.00  0.00     0.126 A 
ATOM    106  F   UNL A   1      38.460  22.294  25.478  1.00  0.00    -0.207 F 
ENDBRANCH  96  99
ENDBRANCH  83  95
ENDBRANCH  81  83
ENDBRANCH  80  81
ENDBRANCH  79  80
ENDBRANCH  78  79
ENDBRANCH  77  78
ENDBRANCH  76  77
ENDBRANCH  75  76
ENDBRANCH  74  75
ENDBRANCH   1  74
TORSDOF 27
ENDMDL
MODEL 2
REMARK VINA RESULT:     -10.2      1.669      2.041
REMARK SMILES O=C(OCCOCCOCCOCCOC(=O)[C@@H](Cc1c[nH]c2ccccc12)NC(=O)c1ccc(F)cc1F)c1ccc(-c2c3nc(c(-c4cccc(S(=O)(=O)[O-])c4F)c4ccc([nH]4)c(-c4cccc(S(=O)(=O)[O-])c4F)c4nc(c(-c5cccc(S(=O)(=O)[O-])c5F)c5ccc2[nH]5)C=C4)C=C3)cc1
REMARK SMILES IDX 8 1 7 2 6 3 5 4 4 5 3 6 2 7 1 8 40 9 41 10 102 11 42 12
REMARK SMILES IDX 101 13 43 14 44 15 45 16 95 17 46 18 100 19 94 20 96 21
REMARK SMILES IDX 47 22 99 23 93 24 92 25 48 27 80 28 60 29 79 30 61 31 64 32
REMARK SMILES IDX 78 33 97 34 62 35 63 36 77 38 98 39 65 40 49 41 50 42 58 43
REMARK SMILES IDX 51 44 53 45 59 46 52 47 54 48 55 49 56 50 57 51 81 52 82 53
REMARK SMILES IDX 90 54 83 55 85 56 91 57 84 58 86 59 87 60 88 61 89 62 66 63
REMARK SMILES IDX 67 64 75 65 68 66 70 67 76 68 69 69 71 70 72 71 73 72 74 73
REMARK SMILES IDX 9 74 10 75 11 76 12 77 13 78 14 79 15 80 16 81 17 82 18 83
REMARK SMILES IDX 19 84 20 85 21 86 28 87 22 88 23 89 27 90 24 92 26 93 25 94
REMARK SMILES IDX 29 95 30 96 31 98 32 99 33 100 38 101 34 102 37 103 39 104
REMARK SMILES IDX 35 105 36 106
REMARK H PARENT 96 26 64 37 22 91 29 97
REMARK Flexibility Score: inf
ROOT
ATOM      1  C   UNL A   1      28.730  31.976  23.526  1.00  0.00     0.188 C 
ENDROOT
BRANCH   1   2
ATOM      2  C   UNL A   1      29.752  32.925  24.115  1.00  0.00     0.188 C 
BRANCH   2   3
ATOM      3  O   UNL A   1      30.217  32.393  25.339  1.00  0.00    -0.376 OA
BRANCH   3   4
ATOM      4  C   UNL A   1      31.426  32.842  25.905  1.00  0.00     0.202 C 
BRANCH   4   5
ATOM      5  C   UNL A   1      32.000  32.080  27.088  1.00  0.00     0.261 C 
BRANCH   5   6
ATOM      6  O   UNL A   1      33.126  32.649  27.803  1.00  0.00    -0.460 OA
BRANCH   6   7
ATOM      7  C   UNL A   1      33.284  33.661  28.684  1.00  0.00     0.338 C 
ATOM      8  O   UNL A   1      32.487  34.595  28.674  1.00  0.00    -0.246 OA
BRANCH   7   9
ATOM      9  C   UNL A   1      34.372  33.684  29.682  1.00  0.00     0.060 A 
ATOM     10  C   UNL A   1      34.507  34.692  30.625  1.00  0.00     0.016 A 
ATOM     11  C   UNL A   1      35.211  32.572  29.787  1.00  0.00     0.016 A 
ATOM     12  C   UNL A   1      35.629  34.781  31.426  1.00  0.00     0.010 A 
ATOM     13  C   UNL A   1      36.255  32.569  30.716  1.00  0.00     0.010 A 
ATOM     14  C   UNL A   1      36.527  33.724  31.467  1.00  0.00    -0.014 A 
BRANCH  14  15
ATOM     15  C   UNL A   1      37.815  33.920  32.166  1.00  0.00     0.031 A 
ATOM     16  C   UNL A   1      39.014  34.265  31.330  1.00  0.00     0.074 A 
ATOM     17  C   UNL A   1      37.874  33.920  33.512  1.00  0.00     0.049 A 
ATOM     18  N   UNL A   1      40.265  34.378  31.680  1.00  0.00    -0.248 NA
ATOM     19  C   UNL A   1      38.773  34.516  29.896  1.00  0.00     0.031 C 
ATOM     20  C   UNL A   1      36.734  33.718  34.412  1.00  0.00     0.029 A 
ATOM     21  N   UNL A   1      38.929  34.127  34.361  1.00  0.00    -0.354 N 
ATOM     22  C   UNL A   1      40.964  34.604  30.500  1.00  0.00     0.074 A 
ATOM     23  C   UNL A   1      40.002  34.643  29.425  1.00  0.00     0.031 C 
ATOM     24  C   UNL A   1      37.143  33.858  35.683  1.00  0.00     0.029 A 
ATOM     25  C   UNL A   1      38.587  34.050  35.691  1.00  0.00     0.049 A 
ATOM     26  H   UNL A   1      39.844  34.312  34.049  1.00  0.00     0.167 HD
ATOM     27  C   UNL A   1      42.297  34.754  30.334  1.00  0.00     0.034 A 
ATOM     28  C   UNL A   1      39.366  34.084  36.788  1.00  0.00     0.034 A 
ATOM     29  C   UNL A   1      43.216  34.772  31.435  1.00  0.00     0.049 A 
ATOM     30  C   UNL A   1      40.849  34.231  36.577  1.00  0.00     0.074 A 
ATOM     31  C   UNL A   1      44.592  34.889  31.412  1.00  0.00     0.029 A 
ATOM     32  N   UNL A   1      42.836  34.677  32.767  1.00  0.00    -0.354 N 
ATOM     33  N   UNL A   1      41.507  34.407  35.455  1.00  0.00    -0.248 NA
ATOM     34  C   UNL A   1      41.696  34.185  37.774  1.00  0.00     0.031 C 
ATOM     35  C   UNL A   1      45.046  34.837  32.735  1.00  0.00     0.029 A 
ATOM     36  C   UNL A   1      43.950  34.727  33.581  1.00  0.00     0.049 A 
ATOM     37  H   UNL A   1      41.909  34.588  33.085  1.00  0.00     0.167 HD
ATOM     38  C   UNL A   1      42.844  34.519  35.809  1.00  0.00     0.074 A 
ATOM     39  C   UNL A   1      42.895  34.416  37.257  1.00  0.00     0.031 C 
ATOM     40  C   UNL A   1      43.936  34.674  35.021  1.00  0.00     0.034 A 
BRANCH  27  41
ATOM     41  C   UNL A   1      42.810  34.845  28.922  1.00  0.00     0.023 A 
ATOM     42  C   UNL A   1      42.642  36.023  28.166  1.00  0.00     0.012 A 
ATOM     43  C   UNL A   1      43.426  33.726  28.327  1.00  0.00     0.148 A 
ATOM     44  C   UNL A   1      43.035  36.070  26.828  1.00  0.00     0.002 A 
ATOM     45  C   UNL A   1      43.856  33.794  27.008  1.00  0.00     0.091 A 
ATOM     46  F   UNL A   1      43.546  32.604  29.051  1.00  0.00    -0.205 F 
ATOM     47  C   UNL A   1      43.647  34.959  26.251  1.00  0.00     0.022 A 
BRANCH  45  48
ATOM     48  S   UNL A   1      44.707  32.437  26.197  1.00  0.00     0.127 S 
ATOM     49  O   UNL A   1      43.800  31.321  26.460  1.00  0.00    -0.237 OA
ATOM     50  O   UNL A   1      44.735  32.885  24.805  1.00  0.00    -0.237 OA
ATOM     51  O   UNL A   1      46.013  32.342  26.834  1.00  0.00    -0.744 OA
ENDBRANCH  45  48
ENDBRANCH  27  41
BRANCH  28  52
ATOM     52  C   UNL A   1      38.773  33.963  38.153  1.00  0.00     0.023 A 
ATOM     53  C   UNL A   1      38.834  35.055  39.042  1.00  0.00     0.012 A 
ATOM     54  C   UNL A   1      38.128  32.781  38.572  1.00  0.00     0.148 A 
ATOM     55  C   UNL A   1      38.290  34.962  40.325  1.00  0.00     0.002 A 
ATOM     56  C   UNL A   1      37.536  32.716  39.829  1.00  0.00     0.091 A 
ATOM     57  F   UNL A   1      38.097  31.740  37.728  1.00  0.00    -0.205 F 
ATOM     58  C   UNL A   1      37.631  33.800  40.714  1.00  0.00     0.022 A 
BRANCH  56  59
ATOM     59  S   UNL A   1      36.552  31.304  40.350  1.00  0.00     0.127 S 
ATOM     60  O   UNL A   1      37.555  30.234  40.363  1.00  0.00    -0.237 OA
ATOM     61  O   UNL A   1      36.098  31.729  41.680  1.00  0.00    -0.237 OA
ATOM     62  O   UNL A   1      35.498  31.174  39.371  1.00  0.00    -0.744 OA
ENDBRANCH  56  59
ENDBRANCH  28  52
BRANCH  40  63
ATOM     63  C   UNL A   1      45.264  34.796  35.713  1.00  0.00     0.023 A 
ATOM     64  C   UNL A   1      46.046  33.649  35.943  1.00  0.00     0.012 A 
ATOM     65  C   UNL A   1      45.765  36.066  36.053  1.00  0.00     0.148 A 
ATOM     66  C   UNL A   1      47.302  33.764  36.535  1.00  0.00     0.002 A 
ATOM     67  C   UNL A   1      47.039  36.177  36.589  1.00  0.00     0.091 A 
ATOM     68  F   UNL A   1      44.987  37.139  35.844  1.00  0.00    -0.205 F 
ATOM     69  C   UNL A   1      47.804  35.027  36.843  1.00  0.00     0.022 A 
BRANCH  67  70
ATOM     70  S   UNL A   1      47.800  37.772  36.903  1.00  0.00     0.127 S 
ATOM     71  O   UNL A   1      47.059  38.229  38.078  1.00  0.00    -0.237 OA
ATOM     72  O   UNL A   1      49.192  37.406  37.163  1.00  0.00    -0.237 OA
ATOM     73  O   UNL A   1      47.601  38.554  35.691  1.00  0.00    -0.744 OA
ENDBRANCH  67  70
ENDBRANCH  40  63
ENDBRANCH  14  15
ENDBRANCH   7   9
ENDBRANCH   6   7
ENDBRANCH   5   6
ENDBRANCH   4   5
ENDBRANCH   3   4
ENDBRANCH   2   3
ENDBRANCH   1   2
BRANCH   1  74
ATOM     74  O   UNL A   1      29.062  31.489  22.229  1.00  0.00    -0.377 OA
BRANCH  74  75
ATOM     75  C   UNL A   1      29.467  30.132  22.061  1.00  0.00     0.188 C 
BRANCH  75  76
ATOM     76  C   UNL A   1      28.897  29.039  22.986  1.00  0.00     0.188 C 
BRANCH  76  77
ATOM     77  O   UNL A   1      29.797  27.987  23.268  1.00  0.00    -0.376 OA
BRANCH  77  78
ATOM     78  C   UNL A   1      29.254  26.760  23.760  1.00  0.00     0.202 C 
BRANCH  78  79
ATOM     79  C   UNL A   1      29.615  26.247  25.171  1.00  0.00     0.261 C 
BRANCH  79  80
ATOM     80  O   UNL A   1      31.010  25.923  25.368  1.00  0.00    -0.462 OA
BRANCH  80  81
ATOM     81  C   UNL A   1      31.264  24.705  25.908  1.00  0.00     0.329 C 
ATOM     82  O   UNL A   1      30.763  24.332  26.971  1.00  0.00    -0.250 OA
BRANCH  81  83
ATOM     83  C   UNL A   1      32.125  23.722  25.071  1.00  0.00     0.197 C 
BRANCH  83  84
ATOM     84  C   UNL A   1      31.809  22.273  24.685  1.00  0.00     0.074 C 
BRANCH  84  85
ATOM     85  C   UNL A   1      32.818  21.171  24.740  1.00  0.00    -0.020 A 
ATOM     86  C   UNL A   1      33.853  21.171  25.666  1.00  0.00     0.087 A 
ATOM     87  C   UNL A   1      32.933  19.949  24.007  1.00  0.00     0.003 A 
ATOM     88  N   UNL A   1      34.506  19.976  25.593  1.00  0.00    -0.361 N 
ATOM     89  C   UNL A   1      33.931  19.190  24.626  1.00  0.00     0.046 A 
ATOM     90  C   UNL A   1      32.250  19.367  22.919  1.00  0.00     0.010 A 
ATOM     91  H   UNL A   1      35.275  19.717  26.151  1.00  0.00     0.166 HD
ATOM     92  C   UNL A   1      34.209  17.864  24.278  1.00  0.00     0.026 A 
ATOM     93  C   UNL A   1      32.502  18.038  22.567  1.00  0.00     0.001 A 
ATOM     94  C   UNL A   1      33.457  17.293  23.251  1.00  0.00     0.002 A 
ENDBRANCH  84  85
ENDBRANCH  83  84
BRANCH  83  95
ATOM     95  N   UNL A   1      32.577  24.415  23.845  1.00  0.00    -0.338 N 
ATOM     96  C   UNL A   1      33.845  24.636  23.375  1.00  0.00     0.254 C 
ATOM     97  H   UNL A   1      31.856  24.774  23.280  1.00  0.00     0.164 HD
ATOM     98  O   UNL A   1      34.007  25.267  22.333  1.00  0.00    -0.269 OA
BRANCH  96  99
ATOM     99  C   UNL A   1      35.022  24.088  24.077  1.00  0.00     0.075 A 
ATOM    100  C   UNL A   1      35.351  24.490  25.380  1.00  0.00     0.020 A 
ATOM    101  C   UNL A   1      35.757  23.075  23.458  1.00  0.00     0.138 A 
ATOM    102  C   UNL A   1      36.441  23.903  26.030  1.00  0.00     0.040 A 
ATOM    103  C   UNL A   1      36.832  22.479  24.108  1.00  0.00     0.079 A 
ATOM    104  F   UNL A   1      35.446  22.653  22.225  1.00  0.00    -0.206 F 
ATOM    105  C   UNL A   1      37.167  22.902  25.389  1.00  0.00     0.126 A 
ATOM    106  F   UNL A   1      38.194  22.326  26.026  1.00  0.00    -0.207 F 
ENDBRANCH  96  99
ENDBRANCH  83  95
ENDBRANCH  81  83
ENDBRANCH  80  81
ENDBRANCH  79  80
ENDBRANCH  78  79
ENDBRANCH  77  78
ENDBRANCH  76  77
ENDBRANCH  75  76
ENDBRANCH  74  75
ENDBRANCH   1  74
TORSDOF 27
ENDMDL
MODEL 3
REMARK VINA RESULT:     -10.0      7.683     12.832
REMARK SMILES O=C(OCCOCCOCCOCCOC(=O)[C@@H](Cc1c[nH]c2ccccc12)NC(=O)c1ccc(F)cc1F)c1ccc(-c2c3nc(c(-c4cccc(S(=O)(=O)[O-])c4F)c4ccc([nH]4)c(-c4cccc(S(=O)(=O)[O-])c4F)c4nc(c(-c5cccc(S(=O)(=O)[O-])c5F)c5ccc2[nH]5)C=C4)C=C3)cc1
REMARK SMILES IDX 8 1 7 2 6 3 5 4 4 5 3 6 2 7 1 8 40 9 41 10 102 11 42 12
REMARK SMILES IDX 101 13 43 14 44 15 45 16 95 17 46 18 100 19 94 20 96 21
REMARK SMILES IDX 47 22 99 23 93 24 92 25 48 27 80 28 60 29 79 30 61 31 64 32
REMARK SMILES IDX 78 33 97 34 62 35 63 36 77 38 98 39 65 40 49 41 50 42 58 43
REMARK SMILES IDX 51 44 53 45 59 46 52 47 54 48 55 49 56 50 57 51 81 52 82 53
REMARK SMILES IDX 90 54 83 55 85 56 91 57 84 58 86 59 87 60 88 61 89 62 66 63
REMARK SMILES IDX 67 64 75 65 68 66 70 67 76 68 69 69 71 70 72 71 73 72 74 73
REMARK SMILES IDX 9 74 10 75 11 76 12 77 13 78 14 79 15 80 16 81 17 82 18 83
REMARK SMILES IDX 19 84 20 85 21 86 28 87 22 88 23 89 27 90 24 92 26 93 25 94
REMARK SMILES IDX 29 95 30 96 31 98 32 99 33 100 38 101 34 102 37 103 39 104
REMARK SMILES IDX 35 105 36 106
REMARK H PARENT 96 26 64 37 22 91 29 97
REMARK Flexibility Score: inf
ROOT
ATOM      1  C   UNL A   1      39.108  22.001  26.135  1.00  0.00     0.188 C 
ENDROOT
BRANCH   1   2
ATOM      2  C   UNL A   1      39.762  20.638  26.059  1.00  0.00     0.188 C 
BRANCH   2   3
ATOM      3  O   UNL A   1      41.153  20.787  26.256  1.00  0.00    -0.376 OA
BRANCH   3   4
ATOM      4  C   UNL A   1      41.751  22.061  26.224  1.00  0.00     0.202 C 
BRANCH   4   5
ATOM      5  C   UNL A   1      43.050  22.235  25.456  1.00  0.00     0.261 C 
BRANCH   5   6
ATOM      6  O   UNL A   1      44.302  22.203  26.186  1.00  0.00    -0.460 OA
BRANCH   6   7
ATOM      7  C   UNL A   1      45.584  22.516  25.895  1.00  0.00     0.338 C 
ATOM      8  O   UNL A   1      46.342  21.636  25.497  1.00  0.00    -0.246 OA
BRANCH   7   9
ATOM      9  C   UNL A   1      46.114  23.890  26.016  1.00  0.00     0.060 A 
ATOM     10  C   UNL A   1      46.288  24.728  24.925  1.00  0.00     0.016 A 
ATOM     11  C   UNL A   1      46.305  24.426  27.291  1.00  0.00     0.016 A 
ATOM     12  C   UNL A   1      46.947  25.935  25.044  1.00  0.00     0.010 A 
ATOM     13  C   UNL A   1      46.814  25.720  27.436  1.00  0.00     0.010 A 
ATOM     14  C   UNL A   1      47.234  26.438  26.306  1.00  0.00    -0.014 A 
BRANCH  14  15
ATOM     15  C   UNL A   1      48.115  27.621  26.410  1.00  0.00     0.031 A 
ATOM     16  C   UNL A   1      47.461  28.961  26.591  1.00  0.00     0.074 A 
ATOM     17  C   UNL A   1      49.453  27.478  26.474  1.00  0.00     0.049 A 
ATOM     18  N   UNL A   1      47.995  30.150  26.597  1.00  0.00    -0.248 NA
ATOM     19  C   UNL A   1      45.999  28.964  26.790  1.00  0.00     0.031 C 
ATOM     20  C   UNL A   1      50.174  26.202  26.434  1.00  0.00     0.029 A 
ATOM     21  N   UNL A   1      50.446  28.411  26.620  1.00  0.00    -0.354 N 
ATOM     22  C   UNL A   1      46.929  31.038  26.692  1.00  0.00     0.074 A 
ATOM     23  C   UNL A   1      45.719  30.256  26.770  1.00  0.00     0.031 C 
ATOM     24  C   UNL A   1      51.487  26.429  26.598  1.00  0.00     0.029 A 
ATOM     25  C   UNL A   1      51.710  27.867  26.647  1.00  0.00     0.049 A 
ATOM     26  H   UNL A   1      50.272  29.376  26.697  1.00  0.00     0.167 HD
ATOM     27  C   UNL A   1      46.964  32.388  26.701  1.00  0.00     0.034 A 
ATOM     28  C   UNL A   1      52.911  28.474  26.661  1.00  0.00     0.034 A 
ATOM     29  C   UNL A   1      48.192  33.130  26.685  1.00  0.00     0.049 A 
ATOM     30  C   UNL A   1      52.925  29.978  26.649  1.00  0.00     0.074 A 
ATOM     31  C   UNL A   1      48.378  34.498  26.664  1.00  0.00     0.029 A 
ATOM     32  N   UNL A   1      49.453  32.548  26.698  1.00  0.00    -0.354 N 
ATOM     33  N   UNL A   1      51.912  30.811  26.700  1.00  0.00    -0.248 NA
ATOM     34  C   UNL A   1      54.239  30.627  26.581  1.00  0.00     0.031 C 
ATOM     35  C   UNL A   1      49.755  34.742  26.637  1.00  0.00     0.029 A 
ATOM     36  C   UNL A   1      50.426  33.527  26.680  1.00  0.00     0.049 A 
ATOM     37  H   UNL A   1      49.627  31.579  26.717  1.00  0.00     0.167 HD
ATOM     38  C   UNL A   1      52.464  32.085  26.698  1.00  0.00     0.074 A 
ATOM     39  C   UNL A   1      53.905  31.908  26.665  1.00  0.00     0.031 C 
ATOM     40  C   UNL A   1      51.848  33.293  26.703  1.00  0.00     0.034 A 
BRANCH  27  41
ATOM     41  C   UNL A   1      45.646  33.113  26.667  1.00  0.00     0.023 A 
ATOM     42  C   UNL A   1      45.018  33.414  25.442  1.00  0.00     0.012 A 
ATOM     43  C   UNL A   1      45.050  33.539  27.871  1.00  0.00     0.148 A 
ATOM     44  C   UNL A   1      43.844  34.169  25.412  1.00  0.00     0.002 A 
ATOM     45  C   UNL A   1      43.857  34.250  27.837  1.00  0.00     0.091 A 
ATOM     46  F   UNL A   1      45.679  33.273  29.024  1.00  0.00    -0.205 F 
ATOM     47  C   UNL A   1      43.261  34.581  26.608  1.00  0.00     0.022 A 
BRANCH  45  48
ATOM     48  S   UNL A   1      43.000  34.773  29.325  1.00  0.00     0.127 S 
ATOM     49  O   UNL A   1      43.957  35.716  29.901  1.00  0.00    -0.237 OA
ATOM     50  O   UNL A   1      41.790  35.388  28.779  1.00  0.00    -0.237 OA
ATOM     51  O   UNL A   1      42.771  33.564  30.104  1.00  0.00    -0.744 OA
ENDBRANCH  45  48
ENDBRANCH  27  41
BRANCH  28  52
ATOM     52  C   UNL A   1      54.173  27.674  26.670  1.00  0.00     0.023 A 
ATOM     53  C   UNL A   1      54.825  27.383  25.455  1.00  0.00     0.012 A 
ATOM     54  C   UNL A   1      54.744  27.217  27.875  1.00  0.00     0.148 A 
ATOM     55  C   UNL A   1      56.004  26.632  25.440  1.00  0.00     0.002 A 
ATOM     56  C   UNL A   1      55.950  26.522  27.857  1.00  0.00     0.091 A 
ATOM     57  F   UNL A   1      54.103  27.478  29.023  1.00  0.00    -0.205 F 
ATOM     58  C   UNL A   1      56.572  26.213  26.639  1.00  0.00     0.022 A 
BRANCH  56  59
ATOM     59  S   UNL A   1      56.813  26.068  29.368  1.00  0.00     0.127 S 
ATOM     60  O   UNL A   1      56.015  24.929  29.833  1.00  0.00    -0.237 OA
ATOM     61  O   UNL A   1      58.143  25.713  28.858  1.00  0.00    -0.237 OA
ATOM     62  O   UNL A   1      56.789  27.245  30.206  1.00  0.00    -0.744 OA
ENDBRANCH  56  59
ENDBRANCH  28  52
BRANCH  40  63
ATOM     63  C   UNL A   1      52.731  34.507  26.729  1.00  0.00     0.023 A 
ATOM     64  C   UNL A   1      53.213  35.001  27.955  1.00  0.00     0.012 A 
ATOM     65  C   UNL A   1      53.147  35.100  25.523  1.00  0.00     0.148 A 
ATOM     66  C   UNL A   1      54.077  36.093  27.981  1.00  0.00     0.002 A 
ATOM     67  C   UNL A   1      54.052  36.150  25.554  1.00  0.00     0.091 A 
ATOM     68  F   UNL A   1      52.653  34.623  24.370  1.00  0.00    -0.205 F 
ATOM     69  C   UNL A   1      54.508  36.657  26.781  1.00  0.00     0.022 A 
BRANCH  67  70
ATOM     70  S   UNL A   1      54.743  36.852  24.053  1.00  0.00     0.127 S 
ATOM     71  O   UNL A   1      55.834  37.668  24.582  1.00  0.00    -0.237 OA
ATOM     72  O   UNL A   1      55.171  35.660  23.321  1.00  0.00    -0.237 OA
ATOM     73  O   UNL A   1      53.656  37.587  23.420  1.00  0.00    -0.744 OA
ENDBRANCH  67  70
ENDBRANCH  40  63
ENDBRANCH  14  15
ENDBRANCH   7   9
ENDBRANCH   6   7
ENDBRANCH   5   6
ENDBRANCH   4   5
ENDBRANCH   3   4
ENDBRANCH   2   3
ENDBRANCH   1   2
BRANCH   1  74
ATOM     74  O   UNL A   1      37.900  22.115  25.387  1.00  0.00    -0.377 OA
BRANCH  74  75
ATOM     75  C   UNL A   1      37.176  20.941  25.024  1.00  0.00     0.188 C 
BRANCH  75  76
ATOM     76  C   UNL A   1      35.635  20.960  25.019  1.00  0.00     0.188 C 
BRANCH  76  77
ATOM     77  O   UNL A   1      35.056  21.518  26.182  1.00  0.00    -0.376 OA
BRANCH  77  78
ATOM     78  C   UNL A   1      33.743  21.084  26.545  1.00  0.00     0.202 C 
BRANCH  78  79
ATOM     79  C   UNL A   1      32.520  22.000  26.323  1.00  0.00     0.261 C 
BRANCH  79  80
ATOM     80  O   UNL A   1      32.384  23.083  27.270  1.00  0.00    -0.462 OA
BRANCH  80  81
ATOM     81  C   UNL A   1      31.607  24.122  26.872  1.00  0.00     0.329 C 
ATOM     82  O   UNL A   1      30.384  24.133  27.025  1.00  0.00    -0.250 OA
BRANCH  81  83
ATOM     83  C   UNL A   1      32.330  25.379  26.319  1.00  0.00     0.197 C 
BRANCH  83  84
ATOM     84  C   UNL A   1      32.243  26.824  26.822  1.00  0.00     0.074 C 
BRANCH  84  85
ATOM     85  C   UNL A   1      31.775  27.962  25.973  1.00  0.00    -0.020 A 
ATOM     86  C   UNL A   1      32.234  29.258  26.168  1.00  0.00     0.087 A 
ATOM     87  C   UNL A   1      30.906  28.007  24.839  1.00  0.00     0.003 A 
ATOM     88  N   UNL A   1      31.771  30.043  25.153  1.00  0.00    -0.361 N 
ATOM     89  C   UNL A   1      31.002  29.294  24.298  1.00  0.00     0.046 A 
ATOM     90  C   UNL A   1      30.092  27.074  24.164  1.00  0.00     0.010 A 
ATOM     91  H   UNL A   1      31.960  31.004  25.050  1.00  0.00     0.166 HD
ATOM     92  C   UNL A   1      30.411  29.658  23.083  1.00  0.00     0.026 A 
ATOM     93  C   UNL A   1      29.508  27.414  22.940  1.00  0.00     0.001 A 
ATOM     94  C   UNL A   1      29.681  28.684  22.401  1.00  0.00     0.002 A 
ENDBRANCH  84  85
ENDBRANCH  83  84
BRANCH  83  95
ATOM     95  N   UNL A   1      33.763  25.060  26.141  1.00  0.00    -0.338 N 
ATOM     96  C   UNL A   1      34.491  24.890  24.993  1.00  0.00     0.254 C 
ATOM     97  H   UNL A   1      34.273  24.952  26.976  1.00  0.00     0.164 HD
ATOM     98  O   UNL A   1      35.682  24.599  25.065  1.00  0.00    -0.269 OA
BRANCH  96  99
ATOM     99  C   UNL A   1      33.879  25.099  23.667  1.00  0.00     0.075 A 
ATOM    100  C   UNL A   1      33.358  24.029  22.924  1.00  0.00     0.020 A 
ATOM    101  C   UNL A   1      33.731  26.405  23.197  1.00  0.00     0.138 A 
ATOM    102  C   UNL A   1      32.735  24.278  21.697  1.00  0.00     0.040 A 
ATOM    103  C   UNL A   1      33.098  26.657  21.984  1.00  0.00     0.079 A 
ATOM    104  F   UNL A   1      34.195  27.447  23.901  1.00  0.00    -0.206 F 
ATOM    105  C   UNL A   1      32.607  25.589  21.243  1.00  0.00     0.126 A 
ATOM    106  F   UNL A   1      31.987  25.822  20.080  1.00  0.00    -0.207 F 
ENDBRANCH  96  99
ENDBRANCH  83  95
ENDBRANCH  81  83
ENDBRANCH  80  81
ENDBRANCH  79  80
ENDBRANCH  78  79
ENDBRANCH  77  78
ENDBRANCH  76  77
ENDBRANCH  75  76
ENDBRANCH  74  75
ENDBRANCH   1  74
TORSDOF 27
ENDMDL
