MODEL 1
REMARK VINA RESULT:      -9.8      0.000      0.000
REMARK SMILES C[N@@H+](CC(=O)OCCOCCOCCOCCOC(=O)c1ccc(-c2c3nc(c(-c4cccc(S(=O)(=O)[O-])c4F)c4ccc([nH]4)c(-c4cccc(S(=O)(=O)[O-])c4F)c4nc(c(-c5cccc(S(=O)(=O)[O-])c5F)c5ccc2[nH]5)C=C4)C=C3)cc1)Cc1noc(-c2ccccc2Cl)n1
REMARK SMILES IDX 11 1 10 2 9 3 8 4 7 5 6 6 4 7 5 8 3 9 2 10 1 11 84 13 85 14
REMARK SMILES IDX 86 15 96 16 87 17 88 18 89 19 90 20 94 21 91 22 93 23 95 24
REMARK SMILES IDX 92 25 12 26 13 27 14 28 15 29 16 30 17 31 18 32 19 33 20 34
REMARK SMILES IDX 21 35 22 36 83 37 23 38 82 39 24 40 25 41 26 42 76 43 27 44
REMARK SMILES IDX 81 45 75 46 77 47 28 48 80 49 74 50 73 51 29 53 61 54 41 55
REMARK SMILES IDX 60 56 42 57 45 58 59 59 78 60 43 61 44 62 58 64 79 65 46 66
REMARK SMILES IDX 30 67 31 68 39 69 32 70 34 71 40 72 33 73 35 74 36 75 37 76
REMARK SMILES IDX 38 77 62 78 63 79 71 80 64 81 66 82 72 83 65 84 67 85 68 86
REMARK SMILES IDX 69 87 70 88 47 89 48 90 56 91 49 92 51 93 57 94 50 95 52 96
REMARK SMILES IDX 53 97 54 98 55 99
REMARK H PARENT 2 12 77 52 45 63
REMARK Flexibility Score: inf
ROOT
ATOM      1  C   UNL A   1      37.442  20.271  25.191  1.00  0.00     0.188 C 
ENDROOT
BRANCH   1   2
ATOM      2  C   UNL A   1      35.196  20.111  25.009  1.00  0.00     0.188 C 
BRANCH   2   3
ATOM      3  O   UNL A   1      34.126  20.760  25.895  1.00  0.00    -0.376 OA
BRANCH   3   4
ATOM      4  C   UNL A   1      34.488  21.553  27.027  1.00  0.00     0.202 C 
BRANCH   4   5
ATOM      5  C   UNL A   1      34.143  23.035  27.297  1.00  0.00     0.261 C 
BRANCH   5   6
ATOM      6  O   UNL A   1      33.545  23.844  26.272  1.00  0.00    -0.459 OA
BRANCH   6   7
ATOM      7  C   UNL A   1      32.190  23.934  26.303  1.00  0.00     0.361 C 
ATOM      8  O   UNL A   1      31.490  23.382  27.153  1.00  0.00    -0.245 OA
BRANCH   7   9
ATOM      9  C   UNL A   1      31.556  24.744  25.176  1.00  0.00     0.386 C 
BRANCH   9  10
ATOM     10  N   UNL A   1      31.570  24.247  23.791  1.00  0.00    -0.322 N 
ATOM     11  C   UNL A   1      31.391  22.805  23.663  1.00  0.00     0.333 C 
ATOM     12  H   UNL A   1      30.702  24.630  23.418  1.00  0.00     0.348 HD
BRANCH  10  13
ATOM     13  C   UNL A   1      32.527  24.870  22.860  1.00  0.00     0.345 C 
BRANCH  13  14
ATOM     14  C   UNL A   1      32.550  26.357  22.917  1.00  0.00     0.226 A 
ATOM     15  N   UNL A   1      33.736  27.410  23.568  1.00  0.00    -0.056 NA
ATOM     16  N   UNL A   1      31.038  27.263  22.570  1.00  0.00    -0.186 NA
ATOM     17  O   UNL A   1      32.721  29.138  23.648  1.00  0.00    -0.334 OA
ATOM     18  C   UNL A   1      31.007  28.721  23.016  1.00  0.00     0.259 A 
BRANCH  18  19
ATOM     19  C   UNL A   1      29.912  29.700  22.974  1.00  0.00     0.058 A 
ATOM     20  C   UNL A   1      28.872  29.599  22.041  1.00  0.00     0.015 A 
ATOM     21  C   UNL A   1      29.813  30.713  23.959  1.00  0.00     0.053 A 
ATOM     22  C   UNL A   1      27.788  30.491  22.075  1.00  0.00     0.001 A 
ATOM     23  C   UNL A   1      28.765  31.633  23.934  1.00  0.00     0.021 A 
ATOM     24  Cl  UNL A   1      30.916  30.915  25.285  1.00  0.00    -0.083 Cl
ATOM     25  C   UNL A   1      27.752  31.529  22.999  1.00  0.00     0.002 A 
ENDBRANCH  18  19
ENDBRANCH  13  14
ENDBRANCH  10  13
ENDBRANCH   9  10
ENDBRANCH   7   9
ENDBRANCH   6   7
ENDBRANCH   5   6
ENDBRANCH   4   5
ENDBRANCH   3   4
ENDBRANCH   2   3
ENDBRANCH   1   2
BRANCH   1  26
ATOM     26  O   UNL A   1      38.317  21.480  24.991  1.00  0.00    -0.377 OA
BRANCH  26  27
ATOM     27  C   UNL A   1      39.117  21.938  26.068  1.00  0.00     0.188 C 
BRANCH  27  28
ATOM     28  C   UNL A   1      40.117  20.975  26.729  1.00  0.00     0.188 C 
BRANCH  28  29
ATOM     29  O   UNL A   1      40.954  20.177  25.896  1.00  0.00    -0.376 OA
BRANCH  29  30
ATOM     30  C   UNL A   1      41.794  19.223  26.523  1.00  0.00     0.202 C 
BRANCH  30  31
ATOM     31  C   UNL A   1      42.880  18.548  25.656  1.00  0.00     0.261 C 
BRANCH  31  32
ATOM     32  O   UNL A   1      43.390  19.312  24.546  1.00  0.00    -0.460 OA
BRANCH  32  33
ATOM     33  C   UNL A   1      44.561  19.979  24.714  1.00  0.00     0.338 C 
ATOM     34  O   UNL A   1      45.652  19.638  24.294  1.00  0.00    -0.246 OA
BRANCH  33  35
ATOM     35  C   UNL A   1      44.267  21.328  25.297  1.00  0.00     0.060 A 
ATOM     36  C   UNL A   1      43.767  22.343  24.463  1.00  0.00     0.016 A 
ATOM     37  C   UNL A   1      44.443  21.592  26.659  1.00  0.00     0.016 A 
ATOM     38  C   UNL A   1      43.486  23.616  24.974  1.00  0.00     0.010 A 
ATOM     39  C   UNL A   1      44.210  22.879  27.163  1.00  0.00     0.010 A 
ATOM     40  C   UNL A   1      43.776  23.910  26.315  1.00  0.00    -0.014 A 
BRANCH  40  41
ATOM     41  C   UNL A   1      43.976  25.332  26.710  1.00  0.00     0.031 A 
ATOM     42  C   UNL A   1      45.340  25.916  26.459  1.00  0.00     0.074 A 
ATOM     43  C   UNL A   1      43.025  26.092  27.285  1.00  0.00     0.049 A 
ATOM     44  N   UNL A   1      45.792  27.112  26.724  1.00  0.00    -0.248 NA
ATOM     45  C   UNL A   1      46.340  25.011  25.866  1.00  0.00     0.031 C 
ATOM     46  C   UNL A   1      41.703  25.627  27.671  1.00  0.00     0.029 A 
ATOM     47  N   UNL A   1      43.027  27.420  27.645  1.00  0.00    -0.354 N 
ATOM     48  C   UNL A   1      47.138  27.084  26.385  1.00  0.00     0.074 A 
ATOM     49  C   UNL A   1      47.427  25.763  25.877  1.00  0.00     0.031 C 
ATOM     50  C   UNL A   1      40.980  26.666  28.122  1.00  0.00     0.029 A 
ATOM     51  C   UNL A   1      41.834  27.851  28.185  1.00  0.00     0.049 A 
ATOM     52  H   UNL A   1      43.807  28.009  27.528  1.00  0.00     0.167 HD
ATOM     53  C   UNL A   1      48.063  28.061  26.506  1.00  0.00     0.034 A 
ATOM     54  C   UNL A   1      41.489  29.041  28.722  1.00  0.00     0.034 A 
ATOM     55  C   UNL A   1      47.791  29.361  27.050  1.00  0.00     0.049 A 
ATOM     56  C   UNL A   1      42.542  30.115  28.846  1.00  0.00     0.074 A 
ATOM     57  C   UNL A   1      48.660  30.426  27.196  1.00  0.00     0.029 A 
ATOM     58  N   UNL A   1      46.571  29.763  27.568  1.00  0.00    -0.354 N 
ATOM     59  N   UNL A   1      43.788  30.103  28.435  1.00  0.00    -0.248 NA
ATOM     60  C   UNL A   1      42.150  31.360  29.525  1.00  0.00     0.031 C 
ATOM     61  C   UNL A   1      47.979  31.455  27.850  1.00  0.00     0.029 A 
ATOM     62  C   UNL A   1      46.666  31.057  28.046  1.00  0.00     0.049 A 
ATOM     63  H   UNL A   1      45.756  29.210  27.591  1.00  0.00     0.167 HD
ATOM     64  C   UNL A   1      44.320  31.338  28.789  1.00  0.00     0.074 A 
ATOM     65  C   UNL A   1      43.253  32.089  29.416  1.00  0.00     0.031 C 
ATOM     66  C   UNL A   1      45.583  31.805  28.628  1.00  0.00     0.034 A 
BRANCH  53  67
ATOM     67  C   UNL A   1      49.467  27.737  26.074  1.00  0.00     0.023 A 
ATOM     68  C   UNL A   1      49.816  27.789  24.709  1.00  0.00     0.012 A 
ATOM     69  C   UNL A   1      50.446  27.400  27.029  1.00  0.00     0.148 A 
ATOM     70  C   UNL A   1      51.109  27.470  24.297  1.00  0.00     0.002 A 
ATOM     71  C   UNL A   1      51.745  27.140  26.616  1.00  0.00     0.091 A 
ATOM     72  F   UNL A   1      50.084  27.329  28.318  1.00  0.00    -0.205 F 
ATOM     73  C   UNL A   1      52.075  27.159  25.250  1.00  0.00     0.022 A 
BRANCH  71  74
ATOM     74  S   UNL A   1      53.079  26.809  27.770  1.00  0.00     0.127 S 
ATOM     75  O   UNL A   1      53.794  28.083  27.768  1.00  0.00    -0.237 OA
ATOM     76  O   UNL A   1      52.345  26.522  29.003  1.00  0.00    -0.237 OA
ATOM     77  O   UNL A   1      53.819  25.683  27.222  1.00  0.00    -0.744 OA
ENDBRANCH  71  74
ENDBRANCH  53  67
BRANCH  54  78
ATOM     78  C   UNL A   1      40.107  29.287  29.242  1.00  0.00     0.023 A 
ATOM     79  C   UNL A   1      39.096  29.744  28.372  1.00  0.00     0.012 A 
ATOM     80  C   UNL A   1      39.797  29.102  30.602  1.00  0.00     0.148 A 
ATOM     81  C   UNL A   1      37.818  30.042  28.852  1.00  0.00     0.002 A 
ATOM     82  C   UNL A   1      38.504  29.328  31.060  1.00  0.00     0.091 A 
ATOM     83  F   UNL A   1      40.776  28.708  31.428  1.00  0.00    -0.205 F 
ATOM     84  C   UNL A   1      37.517  29.821  30.193  1.00  0.00     0.022 A 
BRANCH  82  85
ATOM     85  S   UNL A   1      37.998  28.932  32.736  1.00  0.00     0.127 S 
ATOM     86  O   UNL A   1      36.636  29.458  32.771  1.00  0.00    -0.237 OA
ATOM     87  O   UNL A   1      38.098  27.471  32.739  1.00  0.00    -0.237 OA
ATOM     88  O   UNL A   1      38.956  29.601  33.605  1.00  0.00    -0.744 OA
ENDBRANCH  82  85
ENDBRANCH  54  78
BRANCH  66  89
ATOM     89  C   UNL A   1      45.871  33.217  29.068  1.00  0.00     0.023 A 
ATOM     90  C   UNL A   1      46.314  33.486  30.378  1.00  0.00     0.012 A 
ATOM     91  C   UNL A   1      45.767  34.273  28.142  1.00  0.00     0.148 A 
ATOM     92  C   UNL A   1      46.606  34.791  30.771  1.00  0.00     0.002 A 
ATOM     93  C   UNL A   1      46.116  35.562  28.523  1.00  0.00     0.091 A 
ATOM     94  F   UNL A   1      45.333  33.997  26.904  1.00  0.00    -0.205 F 
ATOM     95  C   UNL A   1      46.520  35.826  29.841  1.00  0.00     0.022 A 
BRANCH  93  96
ATOM     96  S   UNL A   1      46.133  36.935  27.367  1.00  0.00     0.127 S 
ATOM     97  O   UNL A   1      44.704  37.202  27.204  1.00  0.00    -0.237 OA
ATOM     98  O   UNL A   1      46.864  37.958  28.115  1.00  0.00    -0.237 OA
ATOM     99  O   UNL A   1      46.813  36.452  26.173  1.00  0.00    -0.744 OA
ENDBRANCH  93  96
ENDBRANCH  66  89
ENDBRANCH  40  41
ENDBRANCH  33  35
ENDBRANCH  32  33
ENDBRANCH  31  32
ENDBRANCH  30  31
ENDBRANCH  29  30
ENDBRANCH  28  29
ENDBRANCH  27  28
ENDBRANCH  26  27
ENDBRANCH   1  26
TORSDOF 27
ENDMDL
MODEL 2
REMARK VINA RESULT:      -9.6      2.508      3.355
REMARK SMILES C[N@@H+](CC(=O)OCCOCCOCCOCCOC(=O)c1ccc(-c2c3nc(c(-c4cccc(S(=O)(=O)[O-])c4F)c4ccc([nH]4)c(-c4cccc(S(=O)(=O)[O-])c4F)c4nc(c(-c5cccc(S(=O)(=O)[O-])c5F)c5ccc2[nH]5)C=C4)C=C3)cc1)Cc1noc(-c2ccccc2Cl)n1
REMARK SMILES IDX 11 1 10 2 9 3 8 4 7 5 6 6 4 7 5 8 3 9 2 10 1 11 84 13 85 14
REMARK SMILES IDX 86 15 96 16 87 17 88 18 89 19 90 20 94 21 91 22 93 23 95 24
REMARK SMILES IDX 92 25 12 26 13 27 14 28 15 29 16 30 17 31 18 32 19 33 20 34
REMARK SMILES IDX 21 35 22 36 83 37 23 38 82 39 24 40 25 41 26 42 76 43 27 44
REMARK SMILES IDX 81 45 75 46 77 47 28 48 80 49 74 50 73 51 29 53 61 54 41 55
REMARK SMILES IDX 60 56 42 57 45 58 59 59 78 60 43 61 44 62 58 64 79 65 46 66
REMARK SMILES IDX 30 67 31 68 39 69 32 70 34 71 40 72 33 73 35 74 36 75 37 76
REMARK SMILES IDX 38 77 62 78 63 79 71 80 64 81 66 82 72 83 65 84 67 85 68 86
REMARK SMILES IDX 69 87 70 88 47 89 48 90 56 91 49 92 51 93 57 94 50 95 52 96
REMARK SMILES IDX 53 97 54 98 55 99
REMARK H PARENT 2 12 77 52 45 63
REMARK Flexibility Score: inf
ROOT
ATOM      1  C   UNL A   1      36.231  20.826  24.635  1.00  0.00     0.188 C 
ENDROOT
BRANCH   1   2
ATOM      2  C   UNL A   1      34.077  20.195  24.886  1.00  0.00     0.188 C 
BRANCH   2   3
ATOM      3  O   UNL A   1      33.078  20.644  25.959  1.00  0.00    -0.376 OA
BRANCH   3   4
ATOM      4  C   UNL A   1      33.527  21.205  27.195  1.00  0.00     0.202 C 
BRANCH   4   5
ATOM      5  C   UNL A   1      33.634  22.699  27.575  1.00  0.00     0.261 C 
BRANCH   5   6
ATOM      6  O   UNL A   1      33.456  23.720  26.580  1.00  0.00    -0.459 OA
BRANCH   6   7
ATOM      7  C   UNL A   1      32.210  24.255  26.497  1.00  0.00     0.361 C 
ATOM      8  O   UNL A   1      31.345  24.106  27.361  1.00  0.00    -0.245 OA
BRANCH   7   9
ATOM      9  C   UNL A   1      31.913  25.040  25.223  1.00  0.00     0.386 C 
BRANCH   9  10
ATOM     10  N   UNL A   1      31.531  24.346  23.982  1.00  0.00    -0.322 N 
ATOM     11  C   UNL A   1      31.189  22.938  24.156  1.00  0.00     0.333 C 
ATOM     12  H   UNL A   1      30.638  24.784  23.759  1.00  0.00     0.348 HD
BRANCH  10  13
ATOM     13  C   UNL A   1      32.279  24.689  22.760  1.00  0.00     0.345 C 
BRANCH  13  14
ATOM     14  C   UNL A   1      32.320  26.147  22.461  1.00  0.00     0.226 A 
ATOM     15  N   UNL A   1      33.664  27.206  22.358  1.00  0.00    -0.056 NA
ATOM     16  N   UNL A   1      30.789  27.087  22.511  1.00  0.00    -0.186 NA
ATOM     17  O   UNL A   1      32.755  28.994  22.417  1.00  0.00    -0.334 OA
ATOM     18  C   UNL A   1      30.931  28.603  22.589  1.00  0.00     0.259 A 
BRANCH  18  19
ATOM     19  C   UNL A   1      29.903  29.643  22.740  1.00  0.00     0.058 A 
ATOM     20  C   UNL A   1      28.826  29.745  21.849  1.00  0.00     0.015 A 
ATOM     21  C   UNL A   1      29.907  30.502  23.865  1.00  0.00     0.053 A 
ATOM     22  C   UNL A   1      27.807  30.687  22.061  1.00  0.00     0.001 A 
ATOM     23  C   UNL A   1      28.923  31.479  24.022  1.00  0.00     0.021 A 
ATOM     24  Cl  UNL A   1      31.067  30.438  25.156  1.00  0.00    -0.083 Cl
ATOM     25  C   UNL A   1      27.873  31.576  23.127  1.00  0.00     0.002 A 
ENDBRANCH  18  19
ENDBRANCH  13  14
ENDBRANCH  10  13
ENDBRANCH   9  10
ENDBRANCH   7   9
ENDBRANCH   6   7
ENDBRANCH   5   6
ENDBRANCH   4   5
ENDBRANCH   3   4
ENDBRANCH   2   3
ENDBRANCH   1   2
BRANCH   1  26
ATOM     26  O   UNL A   1      36.774  22.149  24.162  1.00  0.00    -0.377 OA
BRANCH  26  27
ATOM     27  C   UNL A   1      37.426  22.998  25.092  1.00  0.00     0.188 C 
BRANCH  27  28
ATOM     28  C   UNL A   1      38.437  22.399  26.083  1.00  0.00     0.188 C 
BRANCH  28  29
ATOM     29  O   UNL A   1      39.377  21.438  25.607  1.00  0.00    -0.376 OA
BRANCH  29  30
ATOM     30  C   UNL A   1      40.280  20.876  26.545  1.00  0.00     0.202 C 
BRANCH  30  31
ATOM     31  C   UNL A   1      41.757  20.734  26.116  1.00  0.00     0.261 C 
BRANCH  31  32
ATOM     32  O   UNL A   1      42.365  21.884  25.498  1.00  0.00    -0.460 OA
BRANCH  32  33
ATOM     33  C   UNL A   1      43.457  22.429  26.093  1.00  0.00     0.338 C 
ATOM     34  O   UNL A   1      44.608  22.046  25.979  1.00  0.00    -0.246 OA
BRANCH  33  35
ATOM     35  C   UNL A   1      43.061  23.725  26.732  1.00  0.00     0.060 A 
ATOM     36  C   UNL A   1      42.501  24.739  25.937  1.00  0.00     0.016 A 
ATOM     37  C   UNL A   1      43.201  23.937  28.107  1.00  0.00     0.016 A 
ATOM     38  C   UNL A   1      42.124  25.965  26.500  1.00  0.00     0.010 A 
ATOM     39  C   UNL A   1      42.871  25.181  28.665  1.00  0.00     0.010 A 
ATOM     40  C   UNL A   1      42.375  26.217  27.858  1.00  0.00    -0.014 A 
BRANCH  40  41
ATOM     41  C   UNL A   1      42.469  27.629  28.320  1.00  0.00     0.031 A 
ATOM     42  C   UNL A   1      43.834  28.262  28.283  1.00  0.00     0.074 A 
ATOM     43  C   UNL A   1      41.421  28.340  28.776  1.00  0.00     0.049 A 
ATOM     44  N   UNL A   1      44.203  29.460  28.645  1.00  0.00    -0.248 NA
ATOM     45  C   UNL A   1      44.938  27.407  27.812  1.00  0.00     0.031 C 
ATOM     46  C   UNL A   1      40.075  27.823  28.956  1.00  0.00     0.029 A 
ATOM     47  N   UNL A   1      41.327  29.655  29.173  1.00  0.00    -0.354 N 
ATOM     48  C   UNL A   1      45.584  29.483  28.501  1.00  0.00     0.074 A 
ATOM     49  C   UNL A   1      45.986  28.190  27.999  1.00  0.00     0.031 C 
ATOM     50  C   UNL A   1      39.260  28.824  29.331  1.00  0.00     0.029 A 
ATOM     51  C   UNL A   1      40.056  30.031  29.550  1.00  0.00     0.049 A 
ATOM     52  H   UNL A   1      42.095  30.270  29.186  1.00  0.00     0.167 HD
ATOM     53  C   UNL A   1      46.449  30.482  28.782  1.00  0.00     0.034 A 
ATOM     54  C   UNL A   1      39.598  31.192  30.068  1.00  0.00     0.034 A 
ATOM     55  C   UNL A   1      46.059  31.754  29.320  1.00  0.00     0.049 A 
ATOM     56  C   UNL A   1      40.586  32.291  30.373  1.00  0.00     0.074 A 
ATOM     57  C   UNL A   1      46.862  32.839  29.621  1.00  0.00     0.029 A 
ATOM     58  N   UNL A   1      44.765  32.102  29.671  1.00  0.00    -0.354 N 
ATOM     59  N   UNL A   1      41.877  32.330  30.143  1.00  0.00    -0.248 NA
ATOM     60  C   UNL A   1      40.060  33.500  31.027  1.00  0.00     0.031 C 
ATOM     61  C   UNL A   1      46.060  33.824  30.202  1.00  0.00     0.029 A 
ATOM     62  C   UNL A   1      44.747  33.381  30.197  1.00  0.00     0.049 A 
ATOM     63  H   UNL A   1      43.974  31.524  29.562  1.00  0.00     0.167 HD
ATOM     64  C   UNL A   1      42.311  33.567  30.606  1.00  0.00     0.074 A 
ATOM     65  C   UNL A   1      41.141  34.264  31.097  1.00  0.00     0.031 C 
ATOM     66  C   UNL A   1      43.568  34.076  30.641  1.00  0.00     0.034 A 
BRANCH  53  67
ATOM     67  C   UNL A   1      47.910  30.215  28.544  1.00  0.00     0.023 A 
ATOM     68  C   UNL A   1      48.502  30.570  27.315  1.00  0.00     0.012 A 
ATOM     69  C   UNL A   1      48.699  29.628  29.552  1.00  0.00     0.148 A 
ATOM     70  C   UNL A   1      49.851  30.307  27.079  1.00  0.00     0.002 A 
ATOM     71  C   UNL A   1      50.053  29.422  29.330  1.00  0.00     0.091 A 
ATOM     72  F   UNL A   1      48.107  29.273  30.702  1.00  0.00    -0.205 F 
ATOM     73  C   UNL A   1      50.628  29.746  28.089  1.00  0.00     0.022 A 
BRANCH  71  74
ATOM     74  S   UNL A   1      51.155  28.781  30.593  1.00  0.00     0.127 S 
ATOM     75  O   UNL A   1      51.030  29.797  31.637  1.00  0.00    -0.237 OA
ATOM     76  O   UNL A   1      50.531  27.497  30.913  1.00  0.00    -0.237 OA
ATOM     77  O   UNL A   1      52.469  28.687  29.976  1.00  0.00    -0.744 OA
ENDBRANCH  71  74
ENDBRANCH  53  67
BRANCH  54  78
ATOM     78  C   UNL A   1      38.149  31.378  30.394  1.00  0.00     0.023 A 
ATOM     79  C   UNL A   1      37.648  30.966  31.646  1.00  0.00     0.012 A 
ATOM     80  C   UNL A   1      37.256  31.931  29.457  1.00  0.00     0.148 A 
ATOM     81  C   UNL A   1      36.287  31.072  31.943  1.00  0.00     0.002 A 
ATOM     82  C   UNL A   1      35.917  32.103  29.786  1.00  0.00     0.091 A 
ATOM     83  F   UNL A   1      37.735  32.281  28.255  1.00  0.00    -0.205 F 
ATOM     84  C   UNL A   1      35.423  31.653  31.019  1.00  0.00     0.022 A 
BRANCH  82  85
ATOM     85  S   UNL A   1      34.770  32.972  28.712  1.00  0.00     0.127 S 
ATOM     86  O   UNL A   1      34.299  34.045  29.581  1.00  0.00    -0.237 OA
ATOM     87  O   UNL A   1      35.649  33.398  27.622  1.00  0.00    -0.237 OA
ATOM     88  O   UNL A   1      33.769  31.987  28.326  1.00  0.00    -0.744 OA
ENDBRANCH  82  85
ENDBRANCH  54  78
BRANCH  66  89
ATOM     89  C   UNL A   1      43.743  35.480  31.159  1.00  0.00     0.023 A 
ATOM     90  C   UNL A   1      44.024  35.714  32.520  1.00  0.00     0.012 A 
ATOM     91  C   UNL A   1      43.696  36.567  30.265  1.00  0.00     0.148 A 
ATOM     92  C   UNL A   1      44.213  37.014  32.988  1.00  0.00     0.002 A 
ATOM     93  C   UNL A   1      43.944  37.852  30.728  1.00  0.00     0.091 A 
ATOM     94  F   UNL A   1      43.415  36.323  28.978  1.00  0.00    -0.205 F 
ATOM     95  C   UNL A   1      44.186  38.080  32.092  1.00  0.00     0.022 A 
BRANCH  93  96
ATOM     96  S   UNL A   1      44.028  39.270  29.630  1.00  0.00     0.127 S 
ATOM     97  O   UNL A   1      44.900  40.174  30.380  1.00  0.00    -0.237 OA
ATOM     98  O   UNL A   1      44.633  38.694  28.429  1.00  0.00    -0.237 OA
ATOM     99  O   UNL A   1      42.657  39.732  29.458  1.00  0.00    -0.744 OA
ENDBRANCH  93  96
ENDBRANCH  66  89
ENDBRANCH  40  41
ENDBRANCH  33  35
ENDBRANCH  32  33
ENDBRANCH  31  32
ENDBRANCH  30  31
ENDBRANCH  29  30
ENDBRANCH  28  29
ENDBRANCH  27  28
ENDBRANCH  26  27
ENDBRANCH   1  26
TORSDOF 27
ENDMDL
MODEL 3
REMARK VINA RESULT:      -9.6      1.912      2.221
REMARK SMILES C[N@@H+](CC(=O)OCCOCCOCCOCCOC(=O)c1ccc(-c2c3nc(c(-c4cccc(S(=O)(=O)[O-])c4F)c4ccc([nH]4)c(-c4cccc(S(=O)(=O)[O-])c4F)c4nc(c(-c5cccc(S(=O)(=O)[O-])c5F)c5ccc2[nH]5)C=C4)C=C3)cc1)Cc1noc(-c2ccccc2Cl)n1
REMARK SMILES IDX 11 1 10 2 9 3 8 4 7 5 6 6 4 7 5 8 3 9 2 10 1 11 84 13 85 14
REMARK SMILES IDX 86 15 96 16 87 17 88 18 89 19 90 20 94 21 91 22 93 23 95 24
REMARK SMILES IDX 92 25 12 26 13 27 14 28 15 29 16 30 17 31 18 32 19 33 20 34
REMARK SMILES IDX 21 35 22 36 83 37 23 38 82 39 24 40 25 41 26 42 76 43 27 44
REMARK SMILES IDX 81 45 75 46 77 47 28 48 80 49 74 50 73 51 29 53 61 54 41 55
REMARK SMILES IDX 60 56 42 57 45 58 59 59 78 60 43 61 44 62 58 64 79 65 46 66
REMARK SMILES IDX 30 67 31 68 39 69 32 70 34 71 40 72 33 73 35 74 36 75 37 76
REMARK SMILES IDX 38 77 62 78 63 79 71 80 64 81 66 82 72 83 65 84 67 85 68 86
REMARK SMILES IDX 69 87 70 88 47 89 48 90 56 91 49 92 51 93 57 94 50 95 52 96
REMARK SMILES IDX 53 97 54 98 55 99
REMARK H PARENT 2 12 77 52 45 63
REMARK Flexibility Score: inf
ROOT
ATOM      1  C   UNL A   1      36.751  20.537  24.985  1.00  0.00     0.188 C 
ENDROOT
BRANCH   1   2
ATOM      2  C   UNL A   1      34.537  20.091  25.009  1.00  0.00     0.188 C 
BRANCH   2   3
ATOM      3  O   UNL A   1      33.489  20.557  26.027  1.00  0.00    -0.376 OA
BRANCH   3   4
ATOM      4  C   UNL A   1      33.877  21.214  27.236  1.00  0.00     0.202 C 
BRANCH   4   5
ATOM      5  C   UNL A   1      33.766  22.718  27.576  1.00  0.00     0.261 C 
BRANCH   5   6
ATOM      6  O   UNL A   1      33.510  23.683  26.544  1.00  0.00    -0.459 OA
BRANCH   6   7
ATOM      7  C   UNL A   1      32.217  24.078  26.410  1.00  0.00     0.361 C 
ATOM      8  O   UNL A   1      31.347  23.858  27.253  1.00  0.00    -0.245 OA
BRANCH   7   9
ATOM      9  C   UNL A   1      31.877  24.792  25.106  1.00  0.00     0.386 C 
BRANCH   9  10
ATOM     10  N   UNL A   1      31.938  24.081  23.818  1.00  0.00    -0.322 N 
ATOM     11  C   UNL A   1      31.827  22.630  23.923  1.00  0.00     0.333 C 
ATOM     12  H   UNL A   1      31.060  24.358  23.380  1.00  0.00     0.348 HD
BRANCH  10  13
ATOM     13  C   UNL A   1      32.882  24.592  22.809  1.00  0.00     0.345 C 
BRANCH  13  14
ATOM     14  C   UNL A   1      32.733  26.043  22.517  1.00  0.00     0.226 A 
ATOM     15  N   UNL A   1      33.892  27.303  22.605  1.00  0.00    -0.056 NA
ATOM     16  N   UNL A   1      31.081  26.729  22.345  1.00  0.00    -0.186 NA
ATOM     17  O   UNL A   1      32.712  28.924  22.529  1.00  0.00    -0.334 OA
ATOM     18  C   UNL A   1      30.968  28.247  22.439  1.00  0.00     0.259 A 
BRANCH  18  19
ATOM     19  C   UNL A   1      29.777  29.108  22.438  1.00  0.00     0.058 A 
ATOM     20  C   UNL A   1      29.773  30.356  21.799  1.00  0.00     0.015 A 
ATOM     21  C   UNL A   1      28.555  28.649  22.985  1.00  0.00     0.053 A 
ATOM     22  C   UNL A   1      28.600  31.124  21.732  1.00  0.00     0.001 A 
ATOM     23  C   UNL A   1      27.417  29.456  22.970  1.00  0.00     0.021 A 
ATOM     24  Cl  UNL A   1      28.312  27.079  23.687  1.00  0.00    -0.083 Cl
ATOM     25  C   UNL A   1      27.432  30.691  22.347  1.00  0.00     0.002 A 
ENDBRANCH  18  19
ENDBRANCH  13  14
ENDBRANCH  10  13
ENDBRANCH   9  10
ENDBRANCH   7   9
ENDBRANCH   6   7
ENDBRANCH   5   6
ENDBRANCH   4   5
ENDBRANCH   3   4
ENDBRANCH   2   3
ENDBRANCH   1   2
BRANCH   1  26
ATOM     26  O   UNL A   1      37.452  21.797  24.550  1.00  0.00    -0.377 OA
BRANCH  26  27
ATOM     27  C   UNL A   1      38.279  22.481  25.477  1.00  0.00     0.188 C 
BRANCH  27  28
ATOM     28  C   UNL A   1      39.259  21.679  26.349  1.00  0.00     0.188 C 
BRANCH  28  29
ATOM     29  O   UNL A   1      39.970  20.592  25.761  1.00  0.00    -0.376 OA
BRANCH  29  30
ATOM     30  C   UNL A   1      40.729  19.756  26.619  1.00  0.00     0.202 C 
BRANCH  30  31
ATOM     31  C   UNL A   1      41.810  18.863  25.972  1.00  0.00     0.261 C 
BRANCH  31  32
ATOM     32  O   UNL A   1      42.624  19.469  24.950  1.00  0.00    -0.460 OA
BRANCH  32  33
ATOM     33  C   UNL A   1      43.822  19.995  25.314  1.00  0.00     0.338 C 
ATOM     34  O   UNL A   1      44.919  19.517  25.086  1.00  0.00    -0.246 OA
BRANCH  33  35
ATOM     35  C   UNL A   1      43.600  21.381  25.838  1.00  0.00     0.060 A 
ATOM     36  C   UNL A   1      43.297  22.416  24.936  1.00  0.00     0.016 A 
ATOM     37  C   UNL A   1      43.649  21.664  27.207  1.00  0.00     0.016 A 
ATOM     38  C   UNL A   1      43.088  23.723  25.391  1.00  0.00     0.010 A 
ATOM     39  C   UNL A   1      43.490  22.981  27.660  1.00  0.00     0.010 A 
ATOM     40  C   UNL A   1      43.256  24.025  26.751  1.00  0.00    -0.014 A 
BRANCH  40  41
ATOM     41  C   UNL A   1      43.550  25.432  27.143  1.00  0.00     0.031 A 
ATOM     42  C   UNL A   1      44.969  25.899  26.962  1.00  0.00     0.074 A 
ATOM     43  C   UNL A   1      42.635  26.274  27.658  1.00  0.00     0.049 A 
ATOM     44  N   UNL A   1      45.502  27.058  27.240  1.00  0.00    -0.248 NA
ATOM     45  C   UNL A   1      45.922  24.907  26.435  1.00  0.00     0.031 C 
ATOM     46  C   UNL A   1      41.260  25.923  27.974  1.00  0.00     0.029 A 
ATOM     47  N   UNL A   1      42.726  27.603  28.005  1.00  0.00    -0.354 N 
ATOM     48  C   UNL A   1      46.858  26.915  26.976  1.00  0.00     0.074 A 
ATOM     49  C   UNL A   1      47.065  25.569  26.498  1.00  0.00     0.031 C 
ATOM     50  C   UNL A   1      40.601  27.024  28.375  1.00  0.00     0.029 A 
ATOM     51  C   UNL A   1      41.545  28.136  28.473  1.00  0.00     0.049 A 
ATOM     52  H   UNL A   1      43.557  28.125  27.925  1.00  0.00     0.167 HD
ATOM     53  C   UNL A   1      47.852  27.816  27.139  1.00  0.00     0.034 A 
ATOM     54  C   UNL A   1      41.270  29.359  28.979  1.00  0.00     0.034 A 
ATOM     55  C   UNL A   1      47.658  29.141  27.654  1.00  0.00     0.049 A 
ATOM     56  C   UNL A   1      42.399  30.345  29.151  1.00  0.00     0.074 A 
ATOM     57  C   UNL A   1      48.603  30.134  27.838  1.00  0.00     0.029 A 
ATOM     58  N   UNL A   1      46.449  29.648  28.100  1.00  0.00    -0.354 N 
ATOM     59  N   UNL A   1      43.660  30.225  28.809  1.00  0.00    -0.248 NA
ATOM     60  C   UNL A   1      42.075  31.627  29.796  1.00  0.00     0.031 C 
ATOM     61  C   UNL A   1      47.973  31.225  28.444  1.00  0.00     0.029 A 
ATOM     62  C   UNL A   1      46.624  30.937  28.571  1.00  0.00     0.049 A 
ATOM     63  H   UNL A   1      45.592  29.163  28.084  1.00  0.00     0.167 HD
ATOM     64  C   UNL A   1      44.271  31.419  29.180  1.00  0.00     0.074 A 
ATOM     65  C   UNL A   1      43.237  32.262  29.740  1.00  0.00     0.031 C 
ATOM     66  C   UNL A   1      45.576  31.779  29.085  1.00  0.00     0.034 A 
BRANCH  53  67
ATOM     67  C   UNL A   1      49.246  27.373  26.788  1.00  0.00     0.023 A 
ATOM     68  C   UNL A   1      50.024  26.673  27.732  1.00  0.00     0.012 A 
ATOM     69  C   UNL A   1      49.774  27.634  25.509  1.00  0.00     0.148 A 
ATOM     70  C   UNL A   1      51.324  26.276  27.422  1.00  0.00     0.002 A 
ATOM     71  C   UNL A   1      51.048  27.186  25.189  1.00  0.00     0.091 A 
ATOM     72  F   UNL A   1      49.027  28.326  24.637  1.00  0.00    -0.205 F 
ATOM     73  C   UNL A   1      51.830  26.521  26.148  1.00  0.00     0.022 A 
BRANCH  71  74
ATOM     74  S   UNL A   1      51.759  27.379  23.553  1.00  0.00     0.127 S 
ATOM     75  O   UNL A   1      52.105  28.800  23.548  1.00  0.00    -0.237 OA
ATOM     76  O   UNL A   1      52.905  26.472  23.613  1.00  0.00    -0.237 OA
ATOM     77  O   UNL A   1      50.720  26.993  22.610  1.00  0.00    -0.744 OA
ENDBRANCH  71  74
ENDBRANCH  53  67
BRANCH  54  78
ATOM     78  C   UNL A   1      39.887  29.723  29.420  1.00  0.00     0.023 A 
ATOM     79  C   UNL A   1      38.949  30.200  28.480  1.00  0.00     0.012 A 
ATOM     80  C   UNL A   1      39.504  29.632  30.771  1.00  0.00     0.148 A 
ATOM     81  C   UNL A   1      37.674  30.607  28.884  1.00  0.00     0.002 A 
ATOM     82  C   UNL A   1      38.211  29.967  31.155  1.00  0.00     0.091 A 
ATOM     83  F   UNL A   1      40.416  29.217  31.661  1.00  0.00    -0.205 F 
ATOM     84  C   UNL A   1      37.301  30.478  30.219  1.00  0.00     0.022 A 
BRANCH  82  85
ATOM     85  S   UNL A   1      37.606  29.695  32.823  1.00  0.00     0.127 S 
ATOM     86  O   UNL A   1      38.661  30.304  33.628  1.00  0.00    -0.237 OA
ATOM     87  O   UNL A   1      36.340  30.429  32.803  1.00  0.00    -0.237 OA
ATOM     88  O   UNL A   1      37.462  28.252  32.960  1.00  0.00    -0.744 OA
ENDBRANCH  82  85
ENDBRANCH  54  78
BRANCH  66  89
ATOM     89  C   UNL A   1      45.955  33.168  29.526  1.00  0.00     0.023 A 
ATOM     90  C   UNL A   1      45.917  34.246  28.618  1.00  0.00     0.012 A 
ATOM     91  C   UNL A   1      46.282  33.410  30.875  1.00  0.00     0.148 A 
ATOM     92  C   UNL A   1      46.242  35.535  29.040  1.00  0.00     0.002 A 
ATOM     93  C   UNL A   1      46.546  34.705  31.299  1.00  0.00     0.091 A 
ATOM     94  F   UNL A   1      46.323  32.369  31.717  1.00  0.00    -0.205 F 
ATOM     95  C   UNL A   1      46.543  35.767  30.380  1.00  0.00     0.022 A 
BRANCH  93  96
ATOM     96  S   UNL A   1      46.844  35.110  33.022  1.00  0.00     0.127 S 
ATOM     97  O   UNL A   1      47.334  36.484  32.924  1.00  0.00    -0.237 OA
ATOM     98  O   UNL A   1      45.508  34.978  33.604  1.00  0.00    -0.237 OA
ATOM     99  O   UNL A   1      47.816  34.138  33.506  1.00  0.00    -0.744 OA
ENDBRANCH  93  96
ENDBRANCH  66  89
ENDBRANCH  40  41
ENDBRANCH  33  35
ENDBRANCH  32  33
ENDBRANCH  31  32
ENDBRANCH  30  31
ENDBRANCH  29  30
ENDBRANCH  28  29
ENDBRANCH  27  28
ENDBRANCH  26  27
ENDBRANCH   1  26
TORSDOF 27
ENDMDL
