MODEL 1
REMARK VINA RESULT:     -10.8      0.000      0.000
REMARK SMILES CC(=O)Nc1cnc(N2CC=C(c3ccccc3C)CC2)c(C(=O)OCCOCCOCCOCCOC(=O)c2ccc(-c3c4nc(c(-c5cccc(S(=O)(=O)[O-])c5F)c5ccc([nH]5)c(-c5cccc(S(=O)(=O)[O-])c5F)c5nc(c(-c6cccc(S(=O)(=O)[O-])c6F)c6ccc3[nH]6)C=C5)C=C4)cc2)c1
REMARK SMILES IDX 32 1 31 2 30 3 29 4 28 5 27 6 26 7 25 8 23 9 24 10 22 11
REMARK SMILES IDX 5 12 6 13 103 14 7 15 8 16 4 17 1 18 2 19 3 20 9 22 10 23
REMARK SMILES IDX 21 24 11 25 20 26 12 27 13 28 14 29 18 30 15 31 17 32 19 33
REMARK SMILES IDX 16 34 33 35 34 36 35 37 36 38 37 39 38 40 39 41 40 42 41 43
REMARK SMILES IDX 102 44 42 45 101 46 43 47 44 48 45 49 95 50 46 51 100 52
REMARK SMILES IDX 94 53 96 54 47 55 99 56 93 57 92 58 48 60 80 61 60 62 79 63
REMARK SMILES IDX 61 64 64 65 78 66 97 67 62 68 63 69 77 71 98 72 65 73 49 74
REMARK SMILES IDX 50 75 58 76 51 77 53 78 59 79 52 80 54 81 55 82 56 83 57 84
REMARK SMILES IDX 81 85 82 86 90 87 83 88 85 89 91 90 84 91 86 92 87 93 88 94
REMARK SMILES IDX 89 95 66 96 67 97 75 98 68 99 70 100 76 101 69 102 71 103
REMARK SMILES IDX 72 104 73 105 74 106
REMARK H PARENT 4 21 96 59 64 70
REMARK Flexibility Score: inf
ROOT
ATOM      1  C   UNL A   1      32.083  28.708  27.342  1.00  0.00     0.188 C 
ENDROOT
BRANCH   1   2
ATOM      2  O   UNL A   1      31.633  27.366  27.291  1.00  0.00    -0.377 OA
BRANCH   2   3
ATOM      3  C   UNL A   1      32.543  26.297  27.074  1.00  0.00     0.188 C 
BRANCH   3   4
ATOM      4  C   UNL A   1      32.195  24.798  26.891  1.00  0.00     0.188 C 
BRANCH   4   5
ATOM      5  O   UNL A   1      31.121  24.236  26.156  1.00  0.00    -0.376 OA
BRANCH   5   6
ATOM      6  C   UNL A   1      29.806  24.174  26.645  1.00  0.00     0.202 C 
BRANCH   6   7
ATOM      7  C   UNL A   1      28.976  25.351  26.105  1.00  0.00     0.261 C 
BRANCH   7   8
ATOM      8  O   UNL A   1      29.759  26.062  25.137  1.00  0.00    -0.460 OA
BRANCH   8   9
ATOM      9  C   UNL A   1      29.125  26.360  23.985  1.00  0.00     0.342 C 
ATOM     10  O   UNL A   1      28.079  25.962  23.555  1.00  0.00    -0.246 OA
BRANCH   9  11
ATOM     11  C   UNL A   1      29.918  27.440  23.402  1.00  0.00     0.104 A 
ATOM     12  C   UNL A   1      29.864  29.468  22.107  1.00  0.00     0.060 A 
ATOM     13  C   UNL A   1      31.245  29.305  22.017  1.00  0.00     0.139 A 
ATOM     14  C   UNL A   1      29.191  28.489  22.805  1.00  0.00     0.047 A 
ATOM     15  N   UNL A   1      31.968  28.292  22.573  1.00  0.00    -0.236 NA
ATOM     16  C   UNL A   1      31.316  27.333  23.276  1.00  0.00     0.143 A 
BRANCH  12  17
ATOM     17  N   UNL A   1      29.258  30.556  21.454  1.00  0.00    -0.325 N 
ATOM     18  C   UNL A   1      27.949  31.595  23.317  1.00  0.00     0.114 C 
ATOM     19  C   UNL A   1      28.353  31.491  21.872  1.00  0.00     0.221 C 
ATOM     20  O   UNL A   1      27.927  32.302  21.044  1.00  0.00    -0.275 OA
ATOM     21  H   UNL A   1      29.538  30.665  20.516  1.00  0.00     0.169 HD
ENDBRANCH  12  17
BRANCH  16  22
ATOM     22  N   UNL A   1      32.067  26.171  23.538  1.00  0.00    -0.352 N 
ATOM     23  C   UNL A   1      31.907  24.989  22.695  1.00  0.00     0.146 C 
ATOM     24  C   UNL A   1      33.435  26.568  23.826  1.00  0.00     0.123 C 
ATOM     25  C   UNL A   1      32.961  23.954  22.998  1.00  0.00    -0.002 C 
ATOM     26  C   UNL A   1      34.430  25.509  24.243  1.00  0.00     0.057 C 
ATOM     27  C   UNL A   1      34.078  24.163  23.719  1.00  0.00    -0.041 C 
BRANCH  27  28
ATOM     28  C   UNL A   1      34.933  23.035  24.117  1.00  0.00    -0.020 A 
ATOM     29  C   UNL A   1      36.325  23.136  23.970  1.00  0.00     0.008 A 
ATOM     30  C   UNL A   1      34.362  21.822  24.565  1.00  0.00    -0.044 A 
ATOM     31  C   UNL A   1      37.140  22.028  24.198  1.00  0.00     0.001 A 
ATOM     32  C   UNL A   1      35.200  20.721  24.791  1.00  0.00     0.004 A 
ATOM     33  C   UNL A   1      32.893  21.670  24.862  1.00  0.00     0.045 C 
ATOM     34  C   UNL A   1      36.575  20.816  24.584  1.00  0.00     0.000 A 
ENDBRANCH  27  28
ENDBRANCH  16  22
ENDBRANCH   9  11
ENDBRANCH   8   9
ENDBRANCH   7   8
ENDBRANCH   6   7
ENDBRANCH   5   6
ENDBRANCH   4   5
ENDBRANCH   3   4
ENDBRANCH   2   3
ENDBRANCH   1   2
BRANCH   1  35
ATOM     35  C   UNL A   1      32.193  29.426  26.007  1.00  0.00     0.188 C 
BRANCH  35  36
ATOM     36  O   UNL A   1      32.996  30.573  26.205  1.00  0.00    -0.376 OA
BRANCH  36  37
ATOM     37  C   UNL A   1      33.074  31.125  27.500  1.00  0.00     0.202 C 
BRANCH  37  38
ATOM     38  C   UNL A   1      34.400  31.839  27.733  1.00  0.00     0.261 C 
BRANCH  38  39
ATOM     39  O   UNL A   1      34.181  33.258  27.585  1.00  0.00    -0.460 OA
BRANCH  39  40
ATOM     40  C   UNL A   1      33.799  33.904  28.724  1.00  0.00     0.338 C 
ATOM     41  O   UNL A   1      32.789  34.581  28.818  1.00  0.00    -0.246 OA
BRANCH  40  42
ATOM     42  C   UNL A   1      34.905  33.868  29.730  1.00  0.00     0.060 A 
ATOM     43  C   UNL A   1      36.217  34.211  29.366  1.00  0.00     0.016 A 
ATOM     44  C   UNL A   1      34.700  33.220  30.938  1.00  0.00     0.016 A 
ATOM     45  C   UNL A   1      37.322  33.708  30.086  1.00  0.00     0.010 A 
ATOM     46  C   UNL A   1      35.792  32.684  31.596  1.00  0.00     0.010 A 
ATOM     47  C   UNL A   1      37.118  32.827  31.131  1.00  0.00    -0.014 A 
BRANCH  47  48
ATOM     48  C   UNL A   1      38.157  31.987  31.809  1.00  0.00     0.031 A 
ATOM     49  C   UNL A   1      38.395  30.646  31.150  1.00  0.00     0.074 A 
ATOM     50  C   UNL A   1      39.102  32.612  32.576  1.00  0.00     0.049 A 
ATOM     51  N   UNL A   1      39.419  29.870  31.268  1.00  0.00    -0.248 NA
ATOM     52  C   UNL A   1      37.398  30.087  30.230  1.00  0.00     0.031 C 
ATOM     53  C   UNL A   1      40.551  32.620  32.387  1.00  0.00     0.029 A 
ATOM     54  N   UNL A   1      39.024  33.587  33.544  1.00  0.00    -0.354 N 
ATOM     55  C   UNL A   1      39.344  28.873  30.285  1.00  0.00     0.074 A 
ATOM     56  C   UNL A   1      38.041  29.042  29.704  1.00  0.00     0.031 C 
ATOM     57  C   UNL A   1      41.219  33.345  33.276  1.00  0.00     0.029 A 
ATOM     58  C   UNL A   1      40.246  33.744  34.212  1.00  0.00     0.049 A 
ATOM     59  H   UNL A   1      38.212  34.107  33.743  1.00  0.00     0.167 HD
ATOM     60  C   UNL A   1      40.430  28.082  30.002  1.00  0.00     0.034 A 
ATOM     61  C   UNL A   1      40.472  33.516  35.524  1.00  0.00     0.034 A 
ATOM     62  C   UNL A   1      41.509  28.303  31.007  1.00  0.00     0.049 A 
ATOM     63  C   UNL A   1      41.157  32.146  35.747  1.00  0.00     0.074 A 
ATOM     64  C   UNL A   1      42.860  28.596  30.939  1.00  0.00     0.029 A 
ATOM     65  N   UNL A   1      41.196  28.397  32.372  1.00  0.00    -0.354 N 
ATOM     66  N   UNL A   1      41.347  31.248  34.788  1.00  0.00    -0.248 NA
ATOM     67  C   UNL A   1      41.761  31.689  36.999  1.00  0.00     0.031 C 
ATOM     68  C   UNL A   1      43.278  29.099  32.208  1.00  0.00     0.029 A 
ATOM     69  C   UNL A   1      42.228  28.965  33.103  1.00  0.00     0.049 A 
ATOM     70  H   UNL A   1      40.344  28.094  32.763  1.00  0.00     0.167 HD
ATOM     71  C   UNL A   1      41.967  30.121  35.269  1.00  0.00     0.074 A 
ATOM     72  C   UNL A   1      42.245  30.478  36.655  1.00  0.00     0.031 C 
ATOM     73  C   UNL A   1      42.195  28.958  34.564  1.00  0.00     0.034 A 
BRANCH  60  74
ATOM     74  C   UNL A   1      40.659  27.209  28.716  1.00  0.00     0.023 A 
ATOM     75  C   UNL A   1      39.809  26.084  28.543  1.00  0.00     0.012 A 
ATOM     76  C   UNL A   1      41.651  27.334  27.697  1.00  0.00     0.148 A 
ATOM     77  C   UNL A   1      39.958  25.130  27.520  1.00  0.00     0.002 A 
ATOM     78  C   UNL A   1      41.762  26.413  26.630  1.00  0.00     0.091 A 
ATOM     79  F   UNL A   1      42.530  28.334  27.733  1.00  0.00    -0.205 F 
ATOM     80  C   UNL A   1      40.934  25.294  26.558  1.00  0.00     0.022 A 
BRANCH  78  81
ATOM     81  S   UNL A   1      42.941  26.582  25.263  1.00  0.00     0.127 S 
ATOM     82  O   UNL A   1      42.761  25.322  24.536  1.00  0.00    -0.237 OA
ATOM     83  O   UNL A   1      42.435  27.760  24.558  1.00  0.00    -0.237 OA
ATOM     84  O   UNL A   1      44.254  26.749  25.871  1.00  0.00    -0.744 OA
ENDBRANCH  78  81
ENDBRANCH  60  74
BRANCH  61  85
ATOM     85  C   UNL A   1      39.720  34.583  36.275  1.00  0.00     0.023 A 
ATOM     86  C   UNL A   1      38.601  34.038  36.994  1.00  0.00     0.012 A 
ATOM     87  C   UNL A   1      40.516  35.523  36.956  1.00  0.00     0.148 A 
ATOM     88  C   UNL A   1      38.516  34.146  38.394  1.00  0.00     0.002 A 
ATOM     89  C   UNL A   1      40.440  35.606  38.357  1.00  0.00     0.091 A 
ATOM     90  F   UNL A   1      41.499  36.121  36.271  1.00  0.00    -0.205 F 
ATOM     91  C   UNL A   1      39.473  34.882  39.079  1.00  0.00     0.022 A 
BRANCH  89  92
ATOM     92  S   UNL A   1      41.830  36.271  39.300  1.00  0.00     0.127 S 
ATOM     93  O   UNL A   1      41.736  37.699  39.031  1.00  0.00    -0.237 OA
ATOM     94  O   UNL A   1      41.495  35.872  40.668  1.00  0.00    -0.237 OA
ATOM     95  O   UNL A   1      42.992  35.581  38.760  1.00  0.00    -0.744 OA
ENDBRANCH  89  92
ENDBRANCH  61  85
BRANCH  73  96
ATOM     96  C   UNL A   1      42.389  27.584  35.215  1.00  0.00     0.023 A 
ATOM     97  C   UNL A   1      41.355  26.632  35.195  1.00  0.00     0.012 A 
ATOM     98  C   UNL A   1      43.677  27.114  35.613  1.00  0.00     0.148 A 
ATOM     99  C   UNL A   1      41.564  25.306  35.584  1.00  0.00     0.002 A 
ATOM    100  C   UNL A   1      43.906  25.765  35.870  1.00  0.00     0.091 A 
ATOM    101  F   UNL A   1      44.698  27.967  35.762  1.00  0.00    -0.205 F 
ATOM    102  C   UNL A   1      42.842  24.865  35.888  1.00  0.00     0.022 A 
BRANCH 100 103
ATOM    103  S   UNL A   1      45.573  25.090  35.994  1.00  0.00     0.127 S 
ATOM    104  O   UNL A   1      46.195  25.598  34.773  1.00  0.00    -0.237 OA
ATOM    105  O   UNL A   1      46.061  25.709  37.230  1.00  0.00    -0.237 OA
ATOM    106  O   UNL A   1      45.412  23.645  36.074  1.00  0.00    -0.744 OA
ENDBRANCH 100 103
ENDBRANCH  73  96
ENDBRANCH  47  48
ENDBRANCH  40  42
ENDBRANCH  39  40
ENDBRANCH  38  39
ENDBRANCH  37  38
ENDBRANCH  36  37
ENDBRANCH  35  36
ENDBRANCH   1  35
TORSDOF 26
ENDMDL
MODEL 2
REMARK VINA RESULT:     -10.1      1.868      7.647
REMARK SMILES CC(=O)Nc1cnc(N2CC=C(c3ccccc3C)CC2)c(C(=O)OCCOCCOCCOCCOC(=O)c2ccc(-c3c4nc(c(-c5cccc(S(=O)(=O)[O-])c5F)c5ccc([nH]5)c(-c5cccc(S(=O)(=O)[O-])c5F)c5nc(c(-c6cccc(S(=O)(=O)[O-])c6F)c6ccc3[nH]6)C=C5)C=C4)cc2)c1
REMARK SMILES IDX 32 1 31 2 30 3 29 4 28 5 27 6 26 7 25 8 23 9 24 10 22 11
REMARK SMILES IDX 5 12 6 13 103 14 7 15 8 16 4 17 1 18 2 19 3 20 9 22 10 23
REMARK SMILES IDX 21 24 11 25 20 26 12 27 13 28 14 29 18 30 15 31 17 32 19 33
REMARK SMILES IDX 16 34 33 35 34 36 35 37 36 38 37 39 38 40 39 41 40 42 41 43
REMARK SMILES IDX 102 44 42 45 101 46 43 47 44 48 45 49 95 50 46 51 100 52
REMARK SMILES IDX 94 53 96 54 47 55 99 56 93 57 92 58 48 60 80 61 60 62 79 63
REMARK SMILES IDX 61 64 64 65 78 66 97 67 62 68 63 69 77 71 98 72 65 73 49 74
REMARK SMILES IDX 50 75 58 76 51 77 53 78 59 79 52 80 54 81 55 82 56 83 57 84
REMARK SMILES IDX 81 85 82 86 90 87 83 88 85 89 91 90 84 91 86 92 87 93 88 94
REMARK SMILES IDX 89 95 66 96 67 97 75 98 68 99 70 100 76 101 69 102 71 103
REMARK SMILES IDX 72 104 73 105 74 106
REMARK H PARENT 4 21 96 59 64 70
REMARK Flexibility Score: inf
ROOT
ATOM      1  C   UNL A   1      32.344  28.197  26.973  1.00  0.00     0.188 C 
ENDROOT
BRANCH   1   2
ATOM      2  O   UNL A   1      31.672  26.956  27.081  1.00  0.00    -0.377 OA
BRANCH   2   3
ATOM      3  C   UNL A   1      32.397  25.742  27.228  1.00  0.00     0.188 C 
BRANCH   3   4
ATOM      4  C   UNL A   1      31.950  24.328  26.778  1.00  0.00     0.188 C 
BRANCH   4   5
ATOM      5  O   UNL A   1      30.776  23.971  26.067  1.00  0.00    -0.376 OA
BRANCH   5   6
ATOM      6  C   UNL A   1      29.486  24.080  26.610  1.00  0.00     0.202 C 
BRANCH   6   7
ATOM      7  C   UNL A   1      28.800  25.362  26.110  1.00  0.00     0.261 C 
BRANCH   7   8
ATOM      8  O   UNL A   1      29.670  26.019  25.179  1.00  0.00    -0.460 OA
BRANCH   8   9
ATOM      9  C   UNL A   1      29.112  26.345  23.996  1.00  0.00     0.342 C 
ATOM     10  O   UNL A   1      28.065  26.008  23.518  1.00  0.00    -0.246 OA
BRANCH   9  11
ATOM     11  C   UNL A   1      29.997  27.369  23.446  1.00  0.00     0.104 A 
ATOM     12  C   UNL A   1      30.123  29.444  22.231  1.00  0.00     0.060 A 
ATOM     13  C   UNL A   1      31.482  29.156  22.119  1.00  0.00     0.139 A 
ATOM     14  C   UNL A   1      29.367  28.504  22.899  1.00  0.00     0.047 A 
ATOM     15  N   UNL A   1      32.111  28.059  22.627  1.00  0.00    -0.236 NA
ATOM     16  C   UNL A   1      31.378  27.138  23.300  1.00  0.00     0.143 A 
BRANCH  12  17
ATOM     17  N   UNL A   1      29.616  30.608  21.628  1.00  0.00    -0.325 N 
ATOM     18  C   UNL A   1      28.182  31.538  23.458  1.00  0.00     0.114 C 
ATOM     19  C   UNL A   1      28.710  31.541  22.049  1.00  0.00     0.221 C 
ATOM     20  O   UNL A   1      28.389  32.438  21.263  1.00  0.00    -0.275 OA
ATOM     21  H   UNL A   1      29.983  30.786  20.732  1.00  0.00     0.169 HD
ENDBRANCH  12  17
BRANCH  16  22
ATOM     22  N   UNL A   1      32.020  25.901  23.508  1.00  0.00    -0.352 N 
ATOM     23  C   UNL A   1      31.816  24.803  22.567  1.00  0.00     0.146 C 
ATOM     24  C   UNL A   1      33.396  26.161  23.895  1.00  0.00     0.123 C 
ATOM     25  C   UNL A   1      32.766  23.664  22.841  1.00  0.00    -0.002 C 
ATOM     26  C   UNL A   1      34.279  24.995  24.278  1.00  0.00     0.057 C 
ATOM     27  C   UNL A   1      33.853  23.726  23.632  1.00  0.00    -0.041 C 
BRANCH  27  28
ATOM     28  C   UNL A   1      34.592  22.504  23.983  1.00  0.00    -0.020 A 
ATOM     29  C   UNL A   1      33.897  21.399  24.498  1.00  0.00     0.008 A 
ATOM     30  C   UNL A   1      36.002  22.462  23.887  1.00  0.00    -0.044 A 
ATOM     31  C   UNL A   1      34.592  20.289  24.977  1.00  0.00     0.001 A 
ATOM     32  C   UNL A   1      36.682  21.336  24.372  1.00  0.00     0.004 A 
ATOM     33  C   UNL A   1      36.810  23.555  23.238  1.00  0.00     0.045 C 
ATOM     34  C   UNL A   1      35.983  20.269  24.937  1.00  0.00     0.000 A 
ENDBRANCH  27  28
ENDBRANCH  16  22
ENDBRANCH   9  11
ENDBRANCH   8   9
ENDBRANCH   7   8
ENDBRANCH   6   7
ENDBRANCH   5   6
ENDBRANCH   4   5
ENDBRANCH   3   4
ENDBRANCH   2   3
ENDBRANCH   1   2
BRANCH   1  35
ATOM     35  C   UNL A   1      31.756  29.192  25.985  1.00  0.00     0.188 C 
BRANCH  35  36
ATOM     36  O   UNL A   1      32.452  30.412  26.142  1.00  0.00    -0.376 OA
BRANCH  36  37
ATOM     37  C   UNL A   1      32.717  30.873  27.449  1.00  0.00     0.202 C 
BRANCH  37  38
ATOM     38  C   UNL A   1      34.081  31.543  27.547  1.00  0.00     0.261 C 
BRANCH  38  39
ATOM     39  O   UNL A   1      33.920  32.945  27.246  1.00  0.00    -0.460 OA
BRANCH  39  40
ATOM     40  C   UNL A   1      33.602  33.733  28.314  1.00  0.00     0.338 C 
ATOM     41  O   UNL A   1      32.569  34.373  28.406  1.00  0.00    -0.246 OA
BRANCH  40  42
ATOM     42  C   UNL A   1      34.792  33.888  29.208  1.00  0.00     0.060 A 
ATOM     43  C   UNL A   1      36.054  34.192  28.675  1.00  0.00     0.016 A 
ATOM     44  C   UNL A   1      34.714  33.447  30.519  1.00  0.00     0.016 A 
ATOM     45  C   UNL A   1      37.234  33.841  29.364  1.00  0.00     0.010 A 
ATOM     46  C   UNL A   1      35.877  33.051  31.154  1.00  0.00     0.010 A 
ATOM     47  C   UNL A   1      37.153  33.142  30.554  1.00  0.00    -0.014 A 
BRANCH  47  48
ATOM     48  C   UNL A   1      38.276  32.450  31.264  1.00  0.00     0.031 A 
ATOM     49  C   UNL A   1      38.755  33.164  32.509  1.00  0.00     0.074 A 
ATOM     50  C   UNL A   1      38.433  31.104  31.078  1.00  0.00     0.049 A 
ATOM     51  N   UNL A   1      39.433  32.681  33.495  1.00  0.00    -0.248 NA
ATOM     52  C   UNL A   1      38.439  34.583  32.715  1.00  0.00     0.031 C 
ATOM     53  C   UNL A   1      38.366  30.044  32.081  1.00  0.00     0.029 A 
ATOM     54  N   UNL A   1      38.439  30.311  29.953  1.00  0.00    -0.354 N 
ATOM     55  C   UNL A   1      39.424  33.611  34.545  1.00  0.00     0.074 A 
ATOM     56  C   UNL A   1      38.826  34.787  33.976  1.00  0.00     0.031 C 
ATOM     57  C   UNL A   1      38.527  28.817  31.599  1.00  0.00     0.029 A 
ATOM     58  C   UNL A   1      38.867  29.009  30.246  1.00  0.00     0.049 A 
ATOM     59  H   UNL A   1      38.176  30.620  29.055  1.00  0.00     0.167 HD
ATOM     60  C   UNL A   1      39.830  33.250  35.806  1.00  0.00     0.034 A 
ATOM     61  C   UNL A   1      39.974  28.406  29.760  1.00  0.00     0.034 A 
ATOM     62  C   UNL A   1      40.446  31.892  35.784  1.00  0.00     0.049 A 
ATOM     63  C   UNL A   1      41.125  28.426  30.795  1.00  0.00     0.074 A 
ATOM     64  C   UNL A   1      40.261  30.724  36.504  1.00  0.00     0.029 A 
ATOM     65  N   UNL A   1      41.339  31.537  34.761  1.00  0.00    -0.354 N 
ATOM     66  N   UNL A   1      41.078  29.091  31.943  1.00  0.00    -0.248 NA
ATOM     67  C   UNL A   1      42.367  27.660  30.702  1.00  0.00     0.031 C 
ATOM     68  C   UNL A   1      40.835  29.644  35.769  1.00  0.00     0.029 A 
ATOM     69  C   UNL A   1      41.515  30.164  34.678  1.00  0.00     0.049 A 
ATOM     70  H   UNL A   1      41.787  32.187  34.172  1.00  0.00     0.167 HD
ATOM     71  C   UNL A   1      42.240  28.942  32.660  1.00  0.00     0.074 A 
ATOM     72  C   UNL A   1      42.993  27.992  31.851  1.00  0.00     0.031 C 
ATOM     73  C   UNL A   1      42.561  29.598  33.829  1.00  0.00     0.034 A 
BRANCH  60  74
ATOM     74  C   UNL A   1      39.534  34.005  37.151  1.00  0.00     0.023 A 
ATOM     75  C   UNL A   1      40.054  35.321  37.277  1.00  0.00     0.012 A 
ATOM     76  C   UNL A   1      38.859  33.547  38.322  1.00  0.00     0.148 A 
ATOM     77  C   UNL A   1      39.990  36.088  38.455  1.00  0.00     0.002 A 
ATOM     78  C   UNL A   1      38.736  34.340  39.487  1.00  0.00     0.091 A 
ATOM     79  F   UNL A   1      38.330  32.325  38.359  1.00  0.00    -0.205 F 
ATOM     80  C   UNL A   1      39.327  35.600  39.563  1.00  0.00     0.022 A 
BRANCH  78  81
ATOM     81  S   UNL A   1      37.809  33.840  40.962  1.00  0.00     0.127 S 
ATOM     82  O   UNL A   1      38.725  32.893  41.602  1.00  0.00    -0.237 OA
ATOM     83  O   UNL A   1      37.655  35.107  41.679  1.00  0.00    -0.237 OA
ATOM     84  O   UNL A   1      36.564  33.252  40.486  1.00  0.00    -0.744 OA
ENDBRANCH  78  81
ENDBRANCH  60  74
BRANCH  61  85
ATOM     85  C   UNL A   1      39.726  28.186  28.292  1.00  0.00     0.023 A 
ATOM     86  C   UNL A   1      40.424  29.149  27.485  1.00  0.00     0.012 A 
ATOM     87  C   UNL A   1      39.771  26.846  27.862  1.00  0.00     0.148 A 
ATOM     88  C   UNL A   1      41.389  28.746  26.546  1.00  0.00     0.002 A 
ATOM     89  C   UNL A   1      40.755  26.449  26.941  1.00  0.00     0.091 A 
ATOM     90  F   UNL A   1      39.042  25.949  28.539  1.00  0.00    -0.205 F 
ATOM     91  C   UNL A   1      41.595  27.392  26.319  1.00  0.00     0.022 A 
BRANCH  89  92
ATOM     92  S   UNL A   1      41.272  24.720  26.859  1.00  0.00     0.127 S 
ATOM     93  O   UNL A   1      42.272  24.742  25.801  1.00  0.00    -0.237 OA
ATOM     94  O   UNL A   1      41.797  24.490  28.206  1.00  0.00    -0.237 OA
ATOM     95  O   UNL A   1      40.043  23.992  26.581  1.00  0.00    -0.744 OA
ENDBRANCH  89  92
ENDBRANCH  61  85
BRANCH  73  96
ATOM     96  C   UNL A   1      43.995  29.830  34.317  1.00  0.00     0.023 A 
ATOM     97  C   UNL A   1      44.712  30.969  33.913  1.00  0.00     0.012 A 
ATOM     98  C   UNL A   1      44.557  29.074  35.390  1.00  0.00     0.148 A 
ATOM     99  C   UNL A   1      45.930  31.323  34.499  1.00  0.00     0.002 A 
ATOM    100  C   UNL A   1      45.700  29.506  36.056  1.00  0.00     0.091 A 
ATOM    101  F   UNL A   1      44.002  27.918  35.774  1.00  0.00    -0.205 F 
ATOM    102  C   UNL A   1      46.407  30.614  35.591  1.00  0.00     0.022 A 
BRANCH 100 103
ATOM    103  S   UNL A   1      46.206  28.797  37.634  1.00  0.00     0.127 S 
ATOM    104  O   UNL A   1      47.339  29.645  37.996  1.00  0.00    -0.237 OA
ATOM    105  O   UNL A   1      45.009  28.996  38.457  1.00  0.00    -0.237 OA
ATOM    106  O   UNL A   1      46.516  27.401  37.362  1.00  0.00    -0.744 OA
ENDBRANCH 100 103
ENDBRANCH  73  96
ENDBRANCH  47  48
ENDBRANCH  40  42
ENDBRANCH  39  40
ENDBRANCH  38  39
ENDBRANCH  37  38
ENDBRANCH  36  37
ENDBRANCH  35  36
ENDBRANCH   1  35
TORSDOF 26
ENDMDL
MODEL 3
REMARK VINA RESULT:      -9.6      2.320      7.800
REMARK SMILES CC(=O)Nc1cnc(N2CC=C(c3ccccc3C)CC2)c(C(=O)OCCOCCOCCOCCOC(=O)c2ccc(-c3c4nc(c(-c5cccc(S(=O)(=O)[O-])c5F)c5ccc([nH]5)c(-c5cccc(S(=O)(=O)[O-])c5F)c5nc(c(-c6cccc(S(=O)(=O)[O-])c6F)c6ccc3[nH]6)C=C5)C=C4)cc2)c1
REMARK SMILES IDX 32 1 31 2 30 3 29 4 28 5 27 6 26 7 25 8 23 9 24 10 22 11
REMARK SMILES IDX 5 12 6 13 103 14 7 15 8 16 4 17 1 18 2 19 3 20 9 22 10 23
REMARK SMILES IDX 21 24 11 25 20 26 12 27 13 28 14 29 18 30 15 31 17 32 19 33
REMARK SMILES IDX 16 34 33 35 34 36 35 37 36 38 37 39 38 40 39 41 40 42 41 43
REMARK SMILES IDX 102 44 42 45 101 46 43 47 44 48 45 49 95 50 46 51 100 52
REMARK SMILES IDX 94 53 96 54 47 55 99 56 93 57 92 58 48 60 80 61 60 62 79 63
REMARK SMILES IDX 61 64 64 65 78 66 97 67 62 68 63 69 77 71 98 72 65 73 49 74
REMARK SMILES IDX 50 75 58 76 51 77 53 78 59 79 52 80 54 81 55 82 56 83 57 84
REMARK SMILES IDX 81 85 82 86 90 87 83 88 85 89 91 90 84 91 86 92 87 93 88 94
REMARK SMILES IDX 89 95 66 96 67 97 75 98 68 99 70 100 76 101 69 102 71 103
REMARK SMILES IDX 72 104 73 105 74 106
REMARK H PARENT 4 21 96 59 64 70
REMARK Flexibility Score: inf
ROOT
ATOM      1  C   UNL A   1      32.600  28.422  26.995  1.00  0.00     0.188 C 
ENDROOT
BRANCH   1   2
ATOM      2  O   UNL A   1      31.911  27.186  26.977  1.00  0.00    -0.377 OA
BRANCH   2   3
ATOM      3  C   UNL A   1      32.589  25.967  27.249  1.00  0.00     0.188 C 
BRANCH   3   4
ATOM      4  C   UNL A   1      32.137  24.540  26.849  1.00  0.00     0.188 C 
BRANCH   4   5
ATOM      5  O   UNL A   1      30.997  24.166  26.093  1.00  0.00    -0.376 OA
BRANCH   5   6
ATOM      6  C   UNL A   1      29.696  24.157  26.622  1.00  0.00     0.202 C 
BRANCH   6   7
ATOM      7  C   UNL A   1      28.909  25.385  26.135  1.00  0.00     0.261 C 
BRANCH   7   8
ATOM      8  O   UNL A   1      29.764  26.179  25.300  1.00  0.00    -0.460 OA
BRANCH   8   9
ATOM      9  C   UNL A   1      29.386  26.274  24.010  1.00  0.00     0.342 C 
ATOM     10  O   UNL A   1      28.489  25.735  23.427  1.00  0.00    -0.246 OA
BRANCH   9  11
ATOM     11  C   UNL A   1      30.225  27.339  23.463  1.00  0.00     0.104 A 
ATOM     12  C   UNL A   1      30.261  29.394  22.210  1.00  0.00     0.060 A 
ATOM     13  C   UNL A   1      31.637  29.187  22.140  1.00  0.00     0.139 A 
ATOM     14  C   UNL A   1      29.544  28.424  22.876  1.00  0.00     0.047 A 
ATOM     15  N   UNL A   1      32.316  28.139  22.688  1.00  0.00    -0.236 NA
ATOM     16  C   UNL A   1      31.621  27.189  23.359  1.00  0.00     0.143 A 
BRANCH  12  17
ATOM     17  N   UNL A   1      29.703  30.515  21.570  1.00  0.00    -0.325 N 
ATOM     18  C   UNL A   1      28.507  31.633  23.464  1.00  0.00     0.114 C 
ATOM     19  C   UNL A   1      28.866  31.502  22.008  1.00  0.00     0.221 C 
ATOM     20  O   UNL A   1      28.467  32.336  21.190  1.00  0.00    -0.275 OA
ATOM     21  H   UNL A   1      29.964  30.606  20.625  1.00  0.00     0.169 HD
ENDBRANCH  12  17
BRANCH  16  22
ATOM     22  N   UNL A   1      32.328  25.996  23.610  1.00  0.00    -0.352 N 
ATOM     23  C   UNL A   1      32.218  24.871  22.686  1.00  0.00     0.146 C 
ATOM     24  C   UNL A   1      33.675  26.346  24.030  1.00  0.00     0.123 C 
ATOM     25  C   UNL A   1      33.226  23.796  23.009  1.00  0.00    -0.002 C 
ATOM     26  C   UNL A   1      34.614  25.243  24.461  1.00  0.00     0.057 C 
ATOM     27  C   UNL A   1      34.284  23.939  23.829  1.00  0.00    -0.041 C 
BRANCH  27  28
ATOM     28  C   UNL A   1      35.084  22.770  24.225  1.00  0.00    -0.020 A 
ATOM     29  C   UNL A   1      36.475  22.790  24.041  1.00  0.00     0.008 A 
ATOM     30  C   UNL A   1      34.458  21.599  24.709  1.00  0.00    -0.044 A 
ATOM     31  C   UNL A   1      37.233  21.642  24.268  1.00  0.00     0.001 A 
ATOM     32  C   UNL A   1      35.238  20.456  24.933  1.00  0.00     0.004 A 
ATOM     33  C   UNL A   1      32.991  21.534  25.045  1.00  0.00     0.045 C 
ATOM     34  C   UNL A   1      36.611  20.470  24.689  1.00  0.00     0.000 A 
ENDBRANCH  27  28
ENDBRANCH  16  22
ENDBRANCH   9  11
ENDBRANCH   8   9
ENDBRANCH   7   8
ENDBRANCH   6   7
ENDBRANCH   5   6
ENDBRANCH   4   5
ENDBRANCH   3   4
ENDBRANCH   2   3
ENDBRANCH   1   2
BRANCH   1  35
ATOM     35  C   UNL A   1      32.063  29.501  26.069  1.00  0.00     0.188 C 
BRANCH  35  36
ATOM     36  O   UNL A   1      32.836  30.666  26.276  1.00  0.00    -0.376 OA
BRANCH  36  37
ATOM     37  C   UNL A   1      33.278  30.957  27.584  1.00  0.00     0.202 C 
BRANCH  37  38
ATOM     38  C   UNL A   1      34.707  31.486  27.594  1.00  0.00     0.261 C 
BRANCH  38  39
ATOM     39  O   UNL A   1      34.655  32.926  27.695  1.00  0.00    -0.460 OA
BRANCH  39  40
ATOM     40  C   UNL A   1      34.561  33.412  28.966  1.00  0.00     0.338 C 
ATOM     41  O   UNL A   1      33.539  33.869  29.448  1.00  0.00    -0.246 OA
BRANCH  40  42
ATOM     42  C   UNL A   1      35.925  33.532  29.571  1.00  0.00     0.060 A 
ATOM     43  C   UNL A   1      37.060  33.673  28.758  1.00  0.00     0.016 A 
ATOM     44  C   UNL A   1      36.102  33.211  30.907  1.00  0.00     0.016 A 
ATOM     45  C   UNL A   1      38.333  33.273  29.217  1.00  0.00     0.010 A 
ATOM     46  C   UNL A   1      37.343  32.765  31.323  1.00  0.00     0.010 A 
ATOM     47  C   UNL A   1      38.461  32.688  30.463  1.00  0.00    -0.014 A 
BRANCH  47  48
ATOM     48  C   UNL A   1      39.659  31.957  30.989  1.00  0.00     0.031 A 
ATOM     49  C   UNL A   1      40.433  32.717  32.044  1.00  0.00     0.074 A 
ATOM     50  C   UNL A   1      39.684  30.593  30.894  1.00  0.00     0.049 A 
ATOM     51  N   UNL A   1      41.268  32.252  32.910  1.00  0.00    -0.248 NA
ATOM     52  C   UNL A   1      40.263  34.168  32.184  1.00  0.00     0.031 C 
ATOM     53  C   UNL A   1      39.757  29.617  31.979  1.00  0.00     0.029 A 
ATOM     54  N   UNL A   1      39.402  29.724  29.865  1.00  0.00    -0.354 N 
ATOM     55  C   UNL A   1      41.541  33.252  33.854  1.00  0.00     0.074 A 
ATOM     56  C   UNL A   1      40.917  34.430  33.317  1.00  0.00     0.031 C 
ATOM     57  C   UNL A   1      39.731  28.350  31.585  1.00  0.00     0.029 A 
ATOM     58  C   UNL A   1      39.794  28.415  30.179  1.00  0.00     0.049 A 
ATOM     59  H   UNL A   1      38.979  29.988  29.016  1.00  0.00     0.167 HD
ATOM     60  C   UNL A   1      42.175  32.951  35.034  1.00  0.00     0.034 A 
ATOM     61  C   UNL A   1      40.732  27.688  29.535  1.00  0.00     0.034 A 
ATOM     62  C   UNL A   1      42.682  31.548  35.008  1.00  0.00     0.049 A 
ATOM     63  C   UNL A   1      42.073  27.686  30.309  1.00  0.00     0.074 A 
ATOM     64  C   UNL A   1      42.573  30.456  35.850  1.00  0.00     0.029 A 
ATOM     65  N   UNL A   1      43.316  31.048  33.860  1.00  0.00    -0.354 N 
ATOM     66  N   UNL A   1      42.311  28.434  31.380  1.00  0.00    -0.248 NA
ATOM     67  C   UNL A   1      43.214  26.814  30.034  1.00  0.00     0.031 C 
ATOM     68  C   UNL A   1      42.908  29.281  35.112  1.00  0.00     0.029 A 
ATOM     69  C   UNL A   1      43.379  29.662  33.865  1.00  0.00     0.049 A 
ATOM     70  H   UNL A   1      43.673  31.614  33.138  1.00  0.00     0.167 HD
ATOM     71  C   UNL A   1      43.584  28.241  31.857  1.00  0.00     0.074 A 
ATOM     72  C   UNL A   1      44.086  27.175  30.999  1.00  0.00     0.031 C 
ATOM     73  C   UNL A   1      44.184  28.951  32.874  1.00  0.00     0.034 A 
BRANCH  60  74
ATOM     74  C   UNL A   1      42.217  33.824  36.340  1.00  0.00     0.023 A 
ATOM     75  C   UNL A   1      43.461  33.901  37.021  1.00  0.00     0.012 A 
ATOM     76  C   UNL A   1      41.162  34.522  37.001  1.00  0.00     0.148 A 
ATOM     77  C   UNL A   1      43.644  34.532  38.266  1.00  0.00     0.002 A 
ATOM     78  C   UNL A   1      41.357  35.212  38.220  1.00  0.00     0.091 A 
ATOM     79  F   UNL A   1      39.933  34.527  36.488  1.00  0.00    -0.205 F 
ATOM     80  C   UNL A   1      42.592  35.193  38.867  1.00  0.00     0.022 A 
BRANCH  78  81
ATOM     81  S   UNL A   1      40.074  36.190  39.048  1.00  0.00     0.127 S 
ATOM     82  O   UNL A   1      40.843  36.927  40.054  1.00  0.00    -0.237 OA
ATOM     83  O   UNL A   1      39.561  37.019  37.957  1.00  0.00    -0.237 OA
ATOM     84  O   UNL A   1      39.118  35.236  39.594  1.00  0.00    -0.744 OA
ENDBRANCH  78  81
ENDBRANCH  60  74
BRANCH  61  85
ATOM     85  C   UNL A   1      40.170  27.383  28.172  1.00  0.00     0.023 A 
ATOM     86  C   UNL A   1      40.836  28.134  27.142  1.00  0.00     0.012 A 
ATOM     87  C   UNL A   1      39.922  26.023  27.907  1.00  0.00     0.148 A 
ATOM     88  C   UNL A   1      41.524  27.485  26.101  1.00  0.00     0.002 A 
ATOM     89  C   UNL A   1      40.632  25.379  26.879  1.00  0.00     0.091 A 
ATOM     90  F   UNL A   1      39.210  25.331  28.806  1.00  0.00    -0.205 F 
ATOM     91  C   UNL A   1      41.469  26.102  26.007  1.00  0.00     0.022 A 
BRANCH  89  92
ATOM     92  S   UNL A   1      40.850  23.587  26.916  1.00  0.00     0.127 S 
ATOM     93  O   UNL A   1      41.370  23.362  28.257  1.00  0.00    -0.237 OA
ATOM     94  O   UNL A   1      39.487  23.105  26.688  1.00  0.00    -0.237 OA
ATOM     95  O   UNL A   1      41.757  23.314  25.811  1.00  0.00    -0.744 OA
ENDBRANCH  89  92
ENDBRANCH  61  85
BRANCH  73  96
ATOM     96  C   UNL A   1      45.701  29.097  33.040  1.00  0.00     0.023 A 
ATOM     97  C   UNL A   1      46.374  28.424  34.074  1.00  0.00     0.012 A 
ATOM     98  C   UNL A   1      46.518  29.677  32.023  1.00  0.00     0.148 A 
ATOM     99  C   UNL A   1      47.769  28.360  34.130  1.00  0.00     0.002 A 
ATOM    100  C   UNL A   1      47.898  29.495  32.015  1.00  0.00     0.091 A 
ATOM    101  F   UNL A   1      45.974  30.425  31.056  1.00  0.00    -0.205 F 
ATOM    102  C   UNL A   1      48.529  28.864  33.085  1.00  0.00     0.022 A 
BRANCH 100 103
ATOM    103  S   UNL A   1      48.898  29.877  30.564  1.00  0.00     0.127 S 
ATOM    104  O   UNL A   1      48.932  31.337  30.599  1.00  0.00    -0.237 OA
ATOM    105  O   UNL A   1      50.172  29.230  30.893  1.00  0.00    -0.237 OA
ATOM    106  O   UNL A   1      48.202  29.282  29.432  1.00  0.00    -0.744 OA
ENDBRANCH 100 103
ENDBRANCH  73  96
ENDBRANCH  47  48
ENDBRANCH  40  42
ENDBRANCH  39  40
ENDBRANCH  38  39
ENDBRANCH  37  38
ENDBRANCH  36  37
ENDBRANCH  35  36
ENDBRANCH   1  35
TORSDOF 26
ENDMDL
