MODEL 1
REMARK VINA RESULT:      -9.0      0.000      0.000
REMARK SMILES Cc1c(Cl)cc2c(c1C)O[C@@H](C(F)(F)F)C(C(=O)OCCOCCOCCOCCOC(=O)c1ccc(-c3c4nc(c(-c5cccc(S(=O)(=O)[O-])c5F)c5ccc([nH]5)c(-c5cccc(S(=O)(=O)[O-])c5F)c5nc(c(-c6cccc(S(=O)(=O)[O-])c6F)c6ccc3[nH]6)C=C5)C=C4)cc1)=C2
REMARK SMILES IDX 26 1 25 2 24 3 23 4 22 5 21 6 20 7 19 8 17 9 18 10 16 11
REMARK SMILES IDX 1 12 2 13 3 14 8 15 4 16 5 17 7 18 9 19 6 20 10 21 97 22
REMARK SMILES IDX 11 23 12 24 13 25 14 26 15 27 27 28 28 29 29 30 30 31 31 32
REMARK SMILES IDX 32 33 33 34 34 35 35 36 96 37 36 38 95 39 37 40 38 41 39 42
REMARK SMILES IDX 89 43 40 44 94 45 88 46 90 47 41 48 93 49 87 50 86 51 42 53
REMARK SMILES IDX 74 54 54 55 73 56 55 57 58 58 72 59 91 60 56 61 57 62 71 64
REMARK SMILES IDX 92 65 59 66 43 67 44 68 52 69 45 70 47 71 53 72 46 73 48 74
REMARK SMILES IDX 49 75 50 76 51 77 75 78 76 79 84 80 77 81 79 82 85 83 78 84
REMARK SMILES IDX 80 85 81 86 82 87 83 88 60 89 61 90 69 91 62 92 64 93 70 94
REMARK SMILES IDX 63 95 65 96 66 97 67 98 68 99
REMARK H PARENT 90 52 58 63
REMARK Flexibility Score: inf
ROOT
ATOM      1  C   UNL A   1      34.154  31.941  28.340  1.00  0.00     0.188 C 
ENDROOT
BRANCH   1   2
ATOM      2  O   UNL A   1      34.248  30.990  27.291  1.00  0.00    -0.377 OA
BRANCH   2   3
ATOM      3  C   UNL A   1      33.053  30.534  26.674  1.00  0.00     0.188 C 
BRANCH   3   4
ATOM      4  C   UNL A   1      32.691  29.041  26.480  1.00  0.00     0.188 C 
BRANCH   4   5
ATOM      5  O   UNL A   1      33.284  28.423  25.354  1.00  0.00    -0.376 OA
BRANCH   5   6
ATOM      6  C   UNL A   1      33.678  29.185  24.233  1.00  0.00     0.202 C 
BRANCH   6   7
ATOM      7  C   UNL A   1      32.875  29.053  22.931  1.00  0.00     0.261 C 
BRANCH   7   8
ATOM      8  O   UNL A   1      32.878  27.751  22.335  1.00  0.00    -0.460 OA
BRANCH   8   9
ATOM      9  C   UNL A   1      31.772  27.007  22.499  1.00  0.00     0.338 C 
ATOM     10  O   UNL A   1      30.680  27.220  21.995  1.00  0.00    -0.246 OA
BRANCH   9  11
ATOM     11  C   UNL A   1      32.110  25.777  23.241  1.00  0.00     0.087 C 
ATOM     12  C   UNL A   1      34.777  20.072  24.886  1.00  0.00     0.046 C 
ATOM     13  C   UNL A   1      34.428  21.495  24.533  1.00  0.00    -0.026 A 
ATOM     14  C   UNL A   1      35.418  22.395  24.088  1.00  0.00     0.045 A 
ATOM     15  C   UNL A   1      33.092  21.958  24.647  1.00  0.00    -0.004 A 
ATOM     16  Cl  UNL A   1      37.091  21.960  23.990  1.00  0.00    -0.084 Cl
ATOM     17  C   UNL A   1      35.084  23.687  23.682  1.00  0.00     0.032 A 
ATOM     18  C   UNL A   1      32.764  23.251  24.187  1.00  0.00     0.131 A 
ATOM     19  C   UNL A   1      31.988  21.125  25.251  1.00  0.00     0.049 C 
ATOM     20  C   UNL A   1      33.754  24.103  23.697  1.00  0.00     0.019 A 
ATOM     21  O   UNL A   1      31.431  23.585  24.152  1.00  0.00    -0.475 OA
ATOM     22  C   UNL A   1      33.382  25.376  23.109  1.00  0.00     0.027 C 
ATOM     23  C   UNL A   1      31.069  24.993  24.005  1.00  0.00     0.316 C 
BRANCH  23  24
ATOM     24  C   UNL A   1      30.662  25.520  25.398  1.00  0.00     0.430 C 
ATOM     25  F   UNL A   1      30.498  26.864  25.398  1.00  0.00    -0.167 F 
ATOM     26  F   UNL A   1      29.524  24.960  25.858  1.00  0.00    -0.167 F 
ATOM     27  F   UNL A   1      31.626  25.243  26.311  1.00  0.00    -0.167 F 
ENDBRANCH  23  24
ENDBRANCH   9  11
ENDBRANCH   8   9
ENDBRANCH   7   8
ENDBRANCH   6   7
ENDBRANCH   5   6
ENDBRANCH   4   5
ENDBRANCH   3   4
ENDBRANCH   2   3
ENDBRANCH   1   2
BRANCH   1  28
ATOM     28  C   UNL A   1      35.490  32.663  28.597  1.00  0.00     0.188 C 
BRANCH  28  29
ATOM     29  O   UNL A   1      35.650  33.045  29.957  1.00  0.00    -0.376 OA
BRANCH  29  30
ATOM     30  C   UNL A   1      34.624  32.712  30.880  1.00  0.00     0.202 C 
BRANCH  30  31
ATOM     31  C   UNL A   1      34.666  33.073  32.381  1.00  0.00     0.261 C 
BRANCH  31  32
ATOM     32  O   UNL A   1      35.417  32.238  33.273  1.00  0.00    -0.460 OA
BRANCH  32  33
ATOM     33  C   UNL A   1      36.391  32.790  34.021  1.00  0.00     0.338 C 
ATOM     34  O   UNL A   1      36.255  33.599  34.926  1.00  0.00    -0.246 OA
BRANCH  33  35
ATOM     35  C   UNL A   1      37.644  32.078  33.684  1.00  0.00     0.060 A 
ATOM     36  C   UNL A   1      38.769  32.245  34.503  1.00  0.00     0.016 A 
ATOM     37  C   UNL A   1      37.695  31.212  32.587  1.00  0.00     0.016 A 
ATOM     38  C   UNL A   1      39.954  31.568  34.213  1.00  0.00     0.010 A 
ATOM     39  C   UNL A   1      38.892  30.558  32.280  1.00  0.00     0.010 A 
ATOM     40  C   UNL A   1      40.035  30.759  33.073  1.00  0.00    -0.014 A 
BRANCH  40  41
ATOM     41  C   UNL A   1      41.364  30.306  32.596  1.00  0.00     0.031 A 
ATOM     42  C   UNL A   1      42.071  31.149  31.570  1.00  0.00     0.074 A 
ATOM     43  C   UNL A   1      41.946  29.192  33.076  1.00  0.00     0.049 A 
ATOM     44  N   UNL A   1      43.230  30.962  31.000  1.00  0.00    -0.248 NA
ATOM     45  C   UNL A   1      41.374  32.373  31.132  1.00  0.00     0.031 C 
ATOM     46  C   UNL A   1      41.374  28.308  34.090  1.00  0.00     0.029 A 
ATOM     47  N   UNL A   1      43.150  28.610  32.760  1.00  0.00    -0.354 N 
ATOM     48  C   UNL A   1      43.396  32.030  30.127  1.00  0.00     0.074 A 
ATOM     49  C   UNL A   1      42.211  32.852  30.224  1.00  0.00     0.031 C 
ATOM     50  C   UNL A   1      42.219  27.285  34.301  1.00  0.00     0.029 A 
ATOM     51  C   UNL A   1      43.380  27.425  33.421  1.00  0.00     0.049 A 
ATOM     52  H   UNL A   1      43.787  29.003  32.122  1.00  0.00     0.167 HD
ATOM     53  C   UNL A   1      44.452  32.315  29.330  1.00  0.00     0.034 A 
ATOM     54  C   UNL A   1      44.402  26.550  33.313  1.00  0.00     0.034 A 
ATOM     55  C   UNL A   1      45.634  31.504  29.243  1.00  0.00     0.049 A 
ATOM     56  C   UNL A   1      45.540  26.859  32.371  1.00  0.00     0.074 A 
ATOM     57  C   UNL A   1      46.768  31.722  28.484  1.00  0.00     0.029 A 
ATOM     58  N   UNL A   1      45.831  30.314  29.927  1.00  0.00    -0.354 N 
ATOM     59  N   UNL A   1      45.731  27.923  31.627  1.00  0.00    -0.248 NA
ATOM     60  C   UNL A   1      46.618  25.862  32.272  1.00  0.00     0.031 C 
ATOM     61  C   UNL A   1      47.637  30.647  28.680  1.00  0.00     0.029 A 
ATOM     62  C   UNL A   1      47.062  29.778  29.594  1.00  0.00     0.049 A 
ATOM     63  H   UNL A   1      45.191  29.911  30.557  1.00  0.00     0.167 HD
ATOM     64  C   UNL A   1      46.960  27.738  30.999  1.00  0.00     0.074 A 
ATOM     65  C   UNL A   1      47.479  26.469  31.465  1.00  0.00     0.031 C 
ATOM     66  C   UNL A   1      47.593  28.538  30.104  1.00  0.00     0.034 A 
BRANCH  53  67
ATOM     67  C   UNL A   1      44.395  33.574  28.507  1.00  0.00     0.023 A 
ATOM     68  C   UNL A   1      43.846  33.531  27.209  1.00  0.00     0.012 A 
ATOM     69  C   UNL A   1      44.804  34.809  29.045  1.00  0.00     0.148 A 
ATOM     70  C   UNL A   1      43.725  34.694  26.451  1.00  0.00     0.002 A 
ATOM     71  C   UNL A   1      44.635  35.972  28.302  1.00  0.00     0.091 A 
ATOM     72  F   UNL A   1      45.346  34.824  30.271  1.00  0.00    -0.205 F 
ATOM     73  C   UNL A   1      44.106  35.915  27.002  1.00  0.00     0.022 A 
BRANCH  71  74
ATOM     74  S   UNL A   1      45.010  37.603  28.953  1.00  0.00     0.127 S 
ATOM     75  O   UNL A   1      43.860  37.844  29.825  1.00  0.00    -0.237 OA
ATOM     76  O   UNL A   1      46.270  37.368  29.658  1.00  0.00    -0.237 OA
ATOM     77  O   UNL A   1      45.109  38.486  27.800  1.00  0.00    -0.744 OA
ENDBRANCH  71  74
ENDBRANCH  53  67
BRANCH  54  78
ATOM     78  C   UNL A   1      44.419  25.319  34.156  1.00  0.00     0.023 A 
ATOM     79  C   UNL A   1      43.871  24.125  33.648  1.00  0.00     0.012 A 
ATOM     80  C   UNL A   1      45.002  25.313  35.439  1.00  0.00     0.148 A 
ATOM     81  C   UNL A   1      43.884  22.954  34.408  1.00  0.00     0.002 A 
ATOM     82  C   UNL A   1      45.066  24.129  36.166  1.00  0.00     0.091 A 
ATOM     83  F   UNL A   1      45.501  26.462  35.914  1.00  0.00    -0.205 F 
ATOM     84  C   UNL A   1      44.492  22.953  35.660  1.00  0.00     0.022 A 
BRANCH  82  85
ATOM     85  S   UNL A   1      45.948  23.995  37.725  1.00  0.00     0.127 S 
ATOM     86  O   UNL A   1      45.715  22.598  38.084  1.00  0.00    -0.237 OA
ATOM     87  O   UNL A   1      47.319  24.306  37.319  1.00  0.00    -0.237 OA
ATOM     88  O   UNL A   1      45.343  24.980  38.610  1.00  0.00    -0.744 OA
ENDBRANCH  82  85
ENDBRANCH  54  78
BRANCH  66  89
ATOM     89  C   UNL A   1      48.932  28.097  29.567  1.00  0.00     0.023 A 
ATOM     90  C   UNL A   1      50.113  28.508  30.215  1.00  0.00     0.012 A 
ATOM     91  C   UNL A   1      49.012  27.167  28.510  1.00  0.00     0.148 A 
ATOM     92  C   UNL A   1      51.353  28.015  29.810  1.00  0.00     0.002 A 
ATOM     93  C   UNL A   1      50.246  26.639  28.147  1.00  0.00     0.091 A 
ATOM     94  F   UNL A   1      47.877  26.795  27.899  1.00  0.00    -0.205 F 
ATOM     95  C   UNL A   1      51.418  27.070  28.787  1.00  0.00     0.022 A 
BRANCH  93  96
ATOM     96  S   UNL A   1      50.421  25.336  26.922  1.00  0.00     0.127 S 
ATOM     97  O   UNL A   1      51.851  25.040  27.005  1.00  0.00    -0.237 OA
ATOM     98  O   UNL A   1      49.550  24.291  27.456  1.00  0.00    -0.237 OA
ATOM     99  O   UNL A   1      49.981  25.908  25.656  1.00  0.00    -0.744 OA
ENDBRANCH  93  96
ENDBRANCH  66  89
ENDBRANCH  40  41
ENDBRANCH  33  35
ENDBRANCH  32  33
ENDBRANCH  31  32
ENDBRANCH  30  31
ENDBRANCH  29  30
ENDBRANCH  28  29
ENDBRANCH   1  28
TORSDOF 24
ENDMDL
MODEL 2
REMARK VINA RESULT:      -8.9      3.735      6.151
REMARK SMILES Cc1c(Cl)cc2c(c1C)O[C@@H](C(F)(F)F)C(C(=O)OCCOCCOCCOCCOC(=O)c1ccc(-c3c4nc(c(-c5cccc(S(=O)(=O)[O-])c5F)c5ccc([nH]5)c(-c5cccc(S(=O)(=O)[O-])c5F)c5nc(c(-c6cccc(S(=O)(=O)[O-])c6F)c6ccc3[nH]6)C=C5)C=C4)cc1)=C2
REMARK SMILES IDX 26 1 25 2 24 3 23 4 22 5 21 6 20 7 19 8 17 9 18 10 16 11
REMARK SMILES IDX 1 12 2 13 3 14 8 15 4 16 5 17 7 18 9 19 6 20 10 21 97 22
REMARK SMILES IDX 11 23 12 24 13 25 14 26 15 27 27 28 28 29 29 30 30 31 31 32
REMARK SMILES IDX 32 33 33 34 34 35 35 36 96 37 36 38 95 39 37 40 38 41 39 42
REMARK SMILES IDX 89 43 40 44 94 45 88 46 90 47 41 48 93 49 87 50 86 51 42 53
REMARK SMILES IDX 74 54 54 55 73 56 55 57 58 58 72 59 91 60 56 61 57 62 71 64
REMARK SMILES IDX 92 65 59 66 43 67 44 68 52 69 45 70 47 71 53 72 46 73 48 74
REMARK SMILES IDX 49 75 50 76 51 77 75 78 76 79 84 80 77 81 79 82 85 83 78 84
REMARK SMILES IDX 80 85 81 86 82 87 83 88 60 89 61 90 69 91 62 92 64 93 70 94
REMARK SMILES IDX 63 95 65 96 66 97 67 98 68 99
REMARK H PARENT 90 52 58 63
REMARK Flexibility Score: inf
ROOT
ATOM      1  C   UNL A   1      33.845  32.467  28.105  1.00  0.00     0.188 C 
ENDROOT
BRANCH   1   2
ATOM      2  O   UNL A   1      33.784  31.205  27.459  1.00  0.00    -0.377 OA
BRANCH   2   3
ATOM      3  C   UNL A   1      32.535  30.756  26.953  1.00  0.00     0.188 C 
BRANCH   3   4
ATOM      4  C   UNL A   1      32.016  29.304  27.085  1.00  0.00     0.188 C 
BRANCH   4   5
ATOM      5  O   UNL A   1      33.006  28.300  26.961  1.00  0.00    -0.376 OA
BRANCH   5   6
ATOM      6  C   UNL A   1      33.878  28.277  25.850  1.00  0.00     0.202 C 
BRANCH   6   7
ATOM      7  C   UNL A   1      33.281  28.395  24.441  1.00  0.00     0.261 C 
BRANCH   7   8
ATOM      8  O   UNL A   1      33.846  27.520  23.458  1.00  0.00    -0.460 OA
BRANCH   8   9
ATOM      9  C   UNL A   1      33.007  26.661  22.858  1.00  0.00     0.338 C 
ATOM     10  O   UNL A   1      32.370  26.871  21.838  1.00  0.00    -0.246 OA
BRANCH   9  11
ATOM     11  C   UNL A   1      33.103  25.341  23.511  1.00  0.00     0.087 C 
ATOM     12  C   UNL A   1      34.899  19.247  24.929  1.00  0.00     0.046 C 
ATOM     13  C   UNL A   1      34.753  20.726  24.677  1.00  0.00    -0.026 A 
ATOM     14  C   UNL A   1      35.885  21.541  24.472  1.00  0.00     0.045 A 
ATOM     15  C   UNL A   1      33.468  21.328  24.646  1.00  0.00    -0.004 A 
ATOM     16  Cl  UNL A   1      37.501  20.927  24.569  1.00  0.00    -0.084 Cl
ATOM     17  C   UNL A   1      35.749  22.893  24.156  1.00  0.00     0.032 A 
ATOM     18  C   UNL A   1      33.346  22.685  24.278  1.00  0.00     0.131 A 
ATOM     19  C   UNL A   1      32.207  20.577  24.999  1.00  0.00     0.049 C 
ATOM     20  C   UNL A   1      34.481  23.456  24.023  1.00  0.00     0.019 A 
ATOM     21  O   UNL A   1      32.075  23.171  24.088  1.00  0.00    -0.475 OA
ATOM     22  C   UNL A   1      34.333  24.809  23.521  1.00  0.00     0.027 C 
ATOM     23  C   UNL A   1      31.884  24.619  24.035  1.00  0.00     0.316 C 
BRANCH  23  24
ATOM     24  C   UNL A   1      31.324  25.067  25.402  1.00  0.00     0.430 C 
ATOM     25  F   UNL A   1      32.267  25.013  26.373  1.00  0.00    -0.167 F 
ATOM     26  F   UNL A   1      30.820  26.318  25.378  1.00  0.00    -0.167 F 
ATOM     27  F   UNL A   1      30.313  24.251  25.792  1.00  0.00    -0.167 F 
ENDBRANCH  23  24
ENDBRANCH   9  11
ENDBRANCH   8   9
ENDBRANCH   7   8
ENDBRANCH   6   7
ENDBRANCH   5   6
ENDBRANCH   4   5
ENDBRANCH   3   4
ENDBRANCH   2   3
ENDBRANCH   1   2
BRANCH   1  28
ATOM     28  C   UNL A   1      35.246  33.101  28.023  1.00  0.00     0.188 C 
BRANCH  28  29
ATOM     29  O   UNL A   1      36.014  32.880  29.197  1.00  0.00    -0.376 OA
BRANCH  29  30
ATOM     30  C   UNL A   1      35.332  32.678  30.426  1.00  0.00     0.202 C 
BRANCH  30  31
ATOM     31  C   UNL A   1      36.007  32.146  31.709  1.00  0.00     0.261 C 
BRANCH  31  32
ATOM     32  O   UNL A   1      37.025  31.142  31.590  1.00  0.00    -0.460 OA
BRANCH  32  33
ATOM     33  C   UNL A   1      37.973  31.056  32.542  1.00  0.00     0.338 C 
ATOM     34  O   UNL A   1      37.823  30.695  33.699  1.00  0.00    -0.246 OA
BRANCH  33  35
ATOM     35  C   UNL A   1      39.273  31.279  31.871  1.00  0.00     0.060 A 
ATOM     36  C   UNL A   1      40.395  31.608  32.644  1.00  0.00     0.016 A 
ATOM     37  C   UNL A   1      39.394  31.120  30.488  1.00  0.00     0.016 A 
ATOM     38  C   UNL A   1      41.634  31.804  32.033  1.00  0.00     0.010 A 
ATOM     39  C   UNL A   1      40.630  31.347  29.872  1.00  0.00     0.010 A 
ATOM     40  C   UNL A   1      41.747  31.722  30.639  1.00  0.00    -0.014 A 
BRANCH  40  41
ATOM     41  C   UNL A   1      42.968  32.239  29.976  1.00  0.00     0.031 A 
ATOM     42  C   UNL A   1      42.984  33.682  29.552  1.00  0.00     0.074 A 
ATOM     43  C   UNL A   1      44.048  31.462  29.778  1.00  0.00     0.049 A 
ATOM     44  N   UNL A   1      43.926  34.360  28.955  1.00  0.00    -0.248 NA
ATOM     45  C   UNL A   1      41.770  34.467  29.846  1.00  0.00     0.031 C 
ATOM     46  C   UNL A   1      44.163  30.059  30.169  1.00  0.00     0.029 A 
ATOM     47  N   UNL A   1      45.254  31.748  29.184  1.00  0.00    -0.354 N 
ATOM     48  C   UNL A   1      43.418  35.642  28.787  1.00  0.00     0.074 A 
ATOM     49  C   UNL A   1      42.076  35.646  29.324  1.00  0.00     0.031 C 
ATOM     50  C   UNL A   1      45.368  29.599  29.788  1.00  0.00     0.029 A 
ATOM     51  C   UNL A   1      46.100  30.667  29.105  1.00  0.00     0.049 A 
ATOM     52  H   UNL A   1      45.489  32.642  28.847  1.00  0.00     0.167 HD
ATOM     53  C   UNL A   1      44.022  36.728  28.253  1.00  0.00     0.034 A 
ATOM     54  C   UNL A   1      47.316  30.551  28.532  1.00  0.00     0.034 A 
ATOM     55  C   UNL A   1      45.360  36.727  27.729  1.00  0.00     0.049 A 
ATOM     56  C   UNL A   1      47.945  31.762  27.886  1.00  0.00     0.074 A 
ATOM     57  C   UNL A   1      46.069  37.784  27.190  1.00  0.00     0.029 A 
ATOM     58  N   UNL A   1      46.185  35.615  27.667  1.00  0.00    -0.354 N 
ATOM     59  N   UNL A   1      47.495  32.993  27.825  1.00  0.00    -0.248 NA
ATOM     60  C   UNL A   1      49.261  31.577  27.255  1.00  0.00     0.031 C 
ATOM     61  C   UNL A   1      47.311  37.303  26.769  1.00  0.00     0.029 A 
ATOM     62  C   UNL A   1      47.391  35.956  27.083  1.00  0.00     0.049 A 
ATOM     63  H   UNL A   1      45.949  34.716  27.992  1.00  0.00     0.167 HD
ATOM     64  C   UNL A   1      48.482  33.733  27.179  1.00  0.00     0.074 A 
ATOM     65  C   UNL A   1      49.565  32.816  26.887  1.00  0.00     0.031 C 
ATOM     66  C   UNL A   1      48.484  35.047  26.843  1.00  0.00     0.034 A 
BRANCH  53  67
ATOM     67  C   UNL A   1      43.255  38.024  28.232  1.00  0.00     0.023 A 
ATOM     68  C   UNL A   1      42.426  38.323  27.131  1.00  0.00     0.012 A 
ATOM     69  C   UNL A   1      43.287  38.901  29.333  1.00  0.00     0.148 A 
ATOM     70  C   UNL A   1      41.658  39.486  27.117  1.00  0.00     0.002 A 
ATOM     71  C   UNL A   1      42.481  40.033  29.332  1.00  0.00     0.091 A 
ATOM     72  F   UNL A   1      44.100  38.610  30.359  1.00  0.00    -0.205 F 
ATOM     73  C   UNL A   1      41.675  40.333  28.221  1.00  0.00     0.022 A 
BRANCH  71  74
ATOM     74  S   UNL A   1      42.362  41.141  30.742  1.00  0.00     0.127 S 
ATOM     75  O   UNL A   1      40.914  41.315  30.858  1.00  0.00    -0.237 OA
ATOM     76  O   UNL A   1      42.967  40.343  31.808  1.00  0.00    -0.237 OA
ATOM     77  O   UNL A   1      43.103  42.340  30.378  1.00  0.00    -0.744 OA
ENDBRANCH  71  74
ENDBRANCH  53  67
BRANCH  54  78
ATOM     78  C   UNL A   1      48.042  29.248  28.584  1.00  0.00     0.023 A 
ATOM     79  C   UNL A   1      48.975  29.015  29.613  1.00  0.00     0.012 A 
ATOM     80  C   UNL A   1      47.791  28.228  27.644  1.00  0.00     0.148 A 
ATOM     81  C   UNL A   1      49.658  27.801  29.695  1.00  0.00     0.002 A 
ATOM     82  C   UNL A   1      48.431  26.999  27.766  1.00  0.00     0.091 A 
ATOM     83  F   UNL A   1      46.915  28.473  26.660  1.00  0.00    -0.205 F 
ATOM     84  C   UNL A   1      49.379  26.790  28.781  1.00  0.00     0.022 A 
BRANCH  82  85
ATOM     85  S   UNL A   1      48.036  25.591  26.723  1.00  0.00     0.127 S 
ATOM     86  O   UNL A   1      48.886  24.547  27.292  1.00  0.00    -0.237 OA
ATOM     87  O   UNL A   1      46.604  25.426  26.977  1.00  0.00    -0.237 OA
ATOM     88  O   UNL A   1      48.365  25.998  25.365  1.00  0.00    -0.744 OA
ENDBRANCH  82  85
ENDBRANCH  54  78
BRANCH  66  89
ATOM     89  C   UNL A   1      49.694  35.606  26.136  1.00  0.00     0.023 A 
ATOM     90  C   UNL A   1      49.776  35.533  24.731  1.00  0.00     0.012 A 
ATOM     91  C   UNL A   1      50.677  36.322  26.849  1.00  0.00     0.148 A 
ATOM     92  C   UNL A   1      50.824  36.149  24.049  1.00  0.00     0.002 A 
ATOM     93  C   UNL A   1      51.690  36.979  26.158  1.00  0.00     0.091 A 
ATOM     94  F   UNL A   1      50.588  36.371  28.186  1.00  0.00    -0.205 F 
ATOM     95  C   UNL A   1      51.771  36.884  24.760  1.00  0.00     0.022 A 
BRANCH  93  96
ATOM     96  S   UNL A   1      52.889  38.041  26.972  1.00  0.00     0.127 S 
ATOM     97  O   UNL A   1      53.413  37.156  28.013  1.00  0.00    -0.237 OA
ATOM     98  O   UNL A   1      53.829  38.331  25.890  1.00  0.00    -0.237 OA
ATOM     99  O   UNL A   1      52.145  39.195  27.458  1.00  0.00    -0.744 OA
ENDBRANCH  93  96
ENDBRANCH  66  89
ENDBRANCH  40  41
ENDBRANCH  33  35
ENDBRANCH  32  33
ENDBRANCH  31  32
ENDBRANCH  30  31
ENDBRANCH  29  30
ENDBRANCH  28  29
ENDBRANCH   1  28
TORSDOF 24
ENDMDL
MODEL 3
REMARK VINA RESULT:      -8.9      4.487      7.225
REMARK SMILES Cc1c(Cl)cc2c(c1C)O[C@@H](C(F)(F)F)C(C(=O)OCCOCCOCCOCCOC(=O)c1ccc(-c3c4nc(c(-c5cccc(S(=O)(=O)[O-])c5F)c5ccc([nH]5)c(-c5cccc(S(=O)(=O)[O-])c5F)c5nc(c(-c6cccc(S(=O)(=O)[O-])c6F)c6ccc3[nH]6)C=C5)C=C4)cc1)=C2
REMARK SMILES IDX 26 1 25 2 24 3 23 4 22 5 21 6 20 7 19 8 17 9 18 10 16 11
REMARK SMILES IDX 1 12 2 13 3 14 8 15 4 16 5 17 7 18 9 19 6 20 10 21 97 22
REMARK SMILES IDX 11 23 12 24 13 25 14 26 15 27 27 28 28 29 29 30 30 31 31 32
REMARK SMILES IDX 32 33 33 34 34 35 35 36 96 37 36 38 95 39 37 40 38 41 39 42
REMARK SMILES IDX 89 43 40 44 94 45 88 46 90 47 41 48 93 49 87 50 86 51 42 53
REMARK SMILES IDX 74 54 54 55 73 56 55 57 58 58 72 59 91 60 56 61 57 62 71 64
REMARK SMILES IDX 92 65 59 66 43 67 44 68 52 69 45 70 47 71 53 72 46 73 48 74
REMARK SMILES IDX 49 75 50 76 51 77 75 78 76 79 84 80 77 81 79 82 85 83 78 84
REMARK SMILES IDX 80 85 81 86 82 87 83 88 60 89 61 90 69 91 62 92 64 93 70 94
REMARK SMILES IDX 63 95 65 96 66 97 67 98 68 99
REMARK H PARENT 90 52 58 63
REMARK Flexibility Score: inf
ROOT
ATOM      1  C   UNL A   1      34.008  28.658  26.248  1.00  0.00     0.188 C 
ENDROOT
BRANCH   1   2
ATOM      2  O   UNL A   1      33.298  29.607  25.467  1.00  0.00    -0.377 OA
BRANCH   2   3
ATOM      3  C   UNL A   1      32.815  29.215  24.190  1.00  0.00     0.188 C 
BRANCH   3   4
ATOM      4  C   UNL A   1      31.337  29.340  23.746  1.00  0.00     0.188 C 
BRANCH   4   5
ATOM      5  O   UNL A   1      30.440  28.462  24.398  1.00  0.00    -0.376 OA
BRANCH   5   6
ATOM      6  C   UNL A   1      29.631  27.571  23.658  1.00  0.00     0.202 C 
BRANCH   6   7
ATOM      7  C   UNL A   1      29.803  26.062  23.879  1.00  0.00     0.261 C 
BRANCH   7   8
ATOM      8  O   UNL A   1      30.360  25.338  22.776  1.00  0.00    -0.460 OA
BRANCH   8   9
ATOM      9  C   UNL A   1      31.698  25.342  22.662  1.00  0.00     0.338 C 
ATOM     10  O   UNL A   1      32.377  26.245  22.200  1.00  0.00    -0.246 OA
BRANCH   9  11
ATOM     11  C   UNL A   1      32.256  24.161  23.348  1.00  0.00     0.087 C 
ATOM     12  C   UNL A   1      33.010  18.123  25.659  1.00  0.00     0.046 C 
ATOM     13  C   UNL A   1      32.862  19.395  24.865  1.00  0.00    -0.026 A 
ATOM     14  C   UNL A   1      32.490  19.363  23.506  1.00  0.00     0.045 A 
ATOM     15  C   UNL A   1      33.102  20.655  25.474  1.00  0.00    -0.004 A 
ATOM     16  Cl  UNL A   1      32.253  17.880  22.644  1.00  0.00    -0.084 Cl
ATOM     17  C   UNL A   1      32.273  20.541  22.792  1.00  0.00     0.032 A 
ATOM     18  C   UNL A   1      32.831  21.837  24.752  1.00  0.00     0.131 A 
ATOM     19  C   UNL A   1      33.647  20.794  26.874  1.00  0.00     0.049 C 
ATOM     20  C   UNL A   1      32.407  21.776  23.424  1.00  0.00     0.019 A 
ATOM     21  O   UNL A   1      32.906  23.023  25.441  1.00  0.00    -0.475 OA
ATOM     22  C   UNL A   1      32.009  22.992  22.740  1.00  0.00     0.027 C 
ATOM     23  C   UNL A   1      32.961  24.269  24.679  1.00  0.00     0.316 C 
BRANCH  23  24
ATOM     24  C   UNL A   1      34.430  24.747  24.669  1.00  0.00     0.430 C 
ATOM     25  F   UNL A   1      34.708  25.535  25.735  1.00  0.00    -0.167 F 
ATOM     26  F   UNL A   1      35.313  23.727  24.661  1.00  0.00    -0.167 F 
ATOM     27  F   UNL A   1      34.682  25.486  23.560  1.00  0.00    -0.167 F 
ENDBRANCH  23  24
ENDBRANCH   9  11
ENDBRANCH   8   9
ENDBRANCH   7   8
ENDBRANCH   6   7
ENDBRANCH   5   6
ENDBRANCH   4   5
ENDBRANCH   3   4
ENDBRANCH   2   3
ENDBRANCH   1   2
BRANCH   1  28
ATOM     28  C   UNL A   1      34.375  29.202  27.641  1.00  0.00     0.188 C 
BRANCH  28  29
ATOM     29  O   UNL A   1      35.307  30.273  27.580  1.00  0.00    -0.376 OA
BRANCH  29  30
ATOM     30  C   UNL A   1      35.987  30.649  28.770  1.00  0.00     0.202 C 
BRANCH  30  31
ATOM     31  C   UNL A   1      36.805  29.668  29.639  1.00  0.00     0.261 C 
BRANCH  31  32
ATOM     32  O   UNL A   1      36.375  29.412  30.984  1.00  0.00    -0.460 OA
BRANCH  32  33
ATOM     33  C   UNL A   1      36.888  30.151  31.985  1.00  0.00     0.338 C 
ATOM     34  O   UNL A   1      36.311  31.005  32.640  1.00  0.00    -0.246 OA
BRANCH  33  35
ATOM     35  C   UNL A   1      38.224  29.590  32.289  1.00  0.00     0.060 A 
ATOM     36  C   UNL A   1      39.329  30.449  32.359  1.00  0.00     0.016 A 
ATOM     37  C   UNL A   1      38.378  28.225  32.548  1.00  0.00     0.016 A 
ATOM     38  C   UNL A   1      40.593  29.943  32.662  1.00  0.00     0.010 A 
ATOM     39  C   UNL A   1      39.650  27.713  32.821  1.00  0.00     0.010 A 
ATOM     40  C   UNL A   1      40.768  28.566  32.847  1.00  0.00    -0.014 A 
BRANCH  40  41
ATOM     41  C   UNL A   1      42.139  28.000  32.848  1.00  0.00     0.031 A 
ATOM     42  C   UNL A   1      42.839  27.851  34.171  1.00  0.00     0.074 A 
ATOM     43  C   UNL A   1      42.741  27.603  31.713  1.00  0.00     0.049 A 
ATOM     44  N   UNL A   1      44.033  27.391  34.429  1.00  0.00    -0.248 NA
ATOM     45  C   UNL A   1      42.086  28.275  35.366  1.00  0.00     0.031 C 
ATOM     46  C   UNL A   1      42.156  27.673  30.376  1.00  0.00     0.029 A 
ATOM     47  N   UNL A   1      43.991  27.072  31.507  1.00  0.00    -0.354 N 
ATOM     48  C   UNL A   1      44.183  27.484  35.807  1.00  0.00     0.074 A 
ATOM     49  C   UNL A   1      42.967  28.064  36.332  1.00  0.00     0.031 C 
ATOM     50  C   UNL A   1      43.052  27.216  29.484  1.00  0.00     0.029 A 
ATOM     51  C   UNL A   1      44.285  26.847  30.183  1.00  0.00     0.049 A 
ATOM     52  H   UNL A   1      44.618  26.871  32.239  1.00  0.00     0.167 HD
ATOM     53  C   UNL A   1      45.230  27.100  36.573  1.00  0.00     0.034 A 
ATOM     54  C   UNL A   1      45.422  26.409  29.603  1.00  0.00     0.034 A 
ATOM     55  C   UNL A   1      46.433  26.512  36.051  1.00  0.00     0.049 A 
ATOM     56  C   UNL A   1      46.600  26.045  30.473  1.00  0.00     0.074 A 
ATOM     57  C   UNL A   1      47.540  26.067  36.749  1.00  0.00     0.029 A 
ATOM     58  N   UNL A   1      46.692  26.300  34.706  1.00  0.00    -0.354 N 
ATOM     59  N   UNL A   1      46.691  26.043  31.782  1.00  0.00    -0.248 NA
ATOM     60  C   UNL A   1      47.825  25.597  29.791  1.00  0.00     0.031 C 
ATOM     61  C   UNL A   1      48.484  25.618  35.824  1.00  0.00     0.029 A 
ATOM     62  C   UNL A   1      47.950  25.745  34.552  1.00  0.00     0.049 A 
ATOM     63  H   UNL A   1      46.074  26.512  33.971  1.00  0.00     0.167 HD
ATOM     64  C   UNL A   1      47.965  25.566  32.080  1.00  0.00     0.074 A 
ATOM     65  C   UNL A   1      48.604  25.269  30.814  1.00  0.00     0.031 C 
ATOM     66  C   UNL A   1      48.557  25.404  33.290  1.00  0.00     0.034 A 
BRANCH  53  67
ATOM     67  C   UNL A   1      45.114  27.273  38.064  1.00  0.00     0.023 A 
ATOM     68  C   UNL A   1      44.602  26.218  38.847  1.00  0.00     0.012 A 
ATOM     69  C   UNL A   1      45.589  28.438  38.696  1.00  0.00     0.148 A 
ATOM     70  C   UNL A   1      44.544  26.330  40.235  1.00  0.00     0.002 A 
ATOM     71  C   UNL A   1      45.572  28.522  40.083  1.00  0.00     0.091 A 
ATOM     72  F   UNL A   1      46.049  29.438  37.931  1.00  0.00    -0.205 F 
ATOM     73  C   UNL A   1      45.040  27.474  40.853  1.00  0.00     0.022 A 
BRANCH  71  74
ATOM     74  S   UNL A   1      46.270  29.913  40.980  1.00  0.00     0.127 S 
ATOM     75  O   UNL A   1      45.725  31.047  40.236  1.00  0.00    -0.237 OA
ATOM     76  O   UNL A   1      45.702  29.730  42.315  1.00  0.00    -0.237 OA
ATOM     77  O   UNL A   1      47.716  29.759  40.904  1.00  0.00    -0.744 OA
ENDBRANCH  71  74
ENDBRANCH  53  67
BRANCH  54  78
ATOM     78  C   UNL A   1      45.486  26.247  28.121  1.00  0.00     0.023 A 
ATOM     79  C   UNL A   1      45.879  27.337  27.320  1.00  0.00     0.012 A 
ATOM     80  C   UNL A   1      45.196  25.014  27.502  1.00  0.00     0.148 A 
ATOM     81  C   UNL A   1      45.961  27.210  25.933  1.00  0.00     0.002 A 
ATOM     82  C   UNL A   1      45.338  24.878  26.126  1.00  0.00     0.091 A 
ATOM     83  F   UNL A   1      44.806  23.992  28.277  1.00  0.00    -0.205 F 
ATOM     84  C   UNL A   1      45.703  25.980  25.337  1.00  0.00     0.022 A 
BRANCH  82  85
ATOM     85  S   UNL A   1      45.163  23.300  25.284  1.00  0.00     0.127 S 
ATOM     86  O   UNL A   1      45.089  23.713  23.884  1.00  0.00    -0.237 OA
ATOM     87  O   UNL A   1      46.404  22.622  25.661  1.00  0.00    -0.237 OA
ATOM     88  O   UNL A   1      43.955  22.694  25.823  1.00  0.00    -0.744 OA
ENDBRANCH  82  85
ENDBRANCH  54  78
BRANCH  66  89
ATOM     89  C   UNL A   1      49.965  24.865  33.333  1.00  0.00     0.023 A 
ATOM     90  C   UNL A   1      51.055  25.755  33.271  1.00  0.00     0.012 A 
ATOM     91  C   UNL A   1      50.204  23.497  33.576  1.00  0.00     0.148 A 
ATOM     92  C   UNL A   1      52.360  25.291  33.431  1.00  0.00     0.002 A 
ATOM     93  C   UNL A   1      51.504  23.049  33.788  1.00  0.00     0.091 A 
ATOM     94  F   UNL A   1      49.155  22.663  33.622  1.00  0.00    -0.205 F 
ATOM     95  C   UNL A   1      52.583  23.943  33.705  1.00  0.00     0.022 A 
BRANCH  93  96
ATOM     96  S   UNL A   1      51.883  21.357  34.258  1.00  0.00     0.127 S 
ATOM     97  O   UNL A   1      51.600  20.633  33.019  1.00  0.00    -0.237 OA
ATOM     98  O   UNL A   1      53.302  21.444  34.602  1.00  0.00    -0.237 OA
ATOM     99  O   UNL A   1      51.003  21.039  35.375  1.00  0.00    -0.744 OA
ENDBRANCH  93  96
ENDBRANCH  66  89
ENDBRANCH  40  41
ENDBRANCH  33  35
ENDBRANCH  32  33
ENDBRANCH  31  32
ENDBRANCH  30  31
ENDBRANCH  29  30
ENDBRANCH  28  29
ENDBRANCH   1  28
TORSDOF 24
ENDMDL
