MODEL 1
REMARK VINA RESULT:      -9.2      0.000      0.000
REMARK SMILES CCc1cc2ccccc2c(=O)n1CC(=O)OCCOCCOCCOCCOC(=O)c1ccc(-c2c3nc(c(-c4cccc(S(=O)(=O)[O-])c4F)c4ccc([nH]4)c(-c4cccc(S(=O)(=O)[O-])c4F)c4nc(c(-c5cccc(S(=O)(=O)[O-])c5F)c5ccc2[nH]5)C=C4)C=C3)cc1
REMARK SMILES IDX 24 1 23 2 22 3 21 4 20 5 19 6 18 7 17 8 15 9 16 10 14 11
REMARK SMILES IDX 13 12 3 13 4 14 5 15 11 16 6 17 10 18 12 19 7 20 9 21 8 22
REMARK SMILES IDX 2 23 1 24 25 25 26 26 27 27 28 28 29 29 30 30 31 31 32 32
REMARK SMILES IDX 33 33 94 34 34 35 93 36 35 37 36 38 37 39 87 40 38 41 92 42
REMARK SMILES IDX 86 43 88 44 39 45 91 46 85 47 84 48 40 50 72 51 52 52 71 53
REMARK SMILES IDX 53 54 56 55 70 56 89 57 54 58 55 59 69 61 90 62 57 63 41 64
REMARK SMILES IDX 42 65 50 66 43 67 45 68 51 69 44 70 46 71 47 72 48 73 49 74
REMARK SMILES IDX 73 75 74 76 82 77 75 78 77 79 83 80 76 81 78 82 79 83 80 84
REMARK SMILES IDX 81 85 58 86 59 87 67 88 60 89 62 90 68 91 61 92 63 93 64 94
REMARK SMILES IDX 65 95 66 96
REMARK H PARENT 88 49 56 60
REMARK Flexibility Score: inf
ROOT
ATOM      1  C   UNL A   1      41.106  21.981  26.080  1.00  0.00     0.188 C 
ENDROOT
BRANCH   1   2
ATOM      2  O   UNL A   1      40.525  23.222  26.426  1.00  0.00    -0.377 OA
BRANCH   2   3
ATOM      3  C   UNL A   1      39.204  23.126  26.927  1.00  0.00     0.188 C 
BRANCH   3   4
ATOM      4  C   UNL A   1      38.155  23.027  25.811  1.00  0.00     0.188 C 
BRANCH   4   5
ATOM      5  O   UNL A   1      37.215  21.948  25.780  1.00  0.00    -0.376 OA
BRANCH   5   6
ATOM      6  C   UNL A   1      36.041  22.098  24.998  1.00  0.00     0.202 C 
BRANCH   6   7
ATOM      7  C   UNL A   1      34.753  22.168  25.837  1.00  0.00     0.261 C 
BRANCH   7   8
ATOM      8  O   UNL A   1      33.741  23.055  25.304  1.00  0.00    -0.462 OA
BRANCH   8   9
ATOM      9  C   UNL A   1      32.473  22.576  25.260  1.00  0.00     0.326 C 
ATOM     10  O   UNL A   1      32.151  21.446  25.620  1.00  0.00    -0.250 OA
BRANCH   9  11
ATOM     11  C   UNL A   1      31.427  23.578  24.733  1.00  0.00     0.248 C 
BRANCH  11  12
ATOM     12  N   UNL A   1      31.642  25.046  24.728  1.00  0.00    -0.301 N 
ATOM     13  C   UNL A   1      31.987  25.743  23.554  1.00  0.00     0.022 A 
ATOM     14  C   UNL A   1      32.209  27.072  23.601  1.00  0.00     0.030 A 
ATOM     15  C   UNL A   1      32.121  27.826  24.845  1.00  0.00    -0.011 A 
ATOM     16  C   UNL A   1      31.412  25.722  25.946  1.00  0.00     0.259 A 
ATOM     17  C   UNL A   1      32.434  29.191  24.897  1.00  0.00     0.009 A 
ATOM     18  C   UNL A   1      31.709  27.177  26.004  1.00  0.00     0.047 A 
ATOM     19  O   UNL A   1      31.002  25.179  26.969  1.00  0.00    -0.269 OA
ATOM     20  C   UNL A   1      32.346  29.892  26.103  1.00  0.00     0.001 A 
ATOM     21  C   UNL A   1      31.611  27.880  27.214  1.00  0.00     0.014 A 
ATOM     22  C   UNL A   1      31.936  29.236  27.262  1.00  0.00     0.001 A 
BRANCH  13  23
ATOM     23  C   UNL A   1      32.051  24.981  22.237  1.00  0.00     0.051 C 
ATOM     24  C   UNL A   1      32.689  25.705  21.050  1.00  0.00     0.010 C 
ENDBRANCH  13  23
ENDBRANCH  11  12
ENDBRANCH   9  11
ENDBRANCH   8   9
ENDBRANCH   7   8
ENDBRANCH   6   7
ENDBRANCH   5   6
ENDBRANCH   4   5
ENDBRANCH   3   4
ENDBRANCH   2   3
ENDBRANCH   1   2
BRANCH   1  25
ATOM     25  C   UNL A   1      40.972  20.909  27.168  1.00  0.00     0.188 C 
BRANCH  25  26
ATOM     26  O   UNL A   1      41.169  19.539  26.838  1.00  0.00    -0.376 OA
BRANCH  26  27
ATOM     27  C   UNL A   1      42.424  18.891  26.980  1.00  0.00     0.202 C 
BRANCH  27  28
ATOM     28  C   UNL A   1      43.252  18.477  25.759  1.00  0.00     0.261 C 
BRANCH  28  29
ATOM     29  O   UNL A   1      43.335  19.494  24.753  1.00  0.00    -0.460 OA
BRANCH  29  30
ATOM     30  C   UNL A   1      44.573  20.013  24.550  1.00  0.00     0.338 C 
ATOM     31  O   UNL A   1      45.464  19.524  23.877  1.00  0.00    -0.246 OA
BRANCH  30  32
ATOM     32  C   UNL A   1      44.615  21.393  25.081  1.00  0.00     0.060 A 
ATOM     33  C   UNL A   1      44.791  21.655  26.442  1.00  0.00     0.016 A 
ATOM     34  C   UNL A   1      44.448  22.445  24.172  1.00  0.00     0.016 A 
ATOM     35  C   UNL A   1      44.843  22.981  26.884  1.00  0.00     0.010 A 
ATOM     36  C   UNL A   1      44.469  23.766  24.618  1.00  0.00     0.010 A 
ATOM     37  C   UNL A   1      44.699  24.043  25.973  1.00  0.00    -0.014 A 
BRANCH  37  38
ATOM     38  C   UNL A   1      45.027  25.430  26.378  1.00  0.00     0.031 A 
ATOM     39  C   UNL A   1      46.425  25.965  26.372  1.00  0.00     0.074 A 
ATOM     40  C   UNL A   1      44.016  26.187  26.846  1.00  0.00     0.049 A 
ATOM     41  N   UNL A   1      46.832  27.174  26.660  1.00  0.00    -0.248 NA
ATOM     42  C   UNL A   1      47.502  25.034  26.009  1.00  0.00     0.031 C 
ATOM     43  C   UNL A   1      42.629  25.736  26.979  1.00  0.00     0.029 A 
ATOM     44  N   UNL A   1      43.997  27.474  27.317  1.00  0.00    -0.354 N 
ATOM     45  C   UNL A   1      48.213  27.155  26.526  1.00  0.00     0.074 A 
ATOM     46  C   UNL A   1      48.576  25.807  26.136  1.00  0.00     0.031 C 
ATOM     47  C   UNL A   1      41.894  26.726  27.506  1.00  0.00     0.029 A 
ATOM     48  C   UNL A   1      42.758  27.878  27.749  1.00  0.00     0.049 A 
ATOM     49  H   UNL A   1      44.794  28.050  27.344  1.00  0.00     0.167 HD
ATOM     50  C   UNL A   1      49.087  28.176  26.696  1.00  0.00     0.034 A 
ATOM     51  C   UNL A   1      42.352  29.046  28.280  1.00  0.00     0.034 A 
ATOM     52  C   UNL A   1      48.713  29.514  27.076  1.00  0.00     0.049 A 
ATOM     53  C   UNL A   1      43.333  30.168  28.429  1.00  0.00     0.074 A 
ATOM     54  C   UNL A   1      49.519  30.638  27.164  1.00  0.00     0.029 A 
ATOM     55  N   UNL A   1      47.440  29.907  27.456  1.00  0.00    -0.354 N 
ATOM     56  N   UNL A   1      44.604  30.187  28.111  1.00  0.00    -0.248 NA
ATOM     57  C   UNL A   1      42.824  31.434  28.973  1.00  0.00     0.031 C 
ATOM     58  C   UNL A   1      48.737  31.704  27.620  1.00  0.00     0.029 A 
ATOM     59  C   UNL A   1      47.441  31.249  27.800  1.00  0.00     0.049 A 
ATOM     60  H   UNL A   1      46.651  29.320  27.478  1.00  0.00     0.167 HD
ATOM     61  C   UNL A   1      45.048  31.471  28.404  1.00  0.00     0.074 A 
ATOM     62  C   UNL A   1      43.904  32.204  28.909  1.00  0.00     0.031 C 
ATOM     63  C   UNL A   1      46.296  31.983  28.276  1.00  0.00     0.034 A 
BRANCH  50  64
ATOM     64  C   UNL A   1      50.543  27.918  26.414  1.00  0.00     0.023 A 
ATOM     65  C   UNL A   1      51.402  27.613  27.488  1.00  0.00     0.012 A 
ATOM     66  C   UNL A   1      51.032  27.856  25.094  1.00  0.00     0.148 A 
ATOM     67  C   UNL A   1      52.730  27.259  27.256  1.00  0.00     0.002 A 
ATOM     68  C   UNL A   1      52.351  27.477  24.869  1.00  0.00     0.091 A 
ATOM     69  F   UNL A   1      50.197  28.160  24.090  1.00  0.00    -0.205 F 
ATOM     70  C   UNL A   1      53.200  27.181  25.948  1.00  0.00     0.022 A 
BRANCH  68  71
ATOM     71  S   UNL A   1      53.043  27.291  23.222  1.00  0.00     0.127 S 
ATOM     72  O   UNL A   1      53.684  28.592  23.026  1.00  0.00    -0.237 OA
ATOM     73  O   UNL A   1      53.971  26.175  23.401  1.00  0.00    -0.237 OA
ATOM     74  O   UNL A   1      51.917  27.015  22.340  1.00  0.00    -0.744 OA
ENDBRANCH  68  71
ENDBRANCH  50  64
BRANCH  51  75
ATOM     75  C   UNL A   1      40.914  29.207  28.619  1.00  0.00     0.023 A 
ATOM     76  C   UNL A   1      39.984  29.385  27.578  1.00  0.00     0.012 A 
ATOM     77  C   UNL A   1      40.458  29.050  29.941  1.00  0.00     0.148 A 
ATOM     78  C   UNL A   1      38.616  29.401  27.850  1.00  0.00     0.002 A 
ATOM     79  C   UNL A   1      39.094  29.028  30.200  1.00  0.00     0.091 A 
ATOM     80  F   UNL A   1      41.370  28.869  30.907  1.00  0.00    -0.205 F 
ATOM     81  C   UNL A   1      38.172  29.212  29.156  1.00  0.00     0.022 A 
BRANCH  79  82
ATOM     82  S   UNL A   1      38.419  28.677  31.826  1.00  0.00     0.127 S 
ATOM     83  O   UNL A   1      38.676  27.244  31.953  1.00  0.00    -0.237 OA
ATOM     84  O   UNL A   1      39.246  29.531  32.679  1.00  0.00    -0.237 OA
ATOM     85  O   UNL A   1      37.013  29.054  31.764  1.00  0.00    -0.744 OA
ENDBRANCH  79  82
ENDBRANCH  51  75
BRANCH  63  86
ATOM     86  C   UNL A   1      46.515  33.410  28.696  1.00  0.00     0.023 A 
ATOM     87  C   UNL A   1      47.043  33.678  29.973  1.00  0.00     0.012 A 
ATOM     88  C   UNL A   1      46.308  34.470  27.792  1.00  0.00     0.148 A 
ATOM     89  C   UNL A   1      47.356  34.984  30.349  1.00  0.00     0.002 A 
ATOM     90  C   UNL A   1      46.653  35.765  28.161  1.00  0.00     0.091 A 
ATOM     91  F   UNL A   1      45.793  34.189  26.586  1.00  0.00    -0.205 F 
ATOM     92  C   UNL A   1      47.172  36.024  29.440  1.00  0.00     0.022 A 
BRANCH  90  93
ATOM     93  S   UNL A   1      46.522  37.162  27.038  1.00  0.00     0.127 S 
ATOM     94  O   UNL A   1      45.077  37.240  26.828  1.00  0.00    -0.237 OA
ATOM     95  O   UNL A   1      47.083  38.252  27.836  1.00  0.00    -0.237 OA
ATOM     96  O   UNL A   1      47.301  36.807  25.860  1.00  0.00    -0.744 OA
ENDBRANCH  90  93
ENDBRANCH  63  86
ENDBRANCH  37  38
ENDBRANCH  30  32
ENDBRANCH  29  30
ENDBRANCH  28  29
ENDBRANCH  27  28
ENDBRANCH  26  27
ENDBRANCH  25  26
ENDBRANCH   1  25
TORSDOF 25
ENDMDL
MODEL 2
REMARK VINA RESULT:      -9.2      0.944      7.612
REMARK SMILES CCc1cc2ccccc2c(=O)n1CC(=O)OCCOCCOCCOCCOC(=O)c1ccc(-c2c3nc(c(-c4cccc(S(=O)(=O)[O-])c4F)c4ccc([nH]4)c(-c4cccc(S(=O)(=O)[O-])c4F)c4nc(c(-c5cccc(S(=O)(=O)[O-])c5F)c5ccc2[nH]5)C=C4)C=C3)cc1
REMARK SMILES IDX 24 1 23 2 22 3 21 4 20 5 19 6 18 7 17 8 15 9 16 10 14 11
REMARK SMILES IDX 13 12 3 13 4 14 5 15 11 16 6 17 10 18 12 19 7 20 9 21 8 22
REMARK SMILES IDX 2 23 1 24 25 25 26 26 27 27 28 28 29 29 30 30 31 31 32 32
REMARK SMILES IDX 33 33 94 34 34 35 93 36 35 37 36 38 37 39 87 40 38 41 92 42
REMARK SMILES IDX 86 43 88 44 39 45 91 46 85 47 84 48 40 50 72 51 52 52 71 53
REMARK SMILES IDX 53 54 56 55 70 56 89 57 54 58 55 59 69 61 90 62 57 63 41 64
REMARK SMILES IDX 42 65 50 66 43 67 45 68 51 69 44 70 46 71 47 72 48 73 49 74
REMARK SMILES IDX 73 75 74 76 82 77 75 78 77 79 83 80 76 81 78 82 79 83 80 84
REMARK SMILES IDX 81 85 58 86 59 87 67 88 60 89 62 90 68 91 61 92 63 93 64 94
REMARK SMILES IDX 65 95 66 96
REMARK H PARENT 88 49 56 60
REMARK Flexibility Score: inf
ROOT
ATOM      1  C   UNL A   1      40.754  21.961  26.209  1.00  0.00     0.188 C 
ENDROOT
BRANCH   1   2
ATOM      2  O   UNL A   1      40.319  23.284  26.447  1.00  0.00    -0.377 OA
BRANCH   2   3
ATOM      3  C   UNL A   1      39.073  23.375  27.112  1.00  0.00     0.188 C 
BRANCH   3   4
ATOM      4  C   UNL A   1      37.951  23.885  26.198  1.00  0.00     0.188 C 
BRANCH   4   5
ATOM      5  O   UNL A   1      36.931  23.002  25.722  1.00  0.00    -0.376 OA
BRANCH   5   6
ATOM      6  C   UNL A   1      35.575  23.354  25.943  1.00  0.00     0.202 C 
BRANCH   6   7
ATOM      7  C   UNL A   1      34.607  22.163  25.831  1.00  0.00     0.261 C 
BRANCH   7   8
ATOM      8  O   UNL A   1      33.286  22.415  26.366  1.00  0.00    -0.462 OA
BRANCH   8   9
ATOM      9  C   UNL A   1      32.236  22.120  25.559  1.00  0.00     0.326 C 
ATOM     10  O   UNL A   1      31.761  20.994  25.431  1.00  0.00    -0.250 OA
BRANCH   9  11
ATOM     11  C   UNL A   1      31.648  23.328  24.805  1.00  0.00     0.248 C 
BRANCH  11  12
ATOM     12  N   UNL A   1      32.199  24.702  24.920  1.00  0.00    -0.301 N 
ATOM     13  C   UNL A   1      33.135  25.205  23.997  1.00  0.00     0.022 A 
ATOM     14  C   UNL A   1      33.640  26.446  24.159  1.00  0.00     0.030 A 
ATOM     15  C   UNL A   1      33.257  27.294  25.280  1.00  0.00    -0.011 A 
ATOM     16  C   UNL A   1      31.683  25.505  25.959  1.00  0.00     0.259 A 
ATOM     17  C   UNL A   1      33.848  28.548  25.484  1.00  0.00     0.009 A 
ATOM     18  C   UNL A   1      32.278  26.850  26.164  1.00  0.00     0.047 A 
ATOM     19  O   UNL A   1      30.785  25.154  26.721  1.00  0.00    -0.269 OA
ATOM     20  C   UNL A   1      33.469  29.342  26.570  1.00  0.00     0.001 A 
ATOM     21  C   UNL A   1      31.889  27.649  27.249  1.00  0.00     0.014 A 
ATOM     22  C   UNL A   1      32.490  28.892  27.454  1.00  0.00     0.001 A 
BRANCH  13  23
ATOM     23  C   UNL A   1      33.523  24.349  22.798  1.00  0.00     0.051 C 
ATOM     24  C   UNL A   1      32.916  24.735  21.448  1.00  0.00     0.010 C 
ENDBRANCH  13  23
ENDBRANCH  11  12
ENDBRANCH   9  11
ENDBRANCH   8   9
ENDBRANCH   7   8
ENDBRANCH   6   7
ENDBRANCH   5   6
ENDBRANCH   4   5
ENDBRANCH   3   4
ENDBRANCH   2   3
ENDBRANCH   1   2
BRANCH   1  25
ATOM     25  C   UNL A   1      41.168  21.207  27.479  1.00  0.00     0.188 C 
BRANCH  25  26
ATOM     26  O   UNL A   1      41.212  19.785  27.473  1.00  0.00    -0.376 OA
BRANCH  26  27
ATOM     27  C   UNL A   1      42.409  19.058  27.242  1.00  0.00     0.202 C 
BRANCH  27  28
ATOM     28  C   UNL A   1      42.809  18.604  25.834  1.00  0.00     0.261 C 
BRANCH  28  29
ATOM     29  O   UNL A   1      43.074  19.690  24.937  1.00  0.00    -0.460 OA
BRANCH  29  30
ATOM     30  C   UNL A   1      44.367  19.817  24.543  1.00  0.00     0.338 C 
ATOM     31  O   UNL A   1      45.003  19.023  23.870  1.00  0.00    -0.246 OA
BRANCH  30  32
ATOM     32  C   UNL A   1      44.838  21.183  24.855  1.00  0.00     0.060 A 
ATOM     33  C   UNL A   1      44.962  22.165  23.869  1.00  0.00     0.016 A 
ATOM     34  C   UNL A   1      45.187  21.464  26.183  1.00  0.00     0.016 A 
ATOM     35  C   UNL A   1      45.395  23.446  24.227  1.00  0.00     0.010 A 
ATOM     36  C   UNL A   1      45.648  22.732  26.532  1.00  0.00     0.010 A 
ATOM     37  C   UNL A   1      45.724  23.741  25.563  1.00  0.00    -0.014 A 
BRANCH  37  38
ATOM     38  C   UNL A   1      45.911  25.145  25.997  1.00  0.00     0.031 A 
ATOM     39  C   UNL A   1      44.773  26.019  26.422  1.00  0.00     0.074 A 
ATOM     40  C   UNL A   1      47.157  25.651  25.914  1.00  0.00     0.049 A 
ATOM     41  N   UNL A   1      44.816  27.248  26.867  1.00  0.00    -0.248 NA
ATOM     42  C   UNL A   1      43.419  25.455  26.330  1.00  0.00     0.031 C 
ATOM     43  C   UNL A   1      48.326  24.914  25.428  1.00  0.00     0.029 A 
ATOM     44  N   UNL A   1      47.644  26.898  26.206  1.00  0.00    -0.354 N 
ATOM     45  C   UNL A   1      43.498  27.617  27.101  1.00  0.00     0.074 A 
ATOM     46  C   UNL A   1      42.676  26.479  26.740  1.00  0.00     0.031 C 
ATOM     47  C   UNL A   1      49.394  25.724  25.447  1.00  0.00     0.029 A 
ATOM     48  C   UNL A   1      48.985  27.035  25.942  1.00  0.00     0.049 A 
ATOM     49  H   UNL A   1      47.087  27.624  26.569  1.00  0.00     0.167 HD
ATOM     50  C   UNL A   1      43.029  28.790  27.589  1.00  0.00     0.034 A 
ATOM     51  C   UNL A   1      49.803  28.095  26.084  1.00  0.00     0.034 A 
ATOM     52  C   UNL A   1      43.857  29.912  27.952  1.00  0.00     0.049 A 
ATOM     53  C   UNL A   1      49.264  29.370  26.654  1.00  0.00     0.074 A 
ATOM     54  C   UNL A   1      43.477  31.099  28.556  1.00  0.00     0.029 A 
ATOM     55  N   UNL A   1      45.221  30.001  27.722  1.00  0.00    -0.354 N 
ATOM     56  N   UNL A   1      48.044  29.635  27.052  1.00  0.00    -0.248 NA
ATOM     57  C   UNL A   1      50.212  30.478  26.828  1.00  0.00     0.031 C 
ATOM     58  C   UNL A   1      44.608  31.914  28.670  1.00  0.00     0.029 A 
ATOM     59  C   UNL A   1      45.694  31.230  28.153  1.00  0.00     0.049 A 
ATOM     60  H   UNL A   1      45.772  29.296  27.313  1.00  0.00     0.167 HD
ATOM     61  C   UNL A   1      48.077  30.936  27.536  1.00  0.00     0.074 A 
ATOM     62  C   UNL A   1      49.443  31.399  27.397  1.00  0.00     0.031 C 
ATOM     63  C   UNL A   1      47.059  31.677  28.037  1.00  0.00     0.034 A 
BRANCH  50  64
ATOM     64  C   UNL A   1      41.549  28.919  27.825  1.00  0.00     0.023 A 
ATOM     65  C   UNL A   1      40.698  29.144  26.724  1.00  0.00     0.012 A 
ATOM     66  C   UNL A   1      40.990  28.696  29.099  1.00  0.00     0.148 A 
ATOM     67  C   UNL A   1      39.314  29.157  26.887  1.00  0.00     0.002 A 
ATOM     68  C   UNL A   1      39.608  28.685  29.250  1.00  0.00     0.091 A 
ATOM     69  F   UNL A   1      41.820  28.494  30.132  1.00  0.00    -0.205 F 
ATOM     70  C   UNL A   1      38.770  28.918  28.146  1.00  0.00     0.022 A 
BRANCH  68  71
ATOM     71  S   UNL A   1      38.802  28.333  30.816  1.00  0.00     0.127 S 
ATOM     72  O   UNL A   1      39.800  28.812  31.773  1.00  0.00    -0.237 OA
ATOM     73  O   UNL A   1      37.594  29.154  30.733  1.00  0.00    -0.237 OA
ATOM     74  O   UNL A   1      38.564  26.896  30.834  1.00  0.00    -0.744 OA
ENDBRANCH  68  71
ENDBRANCH  50  64
BRANCH  51  75
ATOM     75  C   UNL A   1      51.241  27.927  25.750  1.00  0.00     0.023 A 
ATOM     76  C   UNL A   1      52.159  27.685  26.788  1.00  0.00     0.012 A 
ATOM     77  C   UNL A   1      51.673  27.873  24.411  1.00  0.00     0.148 A 
ATOM     78  C   UNL A   1      53.490  27.387  26.497  1.00  0.00     0.002 A 
ATOM     79  C   UNL A   1      52.990  27.537  24.127  1.00  0.00     0.091 A 
ATOM     80  F   UNL A   1      50.769  28.095  23.446  1.00  0.00    -0.205 F 
ATOM     81  C   UNL A   1      53.902  27.302  25.170  1.00  0.00     0.022 A 
BRANCH  79  82
ATOM     82  S   UNL A   1      53.591  27.291  22.453  1.00  0.00     0.127 S 
ATOM     83  O   UNL A   1      53.436  28.627  21.881  1.00  0.00    -0.237 OA
ATOM     84  O   UNL A   1      54.974  26.879  22.695  1.00  0.00    -0.237 OA
ATOM     85  O   UNL A   1      52.740  26.263  21.871  1.00  0.00    -0.744 OA
ENDBRANCH  79  82
ENDBRANCH  51  75
BRANCH  63  86
ATOM     86  C   UNL A   1      47.363  33.085  28.471  1.00  0.00     0.023 A 
ATOM     87  C   UNL A   1      47.846  33.313  29.774  1.00  0.00     0.012 A 
ATOM     88  C   UNL A   1      47.280  34.157  27.562  1.00  0.00     0.148 A 
ATOM     89  C   UNL A   1      48.236  34.592  30.169  1.00  0.00     0.002 A 
ATOM     90  C   UNL A   1      47.702  35.422  27.952  1.00  0.00     0.091 A 
ATOM     91  F   UNL A   1      46.806  33.915  26.331  1.00  0.00    -0.205 F 
ATOM     92  C   UNL A   1      48.175  35.643  29.256  1.00  0.00     0.022 A 
BRANCH  90  93
ATOM     93  S   UNL A   1      47.731  36.825  26.829  1.00  0.00     0.127 S 
ATOM     94  O   UNL A   1      48.610  36.337  25.767  1.00  0.00    -0.237 OA
ATOM     95  O   UNL A   1      46.324  36.946  26.449  1.00  0.00    -0.237 OA
ATOM     96  O   UNL A   1      48.253  37.947  27.597  1.00  0.00    -0.744 OA
ENDBRANCH  90  93
ENDBRANCH  63  86
ENDBRANCH  37  38
ENDBRANCH  30  32
ENDBRANCH  29  30
ENDBRANCH  28  29
ENDBRANCH  27  28
ENDBRANCH  26  27
ENDBRANCH  25  26
ENDBRANCH   1  25
TORSDOF 25
ENDMDL
MODEL 3
REMARK VINA RESULT:      -8.7      4.831      9.675
REMARK SMILES CCc1cc2ccccc2c(=O)n1CC(=O)OCCOCCOCCOCCOC(=O)c1ccc(-c2c3nc(c(-c4cccc(S(=O)(=O)[O-])c4F)c4ccc([nH]4)c(-c4cccc(S(=O)(=O)[O-])c4F)c4nc(c(-c5cccc(S(=O)(=O)[O-])c5F)c5ccc2[nH]5)C=C4)C=C3)cc1
REMARK SMILES IDX 24 1 23 2 22 3 21 4 20 5 19 6 18 7 17 8 15 9 16 10 14 11
REMARK SMILES IDX 13 12 3 13 4 14 5 15 11 16 6 17 10 18 12 19 7 20 9 21 8 22
REMARK SMILES IDX 2 23 1 24 25 25 26 26 27 27 28 28 29 29 30 30 31 31 32 32
REMARK SMILES IDX 33 33 94 34 34 35 93 36 35 37 36 38 37 39 87 40 38 41 92 42
REMARK SMILES IDX 86 43 88 44 39 45 91 46 85 47 84 48 40 50 72 51 52 52 71 53
REMARK SMILES IDX 53 54 56 55 70 56 89 57 54 58 55 59 69 61 90 62 57 63 41 64
REMARK SMILES IDX 42 65 50 66 43 67 45 68 51 69 44 70 46 71 47 72 48 73 49 74
REMARK SMILES IDX 73 75 74 76 82 77 75 78 77 79 83 80 76 81 78 82 79 83 80 84
REMARK SMILES IDX 81 85 58 86 59 87 67 88 60 89 62 90 68 91 61 92 63 93 64 94
REMARK SMILES IDX 65 95 66 96
REMARK H PARENT 88 49 56 60
REMARK Flexibility Score: inf
ROOT
ATOM      1  C   UNL A   1      32.141  25.967  23.320  1.00  0.00     0.188 C 
ENDROOT
BRANCH   1   2
ATOM      2  O   UNL A   1      32.681  25.200  24.378  1.00  0.00    -0.377 OA
BRANCH   2   3
ATOM      3  C   UNL A   1      32.573  23.801  24.194  1.00  0.00     0.188 C 
BRANCH   3   4
ATOM      4  C   UNL A   1      33.868  23.057  24.549  1.00  0.00     0.188 C 
BRANCH   4   5
ATOM      5  O   UNL A   1      35.146  23.606  24.213  1.00  0.00    -0.376 OA
BRANCH   5   6
ATOM      6  C   UNL A   1      36.282  22.759  24.276  1.00  0.00     0.202 C 
BRANCH   6   7
ATOM      7  C   UNL A   1      36.734  22.448  25.714  1.00  0.00     0.261 C 
BRANCH   7   8
ATOM      8  O   UNL A   1      38.161  22.263  25.865  1.00  0.00    -0.462 OA
BRANCH   8   9
ATOM      9  C   UNL A   1      38.852  23.287  26.426  1.00  0.00     0.326 C 
ATOM     10  O   UNL A   1      38.542  24.471  26.311  1.00  0.00    -0.250 OA
BRANCH   9  11
ATOM     11  C   UNL A   1      40.075  22.856  27.258  1.00  0.00     0.248 C 
BRANCH  11  12
ATOM     12  N   UNL A   1      41.360  22.431  26.649  1.00  0.00    -0.301 N 
ATOM     13  C   UNL A   1      42.333  23.363  26.241  1.00  0.00     0.022 A 
ATOM     14  C   UNL A   1      43.471  22.936  25.657  1.00  0.00     0.030 A 
ATOM     15  C   UNL A   1      43.732  21.523  25.414  1.00  0.00    -0.011 A 
ATOM     16  C   UNL A   1      41.590  21.040  26.564  1.00  0.00     0.259 A 
ATOM     17  C   UNL A   1      44.879  21.097  24.734  1.00  0.00     0.009 A 
ATOM     18  C   UNL A   1      42.821  20.577  25.875  1.00  0.00     0.047 A 
ATOM     19  O   UNL A   1      40.825  20.187  27.007  1.00  0.00    -0.269 OA
ATOM     20  C   UNL A   1      45.104  19.736  24.508  1.00  0.00     0.001 A 
ATOM     21  C   UNL A   1      43.049  19.210  25.657  1.00  0.00     0.014 A 
ATOM     22  C   UNL A   1      44.189  18.792  24.968  1.00  0.00     0.001 A 
BRANCH  13  23
ATOM     23  C   UNL A   1      42.098  24.842  26.517  1.00  0.00     0.051 C 
ATOM     24  C   UNL A   1      41.968  25.761  25.301  1.00  0.00     0.010 C 
ENDBRANCH  13  23
ENDBRANCH  11  12
ENDBRANCH   9  11
ENDBRANCH   8   9
ENDBRANCH   7   8
ENDBRANCH   6   7
ENDBRANCH   5   6
ENDBRANCH   4   5
ENDBRANCH   3   4
ENDBRANCH   2   3
ENDBRANCH   1   2
BRANCH   1  25
ATOM     25  C   UNL A   1      32.252  27.482  23.533  1.00  0.00     0.188 C 
BRANCH  25  26
ATOM     26  O   UNL A   1      31.354  28.137  24.421  1.00  0.00    -0.376 OA
BRANCH  26  27
ATOM     27  C   UNL A   1      31.786  29.084  25.385  1.00  0.00     0.202 C 
BRANCH  27  28
ATOM     28  C   UNL A   1      33.274  29.381  25.602  1.00  0.00     0.261 C 
BRANCH  28  29
ATOM     29  O   UNL A   1      33.648  29.447  26.984  1.00  0.00    -0.460 OA
BRANCH  29  30
ATOM     30  C   UNL A   1      34.007  30.676  27.432  1.00  0.00     0.338 C 
ATOM     31  O   UNL A   1      33.270  31.634  27.598  1.00  0.00    -0.246 OA
BRANCH  30  32
ATOM     32  C   UNL A   1      35.403  30.628  27.919  1.00  0.00     0.060 A 
ATOM     33  C   UNL A   1      36.206  31.770  27.972  1.00  0.00     0.016 A 
ATOM     34  C   UNL A   1      35.914  29.383  28.307  1.00  0.00     0.016 A 
ATOM     35  C   UNL A   1      37.513  31.667  28.461  1.00  0.00     0.010 A 
ATOM     36  C   UNL A   1      37.227  29.277  28.764  1.00  0.00     0.010 A 
ATOM     37  C   UNL A   1      38.025  30.424  28.875  1.00  0.00    -0.014 A 
BRANCH  37  38
ATOM     38  C   UNL A   1      39.289  30.350  29.643  1.00  0.00     0.031 A 
ATOM     39  C   UNL A   1      40.510  29.655  29.127  1.00  0.00     0.074 A 
ATOM     40  C   UNL A   1      39.280  30.864  30.888  1.00  0.00     0.049 A 
ATOM     41  N   UNL A   1      41.689  29.564  29.686  1.00  0.00    -0.248 NA
ATOM     42  C   UNL A   1      40.400  28.971  27.831  1.00  0.00     0.031 C 
ATOM     43  C   UNL A   1      38.116  31.485  31.526  1.00  0.00     0.029 A 
ATOM     44  N   UNL A   1      40.259  30.926  31.845  1.00  0.00    -0.354 N 
ATOM     45  C   UNL A   1      42.465  28.804  28.822  1.00  0.00     0.074 A 
ATOM     46  C   UNL A   1      41.617  28.452  27.700  1.00  0.00     0.031 C 
ATOM     47  C   UNL A   1      38.445  31.857  32.771  1.00  0.00     0.029 A 
ATOM     48  C   UNL A   1      39.839  31.499  33.019  1.00  0.00     0.049 A 
ATOM     49  H   UNL A   1      41.174  30.591  31.704  1.00  0.00     0.167 HD
ATOM     50  C   UNL A   1      43.767  28.453  28.951  1.00  0.00     0.034 A 
ATOM     51  C   UNL A   1      40.497  31.720  34.173  1.00  0.00     0.034 A 
ATOM     52  C   UNL A   1      44.602  28.816  30.068  1.00  0.00     0.049 A 
ATOM     53  C   UNL A   1      41.944  31.350  34.278  1.00  0.00     0.074 A 
ATOM     54  C   UNL A   1      45.960  28.597  30.230  1.00  0.00     0.029 A 
ATOM     55  N   UNL A   1      44.160  29.444  31.221  1.00  0.00    -0.354 N 
ATOM     56  N   UNL A   1      42.713  30.802  33.370  1.00  0.00    -0.248 NA
ATOM     57  C   UNL A   1      42.622  31.654  35.544  1.00  0.00     0.031 C 
ATOM     58  C   UNL A   1      46.334  29.073  31.491  1.00  0.00     0.029 A 
ATOM     59  C   UNL A   1      45.212  29.603  32.108  1.00  0.00     0.049 A 
ATOM     60  H   UNL A   1      43.235  29.735  31.386  1.00  0.00     0.167 HD
ATOM     61  C   UNL A   1      43.973  30.707  33.948  1.00  0.00     0.074 A 
ATOM     62  C   UNL A   1      43.865  31.270  35.279  1.00  0.00     0.031 C 
ATOM     63  C   UNL A   1      45.108  30.187  33.421  1.00  0.00     0.034 A 
BRANCH  50  64
ATOM     64  C   UNL A   1      44.408  27.681  27.830  1.00  0.00     0.023 A 
ATOM     65  C   UNL A   1      44.481  28.269  26.551  1.00  0.00     0.012 A 
ATOM     66  C   UNL A   1      45.042  26.445  28.062  1.00  0.00     0.148 A 
ATOM     67  C   UNL A   1      45.165  27.635  25.516  1.00  0.00     0.002 A 
ATOM     68  C   UNL A   1      45.745  25.830  27.032  1.00  0.00     0.091 A 
ATOM     69  F   UNL A   1      44.950  25.902  29.284  1.00  0.00    -0.205 F 
ATOM     70  C   UNL A   1      45.805  26.422  25.759  1.00  0.00     0.022 A 
BRANCH  68  71
ATOM     71  S   UNL A   1      46.650  24.294  27.252  1.00  0.00     0.127 S 
ATOM     72  O   UNL A   1      45.614  23.420  27.802  1.00  0.00    -0.237 OA
ATOM     73  O   UNL A   1      47.053  23.975  25.883  1.00  0.00    -0.237 OA
ATOM     74  O   UNL A   1      47.749  24.600  28.157  1.00  0.00    -0.744 OA
ENDBRANCH  68  71
ENDBRANCH  50  64
BRANCH  51  75
ATOM     75  C   UNL A   1      39.778  32.410  35.276  1.00  0.00     0.023 A 
ATOM     76  C   UNL A   1      38.889  31.671  36.078  1.00  0.00     0.012 A 
ATOM     77  C   UNL A   1      40.074  33.744  35.611  1.00  0.00     0.148 A 
ATOM     78  C   UNL A   1      38.305  32.252  37.202  1.00  0.00     0.002 A 
ATOM     79  C   UNL A   1      39.519  34.305  36.754  1.00  0.00     0.091 A 
ATOM     80  F   UNL A   1      40.935  34.415  34.834  1.00  0.00    -0.205 F 
ATOM     81  C   UNL A   1      38.628  33.562  37.547  1.00  0.00     0.022 A 
BRANCH  79  82
ATOM     82  S   UNL A   1      39.959  35.942  37.346  1.00  0.00     0.127 S 
ATOM     83  O   UNL A   1      41.366  35.764  37.695  1.00  0.00    -0.237 OA
ATOM     84  O   UNL A   1      39.716  36.759  36.157  1.00  0.00    -0.237 OA
ATOM     85  O   UNL A   1      39.069  36.213  38.466  1.00  0.00    -0.744 OA
ENDBRANCH  79  82
ENDBRANCH  51  75
BRANCH  63  86
ATOM     86  C   UNL A   1      46.343  30.182  34.279  1.00  0.00     0.023 A 
ATOM     87  C   UNL A   1      47.200  31.299  34.256  1.00  0.00     0.012 A 
ATOM     88  C   UNL A   1      46.591  29.132  35.184  1.00  0.00     0.148 A 
ATOM     89  C   UNL A   1      48.294  31.368  35.118  1.00  0.00     0.002 A 
ATOM     90  C   UNL A   1      47.664  29.223  36.063  1.00  0.00     0.091 A 
ATOM     91  F   UNL A   1      45.767  28.075  35.177  1.00  0.00    -0.205 F 
ATOM     92  C   UNL A   1      48.519  30.337  36.028  1.00  0.00     0.022 A 
BRANCH  90  93
ATOM     93  S   UNL A   1      47.996  27.983  37.320  1.00  0.00     0.127 S 
ATOM     94  O   UNL A   1      49.208  28.511  37.945  1.00  0.00    -0.237 OA
ATOM     95  O   UNL A   1      46.797  28.059  38.153  1.00  0.00    -0.237 OA
ATOM     96  O   UNL A   1      48.165  26.722  36.610  1.00  0.00    -0.744 OA
ENDBRANCH  90  93
ENDBRANCH  63  86
ENDBRANCH  37  38
ENDBRANCH  30  32
ENDBRANCH  29  30
ENDBRANCH  28  29
ENDBRANCH  27  28
ENDBRANCH  26  27
ENDBRANCH  25  26
ENDBRANCH   1  25
TORSDOF 25
ENDMDL
