MODEL 1
REMARK VINA RESULT:      -9.5      0.000      0.000
REMARK SMILES O=C(OCCOCCOCCOCCOC(=O)c1nnn(-c2cccc(C(F)(F)F)c2)c1[C@H]1COc2ccccc2O1)c1ccc(-c2c3nc(c(-c4cccc(S(=O)(=O)[O-])c4F)c4ccc([nH]4)c(-c4cccc(S(=O)(=O)[O-])c4F)c4nc(c(-c5cccc(S(=O)(=O)[O-])c5F)c5ccc2[nH]5)C=C4)C=C3)cc1
REMARK SMILES IDX 8 1 7 2 6 3 5 4 4 5 3 6 2 7 1 8 43 9 44 10 105 11 45 12
REMARK SMILES IDX 104 13 46 14 47 15 48 16 98 17 49 18 103 19 97 20 99 21
REMARK SMILES IDX 50 22 102 23 96 24 95 25 51 27 83 28 63 29 82 30 64 31 67 32
REMARK SMILES IDX 81 33 100 34 65 35 66 36 80 38 101 39 68 40 52 41 53 42
REMARK SMILES IDX 61 43 54 44 56 45 62 46 55 47 57 48 58 49 59 50 60 51 84 52
REMARK SMILES IDX 85 53 93 54 86 55 88 56 94 57 87 58 89 59 90 60 91 61 92 62
REMARK SMILES IDX 69 63 70 64 78 65 71 66 73 67 79 68 72 69 74 70 75 71 76 72
REMARK SMILES IDX 77 73 9 74 10 75 11 76 12 77 13 78 14 79 15 80 16 81 17 82
REMARK SMILES IDX 18 83 19 84 32 85 20 86 21 87 33 88 34 89 42 90 35 91 41 92
REMARK SMILES IDX 36 93 40 94 37 95 39 96 38 97 22 98 23 99 31 100 24 101
REMARK SMILES IDX 26 102 25 103 27 104 28 105 29 106 30 107
REMARK H PARENT 99 26 67 37
REMARK Flexibility Score: inf
ROOT
ATOM      1  C   UNL A   1      32.417  32.138  26.780  1.00  0.00     0.188 C 
ENDROOT
BRANCH   1   2
ATOM      2  C   UNL A   1      32.485  33.431  27.613  1.00  0.00     0.188 C 
BRANCH   2   3
ATOM      3  O   UNL A   1      33.687  33.973  28.132  1.00  0.00    -0.376 OA
BRANCH   3   4
ATOM      4  C   UNL A   1      34.710  33.360  28.888  1.00  0.00     0.202 C 
BRANCH   4   5
ATOM      5  C   UNL A   1      35.710  32.307  28.402  1.00  0.00     0.261 C 
BRANCH   5   6
ATOM      6  O   UNL A   1      35.692  31.047  29.052  1.00  0.00    -0.460 OA
BRANCH   6   7
ATOM      7  C   UNL A   1      36.333  29.908  28.720  1.00  0.00     0.338 C 
ATOM      8  O   UNL A   1      35.684  29.035  28.144  1.00  0.00    -0.246 OA
BRANCH   7   9
ATOM      9  C   UNL A   1      37.746  29.617  29.079  1.00  0.00     0.060 A 
ATOM     10  C   UNL A   1      38.841  30.461  28.874  1.00  0.00     0.016 A 
ATOM     11  C   UNL A   1      37.962  28.355  29.667  1.00  0.00     0.016 A 
ATOM     12  C   UNL A   1      40.122  29.993  29.044  1.00  0.00     0.010 A 
ATOM     13  C   UNL A   1      39.244  27.889  29.874  1.00  0.00     0.010 A 
ATOM     14  C   UNL A   1      40.305  28.686  29.465  1.00  0.00    -0.014 A 
BRANCH  14  15
ATOM     15  C   UNL A   1      41.660  28.188  29.427  1.00  0.00     0.031 A 
ATOM     16  C   UNL A   1      41.869  27.058  28.495  1.00  0.00     0.074 A 
ATOM     17  C   UNL A   1      42.598  28.764  30.199  1.00  0.00     0.049 A 
ATOM     18  N   UNL A   1      42.225  25.849  28.781  1.00  0.00    -0.248 NA
ATOM     19  C   UNL A   1      41.453  27.250  27.099  1.00  0.00     0.031 C 
ATOM     20  C   UNL A   1      42.465  30.011  30.960  1.00  0.00     0.029 A 
ATOM     21  N   UNL A   1      43.915  28.457  30.328  1.00  0.00    -0.354 N 
ATOM     22  C   UNL A   1      42.335  25.205  27.550  1.00  0.00     0.074 A 
ATOM     23  C   UNL A   1      41.626  26.025  26.608  1.00  0.00     0.031 C 
ATOM     24  C   UNL A   1      43.696  30.500  31.211  1.00  0.00     0.029 A 
ATOM     25  C   UNL A   1      44.680  29.544  30.737  1.00  0.00     0.049 A 
ATOM     26  H   UNL A   1      44.288  27.562  30.152  1.00  0.00     0.167 HD
ATOM     27  C   UNL A   1      43.281  24.243  27.357  1.00  0.00     0.034 A 
ATOM     28  C   UNL A   1      46.014  29.695  30.569  1.00  0.00     0.034 A 
ATOM     29  C   UNL A   1      43.698  23.674  28.620  1.00  0.00     0.049 A 
ATOM     30  C   UNL A   1      46.587  28.350  30.332  1.00  0.00     0.074 A 
ATOM     31  C   UNL A   1      43.064  23.047  29.674  1.00  0.00     0.029 A 
ATOM     32  N   UNL A   1      44.937  24.041  29.090  1.00  0.00    -0.354 N 
ATOM     33  N   UNL A   1      46.630  27.413  31.237  1.00  0.00    -0.248 NA
ATOM     34  C   UNL A   1      46.740  27.897  28.959  1.00  0.00     0.031 C 
ATOM     35  C   UNL A   1      43.784  23.449  30.839  1.00  0.00     0.029 A 
ATOM     36  C   UNL A   1      44.847  24.258  30.434  1.00  0.00     0.049 A 
ATOM     37  H   UNL A   1      45.752  24.132  28.546  1.00  0.00     0.167 HD
ATOM     38  C   UNL A   1      46.344  26.246  30.539  1.00  0.00     0.074 A 
ATOM     39  C   UNL A   1      46.562  26.586  29.136  1.00  0.00     0.031 C 
ATOM     40  C   UNL A   1      45.668  25.220  31.138  1.00  0.00     0.034 A 
BRANCH  27  41
ATOM     41  C   UNL A   1      44.187  24.184  26.127  1.00  0.00     0.023 A 
ATOM     42  C   UNL A   1      44.387  22.903  25.558  1.00  0.00     0.012 A 
ATOM     43  C   UNL A   1      45.095  25.195  25.729  1.00  0.00     0.148 A 
ATOM     44  C   UNL A   1      45.519  22.606  24.792  1.00  0.00     0.002 A 
ATOM     45  C   UNL A   1      46.199  24.905  24.938  1.00  0.00     0.091 A 
ATOM     46  F   UNL A   1      44.957  26.445  26.161  1.00  0.00    -0.205 F 
ATOM     47  C   UNL A   1      46.441  23.602  24.504  1.00  0.00     0.022 A 
BRANCH  45  48
ATOM     48  S   UNL A   1      47.415  26.164  24.514  1.00  0.00     0.127 S 
ATOM     49  O   UNL A   1      48.109  26.330  25.788  1.00  0.00    -0.237 OA
ATOM     50  O   UNL A   1      48.183  25.488  23.469  1.00  0.00    -0.237 OA
ATOM     51  O   UNL A   1      46.657  27.319  24.051  1.00  0.00    -0.744 OA
ENDBRANCH  45  48
ENDBRANCH  27  41
BRANCH  28  52
ATOM     52  C   UNL A   1      46.778  30.940  30.330  1.00  0.00     0.023 A 
ATOM     53  C   UNL A   1      47.713  31.370  31.290  1.00  0.00     0.012 A 
ATOM     54  C   UNL A   1      46.778  31.581  29.068  1.00  0.00     0.148 A 
ATOM     55  C   UNL A   1      48.632  32.383  30.997  1.00  0.00     0.002 A 
ATOM     56  C   UNL A   1      47.677  32.606  28.791  1.00  0.00     0.091 A 
ATOM     57  F   UNL A   1      45.966  31.127  28.105  1.00  0.00    -0.205 F 
ATOM     58  C   UNL A   1      48.616  33.000  29.749  1.00  0.00     0.022 A 
BRANCH  56  59
ATOM     59  S   UNL A   1      47.698  33.449  27.202  1.00  0.00     0.127 S 
ATOM     60  O   UNL A   1      47.437  32.351  26.270  1.00  0.00    -0.237 OA
ATOM     61  O   UNL A   1      46.602  34.402  27.347  1.00  0.00    -0.237 OA
ATOM     62  O   UNL A   1      49.032  34.027  27.079  1.00  0.00    -0.744 OA
ENDBRANCH  56  59
ENDBRANCH  28  52
BRANCH  40  63
ATOM     63  C   UNL A   1      45.538  25.233  32.639  1.00  0.00     0.023 A 
ATOM     64  C   UNL A   1      46.528  24.696  33.488  1.00  0.00     0.012 A 
ATOM     65  C   UNL A   1      44.466  25.941  33.209  1.00  0.00     0.148 A 
ATOM     66  C   UNL A   1      46.431  24.833  34.875  1.00  0.00     0.002 A 
ATOM     67  C   UNL A   1      44.398  26.116  34.585  1.00  0.00     0.091 A 
ATOM     68  F   UNL A   1      43.533  26.452  32.389  1.00  0.00    -0.205 F 
ATOM     69  C   UNL A   1      45.373  25.554  35.423  1.00  0.00     0.022 A 
BRANCH  67  70
ATOM     70  S   UNL A   1      43.130  27.143  35.331  1.00  0.00     0.127 S 
ATOM     71  O   UNL A   1      43.309  28.411  34.628  1.00  0.00    -0.237 OA
ATOM     72  O   UNL A   1      41.900  26.424  34.992  1.00  0.00    -0.237 OA
ATOM     73  O   UNL A   1      43.428  27.164  36.758  1.00  0.00    -0.744 OA
ENDBRANCH  67  70
ENDBRANCH  40  63
ENDBRANCH  14  15
ENDBRANCH   7   9
ENDBRANCH   6   7
ENDBRANCH   5   6
ENDBRANCH   4   5
ENDBRANCH   3   4
ENDBRANCH   2   3
ENDBRANCH   1   2
BRANCH   1  74
ATOM     74  O   UNL A   1      32.613  30.920  27.480  1.00  0.00    -0.377 OA
BRANCH  74  75
ATOM     75  C   UNL A   1      32.891  29.823  26.636  1.00  0.00     0.188 C 
BRANCH  75  76
ATOM     76  C   UNL A   1      32.019  29.751  25.365  1.00  0.00     0.188 C 
BRANCH  76  77
ATOM     77  O   UNL A   1      30.967  28.806  25.206  1.00  0.00    -0.376 OA
BRANCH  77  78
ATOM     78  C   UNL A   1      31.218  27.413  25.123  1.00  0.00     0.202 C 
BRANCH  78  79
ATOM     79  C   UNL A   1      31.029  26.559  26.374  1.00  0.00     0.261 C 
BRANCH  79  80
ATOM     80  O   UNL A   1      31.952  25.475  26.492  1.00  0.00    -0.458 OA
BRANCH  80  81
ATOM     81  C   UNL A   1      31.422  24.259  26.797  1.00  0.00     0.361 C 
ATOM     82  O   UNL A   1      30.229  24.019  26.942  1.00  0.00    -0.244 OA
BRANCH  81  83
ATOM     83  C   UNL A   1      32.454  23.242  26.876  1.00  0.00     0.198 A 
ATOM     84  N   UNL A   1      32.749  22.536  28.021  1.00  0.00    -0.122 NA
ATOM     85  C   UNL A   1      33.270  22.798  25.854  1.00  0.00     0.123 A 
ATOM     86  N   UNL A   1      33.723  21.677  27.741  1.00  0.00    -0.061 NA
ATOM     87  N   UNL A   1      34.142  21.941  26.489  1.00  0.00    -0.213 N 
BRANCH  85  88
ATOM     88  C   UNL A   1      33.349  23.147  24.404  1.00  0.00     0.262 C 
ATOM     89  C   UNL A   1      31.969  23.156  23.738  1.00  0.00     0.281 C 
ATOM     90  O   UNL A   1      34.019  24.409  24.358  1.00  0.00    -0.477 OA
ATOM     91  O   UNL A   1      32.072  23.628  22.387  1.00  0.00    -0.485 OA
ATOM     92  C   UNL A   1      33.582  25.242  23.371  1.00  0.00     0.162 A 
ATOM     93  C   UNL A   1      32.661  24.865  22.396  1.00  0.00     0.161 A 
ATOM     94  C   UNL A   1      34.087  26.540  23.399  1.00  0.00     0.050 A 
ATOM     95  C   UNL A   1      32.292  25.766  21.402  1.00  0.00     0.050 A 
ATOM     96  C   UNL A   1      33.670  27.464  22.445  1.00  0.00     0.004 A 
ATOM     97  C   UNL A   1      32.788  27.072  21.437  1.00  0.00     0.004 A 
ENDBRANCH  85  88
BRANCH  87  98
ATOM     98  C   UNL A   1      35.477  21.734  26.115  1.00  0.00     0.067 A 
ATOM     99  C   UNL A   1      35.823  20.754  25.193  1.00  0.00     0.028 A 
ATOM    100  C   UNL A   1      36.418  22.647  26.608  1.00  0.00     0.041 A 
ATOM    101  C   UNL A   1      37.124  20.761  24.689  1.00  0.00     0.003 A 
ATOM    102  C   UNL A   1      37.714  22.666  26.100  1.00  0.00     0.058 A 
ATOM    103  C   UNL A   1      38.055  21.720  25.123  1.00  0.00     0.013 A 
BRANCH 102 104
ATOM    104  C   UNL A   1      38.674  23.736  26.553  1.00  0.00     0.416 C 
ATOM    105  F   UNL A   1      38.233  24.419  27.642  1.00  0.00    -0.166 F 
ATOM    106  F   UNL A   1      39.889  23.224  26.890  1.00  0.00    -0.166 F 
ATOM    107  F   UNL A   1      38.922  24.677  25.597  1.00  0.00    -0.166 F 
ENDBRANCH 102 104
ENDBRANCH  87  98
ENDBRANCH  81  83
ENDBRANCH  80  81
ENDBRANCH  79  80
ENDBRANCH  78  79
ENDBRANCH  77  78
ENDBRANCH  76  77
ENDBRANCH  75  76
ENDBRANCH  74  75
ENDBRANCH   1  74
TORSDOF 26
ENDMDL
MODEL 2
REMARK VINA RESULT:      -9.2      2.690      7.201
REMARK SMILES O=C(OCCOCCOCCOCCOC(=O)c1nnn(-c2cccc(C(F)(F)F)c2)c1[C@H]1COc2ccccc2O1)c1ccc(-c2c3nc(c(-c4cccc(S(=O)(=O)[O-])c4F)c4ccc([nH]4)c(-c4cccc(S(=O)(=O)[O-])c4F)c4nc(c(-c5cccc(S(=O)(=O)[O-])c5F)c5ccc2[nH]5)C=C4)C=C3)cc1
REMARK SMILES IDX 8 1 7 2 6 3 5 4 4 5 3 6 2 7 1 8 43 9 44 10 105 11 45 12
REMARK SMILES IDX 104 13 46 14 47 15 48 16 98 17 49 18 103 19 97 20 99 21
REMARK SMILES IDX 50 22 102 23 96 24 95 25 51 27 83 28 63 29 82 30 64 31 67 32
REMARK SMILES IDX 81 33 100 34 65 35 66 36 80 38 101 39 68 40 52 41 53 42
REMARK SMILES IDX 61 43 54 44 56 45 62 46 55 47 57 48 58 49 59 50 60 51 84 52
REMARK SMILES IDX 85 53 93 54 86 55 88 56 94 57 87 58 89 59 90 60 91 61 92 62
REMARK SMILES IDX 69 63 70 64 78 65 71 66 73 67 79 68 72 69 74 70 75 71 76 72
REMARK SMILES IDX 77 73 9 74 10 75 11 76 12 77 13 78 14 79 15 80 16 81 17 82
REMARK SMILES IDX 18 83 19 84 32 85 20 86 21 87 33 88 34 89 42 90 35 91 41 92
REMARK SMILES IDX 36 93 40 94 37 95 39 96 38 97 22 98 23 99 31 100 24 101
REMARK SMILES IDX 26 102 25 103 27 104 28 105 29 106 30 107
REMARK H PARENT 99 26 67 37
REMARK Flexibility Score: inf
ROOT
ATOM      1  C   UNL A   1      32.853  27.446  26.097  1.00  0.00     0.188 C 
ENDROOT
BRANCH   1   2
ATOM      2  C   UNL A   1      32.616  28.890  25.619  1.00  0.00     0.188 C 
BRANCH   2   3
ATOM      3  O   UNL A   1      33.372  30.003  26.064  1.00  0.00    -0.376 OA
BRANCH   3   4
ATOM      4  C   UNL A   1      33.573  30.504  27.368  1.00  0.00     0.202 C 
BRANCH   4   5
ATOM      5  C   UNL A   1      34.790  31.282  27.879  1.00  0.00     0.261 C 
BRANCH   5   6
ATOM      6  O   UNL A   1      35.038  31.255  29.274  1.00  0.00    -0.460 OA
BRANCH   6   7
ATOM      7  C   UNL A   1      36.204  31.404  29.935  1.00  0.00     0.338 C 
ATOM      8  O   UNL A   1      36.348  32.419  30.616  1.00  0.00    -0.246 OA
BRANCH   7   9
ATOM      9  C   UNL A   1      37.347  30.460  29.823  1.00  0.00     0.060 A 
ATOM     10  C   UNL A   1      37.333  29.103  30.156  1.00  0.00     0.016 A 
ATOM     11  C   UNL A   1      38.543  31.030  29.344  1.00  0.00     0.016 A 
ATOM     12  C   UNL A   1      38.506  28.389  30.219  1.00  0.00     0.010 A 
ATOM     13  C   UNL A   1      39.720  30.310  29.369  1.00  0.00     0.010 A 
ATOM     14  C   UNL A   1      39.693  29.028  29.901  1.00  0.00    -0.014 A 
BRANCH  14  15
ATOM     15  C   UNL A   1      40.906  28.295  30.181  1.00  0.00     0.031 A 
ATOM     16  C   UNL A   1      41.413  28.459  31.562  1.00  0.00     0.074 A 
ATOM     17  C   UNL A   1      41.461  27.541  29.217  1.00  0.00     0.049 A 
ATOM     18  N   UNL A   1      42.531  28.988  31.939  1.00  0.00    -0.248 NA
ATOM     19  C   UNL A   1      40.482  28.168  32.660  1.00  0.00     0.031 C 
ATOM     20  C   UNL A   1      40.866  27.193  27.922  1.00  0.00     0.029 A 
ATOM     21  N   UNL A   1      42.590  26.786  29.257  1.00  0.00    -0.354 N 
ATOM     22  C   UNL A   1      42.548  28.843  33.325  1.00  0.00     0.074 A 
ATOM     23  C   UNL A   1      41.193  28.569  33.713  1.00  0.00     0.031 C 
ATOM     24  C   UNL A   1      41.475  26.089  27.447  1.00  0.00     0.029 A 
ATOM     25  C   UNL A   1      42.565  25.740  28.339  1.00  0.00     0.049 A 
ATOM     26  H   UNL A   1      43.343  26.960  29.867  1.00  0.00     0.167 HD
ATOM     27  C   UNL A   1      43.722  28.624  33.981  1.00  0.00     0.034 A 
ATOM     28  C   UNL A   1      43.301  24.606  28.397  1.00  0.00     0.034 A 
ATOM     29  C   UNL A   1      44.844  29.084  33.191  1.00  0.00     0.049 A 
ATOM     30  C   UNL A   1      44.453  24.868  29.290  1.00  0.00     0.074 A 
ATOM     31  C   UNL A   1      45.218  30.282  32.616  1.00  0.00     0.029 A 
ATOM     32  N   UNL A   1      45.619  28.120  32.591  1.00  0.00    -0.354 N 
ATOM     33  N   UNL A   1      45.422  25.690  28.999  1.00  0.00    -0.248 NA
ATOM     34  C   UNL A   1      44.324  24.531  30.699  1.00  0.00     0.031 C 
ATOM     35  C   UNL A   1      45.886  29.928  31.406  1.00  0.00     0.029 A 
ATOM     36  C   UNL A   1      45.931  28.535  31.328  1.00  0.00     0.049 A 
ATOM     37  H   UNL A   1      45.902  27.273  33.003  1.00  0.00     0.167 HD
ATOM     38  C   UNL A   1      45.709  26.325  30.201  1.00  0.00     0.074 A 
ATOM     39  C   UNL A   1      45.106  25.476  31.226  1.00  0.00     0.031 C 
ATOM     40  C   UNL A   1      46.135  27.623  30.223  1.00  0.00     0.034 A 
BRANCH  27  41
ATOM     41  C   UNL A   1      43.902  27.555  35.059  1.00  0.00     0.023 A 
ATOM     42  C   UNL A   1      44.525  27.974  36.259  1.00  0.00     0.012 A 
ATOM     43  C   UNL A   1      43.830  26.157  34.845  1.00  0.00     0.148 A 
ATOM     44  C   UNL A   1      45.192  27.074  37.096  1.00  0.00     0.002 A 
ATOM     45  C   UNL A   1      44.461  25.261  35.699  1.00  0.00     0.091 A 
ATOM     46  F   UNL A   1      43.212  25.660  33.778  1.00  0.00    -0.205 F 
ATOM     47  C   UNL A   1      45.183  25.718  36.802  1.00  0.00     0.022 A 
BRANCH  45  48
ATOM     48  S   UNL A   1      44.463  23.489  35.377  1.00  0.00     0.127 S 
ATOM     49  O   UNL A   1      45.103  22.980  36.587  1.00  0.00    -0.237 OA
ATOM     50  O   UNL A   1      43.031  23.212  35.265  1.00  0.00    -0.237 OA
ATOM     51  O   UNL A   1      45.209  23.303  34.140  1.00  0.00    -0.744 OA
ENDBRANCH  45  48
ENDBRANCH  27  41
BRANCH  28  52
ATOM     52  C   UNL A   1      42.930  23.243  27.953  1.00  0.00     0.023 A 
ATOM     53  C   UNL A   1      41.721  22.679  28.399  1.00  0.00     0.012 A 
ATOM     54  C   UNL A   1      43.626  22.587  26.909  1.00  0.00     0.148 A 
ATOM     55  C   UNL A   1      41.208  21.517  27.811  1.00  0.00     0.002 A 
ATOM     56  C   UNL A   1      43.126  21.418  26.346  1.00  0.00     0.091 A 
ATOM     57  F   UNL A   1      44.727  23.155  26.401  1.00  0.00    -0.205 F 
ATOM     58  C   UNL A   1      41.908  20.887  26.785  1.00  0.00     0.022 A 
BRANCH  56  59
ATOM     59  S   UNL A   1      43.988  20.552  25.026  1.00  0.00     0.127 S 
ATOM     60  O   UNL A   1      45.238  20.165  25.681  1.00  0.00    -0.237 OA
ATOM     61  O   UNL A   1      43.078  19.446  24.742  1.00  0.00    -0.237 OA
ATOM     62  O   UNL A   1      44.156  21.529  23.957  1.00  0.00    -0.744 OA
ENDBRANCH  56  59
ENDBRANCH  28  52
BRANCH  40  63
ATOM     63  C   UNL A   1      46.609  28.239  28.931  1.00  0.00     0.023 A 
ATOM     64  C   UNL A   1      45.734  28.900  28.045  1.00  0.00     0.012 A 
ATOM     65  C   UNL A   1      47.991  28.285  28.682  1.00  0.00     0.148 A 
ATOM     66  C   UNL A   1      46.226  29.562  26.918  1.00  0.00     0.002 A 
ATOM     67  C   UNL A   1      48.480  28.985  27.587  1.00  0.00     0.091 A 
ATOM     68  F   UNL A   1      48.813  27.655  29.538  1.00  0.00    -0.205 F 
ATOM     69  C   UNL A   1      47.600  29.615  26.695  1.00  0.00     0.022 A 
BRANCH  67  70
ATOM     70  S   UNL A   1      50.243  29.192  27.327  1.00  0.00     0.127 S 
ATOM     71  O   UNL A   1      50.607  30.103  28.409  1.00  0.00    -0.237 OA
ATOM     72  O   UNL A   1      50.749  27.827  27.480  1.00  0.00    -0.237 OA
ATOM     73  O   UNL A   1      50.382  29.726  25.978  1.00  0.00    -0.744 OA
ENDBRANCH  67  70
ENDBRANCH  40  63
ENDBRANCH  14  15
ENDBRANCH   7   9
ENDBRANCH   6   7
ENDBRANCH   5   6
ENDBRANCH   4   5
ENDBRANCH   3   4
ENDBRANCH   2   3
ENDBRANCH   1   2
BRANCH   1  74
ATOM     74  O   UNL A   1      31.849  26.875  26.921  1.00  0.00    -0.377 OA
BRANCH  74  75
ATOM     75  C   UNL A   1      31.468  25.575  26.528  1.00  0.00     0.188 C 
BRANCH  75  76
ATOM     76  C   UNL A   1      30.061  25.478  25.901  1.00  0.00     0.188 C 
BRANCH  76  77
ATOM     77  O   UNL A   1      29.822  25.666  24.511  1.00  0.00    -0.376 OA
BRANCH  77  78
ATOM     78  C   UNL A   1      29.795  26.956  23.925  1.00  0.00     0.202 C 
BRANCH  78  79
ATOM     79  C   UNL A   1      30.872  27.320  22.905  1.00  0.00     0.261 C 
BRANCH  79  80
ATOM     80  O   UNL A   1      30.673  26.750  21.610  1.00  0.00    -0.458 OA
BRANCH  80  81
ATOM     81  C   UNL A   1      31.741  26.110  21.060  1.00  0.00     0.361 C 
ATOM     82  O   UNL A   1      31.844  25.781  19.884  1.00  0.00    -0.244 OA
BRANCH  81  83
ATOM     83  C   UNL A   1      32.793  25.911  22.038  1.00  0.00     0.198 A 
ATOM     84  N   UNL A   1      33.753  26.852  22.335  1.00  0.00    -0.122 NA
ATOM     85  C   UNL A   1      32.995  24.800  22.834  1.00  0.00     0.123 A 
ATOM     86  N   UNL A   1      34.543  26.358  23.282  1.00  0.00    -0.061 NA
ATOM     87  N   UNL A   1      34.187  25.072  23.469  1.00  0.00    -0.213 N 
BRANCH  85  88
ATOM     88  C   UNL A   1      32.238  23.522  22.991  1.00  0.00     0.262 C 
ATOM     89  C   UNL A   1      32.607  22.498  21.912  1.00  0.00     0.281 C 
ATOM     90  O   UNL A   1      32.517  23.082  24.323  1.00  0.00    -0.477 OA
ATOM     91  O   UNL A   1      31.965  21.243  22.177  1.00  0.00    -0.485 OA
ATOM     92  C   UNL A   1      32.602  21.728  24.461  1.00  0.00     0.162 A 
ATOM     93  C   UNL A   1      32.310  20.829  23.438  1.00  0.00     0.161 A 
ATOM     94  C   UNL A   1      33.039  21.267  25.700  1.00  0.00     0.050 A 
ATOM     95  C   UNL A   1      32.389  19.459  23.671  1.00  0.00     0.050 A 
ATOM     96  C   UNL A   1      33.182  19.899  25.917  1.00  0.00     0.004 A 
ATOM     97  C   UNL A   1      32.840  18.996  24.910  1.00  0.00     0.004 A 
ENDBRANCH  85  88
BRANCH  87  98
ATOM     98  C   UNL A   1      35.131  24.109  23.849  1.00  0.00     0.067 A 
ATOM     99  C   UNL A   1      35.449  23.044  23.015  1.00  0.00     0.028 A 
ATOM    100  C   UNL A   1      35.832  24.348  25.038  1.00  0.00     0.041 A 
ATOM    101  C   UNL A   1      36.559  22.265  23.344  1.00  0.00     0.003 A 
ATOM    102  C   UNL A   1      36.947  23.582  25.364  1.00  0.00     0.058 A 
ATOM    103  C   UNL A   1      37.313  22.543  24.496  1.00  0.00     0.013 A 
BRANCH 102 104
ATOM    104  C   UNL A   1      37.760  23.935  26.583  1.00  0.00     0.416 C 
ATOM    105  F   UNL A   1      38.281  25.189  26.529  1.00  0.00    -0.166 F 
ATOM    106  F   UNL A   1      37.024  23.876  27.725  1.00  0.00    -0.166 F 
ATOM    107  F   UNL A   1      38.820  23.099  26.784  1.00  0.00    -0.166 F 
ENDBRANCH 102 104
ENDBRANCH  87  98
ENDBRANCH  81  83
ENDBRANCH  80  81
ENDBRANCH  79  80
ENDBRANCH  78  79
ENDBRANCH  77  78
ENDBRANCH  76  77
ENDBRANCH  75  76
ENDBRANCH  74  75
ENDBRANCH   1  74
TORSDOF 26
ENDMDL
MODEL 3
REMARK VINA RESULT:      -8.2      3.540      7.716
REMARK SMILES O=C(OCCOCCOCCOCCOC(=O)c1nnn(-c2cccc(C(F)(F)F)c2)c1[C@H]1COc2ccccc2O1)c1ccc(-c2c3nc(c(-c4cccc(S(=O)(=O)[O-])c4F)c4ccc([nH]4)c(-c4cccc(S(=O)(=O)[O-])c4F)c4nc(c(-c5cccc(S(=O)(=O)[O-])c5F)c5ccc2[nH]5)C=C4)C=C3)cc1
REMARK SMILES IDX 8 1 7 2 6 3 5 4 4 5 3 6 2 7 1 8 43 9 44 10 105 11 45 12
REMARK SMILES IDX 104 13 46 14 47 15 48 16 98 17 49 18 103 19 97 20 99 21
REMARK SMILES IDX 50 22 102 23 96 24 95 25 51 27 83 28 63 29 82 30 64 31 67 32
REMARK SMILES IDX 81 33 100 34 65 35 66 36 80 38 101 39 68 40 52 41 53 42
REMARK SMILES IDX 61 43 54 44 56 45 62 46 55 47 57 48 58 49 59 50 60 51 84 52
REMARK SMILES IDX 85 53 93 54 86 55 88 56 94 57 87 58 89 59 90 60 91 61 92 62
REMARK SMILES IDX 69 63 70 64 78 65 71 66 73 67 79 68 72 69 74 70 75 71 76 72
REMARK SMILES IDX 77 73 9 74 10 75 11 76 12 77 13 78 14 79 15 80 16 81 17 82
REMARK SMILES IDX 18 83 19 84 32 85 20 86 21 87 33 88 34 89 42 90 35 91 41 92
REMARK SMILES IDX 36 93 40 94 37 95 39 96 38 97 22 98 23 99 31 100 24 101
REMARK SMILES IDX 26 102 25 103 27 104 28 105 29 106 30 107
REMARK H PARENT 99 26 67 37
REMARK Flexibility Score: inf
ROOT
ATOM      1  C   UNL A   1      37.766  31.123  28.915  1.00  0.00     0.188 C 
ENDROOT
BRANCH   1   2
ATOM      2  C   UNL A   1      38.105  32.617  28.753  1.00  0.00     0.188 C 
BRANCH   2   3
ATOM      3  O   UNL A   1      37.313  33.667  29.280  1.00  0.00    -0.376 OA
BRANCH   3   4
ATOM      4  C   UNL A   1      37.595  34.592  30.308  1.00  0.00     0.202 C 
BRANCH   4   5
ATOM      5  C   UNL A   1      37.529  34.340  31.818  1.00  0.00     0.261 C 
BRANCH   5   6
ATOM      6  O   UNL A   1      38.477  33.441  32.367  1.00  0.00    -0.460 OA
BRANCH   6   7
ATOM      7  C   UNL A   1      38.283  32.213  32.890  1.00  0.00     0.338 C 
ATOM      8  O   UNL A   1      37.220  32.004  33.474  1.00  0.00    -0.246 OA
BRANCH   7   9
ATOM      9  C   UNL A   1      39.304  31.133  32.873  1.00  0.00     0.060 A 
ATOM     10  C   UNL A   1      40.689  31.305  32.930  1.00  0.00     0.016 A 
ATOM     11  C   UNL A   1      38.785  29.826  32.775  1.00  0.00     0.016 A 
ATOM     12  C   UNL A   1      41.533  30.249  32.684  1.00  0.00     0.010 A 
ATOM     13  C   UNL A   1      39.626  28.754  32.563  1.00  0.00     0.010 A 
ATOM     14  C   UNL A   1      40.985  29.003  32.424  1.00  0.00    -0.014 A 
BRANCH  14  15
ATOM     15  C   UNL A   1      41.903  27.984  31.972  1.00  0.00     0.031 A 
ATOM     16  C   UNL A   1      42.856  27.520  33.004  1.00  0.00     0.074 A 
ATOM     17  C   UNL A   1      41.827  27.541  30.705  1.00  0.00     0.049 A 
ATOM     18  N   UNL A   1      44.144  27.629  33.000  1.00  0.00    -0.248 NA
ATOM     19  C   UNL A   1      42.294  27.045  34.275  1.00  0.00     0.031 C 
ATOM     20  C   UNL A   1      40.762  27.825  29.736  1.00  0.00     0.029 A 
ATOM     21  N   UNL A   1      42.585  26.607  30.072  1.00  0.00    -0.354 N 
ATOM     22  C   UNL A   1      44.563  26.984  34.163  1.00  0.00     0.074 A 
ATOM     23  C   UNL A   1      43.399  26.874  34.997  1.00  0.00     0.031 C 
ATOM     24  C   UNL A   1      40.777  26.873  28.783  1.00  0.00     0.029 A 
ATOM     25  C   UNL A   1      41.914  26.002  29.014  1.00  0.00     0.049 A 
ATOM     26  H   UNL A   1      43.508  26.384  30.333  1.00  0.00     0.167 HD
ATOM     27  C   UNL A   1      45.742  26.301  34.186  1.00  0.00     0.034 A 
ATOM     28  C   UNL A   1      42.205  24.800  28.464  1.00  0.00     0.034 A 
ATOM     29  C   UNL A   1      46.630  26.776  33.147  1.00  0.00     0.049 A 
ATOM     30  C   UNL A   1      43.602  24.471  28.827  1.00  0.00     0.074 A 
ATOM     31  C   UNL A   1      47.174  27.996  32.799  1.00  0.00     0.029 A 
ATOM     32  N   UNL A   1      46.797  25.962  32.051  1.00  0.00    -0.354 N 
ATOM     33  N   UNL A   1      44.639  25.121  28.380  1.00  0.00    -0.248 NA
ATOM     34  C   UNL A   1      43.834  23.674  30.021  1.00  0.00     0.031 C 
ATOM     35  C   UNL A   1      47.252  27.981  31.374  1.00  0.00     0.029 A 
ATOM     36  C   UNL A   1      46.800  26.738  30.928  1.00  0.00     0.049 A 
ATOM     37  H   UNL A   1      46.899  24.984  32.074  1.00  0.00     0.167 HD
ATOM     38  C   UNL A   1      45.496  25.195  29.470  1.00  0.00     0.074 A 
ATOM     39  C   UNL A   1      45.014  24.173  30.396  1.00  0.00     0.031 C 
ATOM     40  C   UNL A   1      46.315  26.276  29.645  1.00  0.00     0.034 A 
BRANCH  27  41
ATOM     41  C   UNL A   1      45.894  24.898  34.774  1.00  0.00     0.023 A 
ATOM     42  C   UNL A   1      45.098  23.884  34.187  1.00  0.00     0.012 A 
ATOM     43  C   UNL A   1      46.467  24.594  36.032  1.00  0.00     0.148 A 
ATOM     44  C   UNL A   1      44.748  22.725  34.888  1.00  0.00     0.002 A 
ATOM     45  C   UNL A   1      46.148  23.425  36.710  1.00  0.00     0.091 A 
ATOM     46  F   UNL A   1      47.279  25.456  36.638  1.00  0.00    -0.205 F 
ATOM     47  C   UNL A   1      45.252  22.507  36.162  1.00  0.00     0.022 A 
BRANCH  45  48
ATOM     48  S   UNL A   1      46.791  23.080  38.356  1.00  0.00     0.127 S 
ATOM     49  O   UNL A   1      46.153  24.135  39.138  1.00  0.00    -0.237 OA
ATOM     50  O   UNL A   1      46.279  21.731  38.594  1.00  0.00    -0.237 OA
ATOM     51  O   UNL A   1      48.242  23.162  38.249  1.00  0.00    -0.744 OA
ENDBRANCH  45  48
ENDBRANCH  27  41
BRANCH  28  52
ATOM     52  C   UNL A   1      41.276  23.805  27.881  1.00  0.00     0.023 A 
ATOM     53  C   UNL A   1      40.015  24.228  27.420  1.00  0.00     0.012 A 
ATOM     54  C   UNL A   1      41.701  22.496  27.552  1.00  0.00     0.148 A 
ATOM     55  C   UNL A   1      39.217  23.387  26.637  1.00  0.00     0.002 A 
ATOM     56  C   UNL A   1      40.893  21.655  26.795  1.00  0.00     0.091 A 
ATOM     57  F   UNL A   1      42.935  22.105  27.896  1.00  0.00    -0.205 F 
ATOM     58  C   UNL A   1      39.654  22.102  26.323  1.00  0.00     0.022 A 
BRANCH  56  59
ATOM     59  S   UNL A   1      41.396  19.983  26.367  1.00  0.00     0.127 S 
ATOM     60  O   UNL A   1      40.159  19.421  25.822  1.00  0.00    -0.237 OA
ATOM     61  O   UNL A   1      42.445  20.223  25.380  1.00  0.00    -0.237 OA
ATOM     62  O   UNL A   1      41.827  19.367  27.616  1.00  0.00    -0.744 OA
ENDBRANCH  56  59
ENDBRANCH  28  52
BRANCH  40  63
ATOM     63  C   UNL A   1      46.519  27.211  28.481  1.00  0.00     0.023 A 
ATOM     64  C   UNL A   1      45.596  28.227  28.159  1.00  0.00     0.012 A 
ATOM     65  C   UNL A   1      47.742  27.161  27.792  1.00  0.00     0.148 A 
ATOM     66  C   UNL A   1      45.875  29.151  27.149  1.00  0.00     0.002 A 
ATOM     67  C   UNL A   1      48.036  28.110  26.821  1.00  0.00     0.091 A 
ATOM     68  F   UNL A   1      48.614  26.191  28.113  1.00  0.00    -0.205 F 
ATOM     69  C   UNL A   1      47.100  29.099  26.487  1.00  0.00     0.022 A 
BRANCH  67  70
ATOM     70  S   UNL A   1      49.647  28.167  26.034  1.00  0.00     0.127 S 
ATOM     71  O   UNL A   1      49.396  27.472  24.773  1.00  0.00    -0.237 OA
ATOM     72  O   UNL A   1      49.886  29.605  25.902  1.00  0.00    -0.237 OA
ATOM     73  O   UNL A   1      50.559  27.498  26.953  1.00  0.00    -0.744 OA
ENDBRANCH  67  70
ENDBRANCH  40  63
ENDBRANCH  14  15
ENDBRANCH   7   9
ENDBRANCH   6   7
ENDBRANCH   5   6
ENDBRANCH   4   5
ENDBRANCH   3   4
ENDBRANCH   2   3
ENDBRANCH   1   2
BRANCH   1  74
ATOM     74  O   UNL A   1      36.476  30.815  29.419  1.00  0.00    -0.377 OA
BRANCH  74  75
ATOM     75  C   UNL A   1      35.937  29.620  28.898  1.00  0.00     0.188 C 
BRANCH  75  76
ATOM     76  C   UNL A   1      34.902  29.817  27.770  1.00  0.00     0.188 C 
BRANCH  76  77
ATOM     77  O   UNL A   1      33.999  28.794  27.367  1.00  0.00    -0.376 OA
BRANCH  77  78
ATOM     78  C   UNL A   1      34.226  28.010  26.208  1.00  0.00     0.202 C 
BRANCH  78  79
ATOM     79  C   UNL A   1      33.456  26.701  26.046  1.00  0.00     0.261 C 
BRANCH  79  80
ATOM     80  O   UNL A   1      34.235  25.527  26.285  1.00  0.00    -0.458 OA
BRANCH  80  81
ATOM     81  C   UNL A   1      34.640  24.835  25.185  1.00  0.00     0.361 C 
ATOM     82  O   UNL A   1      35.159  25.325  24.188  1.00  0.00    -0.244 OA
BRANCH  81  83
ATOM     83  C   UNL A   1      34.434  23.409  25.357  1.00  0.00     0.198 A 
ATOM     84  N   UNL A   1      35.421  22.534  25.750  1.00  0.00    -0.122 NA
ATOM     85  C   UNL A   1      33.255  22.709  25.193  1.00  0.00     0.123 A 
ATOM     86  N   UNL A   1      34.893  21.318  25.828  1.00  0.00    -0.061 NA
ATOM     87  N   UNL A   1      33.639  21.395  25.344  1.00  0.00    -0.213 N 
BRANCH  85  88
ATOM     88  C   UNL A   1      31.867  23.140  24.847  1.00  0.00     0.262 C 
ATOM     89  C   UNL A   1      31.161  23.811  26.031  1.00  0.00     0.281 C 
ATOM     90  O   UNL A   1      32.011  23.988  23.705  1.00  0.00    -0.477 OA
ATOM     91  O   UNL A   1      29.889  24.331  25.621  1.00  0.00    -0.485 OA
ATOM     92  C   UNL A   1      31.128  25.026  23.661  1.00  0.00     0.162 A 
ATOM     93  C   UNL A   1      30.080  25.186  24.567  1.00  0.00     0.161 A 
ATOM     94  C   UNL A   1      31.343  25.970  22.660  1.00  0.00     0.050 A 
ATOM     95  C   UNL A   1      29.201  26.256  24.432  1.00  0.00     0.050 A 
ATOM     96  C   UNL A   1      30.505  27.077  22.563  1.00  0.00     0.004 A 
ATOM     97  C   UNL A   1      29.425  27.210  23.436  1.00  0.00     0.004 A 
ENDBRANCH  85  88
BRANCH  87  98
ATOM     98  C   UNL A   1      33.051  20.308  24.683  1.00  0.00     0.067 A 
ATOM     99  C   UNL A   1      32.456  20.457  23.436  1.00  0.00     0.028 A 
ATOM    100  C   UNL A   1      33.214  19.048  25.274  1.00  0.00     0.041 A 
ATOM    101  C   UNL A   1      32.108  19.303  22.735  1.00  0.00     0.003 A 
ATOM    102  C   UNL A   1      32.880  17.893  24.574  1.00  0.00     0.058 A 
ATOM    103  C   UNL A   1      32.336  18.032  23.289  1.00  0.00     0.013 A 
BRANCH 102 104
ATOM    104  C   UNL A   1      33.179  16.545  25.179  1.00  0.00     0.416 C 
ATOM    105  F   UNL A   1      33.004  15.520  24.304  1.00  0.00    -0.166 F 
ATOM    106  F   UNL A   1      34.463  16.455  25.620  1.00  0.00    -0.166 F 
ATOM    107  F   UNL A   1      32.398  16.253  26.258  1.00  0.00    -0.166 F 
ENDBRANCH 102 104
ENDBRANCH  87  98
ENDBRANCH  81  83
ENDBRANCH  80  81
ENDBRANCH  79  80
ENDBRANCH  78  79
ENDBRANCH  77  78
ENDBRANCH  76  77
ENDBRANCH  75  76
ENDBRANCH  74  75
ENDBRANCH   1  74
TORSDOF 26
ENDMDL
