MODEL 1
REMARK VINA RESULT:      -8.7      0.000      0.000
REMARK SMILES O=C(Cc1ccccc1Nc1c(Cl)cccc1C(F)(F)F)OCCOCCOCCOCCOC(=O)c1ccc(-c2c3nc(c(-c4cccc(S(=O)(=O)[O-])c4F)c4ccc([nH]4)c(-c4cccc(S(=O)(=O)[O-])c4F)c4nc(c(-c5cccc(S(=O)(=O)[O-])c5F)c5ccc2[nH]5)C=C4)C=C3)cc1
REMARK SMILES IDX 27 1 26 2 25 3 24 4 23 5 22 6 2 7 1 8 3 9 4 10 5 11 9 12
REMARK SMILES IDX 6 13 8 14 7 15 10 16 11 18 12 19 17 20 13 21 14 22 16 23
REMARK SMILES IDX 15 24 18 25 19 26 20 27 21 28 28 29 29 30 30 31 31 32 32 33
REMARK SMILES IDX 33 34 34 35 35 36 36 37 37 38 38 39 99 40 39 41 98 42 40 43
REMARK SMILES IDX 41 44 42 45 92 46 43 47 97 48 91 49 93 50 44 51 96 52 90 53
REMARK SMILES IDX 89 54 45 56 77 57 57 58 76 59 58 60 61 61 75 62 94 63 59 64
REMARK SMILES IDX 60 65 74 67 95 68 62 69 46 70 47 71 55 72 48 73 50 74 56 75
REMARK SMILES IDX 49 76 51 77 52 78 53 79 54 80 78 81 79 82 87 83 80 84 82 85
REMARK SMILES IDX 88 86 81 87 83 88 84 89 85 90 86 91 63 92 64 93 72 94 65 95
REMARK SMILES IDX 67 96 73 97 66 98 68 99 69 100 70 101 71 102
REMARK H PARENT 10 17 93 55 61 66
REMARK Flexibility Score: inf
ROOT
ATOM      1  C   UNL A   1      39.667  26.543  28.392  1.00  0.00     0.188 C 
ENDROOT
BRANCH   1   2
ATOM      2  C   UNL A   1      40.435  26.255  27.102  1.00  0.00     0.188 C 
BRANCH   2   3
ATOM      3  O   UNL A   1      39.975  25.175  26.303  1.00  0.00    -0.376 OA
BRANCH   3   4
ATOM      4  C   UNL A   1      39.109  24.138  26.735  1.00  0.00     0.202 C 
BRANCH   4   5
ATOM      5  C   UNL A   1      37.679  24.036  26.224  1.00  0.00     0.261 C 
BRANCH   5   6
ATOM      6  O   UNL A   1      37.466  23.797  24.821  1.00  0.00    -0.463 OA
BRANCH   6   7
ATOM      7  C   UNL A   1      36.465  23.138  24.212  1.00  0.00     0.310 C 
ATOM      8  O   UNL A   1      36.690  22.045  23.692  1.00  0.00    -0.252 OA
BRANCH   7   9
ATOM      9  C   UNL A   1      35.136  23.810  24.008  1.00  0.00     0.160 C 
BRANCH   9  10
ATOM     10  C   UNL A   1      34.131  23.650  25.109  1.00  0.00    -0.013 A 
ATOM     11  C   UNL A   1      34.128  22.482  25.893  1.00  0.00     0.006 A 
ATOM     12  C   UNL A   1      33.228  24.689  25.408  1.00  0.00     0.042 A 
ATOM     13  C   UNL A   1      33.171  22.283  26.879  1.00  0.00     0.000 A 
ATOM     14  C   UNL A   1      32.211  24.422  26.332  1.00  0.00     0.026 A 
ATOM     15  C   UNL A   1      32.178  23.231  27.060  1.00  0.00     0.002 A 
BRANCH  12  16
ATOM     16  N   UNL A   1      33.421  25.976  24.865  1.00  0.00    -0.354 N 
ATOM     17  H   UNL A   1      34.363  26.248  24.786  1.00  0.00     0.167 HD
BRANCH  16  18
ATOM     18  C   UNL A   1      32.500  26.940  24.416  1.00  0.00     0.070 A 
ATOM     19  C   UNL A   1      32.109  27.958  25.317  1.00  0.00     0.065 A 
ATOM     20  C   UNL A   1      31.995  26.963  23.106  1.00  0.00     0.080 A 
ATOM     21  Cl  UNL A   1      32.584  27.896  26.984  1.00  0.00    -0.082 Cl
ATOM     22  C   UNL A   1      31.326  29.031  24.902  1.00  0.00     0.023 A 
ATOM     23  C   UNL A   1      31.234  28.075  22.693  1.00  0.00     0.015 A 
ATOM     24  C   UNL A   1      30.915  29.106  23.578  1.00  0.00     0.002 A 
BRANCH  20  25
ATOM     25  C   UNL A   1      32.166  25.811  22.139  1.00  0.00     0.418 C 
ATOM     26  F   UNL A   1      31.514  26.050  20.959  1.00  0.00    -0.166 F 
ATOM     27  F   UNL A   1      33.462  25.601  21.780  1.00  0.00    -0.166 F 
ATOM     28  F   UNL A   1      31.672  24.618  22.565  1.00  0.00    -0.166 F 
ENDBRANCH  20  25
ENDBRANCH  16  18
ENDBRANCH  12  16
ENDBRANCH   9  10
ENDBRANCH   7   9
ENDBRANCH   6   7
ENDBRANCH   5   6
ENDBRANCH   4   5
ENDBRANCH   3   4
ENDBRANCH   2   3
ENDBRANCH   1   2
BRANCH   1  29
ATOM     29  O   UNL A   1      39.518  27.923  28.691  1.00  0.00    -0.377 OA
BRANCH  29  30
ATOM     30  C   UNL A   1      38.178  28.386  28.652  1.00  0.00     0.188 C 
BRANCH  30  31
ATOM     31  C   UNL A   1      37.952  29.668  27.822  1.00  0.00     0.188 C 
BRANCH  31  32
ATOM     32  O   UNL A   1      36.886  30.561  28.099  1.00  0.00    -0.376 OA
BRANCH  32  33
ATOM     33  C   UNL A   1      35.559  30.264  27.705  1.00  0.00     0.202 C 
BRANCH  33  34
ATOM     34  C   UNL A   1      34.455  31.331  27.574  1.00  0.00     0.261 C 
BRANCH  34  35
ATOM     35  O   UNL A   1      34.858  32.703  27.614  1.00  0.00    -0.460 OA
BRANCH  35  36
ATOM     36  C   UNL A   1      34.380  33.428  28.653  1.00  0.00     0.338 C 
ATOM     37  O   UNL A   1      33.300  33.992  28.716  1.00  0.00    -0.246 OA
BRANCH  36  38
ATOM     38  C   UNL A   1      35.277  33.234  29.817  1.00  0.00     0.060 A 
ATOM     39  C   UNL A   1      36.457  33.991  29.858  1.00  0.00     0.016 A 
ATOM     40  C   UNL A   1      34.949  32.379  30.874  1.00  0.00     0.016 A 
ATOM     41  C   UNL A   1      37.332  33.865  30.932  1.00  0.00     0.010 A 
ATOM     42  C   UNL A   1      35.849  32.224  31.935  1.00  0.00     0.010 A 
ATOM     43  C   UNL A   1      37.064  32.934  31.941  1.00  0.00    -0.014 A 
BRANCH  43  44
ATOM     44  C   UNL A   1      38.184  32.539  32.827  1.00  0.00     0.031 A 
ATOM     45  C   UNL A   1      39.330  31.782  32.210  1.00  0.00     0.074 A 
ATOM     46  C   UNL A   1      38.237  32.923  34.114  1.00  0.00     0.049 A 
ATOM     47  N   UNL A   1      40.460  31.407  32.745  1.00  0.00    -0.248 NA
ATOM     48  C   UNL A   1      39.182  31.405  30.792  1.00  0.00     0.031 C 
ATOM     49  C   UNL A   1      37.196  33.666  34.820  1.00  0.00     0.029 A 
ATOM     50  N   UNL A   1      39.214  32.727  35.057  1.00  0.00    -0.354 N 
ATOM     51  C   UNL A   1      41.154  30.748  31.737  1.00  0.00     0.074 A 
ATOM     52  C   UNL A   1      40.307  30.747  30.566  1.00  0.00     0.031 C 
ATOM     53  C   UNL A   1      37.580  33.842  36.099  1.00  0.00     0.029 A 
ATOM     54  C   UNL A   1      38.886  33.214  36.299  1.00  0.00     0.049 A 
ATOM     55  H   UNL A   1      40.069  32.279  34.862  1.00  0.00     0.167 HD
ATOM     56  C   UNL A   1      42.396  30.212  31.771  1.00  0.00     0.034 A 
ATOM     57  C   UNL A   1      39.559  33.145  37.466  1.00  0.00     0.034 A 
ATOM     58  C   UNL A   1      43.239  30.212  32.935  1.00  0.00     0.049 A 
ATOM     59  C   UNL A   1      40.928  32.511  37.488  1.00  0.00     0.074 A 
ATOM     60  C   UNL A   1      44.517  29.704  33.071  1.00  0.00     0.029 A 
ATOM     61  N   UNL A   1      42.882  30.733  34.169  1.00  0.00    -0.354 N 
ATOM     62  N   UNL A   1      41.614  31.988  36.500  1.00  0.00    -0.248 NA
ATOM     63  C   UNL A   1      41.632  32.500  38.777  1.00  0.00     0.031 C 
ATOM     64  C   UNL A   1      44.925  29.894  34.396  1.00  0.00     0.029 A 
ATOM     65  C   UNL A   1      43.914  30.555  35.075  1.00  0.00     0.049 A 
ATOM     66  H   UNL A   1      42.022  31.167  34.371  1.00  0.00     0.167 HD
ATOM     67  C   UNL A   1      42.839  31.611  37.042  1.00  0.00     0.074 A 
ATOM     68  C   UNL A   1      42.812  32.002  38.437  1.00  0.00     0.031 C 
ATOM     69  C   UNL A   1      43.886  30.984  36.449  1.00  0.00     0.034 A 
BRANCH  56  70
ATOM     70  C   UNL A   1      42.924  29.601  30.500  1.00  0.00     0.023 A 
ATOM     71  C   UNL A   1      42.705  28.231  30.243  1.00  0.00     0.012 A 
ATOM     72  C   UNL A   1      43.593  30.386  29.543  1.00  0.00     0.148 A 
ATOM     73  C   UNL A   1      43.168  27.648  29.065  1.00  0.00     0.002 A 
ATOM     74  C   UNL A   1      44.010  29.808  28.351  1.00  0.00     0.091 A 
ATOM     75  F   UNL A   1      43.814  31.679  29.819  1.00  0.00    -0.205 F 
ATOM     76  C   UNL A   1      43.810  28.438  28.115  1.00  0.00     0.022 A 
BRANCH  74  77
ATOM     77  S   UNL A   1      44.777  30.752  27.030  1.00  0.00     0.127 S 
ATOM     78  O   UNL A   1      45.739  31.568  27.771  1.00  0.00    -0.237 OA
ATOM     79  O   UNL A   1      45.375  29.699  26.210  1.00  0.00    -0.237 OA
ATOM     80  O   UNL A   1      43.702  31.493  26.385  1.00  0.00    -0.744 OA
ENDBRANCH  74  77
ENDBRANCH  56  70
BRANCH  57  81
ATOM     81  C   UNL A   1      38.957  33.699  38.712  1.00  0.00     0.023 A 
ATOM     82  C   UNL A   1      39.371  34.953  39.202  1.00  0.00     0.012 A 
ATOM     83  C   UNL A   1      37.978  32.976  39.421  1.00  0.00     0.148 A 
ATOM     84  C   UNL A   1      38.850  35.457  40.396  1.00  0.00     0.002 A 
ATOM     85  C   UNL A   1      37.418  33.511  40.574  1.00  0.00     0.091 A 
ATOM     86  F   UNL A   1      37.612  31.775  38.950  1.00  0.00    -0.205 F 
ATOM     87  C   UNL A   1      37.867  34.742  41.075  1.00  0.00     0.022 A 
BRANCH  85  88
ATOM     88  S   UNL A   1      36.052  32.723  41.432  1.00  0.00     0.127 S 
ATOM     89  O   UNL A   1      36.697  31.541  41.999  1.00  0.00    -0.237 OA
ATOM     90  O   UNL A   1      35.677  33.749  42.404  1.00  0.00    -0.237 OA
ATOM     91  O   UNL A   1      35.044  32.468  40.412  1.00  0.00    -0.744 OA
ENDBRANCH  85  88
ENDBRANCH  57  81
BRANCH  69  92
ATOM     92  C   UNL A   1      45.102  30.709  37.298  1.00  0.00     0.023 A 
ATOM     93  C   UNL A   1      46.064  31.719  37.498  1.00  0.00     0.012 A 
ATOM     94  C   UNL A   1      45.272  29.460  37.930  1.00  0.00     0.148 A 
ATOM     95  C   UNL A   1      47.202  31.474  38.268  1.00  0.00     0.002 A 
ATOM     96  C   UNL A   1      46.380  29.241  38.738  1.00  0.00     0.091 A 
ATOM     97  F   UNL A   1      44.355  28.505  37.718  1.00  0.00    -0.205 F 
ATOM     98  C   UNL A   1      47.354  30.241  38.894  1.00  0.00     0.022 A 
BRANCH  96  99
ATOM     99  S   UNL A   1      46.610  27.718  39.662  1.00  0.00     0.127 S 
ATOM    100  O   UNL A   1      46.386  26.708  38.629  1.00  0.00    -0.237 OA
ATOM    101  O   UNL A   1      47.997  27.833  40.113  1.00  0.00    -0.237 OA
ATOM    102  O   UNL A   1      45.625  27.749  40.735  1.00  0.00    -0.744 OA
ENDBRANCH  96  99
ENDBRANCH  69  92
ENDBRANCH  43  44
ENDBRANCH  36  38
ENDBRANCH  35  36
ENDBRANCH  34  35
ENDBRANCH  33  34
ENDBRANCH  32  33
ENDBRANCH  31  32
ENDBRANCH  30  31
ENDBRANCH  29  30
ENDBRANCH   1  29
TORSDOF 27
ENDMDL
MODEL 2
REMARK VINA RESULT:      -8.3      2.177      2.555
REMARK SMILES O=C(Cc1ccccc1Nc1c(Cl)cccc1C(F)(F)F)OCCOCCOCCOCCOC(=O)c1ccc(-c2c3nc(c(-c4cccc(S(=O)(=O)[O-])c4F)c4ccc([nH]4)c(-c4cccc(S(=O)(=O)[O-])c4F)c4nc(c(-c5cccc(S(=O)(=O)[O-])c5F)c5ccc2[nH]5)C=C4)C=C3)cc1
REMARK SMILES IDX 27 1 26 2 25 3 24 4 23 5 22 6 2 7 1 8 3 9 4 10 5 11 9 12
REMARK SMILES IDX 6 13 8 14 7 15 10 16 11 18 12 19 17 20 13 21 14 22 16 23
REMARK SMILES IDX 15 24 18 25 19 26 20 27 21 28 28 29 29 30 30 31 31 32 32 33
REMARK SMILES IDX 33 34 34 35 35 36 36 37 37 38 38 39 99 40 39 41 98 42 40 43
REMARK SMILES IDX 41 44 42 45 92 46 43 47 97 48 91 49 93 50 44 51 96 52 90 53
REMARK SMILES IDX 89 54 45 56 77 57 57 58 76 59 58 60 61 61 75 62 94 63 59 64
REMARK SMILES IDX 60 65 74 67 95 68 62 69 46 70 47 71 55 72 48 73 50 74 56 75
REMARK SMILES IDX 49 76 51 77 52 78 53 79 54 80 78 81 79 82 87 83 80 84 82 85
REMARK SMILES IDX 88 86 81 87 83 88 84 89 85 90 86 91 63 92 64 93 72 94 65 95
REMARK SMILES IDX 67 96 73 97 66 98 68 99 69 100 70 101 71 102
REMARK H PARENT 10 17 93 55 61 66
REMARK Flexibility Score: inf
ROOT
ATOM      1  C   UNL A   1      39.718  26.274  28.591  1.00  0.00     0.188 C 
ENDROOT
BRANCH   1   2
ATOM      2  C   UNL A   1      40.536  26.020  27.325  1.00  0.00     0.188 C 
BRANCH   2   3
ATOM      3  O   UNL A   1      40.065  25.009  26.444  1.00  0.00    -0.376 OA
BRANCH   3   4
ATOM      4  C   UNL A   1      39.202  23.941  26.798  1.00  0.00     0.202 C 
BRANCH   4   5
ATOM      5  C   UNL A   1      37.739  23.933  26.379  1.00  0.00     0.261 C 
BRANCH   5   6
ATOM      6  O   UNL A   1      37.420  23.671  25.001  1.00  0.00    -0.463 OA
BRANCH   6   7
ATOM      7  C   UNL A   1      36.302  23.145  24.472  1.00  0.00     0.310 C 
ATOM      8  O   UNL A   1      36.332  22.008  24.001  1.00  0.00    -0.252 OA
BRANCH   7   9
ATOM      9  C   UNL A   1      35.080  24.002  24.291  1.00  0.00     0.160 C 
BRANCH   9  10
ATOM     10  C   UNL A   1      34.003  23.858  25.325  1.00  0.00    -0.013 A 
ATOM     11  C   UNL A   1      34.016  22.759  26.202  1.00  0.00     0.006 A 
ATOM     12  C   UNL A   1      33.013  24.849  25.467  1.00  0.00     0.042 A 
ATOM     13  C   UNL A   1      33.000  22.570  27.129  1.00  0.00     0.000 A 
ATOM     14  C   UNL A   1      31.945  24.583  26.333  1.00  0.00     0.026 A 
ATOM     15  C   UNL A   1      31.934  23.455  27.155  1.00  0.00     0.002 A 
BRANCH  12  16
ATOM     16  N   UNL A   1      33.162  26.099  24.833  1.00  0.00    -0.354 N 
ATOM     17  H   UNL A   1      34.084  26.444  24.824  1.00  0.00     0.167 HD
BRANCH  16  18
ATOM     18  C   UNL A   1      32.223  26.940  24.209  1.00  0.00     0.070 A 
ATOM     19  C   UNL A   1      31.892  26.683  22.858  1.00  0.00     0.065 A 
ATOM     20  C   UNL A   1      31.569  27.986  24.880  1.00  0.00     0.080 A 
ATOM     21  Cl  UNL A   1      32.771  25.504  21.940  1.00  0.00    -0.082 Cl
ATOM     22  C   UNL A   1      30.863  27.370  22.220  1.00  0.00     0.023 A 
ATOM     23  C   UNL A   1      30.506  28.647  24.232  1.00  0.00     0.015 A 
ATOM     24  C   UNL A   1      30.147  28.332  22.921  1.00  0.00     0.002 A 
BRANCH  20  25
ATOM     25  C   UNL A   1      32.004  28.490  26.239  1.00  0.00     0.418 C 
ATOM     26  F   UNL A   1      31.547  27.676  27.242  1.00  0.00    -0.166 F 
ATOM     27  F   UNL A   1      33.356  28.505  26.397  1.00  0.00    -0.166 F 
ATOM     28  F   UNL A   1      31.550  29.728  26.573  1.00  0.00    -0.166 F 
ENDBRANCH  20  25
ENDBRANCH  16  18
ENDBRANCH  12  16
ENDBRANCH   9  10
ENDBRANCH   7   9
ENDBRANCH   6   7
ENDBRANCH   5   6
ENDBRANCH   4   5
ENDBRANCH   3   4
ENDBRANCH   2   3
ENDBRANCH   1   2
BRANCH   1  29
ATOM     29  O   UNL A   1      39.595  27.644  28.945  1.00  0.00    -0.377 OA
BRANCH  29  30
ATOM     30  C   UNL A   1      38.278  28.159  28.830  1.00  0.00     0.188 C 
BRANCH  30  31
ATOM     31  C   UNL A   1      38.144  29.422  27.953  1.00  0.00     0.188 C 
BRANCH  31  32
ATOM     32  O   UNL A   1      37.115  30.376  28.166  1.00  0.00    -0.376 OA
BRANCH  32  33
ATOM     33  C   UNL A   1      35.816  30.181  27.640  1.00  0.00     0.202 C 
BRANCH  33  34
ATOM     34  C   UNL A   1      34.771  31.308  27.526  1.00  0.00     0.261 C 
BRANCH  34  35
ATOM     35  O   UNL A   1      35.240  32.655  27.642  1.00  0.00    -0.460 OA
BRANCH  35  36
ATOM     36  C   UNL A   1      34.753  33.360  28.689  1.00  0.00     0.338 C 
ATOM     37  O   UNL A   1      33.671  33.919  28.755  1.00  0.00    -0.246 OA
BRANCH  36  38
ATOM     38  C   UNL A   1      35.643  33.150  29.856  1.00  0.00     0.060 A 
ATOM     39  C   UNL A   1      36.813  33.920  29.925  1.00  0.00     0.016 A 
ATOM     40  C   UNL A   1      35.318  32.266  30.890  1.00  0.00     0.016 A 
ATOM     41  C   UNL A   1      37.680  33.780  31.003  1.00  0.00     0.010 A 
ATOM     42  C   UNL A   1      36.211  32.097  31.954  1.00  0.00     0.010 A 
ATOM     43  C   UNL A   1      37.417  32.822  31.987  1.00  0.00    -0.014 A 
BRANCH  43  44
ATOM     44  C   UNL A   1      38.535  32.421  32.873  1.00  0.00     0.031 A 
ATOM     45  C   UNL A   1      39.628  31.573  32.278  1.00  0.00     0.074 A 
ATOM     46  C   UNL A   1      38.634  32.871  34.135  1.00  0.00     0.049 A 
ATOM     47  N   UNL A   1      40.750  31.172  32.812  1.00  0.00    -0.248 NA
ATOM     48  C   UNL A   1      39.431  31.127  30.886  1.00  0.00     0.031 C 
ATOM     49  C   UNL A   1      37.647  33.704  34.818  1.00  0.00     0.029 A 
ATOM     50  N   UNL A   1      39.620  32.679  35.069  1.00  0.00    -0.354 N 
ATOM     51  C   UNL A   1      41.388  30.424  31.830  1.00  0.00     0.074 A 
ATOM     52  C   UNL A   1      40.517  30.401  30.677  1.00  0.00     0.031 C 
ATOM     53  C   UNL A   1      38.066  33.930  36.077  1.00  0.00     0.029 A 
ATOM     54  C   UNL A   1      39.343  33.249  36.288  1.00  0.00     0.049 A 
ATOM     55  H   UNL A   1      40.447  32.178  34.884  1.00  0.00     0.167 HD
ATOM     56  C   UNL A   1      42.602  29.828  31.871  1.00  0.00     0.034 A 
ATOM     57  C   UNL A   1      40.036  33.210  37.444  1.00  0.00     0.034 A 
ATOM     58  C   UNL A   1      43.469  29.849  33.017  1.00  0.00     0.049 A 
ATOM     59  C   UNL A   1      41.373  32.510  37.476  1.00  0.00     0.074 A 
ATOM     60  C   UNL A   1      44.723  29.285  33.157  1.00  0.00     0.029 A 
ATOM     61  N   UNL A   1      43.165  30.455  34.226  1.00  0.00    -0.354 N 
ATOM     62  N   UNL A   1      42.011  31.899  36.506  1.00  0.00    -0.248 NA
ATOM     63  C   UNL A   1      42.103  32.534  38.751  1.00  0.00     0.031 C 
ATOM     64  C   UNL A   1      45.168  29.528  34.462  1.00  0.00     0.029 A 
ATOM     65  C   UNL A   1      44.206  30.275  35.121  1.00  0.00     0.049 A 
ATOM     66  H   UNL A   1      42.331  30.942  34.420  1.00  0.00     0.167 HD
ATOM     67  C   UNL A   1      43.227  31.491  37.046  1.00  0.00     0.074 A 
ATOM     68  C   UNL A   1      43.250  31.959  38.416  1.00  0.00     0.031 C 
ATOM     69  C   UNL A   1      44.228  30.780  36.469  1.00  0.00     0.034 A 
BRANCH  56  70
ATOM     70  C   UNL A   1      43.072  29.122  30.627  1.00  0.00     0.023 A 
ATOM     71  C   UNL A   1      42.832  27.740  30.478  1.00  0.00     0.012 A 
ATOM     72  C   UNL A   1      43.706  29.830  29.588  1.00  0.00     0.148 A 
ATOM     73  C   UNL A   1      43.242  27.069  29.328  1.00  0.00     0.002 A 
ATOM     74  C   UNL A   1      44.069  29.163  28.425  1.00  0.00     0.091 A 
ATOM     75  F   UNL A   1      43.948  31.137  29.761  1.00  0.00    -0.205 F 
ATOM     76  C   UNL A   1      43.849  27.781  28.297  1.00  0.00     0.022 A 
BRANCH  74  77
ATOM     77  S   UNL A   1      44.787  30.002  27.009  1.00  0.00     0.127 S 
ATOM     78  O   UNL A   1      43.775  31.019  26.724  1.00  0.00    -0.237 OA
ATOM     79  O   UNL A   1      46.035  30.522  27.564  1.00  0.00    -0.237 OA
ATOM     80  O   UNL A   1      44.953  28.986  25.978  1.00  0.00    -0.744 OA
ENDBRANCH  74  77
ENDBRANCH  56  70
BRANCH  57  81
ATOM     81  C   UNL A   1      39.490  33.862  38.668  1.00  0.00     0.023 A 
ATOM     82  C   UNL A   1      38.707  33.121  39.576  1.00  0.00     0.012 A 
ATOM     83  C   UNL A   1      39.737  35.223  38.929  1.00  0.00     0.148 A 
ATOM     84  C   UNL A   1      38.149  33.736  40.699  1.00  0.00     0.002 A 
ATOM     85  C   UNL A   1      39.230  35.813  40.081  1.00  0.00     0.091 A 
ATOM     86  F   UNL A   1      40.466  35.917  38.043  1.00  0.00    -0.205 F 
ATOM     87  C   UNL A   1      38.419  35.076  40.956  1.00  0.00     0.022 A 
BRANCH  85  88
ATOM     88  S   UNL A   1      39.643  37.493  40.559  1.00  0.00     0.127 S 
ATOM     89  O   UNL A   1      38.844  38.277  39.621  1.00  0.00    -0.237 OA
ATOM     90  O   UNL A   1      39.182  37.531  41.947  1.00  0.00    -0.237 OA
ATOM     91  O   UNL A   1      41.087  37.601  40.405  1.00  0.00    -0.744 OA
ENDBRANCH  85  88
ENDBRANCH  57  81
BRANCH  69  92
ATOM     92  C   UNL A   1      45.447  30.491  37.309  1.00  0.00     0.023 A 
ATOM     93  C   UNL A   1      45.499  29.321  38.095  1.00  0.00     0.012 A 
ATOM     94  C   UNL A   1      46.558  31.358  37.291  1.00  0.00     0.148 A 
ATOM     95  C   UNL A   1      46.613  29.048  38.889  1.00  0.00     0.002 A 
ATOM     96  C   UNL A   1      47.686  31.051  38.043  1.00  0.00     0.091 A 
ATOM     97  F   UNL A   1      46.488  32.473  36.550  1.00  0.00    -0.205 F 
ATOM     98  C   UNL A   1      47.708  29.907  38.856  1.00  0.00     0.022 A 
BRANCH  96  99
ATOM     99  S   UNL A   1      49.180  32.048  37.987  1.00  0.00     0.127 S 
ATOM    100  O   UNL A   1      49.945  31.500  39.105  1.00  0.00    -0.237 OA
ATOM    101  O   UNL A   1      49.717  31.729  36.665  1.00  0.00    -0.237 OA
ATOM    102  O   UNL A   1      48.743  33.430  38.142  1.00  0.00    -0.744 OA
ENDBRANCH  96  99
ENDBRANCH  69  92
ENDBRANCH  43  44
ENDBRANCH  36  38
ENDBRANCH  35  36
ENDBRANCH  34  35
ENDBRANCH  33  34
ENDBRANCH  32  33
ENDBRANCH  31  32
ENDBRANCH  30  31
ENDBRANCH  29  30
ENDBRANCH   1  29
TORSDOF 27
ENDMDL
MODEL 3
REMARK VINA RESULT:      -8.2      2.179      7.249
REMARK SMILES O=C(Cc1ccccc1Nc1c(Cl)cccc1C(F)(F)F)OCCOCCOCCOCCOC(=O)c1ccc(-c2c3nc(c(-c4cccc(S(=O)(=O)[O-])c4F)c4ccc([nH]4)c(-c4cccc(S(=O)(=O)[O-])c4F)c4nc(c(-c5cccc(S(=O)(=O)[O-])c5F)c5ccc2[nH]5)C=C4)C=C3)cc1
REMARK SMILES IDX 27 1 26 2 25 3 24 4 23 5 22 6 2 7 1 8 3 9 4 10 5 11 9 12
REMARK SMILES IDX 6 13 8 14 7 15 10 16 11 18 12 19 17 20 13 21 14 22 16 23
REMARK SMILES IDX 15 24 18 25 19 26 20 27 21 28 28 29 29 30 30 31 31 32 32 33
REMARK SMILES IDX 33 34 34 35 35 36 36 37 37 38 38 39 99 40 39 41 98 42 40 43
REMARK SMILES IDX 41 44 42 45 92 46 43 47 97 48 91 49 93 50 44 51 96 52 90 53
REMARK SMILES IDX 89 54 45 56 77 57 57 58 76 59 58 60 61 61 75 62 94 63 59 64
REMARK SMILES IDX 60 65 74 67 95 68 62 69 46 70 47 71 55 72 48 73 50 74 56 75
REMARK SMILES IDX 49 76 51 77 52 78 53 79 54 80 78 81 79 82 87 83 80 84 82 85
REMARK SMILES IDX 88 86 81 87 83 88 84 89 85 90 86 91 63 92 64 93 72 94 65 95
REMARK SMILES IDX 67 96 73 97 66 98 68 99 69 100 70 101 71 102
REMARK H PARENT 10 17 93 55 61 66
REMARK Flexibility Score: inf
ROOT
ATOM      1  C   UNL A   1      39.500  26.474  28.582  1.00  0.00     0.188 C 
ENDROOT
BRANCH   1   2
ATOM      2  C   UNL A   1      39.702  26.276  27.080  1.00  0.00     0.188 C 
BRANCH   2   3
ATOM      3  O   UNL A   1      39.585  24.951  26.581  1.00  0.00    -0.376 OA
BRANCH   3   4
ATOM      4  C   UNL A   1      38.509  24.063  26.840  1.00  0.00     0.202 C 
BRANCH   4   5
ATOM      5  C   UNL A   1      37.230  24.107  26.016  1.00  0.00     0.261 C 
BRANCH   5   6
ATOM      6  O   UNL A   1      37.296  23.744  24.625  1.00  0.00    -0.463 OA
BRANCH   6   7
ATOM      7  C   UNL A   1      36.322  23.289  23.818  1.00  0.00     0.310 C 
ATOM      8  O   UNL A   1      36.591  22.994  22.654  1.00  0.00    -0.252 OA
BRANCH   7   9
ATOM      9  C   UNL A   1      34.891  23.318  24.276  1.00  0.00     0.160 C 
BRANCH   9  10
ATOM     10  C   UNL A   1      34.165  22.006  24.282  1.00  0.00    -0.013 A 
ATOM     11  C   UNL A   1      34.705  20.909  24.978  1.00  0.00     0.006 A 
ATOM     12  C   UNL A   1      32.913  21.879  23.650  1.00  0.00     0.042 A 
ATOM     13  C   UNL A   1      34.084  19.667  24.951  1.00  0.00     0.000 A 
ATOM     14  C   UNL A   1      32.361  20.597  23.548  1.00  0.00     0.026 A 
ATOM     15  C   UNL A   1      32.939  19.498  24.188  1.00  0.00     0.002 A 
BRANCH  12  16
ATOM     16  N   UNL A   1      32.207  23.027  23.234  1.00  0.00    -0.354 N 
ATOM     17  H   UNL A   1      31.895  22.997  22.301  1.00  0.00     0.167 HD
BRANCH  16  18
ATOM     18  C   UNL A   1      31.870  24.208  23.920  1.00  0.00     0.070 A 
ATOM     19  C   UNL A   1      31.231  24.089  25.176  1.00  0.00     0.065 A 
ATOM     20  C   UNL A   1      32.183  25.488  23.436  1.00  0.00     0.080 A 
ATOM     21  Cl  UNL A   1      30.691  22.545  25.752  1.00  0.00    -0.082 Cl
ATOM     22  C   UNL A   1      31.006  25.201  25.983  1.00  0.00     0.023 A 
ATOM     23  C   UNL A   1      31.982  26.599  24.280  1.00  0.00     0.015 A 
ATOM     24  C   UNL A   1      31.413  26.454  25.546  1.00  0.00     0.002 A 
BRANCH  20  25
ATOM     25  C   UNL A   1      32.655  25.740  22.020  1.00  0.00     0.418 C 
ATOM     26  F   UNL A   1      31.610  26.066  21.197  1.00  0.00    -0.166 F 
ATOM     27  F   UNL A   1      33.512  26.792  21.921  1.00  0.00    -0.166 F 
ATOM     28  F   UNL A   1      33.251  24.681  21.410  1.00  0.00    -0.166 F 
ENDBRANCH  20  25
ENDBRANCH  16  18
ENDBRANCH  12  16
ENDBRANCH   9  10
ENDBRANCH   7   9
ENDBRANCH   6   7
ENDBRANCH   5   6
ENDBRANCH   4   5
ENDBRANCH   3   4
ENDBRANCH   2   3
ENDBRANCH   1   2
BRANCH   1  29
ATOM     29  O   UNL A   1      39.367  27.830  28.983  1.00  0.00    -0.377 OA
BRANCH  29  30
ATOM     30  C   UNL A   1      38.076  28.376  28.770  1.00  0.00     0.188 C 
BRANCH  30  31
ATOM     31  C   UNL A   1      38.049  29.710  27.992  1.00  0.00     0.188 C 
BRANCH  31  32
ATOM     32  O   UNL A   1      37.024  30.670  28.188  1.00  0.00    -0.376 OA
BRANCH  32  33
ATOM     33  C   UNL A   1      35.673  30.372  27.889  1.00  0.00     0.202 C 
BRANCH  33  34
ATOM     34  C   UNL A   1      34.592  31.452  27.689  1.00  0.00     0.261 C 
BRANCH  34  35
ATOM     35  O   UNL A   1      34.964  32.810  27.938  1.00  0.00    -0.460 OA
BRANCH  35  36
ATOM     36  C   UNL A   1      34.531  33.335  29.108  1.00  0.00     0.338 C 
ATOM     37  O   UNL A   1      33.404  33.732  29.358  1.00  0.00    -0.246 OA
BRANCH  36  38
ATOM     38  C   UNL A   1      35.579  33.134  30.136  1.00  0.00     0.060 A 
ATOM     39  C   UNL A   1      36.696  33.981  30.096  1.00  0.00     0.016 A 
ATOM     40  C   UNL A   1      35.452  32.181  31.152  1.00  0.00     0.016 A 
ATOM     41  C   UNL A   1      37.706  33.852  31.042  1.00  0.00     0.010 A 
ATOM     42  C   UNL A   1      36.488  32.026  32.081  1.00  0.00     0.010 A 
ATOM     43  C   UNL A   1      37.638  32.832  31.998  1.00  0.00    -0.014 A 
BRANCH  43  44
ATOM     44  C   UNL A   1      38.888  32.469  32.706  1.00  0.00     0.031 A 
ATOM     45  C   UNL A   1      39.017  32.879  34.150  1.00  0.00     0.074 A 
ATOM     46  C   UNL A   1      39.837  31.717  32.125  1.00  0.00     0.049 A 
ATOM     47  N   UNL A   1      39.962  32.604  35.008  1.00  0.00    -0.248 NA
ATOM     48  C   UNL A   1      37.926  33.704  34.699  1.00  0.00     0.031 C 
ATOM     49  C   UNL A   1      39.820  31.251  30.740  1.00  0.00     0.029 A 
ATOM     50  N   UNL A   1      41.009  31.219  32.636  1.00  0.00    -0.354 N 
ATOM     51  C   UNL A   1      39.585  33.224  36.194  1.00  0.00     0.074 A 
ATOM     52  C   UNL A   1      38.341  33.914  35.938  1.00  0.00     0.031 C 
ATOM     53  C   UNL A   1      40.947  30.554  30.503  1.00  0.00     0.029 A 
ATOM     54  C   UNL A   1      41.766  30.536  31.715  1.00  0.00     0.049 A 
ATOM     55  H   UNL A   1      41.282  31.340  33.574  1.00  0.00     0.167 HD
ATOM     56  C   UNL A   1      40.203  33.202  37.397  1.00  0.00     0.034 A 
ATOM     57  C   UNL A   1      42.986  29.975  31.836  1.00  0.00     0.034 A 
ATOM     58  C   UNL A   1      41.440  32.517  37.652  1.00  0.00     0.049 A 
ATOM     59  C   UNL A   1      43.673  29.994  33.179  1.00  0.00     0.074 A 
ATOM     60  C   UNL A   1      42.144  32.426  38.839  1.00  0.00     0.029 A 
ATOM     61  N   UNL A   1      42.167  31.818  36.701  1.00  0.00    -0.354 N 
ATOM     62  N   UNL A   1      43.252  30.492  34.318  1.00  0.00    -0.248 NA
ATOM     63  C   UNL A   1      44.983  29.333  33.264  1.00  0.00     0.031 C 
ATOM     64  C   UNL A   1      43.311  31.692  38.599  1.00  0.00     0.029 A 
ATOM     65  C   UNL A   1      43.315  31.296  37.271  1.00  0.00     0.049 A 
ATOM     66  H   UNL A   1      41.905  31.709  35.758  1.00  0.00     0.167 HD
ATOM     67  C   UNL A   1      44.231  30.180  35.257  1.00  0.00     0.074 A 
ATOM     68  C   UNL A   1      45.246  29.418  34.560  1.00  0.00     0.031 C 
ATOM     69  C   UNL A   1      44.296  30.507  36.572  1.00  0.00     0.034 A 
BRANCH  56  70
ATOM     70  C   UNL A   1      39.532  33.924  38.535  1.00  0.00     0.023 A 
ATOM     71  C   UNL A   1      38.707  33.206  39.426  1.00  0.00     0.012 A 
ATOM     72  C   UNL A   1      39.754  35.297  38.753  1.00  0.00     0.148 A 
ATOM     73  C   UNL A   1      38.091  33.850  40.497  1.00  0.00     0.002 A 
ATOM     74  C   UNL A   1      39.174  35.921  39.850  1.00  0.00     0.091 A 
ATOM     75  F   UNL A   1      40.521  35.966  37.880  1.00  0.00    -0.205 F 
ATOM     76  C   UNL A   1      38.333  35.203  40.716  1.00  0.00     0.022 A 
BRANCH  74  77
ATOM     77  S   UNL A   1      39.483  37.640  40.264  1.00  0.00     0.127 S 
ATOM     78  O   UNL A   1      38.526  38.330  39.400  1.00  0.00    -0.237 OA
ATOM     79  O   UNL A   1      39.154  37.675  41.689  1.00  0.00    -0.237 OA
ATOM     80  O   UNL A   1      40.886  37.885  39.956  1.00  0.00    -0.744 OA
ENDBRANCH  74  77
ENDBRANCH  56  70
BRANCH  57  81
ATOM     81  C   UNL A   1      43.639  29.339  30.657  1.00  0.00     0.023 A 
ATOM     82  C   UNL A   1      44.379  30.121  29.748  1.00  0.00     0.012 A 
ATOM     83  C   UNL A   1      43.518  27.954  30.429  1.00  0.00     0.148 A 
ATOM     84  C   UNL A   1      44.950  29.541  28.613  1.00  0.00     0.002 A 
ATOM     85  C   UNL A   1      44.142  27.374  29.332  1.00  0.00     0.091 A 
ATOM     86  F   UNL A   1      42.793  27.230  31.294  1.00  0.00    -0.205 F 
ATOM     87  C   UNL A   1      44.841  28.168  28.412  1.00  0.00     0.022 A 
BRANCH  85  88
ATOM     88  S   UNL A   1      44.169  25.597  29.073  1.00  0.00     0.127 S 
ATOM     89  O   UNL A   1      42.902  25.376  28.381  1.00  0.00    -0.237 OA
ATOM     90  O   UNL A   1      45.363  25.434  28.243  1.00  0.00    -0.237 OA
ATOM     91  O   UNL A   1      44.278  25.009  30.401  1.00  0.00    -0.744 OA
ENDBRANCH  85  88
ENDBRANCH  57  81
BRANCH  69  92
ATOM     92  C   UNL A   1      45.490  30.016  37.351  1.00  0.00     0.023 A 
ATOM     93  C   UNL A   1      46.607  30.857  37.533  1.00  0.00     0.012 A 
ATOM     94  C   UNL A   1      45.492  28.734  37.938  1.00  0.00     0.148 A 
ATOM     95  C   UNL A   1      47.725  30.411  38.237  1.00  0.00     0.002 A 
ATOM     96  C   UNL A   1      46.587  28.317  38.684  1.00  0.00     0.091 A 
ATOM     97  F   UNL A   1      44.427  27.941  37.745  1.00  0.00    -0.205 F 
ATOM     98  C   UNL A   1      47.711  29.147  38.820  1.00  0.00     0.022 A 
BRANCH  96  99
ATOM     99  S   UNL A   1      46.617  26.744  39.552  1.00  0.00     0.127 S 
ATOM    100  O   UNL A   1      46.551  25.793  38.444  1.00  0.00    -0.237 OA
ATOM    101  O   UNL A   1      47.907  26.793  40.240  1.00  0.00    -0.237 OA
ATOM    102  O   UNL A   1      45.461  26.756  40.439  1.00  0.00    -0.744 OA
ENDBRANCH  96  99
ENDBRANCH  69  92
ENDBRANCH  43  44
ENDBRANCH  36  38
ENDBRANCH  35  36
ENDBRANCH  34  35
ENDBRANCH  33  34
ENDBRANCH  32  33
ENDBRANCH  31  32
ENDBRANCH  30  31
ENDBRANCH  29  30
ENDBRANCH   1  29
TORSDOF 27
ENDMDL
