MODEL 1
REMARK VINA RESULT:      -8.7      0.000      0.000
REMARK SMILES C[NH+]1CCC2(CC1)OC[C@H](C(=O)OCCOCCOCCOCCOC(=O)c1ccc(-c3c4nc(c(-c5cccc(S(=O)(=O)[O-])c5F)c5ccc([nH]5)c(-c5cccc(S(=O)(=O)[O-])c5F)c5nc(c(-c6cccc(S(=O)(=O)[O-])c6F)c6ccc3[nH]6)C=C5)C=C4)cc1)N2C(=O)c1cc(C(F)(F)F)cc(C(F)(F)F)c1
REMARK SMILES IDX 19 1 18 2 17 3 16 4 15 5 14 6 13 7 11 8 12 9 10 10 1 11 2 12
REMARK SMILES IDX 3 13 7 14 4 16 6 17 5 18 8 19 91 20 9 21 92 22 93 23 94 24
REMARK SMILES IDX 95 25 107 26 96 27 102 28 101 29 97 30 98 31 99 32 100 33
REMARK SMILES IDX 103 34 104 35 105 36 106 37 20 38 21 39 22 40 23 41 24 42
REMARK SMILES IDX 25 43 26 44 27 45 28 46 29 47 90 48 30 49 89 50 31 51 32 52
REMARK SMILES IDX 33 53 83 54 34 55 88 56 82 57 84 58 35 59 87 60 81 61 80 62
REMARK SMILES IDX 36 64 68 65 48 66 67 67 49 68 52 69 66 70 85 71 50 72 51 73
REMARK SMILES IDX 65 75 86 76 53 77 37 78 38 79 46 80 39 81 41 82 47 83 40 84
REMARK SMILES IDX 42 85 43 86 44 87 45 88 69 89 70 90 78 91 71 92 73 93 79 94
REMARK SMILES IDX 72 95 74 96 75 97 76 98 77 99 54 100 55 101 63 102 56 103
REMARK SMILES IDX 58 104 64 105 57 106 59 107 60 108 61 109 62 110
REMARK H PARENT 2 15 84 63 52 74
REMARK Flexibility Score: inf
ROOT
ATOM      1  O   UNL A   1      36.055  29.800  29.134  1.00  0.00    -0.377 OA
ENDROOT
BRANCH   1   2
ATOM      2  C   UNL A   1      35.881  30.524  27.926  1.00  0.00     0.188 C 
BRANCH   2   3
ATOM      3  C   UNL A   1      34.933  31.745  27.803  1.00  0.00     0.188 C 
BRANCH   3   4
ATOM      4  O   UNL A   1      33.550  31.452  27.884  1.00  0.00    -0.376 OA
BRANCH   4   5
ATOM      5  C   UNL A   1      32.957  30.611  26.909  1.00  0.00     0.202 C 
BRANCH   5   6
ATOM      6  C   UNL A   1      32.154  29.389  27.385  1.00  0.00     0.261 C 
BRANCH   6   7
ATOM      7  O   UNL A   1      31.869  28.397  26.382  1.00  0.00    -0.462 OA
BRANCH   7   8
ATOM      8  C   UNL A   1      32.669  27.300  26.343  1.00  0.00     0.331 C 
ATOM      9  O   UNL A   1      33.890  27.375  26.296  1.00  0.00    -0.250 OA
BRANCH   8  10
ATOM     10  C   UNL A   1      31.832  25.990  26.472  1.00  0.00     0.224 C 
ATOM     11  C   UNL A   1      33.201  23.456  20.789  1.00  0.00     0.332 C 
ATOM     12  N   UNL A   1      33.232  23.318  22.239  1.00  0.00    -0.337 N 
ATOM     13  C   UNL A   1      33.898  24.457  22.862  1.00  0.00     0.267 C 
ATOM     14  C   UNL A   1      31.956  22.884  22.805  1.00  0.00     0.267 C 
ATOM     15  H   UNL A   1      33.829  22.528  22.485  1.00  0.00     0.347 HD
ATOM     16  C   UNL A   1      32.977  25.531  23.391  1.00  0.00     0.120 C 
ATOM     17  C   UNL A   1      31.110  23.883  23.576  1.00  0.00     0.120 C 
ATOM     18  C   UNL A   1      31.876  24.983  24.303  1.00  0.00     0.155 C 
ATOM     19  O   UNL A   1      30.864  26.052  24.381  1.00  0.00    -0.352 OA
ATOM     20  N   UNL A   1      32.268  24.784  25.715  1.00  0.00    -0.293 N 
ATOM     21  C   UNL A   1      30.540  26.284  25.763  1.00  0.00     0.200 C 
BRANCH  20  22
ATOM     22  C   UNL A   1      32.486  23.597  26.443  1.00  0.00     0.256 C 
ATOM     23  O   UNL A   1      31.890  23.379  27.499  1.00  0.00    -0.269 OA
BRANCH  22  24
ATOM     24  C   UNL A   1      33.411  22.502  26.032  1.00  0.00     0.041 A 
ATOM     25  C   UNL A   1      32.885  21.222  25.772  1.00  0.00     0.027 A 
ATOM     26  C   UNL A   1      34.798  22.665  26.001  1.00  0.00     0.027 A 
ATOM     27  C   UNL A   1      33.714  20.171  25.322  1.00  0.00     0.057 A 
ATOM     28  C   UNL A   1      35.629  21.679  25.431  1.00  0.00     0.057 A 
ATOM     29  C   UNL A   1      35.077  20.430  25.110  1.00  0.00     0.026 A 
BRANCH  27  30
ATOM     30  C   UNL A   1      33.154  18.793  25.051  1.00  0.00     0.416 C 
ATOM     31  F   UNL A   1      32.081  18.817  24.218  1.00  0.00    -0.166 F 
ATOM     32  F   UNL A   1      34.066  17.959  24.481  1.00  0.00    -0.166 F 
ATOM     33  F   UNL A   1      32.732  18.155  26.182  1.00  0.00    -0.166 F 
ENDBRANCH  27  30
BRANCH  28  34
ATOM     34  C   UNL A   1      37.067  21.968  25.052  1.00  0.00     0.416 C 
ATOM     35  F   UNL A   1      37.586  21.026  24.217  1.00  0.00    -0.166 F 
ATOM     36  F   UNL A   1      37.194  23.151  24.384  1.00  0.00    -0.166 F 
ATOM     37  F   UNL A   1      37.916  22.043  26.112  1.00  0.00    -0.166 F 
ENDBRANCH  28  34
ENDBRANCH  22  24
ENDBRANCH  20  22
ENDBRANCH   8  10
ENDBRANCH   7   8
ENDBRANCH   6   7
ENDBRANCH   5   6
ENDBRANCH   4   5
ENDBRANCH   3   4
ENDBRANCH   2   3
ENDBRANCH   1   2
BRANCH   1  38
ATOM     38  C   UNL A   1      36.847  30.379  30.148  1.00  0.00     0.188 C 
BRANCH  38  39
ATOM     39  C   UNL A   1      36.471  29.882  31.555  1.00  0.00     0.188 C 
BRANCH  39  40
ATOM     40  O   UNL A   1      37.414  30.243  32.554  1.00  0.00    -0.376 OA
BRANCH  40  41
ATOM     41  C   UNL A   1      37.934  31.562  32.596  1.00  0.00     0.202 C 
BRANCH  41  42
ATOM     42  C   UNL A   1      39.413  31.909  32.323  1.00  0.00     0.261 C 
BRANCH  42  43
ATOM     43  O   UNL A   1      39.835  33.266  32.470  1.00  0.00    -0.460 OA
BRANCH  43  44
ATOM     44  C   UNL A   1      39.762  34.085  31.406  1.00  0.00     0.338 C 
ATOM     45  O   UNL A   1      38.809  34.768  31.068  1.00  0.00    -0.246 OA
BRANCH  44  46
ATOM     46  C   UNL A   1      41.128  34.174  30.846  1.00  0.00     0.060 A 
ATOM     47  C   UNL A   1      41.283  34.382  29.468  1.00  0.00     0.016 A 
ATOM     48  C   UNL A   1      42.247  34.126  31.683  1.00  0.00     0.016 A 
ATOM     49  C   UNL A   1      42.555  34.524  28.920  1.00  0.00     0.010 A 
ATOM     50  C   UNL A   1      43.525  34.225  31.127  1.00  0.00     0.010 A 
ATOM     51  C   UNL A   1      43.682  34.393  29.740  1.00  0.00    -0.014 A 
BRANCH  51  52
ATOM     52  C   UNL A   1      45.009  34.190  29.115  1.00  0.00     0.031 A 
ATOM     53  C   UNL A   1      45.636  35.367  28.420  1.00  0.00     0.074 A 
ATOM     54  C   UNL A   1      45.640  33.004  29.163  1.00  0.00     0.049 A 
ATOM     55  N   UNL A   1      46.766  35.438  27.770  1.00  0.00    -0.248 NA
ATOM     56  C   UNL A   1      44.887  36.636  28.464  1.00  0.00     0.031 C 
ATOM     57  C   UNL A   1      45.135  31.798  29.817  1.00  0.00     0.029 A 
ATOM     58  N   UNL A   1      46.839  32.615  28.619  1.00  0.00    -0.354 N 
ATOM     59  C   UNL A   1      46.843  36.740  27.293  1.00  0.00     0.074 A 
ATOM     60  C   UNL A   1      45.653  37.431  27.734  1.00  0.00     0.031 C 
ATOM     61  C   UNL A   1      45.997  30.790  29.596  1.00  0.00     0.029 A 
ATOM     62  C   UNL A   1      47.100  31.273  28.766  1.00  0.00     0.049 A 
ATOM     63  H   UNL A   1      47.454  33.238  28.166  1.00  0.00     0.167 HD
ATOM     64  C   UNL A   1      47.820  37.310  26.553  1.00  0.00     0.034 A 
ATOM     65  C   UNL A   1      48.095  30.519  28.255  1.00  0.00     0.034 A 
ATOM     66  C   UNL A   1      49.011  36.626  26.134  1.00  0.00     0.049 A 
ATOM     67  C   UNL A   1      49.163  31.184  27.418  1.00  0.00     0.074 A 
ATOM     68  C   UNL A   1      50.091  37.138  25.440  1.00  0.00     0.029 A 
ATOM     69  N   UNL A   1      49.266  35.283  26.346  1.00  0.00    -0.354 N 
ATOM     70  N   UNL A   1      49.293  32.448  27.093  1.00  0.00    -0.248 NA
ATOM     71  C   UNL A   1      50.239  30.323  26.904  1.00  0.00     0.031 C 
ATOM     72  C   UNL A   1      50.981  36.089  25.189  1.00  0.00     0.029 A 
ATOM     73  C   UNL A   1      50.478  34.939  25.775  1.00  0.00     0.049 A 
ATOM     74  H   UNL A   1      48.673  34.663  26.831  1.00  0.00     0.167 HD
ATOM     75  C   UNL A   1      50.483  32.538  26.377  1.00  0.00     0.074 A 
ATOM     76  C   UNL A   1      51.046  31.206  26.335  1.00  0.00     0.031 C 
ATOM     77  C   UNL A   1      51.054  33.621  25.796  1.00  0.00     0.034 A 
BRANCH  64  78
ATOM     78  C   UNL A   1      47.652  38.745  26.139  1.00  0.00     0.023 A 
ATOM     79  C   UNL A   1      46.993  39.060  24.934  1.00  0.00     0.012 A 
ATOM     80  C   UNL A   1      48.062  39.781  27.001  1.00  0.00     0.148 A 
ATOM     81  C   UNL A   1      46.754  40.389  24.589  1.00  0.00     0.002 A 
ATOM     82  C   UNL A   1      47.778  41.099  26.673  1.00  0.00     0.091 A 
ATOM     83  F   UNL A   1      48.710  39.454  28.127  1.00  0.00    -0.205 F 
ATOM     84  C   UNL A   1      47.132  41.406  25.463  1.00  0.00     0.022 A 
BRANCH  82  85
ATOM     85  S   UNL A   1      48.144  42.470  27.771  1.00  0.00     0.127 S 
ATOM     86  O   UNL A   1      47.676  43.611  26.984  1.00  0.00    -0.237 OA
ATOM     87  O   UNL A   1      47.319  42.154  28.937  1.00  0.00    -0.237 OA
ATOM     88  O   UNL A   1      49.580  42.429  28.007  1.00  0.00    -0.744 OA
ENDBRANCH  82  85
ENDBRANCH  64  78
BRANCH  65  89
ATOM     89  C   UNL A   1      48.140  29.050  28.502  1.00  0.00     0.023 A 
ATOM     90  C   UNL A   1      48.774  28.550  29.657  1.00  0.00     0.012 A 
ATOM     91  C   UNL A   1      47.592  28.141  27.576  1.00  0.00     0.148 A 
ATOM     92  C   UNL A   1      48.910  27.174  29.856  1.00  0.00     0.002 A 
ATOM     93  C   UNL A   1      47.676  26.774  27.811  1.00  0.00     0.091 A 
ATOM     94  F   UNL A   1      47.009  28.632  26.473  1.00  0.00    -0.205 F 
ATOM     95  C   UNL A   1      48.355  26.287  28.938  1.00  0.00     0.022 A 
BRANCH  93  96
ATOM     96  S   UNL A   1      46.876  25.567  26.748  1.00  0.00     0.127 S 
ATOM     97  O   UNL A   1      45.474  25.711  27.133  1.00  0.00    -0.237 OA
ATOM     98  O   UNL A   1      47.206  26.072  25.415  1.00  0.00    -0.237 OA
ATOM     99  O   UNL A   1      47.495  24.289  27.073  1.00  0.00    -0.744 OA
ENDBRANCH  93  96
ENDBRANCH  65  89
BRANCH  77 100
ATOM    100  C   UNL A   1      52.387  33.439  25.116  1.00  0.00     0.023 A 
ATOM    101  C   UNL A   1      52.449  33.214  23.727  1.00  0.00     0.012 A 
ATOM    102  C   UNL A   1      53.582  33.577  25.849  1.00  0.00     0.148 A 
ATOM    103  C   UNL A   1      53.681  33.090  23.085  1.00  0.00     0.002 A 
ATOM    104  C   UNL A   1      54.805  33.509  25.195  1.00  0.00     0.091 A 
ATOM    105  F   UNL A   1      53.502  33.778  27.173  1.00  0.00    -0.205 F 
ATOM    106  C   UNL A   1      54.857  33.250  23.815  1.00  0.00     0.022 A 
BRANCH 104 107
ATOM    107  S   UNL A   1      56.365  33.805  26.034  1.00  0.00     0.127 S 
ATOM    108  O   UNL A   1      57.330  33.566  24.962  1.00  0.00    -0.237 OA
ATOM    109  O   UNL A   1      56.237  35.205  26.440  1.00  0.00    -0.237 OA
ATOM    110  O   UNL A   1      56.415  32.857  27.139  1.00  0.00    -0.744 OA
ENDBRANCH 104 107
ENDBRANCH  77 100
ENDBRANCH  51  52
ENDBRANCH  44  46
ENDBRANCH  43  44
ENDBRANCH  42  43
ENDBRANCH  41  42
ENDBRANCH  40  41
ENDBRANCH  39  40
ENDBRANCH  38  39
ENDBRANCH   1  38
TORSDOF 27
ENDMDL
MODEL 2
REMARK VINA RESULT:      -8.7      7.474     12.079
REMARK SMILES C[NH+]1CCC2(CC1)OC[C@H](C(=O)OCCOCCOCCOCCOC(=O)c1ccc(-c3c4nc(c(-c5cccc(S(=O)(=O)[O-])c5F)c5ccc([nH]5)c(-c5cccc(S(=O)(=O)[O-])c5F)c5nc(c(-c6cccc(S(=O)(=O)[O-])c6F)c6ccc3[nH]6)C=C5)C=C4)cc1)N2C(=O)c1cc(C(F)(F)F)cc(C(F)(F)F)c1
REMARK SMILES IDX 19 1 18 2 17 3 16 4 15 5 14 6 13 7 11 8 12 9 10 10 1 11 2 12
REMARK SMILES IDX 3 13 7 14 4 16 6 17 5 18 8 19 91 20 9 21 92 22 93 23 94 24
REMARK SMILES IDX 95 25 107 26 96 27 102 28 101 29 97 30 98 31 99 32 100 33
REMARK SMILES IDX 103 34 104 35 105 36 106 37 20 38 21 39 22 40 23 41 24 42
REMARK SMILES IDX 25 43 26 44 27 45 28 46 29 47 90 48 30 49 89 50 31 51 32 52
REMARK SMILES IDX 33 53 83 54 34 55 88 56 82 57 84 58 35 59 87 60 81 61 80 62
REMARK SMILES IDX 36 64 68 65 48 66 67 67 49 68 52 69 66 70 85 71 50 72 51 73
REMARK SMILES IDX 65 75 86 76 53 77 37 78 38 79 46 80 39 81 41 82 47 83 40 84
REMARK SMILES IDX 42 85 43 86 44 87 45 88 69 89 70 90 78 91 71 92 73 93 79 94
REMARK SMILES IDX 72 95 74 96 75 97 76 98 77 99 54 100 55 101 63 102 56 103
REMARK SMILES IDX 58 104 64 105 57 106 59 107 60 108 61 109 62 110
REMARK H PARENT 2 15 84 63 52 74
REMARK Flexibility Score: inf
ROOT
ATOM      1  O   UNL A   1      43.313  25.982  27.690  1.00  0.00    -0.377 OA
ENDROOT
BRANCH   1   2
ATOM      2  C   UNL A   1      42.702  26.603  26.569  1.00  0.00     0.188 C 
BRANCH   2   3
ATOM      3  C   UNL A   1      41.814  25.834  25.558  1.00  0.00     0.188 C 
BRANCH   3   4
ATOM      4  O   UNL A   1      40.495  25.556  25.995  1.00  0.00    -0.376 OA
BRANCH   4   5
ATOM      5  C   UNL A   1      40.285  24.576  26.998  1.00  0.00     0.202 C 
BRANCH   5   6
ATOM      6  C   UNL A   1      38.868  24.009  27.184  1.00  0.00     0.261 C 
BRANCH   6   7
ATOM      7  O   UNL A   1      37.916  24.351  26.161  1.00  0.00    -0.462 OA
BRANCH   7   8
ATOM      8  C   UNL A   1      37.026  23.395  25.790  1.00  0.00     0.331 C 
ATOM      9  O   UNL A   1      37.269  22.198  25.875  1.00  0.00    -0.250 OA
BRANCH   8  10
ATOM     10  C   UNL A   1      35.668  24.029  25.358  1.00  0.00     0.224 C 
ATOM     11  C   UNL A   1      32.583  18.666  23.842  1.00  0.00     0.332 C 
ATOM     12  N   UNL A   1      32.632  19.868  24.663  1.00  0.00    -0.337 N 
ATOM     13  C   UNL A   1      33.900  19.964  25.379  1.00  0.00     0.267 C 
ATOM     14  C   UNL A   1      32.151  21.061  23.969  1.00  0.00     0.267 C 
ATOM     15  H   UNL A   1      31.941  19.790  25.410  1.00  0.00     0.347 HD
ATOM     16  C   UNL A   1      34.937  20.852  24.735  1.00  0.00     0.120 C 
ATOM     17  C   UNL A   1      33.153  22.114  23.527  1.00  0.00     0.120 C 
ATOM     18  C   UNL A   1      34.405  22.245  24.388  1.00  0.00     0.155 C 
ATOM     19  O   UNL A   1      35.372  22.806  23.427  1.00  0.00    -0.352 OA
ATOM     20  N   UNL A   1      34.424  23.222  25.498  1.00  0.00    -0.293 N 
ATOM     21  C   UNL A   1      35.744  24.126  23.861  1.00  0.00     0.200 C 
BRANCH  20  22
ATOM     22  C   UNL A   1      33.366  23.775  26.246  1.00  0.00     0.256 C 
ATOM     23  O   UNL A   1      32.949  23.223  27.266  1.00  0.00    -0.269 OA
BRANCH  22  24
ATOM     24  C   UNL A   1      32.665  25.050  25.919  1.00  0.00     0.041 A 
ATOM     25  C   UNL A   1      31.532  25.015  25.082  1.00  0.00     0.027 A 
ATOM     26  C   UNL A   1      33.152  26.297  26.318  1.00  0.00     0.027 A 
ATOM     27  C   UNL A   1      30.802  26.189  24.794  1.00  0.00     0.057 A 
ATOM     28  C   UNL A   1      32.374  27.462  26.157  1.00  0.00     0.057 A 
ATOM     29  C   UNL A   1      31.209  27.398  25.380  1.00  0.00     0.026 A 
BRANCH  27  30
ATOM     30  C   UNL A   1      29.591  26.155  23.889  1.00  0.00     0.416 C 
ATOM     31  F   UNL A   1      29.612  27.134  22.947  1.00  0.00    -0.166 F 
ATOM     32  F   UNL A   1      29.470  24.978  23.217  1.00  0.00    -0.166 F 
ATOM     33  F   UNL A   1      28.415  26.314  24.564  1.00  0.00    -0.166 F 
ENDBRANCH  27  30
BRANCH  28  34
ATOM     34  C   UNL A   1      32.699  28.747  26.892  1.00  0.00     0.416 C 
ATOM     35  F   UNL A   1      32.980  29.775  26.044  1.00  0.00    -0.166 F 
ATOM     36  F   UNL A   1      31.654  29.182  27.653  1.00  0.00    -0.166 F 
ATOM     37  F   UNL A   1      33.763  28.650  27.734  1.00  0.00    -0.166 F 
ENDBRANCH  28  34
ENDBRANCH  22  24
ENDBRANCH  20  22
ENDBRANCH   8  10
ENDBRANCH   7   8
ENDBRANCH   6   7
ENDBRANCH   5   6
ENDBRANCH   4   5
ENDBRANCH   3   4
ENDBRANCH   2   3
ENDBRANCH   1   2
BRANCH   1  38
ATOM     38  C   UNL A   1      42.946  26.428  28.978  1.00  0.00     0.188 C 
BRANCH  38  39
ATOM     39  C   UNL A   1      41.985  27.629  28.941  1.00  0.00     0.188 C 
BRANCH  39  40
ATOM     40  O   UNL A   1      40.733  27.372  29.560  1.00  0.00    -0.376 OA
BRANCH  40  41
ATOM     41  C   UNL A   1      39.539  27.877  28.984  1.00  0.00     0.202 C 
BRANCH  41  42
ATOM     42  C   UNL A   1      39.384  29.319  28.460  1.00  0.00     0.261 C 
BRANCH  42  43
ATOM     43  O   UNL A   1      39.247  30.381  29.408  1.00  0.00    -0.460 OA
BRANCH  43  44
ATOM     44  C   UNL A   1      38.093  30.497  30.087  1.00  0.00     0.338 C 
ATOM     45  O   UNL A   1      37.010  30.023  29.785  1.00  0.00    -0.246 OA
BRANCH  44  46
ATOM     46  C   UNL A   1      38.428  31.120  31.387  1.00  0.00     0.060 A 
ATOM     47  C   UNL A   1      37.759  32.293  31.767  1.00  0.00     0.016 A 
ATOM     48  C   UNL A   1      39.341  30.514  32.255  1.00  0.00     0.016 A 
ATOM     49  C   UNL A   1      38.014  32.872  33.008  1.00  0.00     0.010 A 
ATOM     50  C   UNL A   1      39.628  31.119  33.480  1.00  0.00     0.010 A 
ATOM     51  C   UNL A   1      38.988  32.317  33.846  1.00  0.00    -0.014 A 
BRANCH  51  52
ATOM     52  C   UNL A   1      39.504  33.117  34.980  1.00  0.00     0.031 A 
ATOM     53  C   UNL A   1      40.595  34.110  34.689  1.00  0.00     0.074 A 
ATOM     54  C   UNL A   1      39.020  32.974  36.226  1.00  0.00     0.049 A 
ATOM     55  N   UNL A   1      41.235  34.900  35.508  1.00  0.00    -0.248 NA
ATOM     56  C   UNL A   1      41.023  34.227  33.283  1.00  0.00     0.031 C 
ATOM     57  C   UNL A   1      37.957  32.052  36.624  1.00  0.00     0.029 A 
ATOM     58  N   UNL A   1      39.390  33.588  37.397  1.00  0.00    -0.354 N 
ATOM     59  C   UNL A   1      42.166  35.573  34.728  1.00  0.00     0.074 A 
ATOM     60  C   UNL A   1      42.005  35.110  33.369  1.00  0.00     0.031 C 
ATOM     61  C   UNL A   1      37.792  32.129  37.957  1.00  0.00     0.029 A 
ATOM     62  C   UNL A   1      38.752  33.084  38.507  1.00  0.00     0.049 A 
ATOM     63  H   UNL A   1      40.049  34.319  37.438  1.00  0.00     0.167 HD
ATOM     64  C   UNL A   1      43.075  36.497  35.111  1.00  0.00     0.034 A 
ATOM     65  C   UNL A   1      38.953  33.341  39.816  1.00  0.00     0.034 A 
ATOM     66  C   UNL A   1      43.218  36.970  36.460  1.00  0.00     0.049 A 
ATOM     67  C   UNL A   1      39.988  34.368  40.212  1.00  0.00     0.074 A 
ATOM     68  C   UNL A   1      44.063  37.956  36.935  1.00  0.00     0.029 A 
ATOM     69  N   UNL A   1      42.520  36.477  37.548  1.00  0.00    -0.354 N 
ATOM     70  N   UNL A   1      40.764  35.098  39.448  1.00  0.00    -0.248 NA
ATOM     71  C   UNL A   1      40.152  34.628  41.650  1.00  0.00     0.031 C 
ATOM     72  C   UNL A   1      43.911  38.025  38.322  1.00  0.00     0.029 A 
ATOM     73  C   UNL A   1      42.931  37.120  38.701  1.00  0.00     0.049 A 
ATOM     74  H   UNL A   1      41.833  35.773  37.508  1.00  0.00     0.167 HD
ATOM     75  C   UNL A   1      41.473  35.931  40.309  1.00  0.00     0.074 A 
ATOM     76  C   UNL A   1      41.018  35.631  41.649  1.00  0.00     0.031 C 
ATOM     77  C   UNL A   1      42.423  36.854  40.019  1.00  0.00     0.034 A 
BRANCH  64  78
ATOM     78  C   UNL A   1      43.995  37.064  34.068  1.00  0.00     0.023 A 
ATOM     79  C   UNL A   1      45.045  36.280  33.551  1.00  0.00     0.012 A 
ATOM     80  C   UNL A   1      43.750  38.342  33.529  1.00  0.00     0.148 A 
ATOM     81  C   UNL A   1      45.846  36.767  32.519  1.00  0.00     0.002 A 
ATOM     82  C   UNL A   1      44.521  38.800  32.470  1.00  0.00     0.091 A 
ATOM     83  F   UNL A   1      42.762  39.078  34.057  1.00  0.00    -0.205 F 
ATOM     84  C   UNL A   1      45.575  38.018  31.969  1.00  0.00     0.022 A 
BRANCH  82  85
ATOM     85  S   UNL A   1      44.195  40.356  31.637  1.00  0.00     0.127 S 
ATOM     86  O   UNL A   1      45.248  40.374  30.622  1.00  0.00    -0.237 OA
ATOM     87  O   UNL A   1      42.846  40.144  31.113  1.00  0.00    -0.237 OA
ATOM     88  O   UNL A   1      44.301  41.392  32.656  1.00  0.00    -0.744 OA
ENDBRANCH  82  85
ENDBRANCH  64  78
BRANCH  65  89
ATOM     89  C   UNL A   1      38.173  32.618  40.861  1.00  0.00     0.023 A 
ATOM     90  C   UNL A   1      38.712  31.469  41.473  1.00  0.00     0.012 A 
ATOM     91  C   UNL A   1      36.878  33.041  41.222  1.00  0.00     0.148 A 
ATOM     92  C   UNL A   1      37.958  30.726  42.383  1.00  0.00     0.002 A 
ATOM     93  C   UNL A   1      36.157  32.332  42.174  1.00  0.00     0.091 A 
ATOM     94  F   UNL A   1      36.371  34.125  40.616  1.00  0.00    -0.205 F 
ATOM     95  C   UNL A   1      36.684  31.160  42.739  1.00  0.00     0.022 A 
BRANCH  93  96
ATOM     96  S   UNL A   1      34.564  32.894  42.786  1.00  0.00     0.127 S 
ATOM     97  O   UNL A   1      34.192  31.811  43.693  1.00  0.00    -0.237 OA
ATOM     98  O   UNL A   1      34.920  34.154  43.441  1.00  0.00    -0.237 OA
ATOM     99  O   UNL A   1      33.725  33.051  41.606  1.00  0.00    -0.744 OA
ENDBRANCH  93  96
ENDBRANCH  65  89
BRANCH  77 100
ATOM    100  C   UNL A   1      42.998  37.658  41.157  1.00  0.00     0.023 A 
ATOM    101  C   UNL A   1      42.376  38.853  41.567  1.00  0.00     0.012 A 
ATOM    102  C   UNL A   1      44.113  37.177  41.873  1.00  0.00     0.148 A 
ATOM    103  C   UNL A   1      42.878  39.577  42.648  1.00  0.00     0.002 A 
ATOM    104  C   UNL A   1      44.572  37.873  42.984  1.00  0.00     0.091 A 
ATOM    105  F   UNL A   1      44.699  36.044  41.459  1.00  0.00    -0.205 F 
ATOM    106  C   UNL A   1      43.966  39.082  43.363  1.00  0.00     0.022 A 
BRANCH 104 107
ATOM    107  S   UNL A   1      45.900  37.259  44.024  1.00  0.00     0.127 S 
ATOM    108  O   UNL A   1      45.996  38.309  45.036  1.00  0.00    -0.237 OA
ATOM    109  O   UNL A   1      45.352  35.991  44.510  1.00  0.00    -0.237 OA
ATOM    110  O   UNL A   1      47.063  37.121  43.157  1.00  0.00    -0.744 OA
ENDBRANCH 104 107
ENDBRANCH  77 100
ENDBRANCH  51  52
ENDBRANCH  44  46
ENDBRANCH  43  44
ENDBRANCH  42  43
ENDBRANCH  41  42
ENDBRANCH  40  41
ENDBRANCH  39  40
ENDBRANCH  38  39
ENDBRANCH   1  38
TORSDOF 27
ENDMDL
MODEL 3
REMARK VINA RESULT:      -8.6      3.253      8.137
REMARK SMILES C[NH+]1CCC2(CC1)OC[C@H](C(=O)OCCOCCOCCOCCOC(=O)c1ccc(-c3c4nc(c(-c5cccc(S(=O)(=O)[O-])c5F)c5ccc([nH]5)c(-c5cccc(S(=O)(=O)[O-])c5F)c5nc(c(-c6cccc(S(=O)(=O)[O-])c6F)c6ccc3[nH]6)C=C5)C=C4)cc1)N2C(=O)c1cc(C(F)(F)F)cc(C(F)(F)F)c1
REMARK SMILES IDX 19 1 18 2 17 3 16 4 15 5 14 6 13 7 11 8 12 9 10 10 1 11 2 12
REMARK SMILES IDX 3 13 7 14 4 16 6 17 5 18 8 19 91 20 9 21 92 22 93 23 94 24
REMARK SMILES IDX 95 25 107 26 96 27 102 28 101 29 97 30 98 31 99 32 100 33
REMARK SMILES IDX 103 34 104 35 105 36 106 37 20 38 21 39 22 40 23 41 24 42
REMARK SMILES IDX 25 43 26 44 27 45 28 46 29 47 90 48 30 49 89 50 31 51 32 52
REMARK SMILES IDX 33 53 83 54 34 55 88 56 82 57 84 58 35 59 87 60 81 61 80 62
REMARK SMILES IDX 36 64 68 65 48 66 67 67 49 68 52 69 66 70 85 71 50 72 51 73
REMARK SMILES IDX 65 75 86 76 53 77 37 78 38 79 46 80 39 81 41 82 47 83 40 84
REMARK SMILES IDX 42 85 43 86 44 87 45 88 69 89 70 90 78 91 71 92 73 93 79 94
REMARK SMILES IDX 72 95 74 96 75 97 76 98 77 99 54 100 55 101 63 102 56 103
REMARK SMILES IDX 58 104 64 105 57 106 59 107 60 108 61 109 62 110
REMARK H PARENT 2 15 84 63 52 74
REMARK Flexibility Score: inf
ROOT
ATOM      1  O   UNL A   1      41.462  28.209  28.810  1.00  0.00    -0.377 OA
ENDROOT
BRANCH   1   2
ATOM      2  C   UNL A   1      40.270  28.485  28.092  1.00  0.00     0.188 C 
BRANCH   2   3
ATOM      3  C   UNL A   1      38.915  27.802  28.409  1.00  0.00     0.188 C 
BRANCH   3   4
ATOM      4  O   UNL A   1      37.911  28.654  28.931  1.00  0.00    -0.376 OA
BRANCH   4   5
ATOM      5  C   UNL A   1      37.207  29.518  28.056  1.00  0.00     0.202 C 
BRANCH   5   6
ATOM      6  C   UNL A   1      35.671  29.552  28.136  1.00  0.00     0.261 C 
BRANCH   6   7
ATOM      7  O   UNL A   1      34.989  29.939  26.930  1.00  0.00    -0.462 OA
BRANCH   7   8
ATOM      8  C   UNL A   1      33.684  29.585  26.809  1.00  0.00     0.331 C 
ATOM      9  O   UNL A   1      32.766  30.371  27.005  1.00  0.00    -0.250 OA
BRANCH   8  10
ATOM     10  C   UNL A   1      33.545  28.117  26.301  1.00  0.00     0.224 C 
ATOM     11  C   UNL A   1      28.360  28.879  22.679  1.00  0.00     0.332 C 
ATOM     12  N   UNL A   1      29.761  28.487  22.757  1.00  0.00    -0.337 N 
ATOM     13  C   UNL A   1      30.573  29.550  23.341  1.00  0.00     0.267 C 
ATOM     14  C   UNL A   1      29.953  27.129  23.263  1.00  0.00     0.267 C 
ATOM     15  H   UNL A   1      30.133  28.394  21.812  1.00  0.00     0.347 HD
ATOM     16  C   UNL A   1      30.868  29.398  24.813  1.00  0.00     0.120 C 
ATOM     17  C   UNL A   1      30.500  26.933  24.666  1.00  0.00     0.120 C 
ATOM     18  C   UNL A   1      31.437  28.023  25.174  1.00  0.00     0.155 C 
ATOM     19  O   UNL A   1      31.274  27.902  26.634  1.00  0.00    -0.352 OA
ATOM     20  N   UNL A   1      32.896  27.874  24.982  1.00  0.00    -0.293 N 
ATOM     21  C   UNL A   1      32.527  27.487  27.207  1.00  0.00     0.200 C 
BRANCH  20  22
ATOM     22  C   UNL A   1      33.620  27.141  24.021  1.00  0.00     0.256 C 
ATOM     23  O   UNL A   1      34.143  27.698  23.055  1.00  0.00    -0.269 OA
BRANCH  22  24
ATOM     24  C   UNL A   1      33.847  25.667  24.066  1.00  0.00     0.041 A 
ATOM     25  C   UNL A   1      34.934  25.163  24.805  1.00  0.00     0.027 A 
ATOM     26  C   UNL A   1      33.088  24.769  23.312  1.00  0.00     0.027 A 
ATOM     27  C   UNL A   1      35.152  23.772  24.925  1.00  0.00     0.057 A 
ATOM     28  C   UNL A   1      33.200  23.378  23.516  1.00  0.00     0.057 A 
ATOM     29  C   UNL A   1      34.246  22.892  24.314  1.00  0.00     0.026 A 
BRANCH  27  30
ATOM     30  C   UNL A   1      36.324  23.228  25.711  1.00  0.00     0.416 C 
ATOM     31  F   UNL A   1      37.141  22.444  24.960  1.00  0.00    -0.166 F 
ATOM     32  F   UNL A   1      37.108  24.211  26.233  1.00  0.00    -0.166 F 
ATOM     33  F   UNL A   1      35.945  22.460  26.773  1.00  0.00    -0.166 F 
ENDBRANCH  27  30
BRANCH  28  34
ATOM     34  C   UNL A   1      32.159  22.408  22.996  1.00  0.00     0.416 C 
ATOM     35  F   UNL A   1      32.034  21.305  23.784  1.00  0.00    -0.166 F 
ATOM     36  F   UNL A   1      30.914  22.965  22.954  1.00  0.00    -0.166 F 
ATOM     37  F   UNL A   1      32.407  21.950  21.740  1.00  0.00    -0.166 F 
ENDBRANCH  28  34
ENDBRANCH  22  24
ENDBRANCH  20  22
ENDBRANCH   8  10
ENDBRANCH   7   8
ENDBRANCH   6   7
ENDBRANCH   5   6
ENDBRANCH   4   5
ENDBRANCH   3   4
ENDBRANCH   2   3
ENDBRANCH   1   2
BRANCH   1  38
ATOM     38  C   UNL A   1      41.988  29.223  29.641  1.00  0.00     0.188 C 
BRANCH  38  39
ATOM     39  C   UNL A   1      41.114  30.489  29.661  1.00  0.00     0.188 C 
BRANCH  39  40
ATOM     40  O   UNL A   1      41.639  31.526  30.477  1.00  0.00    -0.376 OA
BRANCH  40  41
ATOM     41  C   UNL A   1      40.851  32.670  30.764  1.00  0.00     0.202 C 
BRANCH  41  42
ATOM     42  C   UNL A   1      41.391  33.923  31.484  1.00  0.00     0.261 C 
BRANCH  42  43
ATOM     43  O   UNL A   1      42.184  34.851  30.741  1.00  0.00    -0.460 OA
BRANCH  43  44
ATOM     44  C   UNL A   1      42.039  34.902  29.405  1.00  0.00     0.338 C 
ATOM     45  O   UNL A   1      41.100  35.371  28.785  1.00  0.00    -0.246 OA
BRANCH  44  46
ATOM     46  C   UNL A   1      43.333  34.482  28.823  1.00  0.00     0.060 A 
ATOM     47  C   UNL A   1      43.444  34.368  27.430  1.00  0.00     0.016 A 
ATOM     48  C   UNL A   1      44.448  34.272  29.639  1.00  0.00     0.016 A 
ATOM     49  C   UNL A   1      44.663  34.028  26.850  1.00  0.00     0.010 A 
ATOM     50  C   UNL A   1      45.660  33.888  29.061  1.00  0.00     0.010 A 
ATOM     51  C   UNL A   1      45.762  33.735  27.667  1.00  0.00    -0.014 A 
BRANCH  51  52
ATOM     52  C   UNL A   1      46.930  33.040  27.080  1.00  0.00     0.031 A 
ATOM     53  C   UNL A   1      46.891  31.537  27.032  1.00  0.00     0.074 A 
ATOM     54  C   UNL A   1      47.990  33.715  26.602  1.00  0.00     0.049 A 
ATOM     55  N   UNL A   1      47.796  30.700  26.603  1.00  0.00    -0.248 NA
ATOM     56  C   UNL A   1      45.665  30.892  27.536  1.00  0.00     0.031 C 
ATOM     57  C   UNL A   1      48.133  35.170  26.587  1.00  0.00     0.029 A 
ATOM     58  N   UNL A   1      49.166  33.255  26.064  1.00  0.00    -0.354 N 
ATOM     59  C   UNL A   1      47.270  29.434  26.824  1.00  0.00     0.074 A 
ATOM     60  C   UNL A   1      45.963  29.608  27.416  1.00  0.00     0.031 C 
ATOM     61  C   UNL A   1      49.350  35.482  26.106  1.00  0.00     0.029 A 
ATOM     62  C   UNL A   1      50.078  34.251  25.805  1.00  0.00     0.049 A 
ATOM     63  H   UNL A   1      49.339  32.303  25.881  1.00  0.00     0.167 HD
ATOM     64  C   UNL A   1      47.827  28.232  26.557  1.00  0.00     0.034 A 
ATOM     65  C   UNL A   1      51.365  34.169  25.408  1.00  0.00     0.034 A 
ATOM     66  C   UNL A   1      49.117  28.063  25.951  1.00  0.00     0.049 A 
ATOM     67  C   UNL A   1      51.963  32.808  25.134  1.00  0.00     0.074 A 
ATOM     68  C   UNL A   1      49.738  26.886  25.576  1.00  0.00     0.029 A 
ATOM     69  N   UNL A   1      49.991  29.093  25.653  1.00  0.00    -0.354 N 
ATOM     70  N   UNL A   1      51.402  31.626  25.215  1.00  0.00    -0.248 NA
ATOM     71  C   UNL A   1      53.362  32.774  24.680  1.00  0.00     0.031 C 
ATOM     72  C   UNL A   1      51.012  27.202  25.095  1.00  0.00     0.029 A 
ATOM     73  C   UNL A   1      51.160  28.580  25.121  1.00  0.00     0.049 A 
ATOM     74  H   UNL A   1      49.809  30.050  25.798  1.00  0.00     0.167 HD
ATOM     75  C   UNL A   1      52.363  30.716  24.784  1.00  0.00     0.074 A 
ATOM     76  C   UNL A   1      53.533  31.486  24.421  1.00  0.00     0.031 C 
ATOM     77  C   UNL A   1      52.291  29.365  24.706  1.00  0.00     0.034 A 
BRANCH  64  78
ATOM     78  C   UNL A   1      47.054  26.995  26.918  1.00  0.00     0.023 A 
ATOM     79  C   UNL A   1      47.213  26.409  28.189  1.00  0.00     0.012 A 
ATOM     80  C   UNL A   1      46.094  26.477  26.027  1.00  0.00     0.148 A 
ATOM     81  C   UNL A   1      46.433  25.316  28.563  1.00  0.00     0.002 A 
ATOM     82  C   UNL A   1      45.289  25.419  26.425  1.00  0.00     0.091 A 
ATOM     83  F   UNL A   1      45.982  27.036  24.814  1.00  0.00    -0.205 F 
ATOM     84  C   UNL A   1      45.462  24.831  27.689  1.00  0.00     0.022 A 
BRANCH  82  85
ATOM     85  S   UNL A   1      43.954  24.783  25.408  1.00  0.00     0.127 S 
ATOM     86  O   UNL A   1      43.316  26.018  24.951  1.00  0.00    -0.237 OA
ATOM     87  O   UNL A   1      44.682  24.053  24.370  1.00  0.00    -0.237 OA
ATOM     88  O   UNL A   1      43.137  23.953  26.282  1.00  0.00    -0.744 OA
ENDBRANCH  82  85
ENDBRANCH  64  78
BRANCH  65  89
ATOM     89  C   UNL A   1      52.192  35.399  25.250  1.00  0.00     0.023 A 
ATOM     90  C   UNL A   1      52.264  36.042  23.997  1.00  0.00     0.012 A 
ATOM     91  C   UNL A   1      52.942  35.913  26.326  1.00  0.00     0.148 A 
ATOM     92  C   UNL A   1      53.109  37.138  23.807  1.00  0.00     0.002 A 
ATOM     93  C   UNL A   1      53.732  37.041  26.146  1.00  0.00     0.091 A 
ATOM     94  F   UNL A   1      52.878  35.278  27.505  1.00  0.00    -0.205 F 
ATOM     95  C   UNL A   1      53.836  37.642  24.882  1.00  0.00     0.022 A 
BRANCH  93  96
ATOM     96  S   UNL A   1      54.599  37.833  27.505  1.00  0.00     0.127 S 
ATOM     97  O   UNL A   1      53.505  38.125  28.428  1.00  0.00    -0.237 OA
ATOM     98  O   UNL A   1      55.508  36.773  27.942  1.00  0.00    -0.237 OA
ATOM     99  O   UNL A   1      55.265  38.990  26.923  1.00  0.00    -0.744 OA
ENDBRANCH  93  96
ENDBRANCH  65  89
BRANCH  77 100
ATOM    100  C   UNL A   1      53.480  28.624  24.151  1.00  0.00     0.023 A 
ATOM    101  C   UNL A   1      54.462  28.106  25.018  1.00  0.00     0.012 A 
ATOM    102  C   UNL A   1      53.576  28.371  22.768  1.00  0.00     0.148 A 
ATOM    103  C   UNL A   1      55.540  27.380  24.513  1.00  0.00     0.002 A 
ATOM    104  C   UNL A   1      54.621  27.599  22.277  1.00  0.00     0.091 A 
ATOM    105  F   UNL A   1      52.638  28.883  21.957  1.00  0.00    -0.205 F 
ATOM    106  C   UNL A   1      55.613  27.116  23.146  1.00  0.00     0.022 A 
BRANCH 104 107
ATOM    107  S   UNL A   1      54.740  27.123  20.550  1.00  0.00     0.127 S 
ATOM    108  O   UNL A   1      54.871  28.420  19.891  1.00  0.00    -0.237 OA
ATOM    109  O   UNL A   1      55.955  26.306  20.537  1.00  0.00    -0.237 OA
ATOM    110  O   UNL A   1      53.517  26.391  20.248  1.00  0.00    -0.744 OA
ENDBRANCH 104 107
ENDBRANCH  77 100
ENDBRANCH  51  52
ENDBRANCH  44  46
ENDBRANCH  43  44
ENDBRANCH  42  43
ENDBRANCH  41  42
ENDBRANCH  40  41
ENDBRANCH  39  40
ENDBRANCH  38  39
ENDBRANCH   1  38
TORSDOF 27
ENDMDL
