MODEL 1
REMARK VINA RESULT:      -8.8      0.000      0.000
REMARK SMILES CCOc1ccc(-c2cc(Cl)cc3c2O[C@@H](C(F)(F)F)C(C(=O)OCCOCCOCCOCCOC(=O)c2ccc(-c4c5nc(c(-c6cccc(S(=O)(=O)[O-])c6F)c6ccc([nH]6)c(-c6cccc(S(=O)(=O)[O-])c6F)c6nc(c(-c7cccc(S(=O)(=O)[O-])c7F)c7ccc4[nH]7)C=C6)C=C5)cc2)=C3)cc1
REMARK SMILES IDX 30 1 29 2 28 3 27 4 26 5 25 6 24 7 22 8 23 9 21 10 8 11 9 12
REMARK SMILES IDX 14 13 10 14 13 15 15 16 11 17 12 18 102 19 16 20 7 21 4 22
REMARK SMILES IDX 5 23 104 24 6 25 103 26 3 27 2 28 1 29 17 30 18 31 19 32
REMARK SMILES IDX 20 33 31 34 32 35 33 36 34 37 35 38 36 39 37 40 38 41 39 42
REMARK SMILES IDX 40 43 101 44 41 45 100 46 42 47 43 48 44 49 94 50 45 51
REMARK SMILES IDX 99 52 93 53 95 54 46 55 98 56 92 57 91 58 47 60 79 61 59 62
REMARK SMILES IDX 78 63 60 64 63 65 77 66 96 67 61 68 62 69 76 71 97 72 64 73
REMARK SMILES IDX 48 74 49 75 57 76 50 77 52 78 58 79 51 80 53 81 54 82 55 83
REMARK SMILES IDX 56 84 80 85 81 86 89 87 82 88 84 89 90 90 83 91 85 92 86 93
REMARK SMILES IDX 87 94 88 95 65 96 66 97 74 98 67 99 69 100 75 101 68 102
REMARK SMILES IDX 70 103 71 104 72 105 73 106
REMARK H PARENT 95 59 63 70
REMARK Flexibility Score: inf
ROOT
ATOM      1  O   UNL A   1      40.904  24.591  27.106  1.00  0.00    -0.377 OA
ENDROOT
BRANCH   1   2
ATOM      2  C   UNL A   1      41.722  23.511  26.708  1.00  0.00     0.188 C 
BRANCH   2   3
ATOM      3  C   UNL A   1      40.907  22.291  26.257  1.00  0.00     0.188 C 
BRANCH   3   4
ATOM      4  O   UNL A   1      39.595  22.226  26.807  1.00  0.00    -0.376 OA
BRANCH   4   5
ATOM      5  C   UNL A   1      38.508  22.698  26.011  1.00  0.00     0.202 C 
BRANCH   5   6
ATOM      6  C   UNL A   1      37.740  21.686  25.148  1.00  0.00     0.261 C 
BRANCH   6   7
ATOM      7  O   UNL A   1      36.425  21.440  25.699  1.00  0.00    -0.460 OA
BRANCH   7   8
ATOM      8  C   UNL A   1      35.405  22.035  25.060  1.00  0.00     0.338 C 
ATOM      9  O   UNL A   1      34.809  21.560  24.101  1.00  0.00    -0.246 OA
BRANCH   8  10
ATOM     10  C   UNL A   1      34.931  23.257  25.757  1.00  0.00     0.087 C 
ATOM     11  C   UNL A   1      31.794  25.219  23.877  1.00  0.00     0.026 A 
ATOM     12  C   UNL A   1      31.876  24.889  22.505  1.00  0.00     0.033 A 
ATOM     13  C   UNL A   1      32.839  24.726  24.685  1.00  0.00     0.135 A 
ATOM     14  C   UNL A   1      33.078  24.455  21.948  1.00  0.00     0.042 A 
ATOM     15  C   UNL A   1      34.100  24.531  24.106  1.00  0.00     0.019 A 
ATOM     16  O   UNL A   1      32.574  24.173  25.937  1.00  0.00    -0.475 OA
ATOM     17  Cl  UNL A   1      33.160  24.110  20.266  1.00  0.00    -0.084 Cl
ATOM     18  C   UNL A   1      34.223  24.383  22.729  1.00  0.00     0.032 A 
ATOM     19  C   UNL A   1      35.252  24.330  25.011  1.00  0.00     0.027 C 
ATOM     20  C   UNL A   1      33.692  23.445  26.618  1.00  0.00     0.316 C 
BRANCH  11  21
ATOM     21  C   UNL A   1      31.091  26.524  24.146  1.00  0.00    -0.014 A 
ATOM     22  C   UNL A   1      30.166  29.216  23.933  1.00  0.00     0.119 A 
ATOM     23  C   UNL A   1      29.381  28.160  23.477  1.00  0.00     0.047 A 
ATOM     24  C   UNL A   1      31.367  28.936  24.573  1.00  0.00     0.047 A 
ATOM     25  C   UNL A   1      29.836  26.831  23.585  1.00  0.00     0.013 A 
ATOM     26  C   UNL A   1      31.820  27.610  24.679  1.00  0.00     0.013 A 
BRANCH  22  27
ATOM     27  O   UNL A   1      29.663  30.483  23.833  1.00  0.00    -0.494 OA
BRANCH  27  28
ATOM     28  C   UNL A   1      29.003  30.781  22.593  1.00  0.00     0.226 C 
ATOM     29  C   UNL A   1      28.101  32.000  22.718  1.00  0.00     0.049 C 
ENDBRANCH  27  28
ENDBRANCH  22  27
ENDBRANCH  11  21
BRANCH  20  30
ATOM     30  C   UNL A   1      33.265  22.291  27.563  1.00  0.00     0.430 C 
ATOM     31  F   UNL A   1      34.306  21.971  28.378  1.00  0.00    -0.167 F 
ATOM     32  F   UNL A   1      32.249  22.679  28.374  1.00  0.00    -0.167 F 
ATOM     33  F   UNL A   1      32.882  21.153  26.971  1.00  0.00    -0.167 F 
ENDBRANCH  20  30
ENDBRANCH   8  10
ENDBRANCH   7   8
ENDBRANCH   6   7
ENDBRANCH   5   6
ENDBRANCH   4   5
ENDBRANCH   3   4
ENDBRANCH   2   3
ENDBRANCH   1   2
BRANCH   1  34
ATOM     34  C   UNL A   1      40.989  25.794  26.350  1.00  0.00     0.188 C 
BRANCH  34  35
ATOM     35  C   UNL A   1      41.285  27.148  27.034  1.00  0.00     0.188 C 
BRANCH  35  36
ATOM     36  O   UNL A   1      40.182  28.056  27.062  1.00  0.00    -0.376 OA
BRANCH  36  37
ATOM     37  C   UNL A   1      39.230  27.884  28.102  1.00  0.00     0.202 C 
BRANCH  37  38
ATOM     38  C   UNL A   1      38.445  29.153  28.457  1.00  0.00     0.261 C 
BRANCH  38  39
ATOM     39  O   UNL A   1      37.813  29.132  29.744  1.00  0.00    -0.460 OA
BRANCH  39  40
ATOM     40  C   UNL A   1      38.203  30.066  30.639  1.00  0.00     0.338 C 
ATOM     41  O   UNL A   1      37.570  31.041  31.008  1.00  0.00    -0.246 OA
BRANCH  40  42
ATOM     42  C   UNL A   1      39.454  29.594  31.263  1.00  0.00     0.060 A 
ATOM     43  C   UNL A   1      40.551  30.464  31.313  1.00  0.00     0.016 A 
ATOM     44  C   UNL A   1      39.532  28.314  31.819  1.00  0.00     0.016 A 
ATOM     45  C   UNL A   1      41.751  30.036  31.881  1.00  0.00     0.010 A 
ATOM     46  C   UNL A   1      40.737  27.882  32.371  1.00  0.00     0.010 A 
ATOM     47  C   UNL A   1      41.860  28.727  32.368  1.00  0.00    -0.014 A 
BRANCH  47  48
ATOM     48  C   UNL A   1      43.195  28.161  32.666  1.00  0.00     0.031 A 
ATOM     49  C   UNL A   1      44.061  27.754  31.506  1.00  0.00     0.074 A 
ATOM     50  C   UNL A   1      43.619  27.987  33.928  1.00  0.00     0.049 A 
ATOM     51  N   UNL A   1      45.251  27.217  31.508  1.00  0.00    -0.248 NA
ATOM     52  C   UNL A   1      43.500  27.977  30.162  1.00  0.00     0.031 C 
ATOM     53  C   UNL A   1      42.869  28.340  35.132  1.00  0.00     0.029 A 
ATOM     54  N   UNL A   1      44.786  27.442  34.403  1.00  0.00    -0.354 N 
ATOM     55  C   UNL A   1      45.573  27.016  30.172  1.00  0.00     0.074 A 
ATOM     56  C   UNL A   1      44.447  27.473  29.387  1.00  0.00     0.031 C 
ATOM     57  C   UNL A   1      43.586  27.978  36.210  1.00  0.00     0.029 A 
ATOM     58  C   UNL A   1      44.835  27.353  35.773  1.00  0.00     0.049 A 
ATOM     59  H   UNL A   1      45.519  27.144  33.817  1.00  0.00     0.167 HD
ATOM     60  C   UNL A   1      46.711  26.510  29.641  1.00  0.00     0.034 A 
ATOM     61  C   UNL A   1      45.773  26.814  36.576  1.00  0.00     0.034 A 
ATOM     62  C   UNL A   1      47.830  26.061  30.421  1.00  0.00     0.049 A 
ATOM     63  C   UNL A   1      47.019  26.227  35.962  1.00  0.00     0.074 A 
ATOM     64  C   UNL A   1      49.047  25.579  29.979  1.00  0.00     0.029 A 
ATOM     65  N   UNL A   1      47.858  26.017  31.806  1.00  0.00    -0.354 N 
ATOM     66  N   UNL A   1      47.372  26.168  34.700  1.00  0.00    -0.248 NA
ATOM     67  C   UNL A   1      48.012  25.659  36.886  1.00  0.00     0.031 C 
ATOM     68  C   UNL A   1      49.804  25.217  31.100  1.00  0.00     0.029 A 
ATOM     69  C   UNL A   1      49.066  25.500  32.239  1.00  0.00     0.049 A 
ATOM     70  H   UNL A   1      47.125  26.311  32.395  1.00  0.00     0.167 HD
ATOM     71  C   UNL A   1      48.639  25.593  34.680  1.00  0.00     0.074 A 
ATOM     72  C   UNL A   1      48.998  25.334  36.060  1.00  0.00     0.031 C 
ATOM     73  C   UNL A   1      49.430  25.297  33.619  1.00  0.00     0.034 A 
BRANCH  60  74
ATOM     74  C   UNL A   1      46.796  26.439  28.140  1.00  0.00     0.023 A 
ATOM     75  C   UNL A   1      47.322  27.530  27.418  1.00  0.00     0.012 A 
ATOM     76  C   UNL A   1      46.369  25.292  27.445  1.00  0.00     0.148 A 
ATOM     77  C   UNL A   1      47.384  27.497  26.025  1.00  0.00     0.002 A 
ATOM     78  C   UNL A   1      46.476  25.248  26.060  1.00  0.00     0.091 A 
ATOM     79  F   UNL A   1      45.844  24.277  28.146  1.00  0.00    -0.205 F 
ATOM     80  C   UNL A   1      46.971  26.353  25.348  1.00  0.00     0.022 A 
BRANCH  78  81
ATOM     81  S   UNL A   1      46.035  23.790  25.109  1.00  0.00     0.127 S 
ATOM     82  O   UNL A   1      46.434  22.714  26.015  1.00  0.00    -0.237 OA
ATOM     83  O   UNL A   1      44.588  23.949  24.952  1.00  0.00    -0.237 OA
ATOM     84  O   UNL A   1      46.790  23.881  23.867  1.00  0.00    -0.744 OA
ENDBRANCH  78  81
ENDBRANCH  60  74
BRANCH  61  85
ATOM     85  C   UNL A   1      45.597  26.852  38.055  1.00  0.00     0.023 A 
ATOM     86  C   UNL A   1      45.028  25.743  38.711  1.00  0.00     0.012 A 
ATOM     87  C   UNL A   1      46.012  27.963  38.816  1.00  0.00     0.148 A 
ATOM     88  C   UNL A   1      44.852  25.749  40.095  1.00  0.00     0.002 A 
ATOM     89  C   UNL A   1      45.880  27.941  40.200  1.00  0.00     0.091 A 
ATOM     90  F   UNL A   1      46.537  29.012  38.170  1.00  0.00    -0.205 F 
ATOM     91  C   UNL A   1      45.287  26.842  40.840  1.00  0.00     0.022 A 
BRANCH  89  92
ATOM     92  S   UNL A   1      46.512  29.250  41.255  1.00  0.00     0.127 S 
ATOM     93  O   UNL A   1      45.592  30.345  40.956  1.00  0.00    -0.237 OA
ATOM     94  O   UNL A   1      46.358  28.661  42.586  1.00  0.00    -0.237 OA
ATOM     95  O   UNL A   1      47.893  29.459  40.842  1.00  0.00    -0.744 OA
ENDBRANCH  89  92
ENDBRANCH  61  85
BRANCH  73  96
ATOM     96  C   UNL A   1      50.781  24.687  33.895  1.00  0.00     0.023 A 
ATOM     97  C   UNL A   1      51.871  25.517  34.221  1.00  0.00     0.012 A 
ATOM     98  C   UNL A   1      50.946  23.287  33.919  1.00  0.00     0.148 A 
ATOM     99  C   UNL A   1      53.112  24.964  34.537  1.00  0.00     0.002 A 
ATOM    100  C   UNL A   1      52.172  22.743  34.282  1.00  0.00     0.091 A 
ATOM    101  F   UNL A   1      49.901  22.514  33.589  1.00  0.00    -0.205 F 
ATOM    102  C   UNL A   1      53.259  23.579  34.582  1.00  0.00     0.022 A 
BRANCH 100 103
ATOM    103  S   UNL A   1      52.423  20.973  34.461  1.00  0.00     0.127 S 
ATOM    104  O   UNL A   1      53.835  20.834  34.110  1.00  0.00    -0.237 OA
ATOM    105  O   UNL A   1      52.124  20.757  35.878  1.00  0.00    -0.237 OA
ATOM    106  O   UNL A   1      51.483  20.340  33.545  1.00  0.00    -0.744 OA
ENDBRANCH 100 103
ENDBRANCH  73  96
ENDBRANCH  47  48
ENDBRANCH  40  42
ENDBRANCH  39  40
ENDBRANCH  38  39
ENDBRANCH  37  38
ENDBRANCH  36  37
ENDBRANCH  35  36
ENDBRANCH  34  35
ENDBRANCH   1  34
TORSDOF 27
ENDMDL
MODEL 2
REMARK VINA RESULT:      -8.5      7.585     11.424
REMARK SMILES CCOc1ccc(-c2cc(Cl)cc3c2O[C@@H](C(F)(F)F)C(C(=O)OCCOCCOCCOCCOC(=O)c2ccc(-c4c5nc(c(-c6cccc(S(=O)(=O)[O-])c6F)c6ccc([nH]6)c(-c6cccc(S(=O)(=O)[O-])c6F)c6nc(c(-c7cccc(S(=O)(=O)[O-])c7F)c7ccc4[nH]7)C=C6)C=C5)cc2)=C3)cc1
REMARK SMILES IDX 30 1 29 2 28 3 27 4 26 5 25 6 24 7 22 8 23 9 21 10 8 11 9 12
REMARK SMILES IDX 14 13 10 14 13 15 15 16 11 17 12 18 102 19 16 20 7 21 4 22
REMARK SMILES IDX 5 23 104 24 6 25 103 26 3 27 2 28 1 29 17 30 18 31 19 32
REMARK SMILES IDX 20 33 31 34 32 35 33 36 34 37 35 38 36 39 37 40 38 41 39 42
REMARK SMILES IDX 40 43 101 44 41 45 100 46 42 47 43 48 44 49 94 50 45 51
REMARK SMILES IDX 99 52 93 53 95 54 46 55 98 56 92 57 91 58 47 60 79 61 59 62
REMARK SMILES IDX 78 63 60 64 63 65 77 66 96 67 61 68 62 69 76 71 97 72 64 73
REMARK SMILES IDX 48 74 49 75 57 76 50 77 52 78 58 79 51 80 53 81 54 82 55 83
REMARK SMILES IDX 56 84 80 85 81 86 89 87 82 88 84 89 90 90 83 91 85 92 86 93
REMARK SMILES IDX 87 94 88 95 65 96 66 97 74 98 67 99 69 100 75 101 68 102
REMARK SMILES IDX 70 103 71 104 72 105 73 106
REMARK H PARENT 95 59 63 70
REMARK Flexibility Score: inf
ROOT
ATOM      1  O   UNL A   1      34.351  29.309  26.600  1.00  0.00    -0.377 OA
ENDROOT
BRANCH   1   2
ATOM      2  C   UNL A   1      33.308  29.897  25.851  1.00  0.00     0.188 C 
BRANCH   2   3
ATOM      3  C   UNL A   1      31.924  29.625  26.456  1.00  0.00     0.188 C 
BRANCH   3   4
ATOM      4  O   UNL A   1      30.935  29.238  25.507  1.00  0.00    -0.376 OA
BRANCH   4   5
ATOM      5  C   UNL A   1      31.277  29.285  24.122  1.00  0.00     0.202 C 
BRANCH   5   6
ATOM      6  C   UNL A   1      31.033  28.035  23.264  1.00  0.00     0.261 C 
BRANCH   6   7
ATOM      7  O   UNL A   1      30.432  26.983  24.054  1.00  0.00    -0.460 OA
BRANCH   7   8
ATOM      8  C   UNL A   1      31.130  25.839  24.128  1.00  0.00     0.338 C 
ATOM      9  O   UNL A   1      30.635  24.724  24.239  1.00  0.00    -0.246 OA
BRANCH   8  10
ATOM     10  C   UNL A   1      32.578  26.036  23.866  1.00  0.00     0.087 C 
ATOM     11  C   UNL A   1      35.013  22.929  25.148  1.00  0.00     0.026 A 
ATOM     12  C   UNL A   1      34.326  22.287  26.203  1.00  0.00     0.033 A 
ATOM     13  C   UNL A   1      34.392  24.084  24.632  1.00  0.00     0.135 A 
ATOM     14  C   UNL A   1      33.336  22.958  26.921  1.00  0.00     0.042 A 
ATOM     15  C   UNL A   1      33.586  24.851  25.485  1.00  0.00     0.019 A 
ATOM     16  O   UNL A   1      34.334  24.312  23.258  1.00  0.00    -0.475 OA
ATOM     17  Cl  UNL A   1      32.554  22.170  28.232  1.00  0.00    -0.084 Cl
ATOM     18  C   UNL A   1      33.044  24.284  26.632  1.00  0.00     0.032 A 
ATOM     19  C   UNL A   1      33.210  26.210  25.042  1.00  0.00     0.027 C 
ATOM     20  C   UNL A   1      33.444  25.418  22.779  1.00  0.00     0.316 C 
BRANCH  11  21
ATOM     21  C   UNL A   1      36.508  22.751  25.200  1.00  0.00    -0.014 A 
ATOM     22  C   UNL A   1      39.154  22.169  26.100  1.00  0.00     0.119 A 
ATOM     23  C   UNL A   1      38.433  21.229  25.368  1.00  0.00     0.047 A 
ATOM     24  C   UNL A   1      38.603  23.427  26.311  1.00  0.00     0.047 A 
ATOM     25  C   UNL A   1      37.129  21.517  24.921  1.00  0.00     0.013 A 
ATOM     26  C   UNL A   1      37.300  23.712  25.866  1.00  0.00     0.013 A 
BRANCH  22  27
ATOM     27  O   UNL A   1      40.427  21.850  26.481  1.00  0.00    -0.494 OA
BRANCH  27  28
ATOM     28  C   UNL A   1      40.916  22.562  27.628  1.00  0.00     0.226 C 
ATOM     29  C   UNL A   1      42.370  22.972  27.455  1.00  0.00     0.049 C 
ENDBRANCH  27  28
ENDBRANCH  22  27
ENDBRANCH  11  21
BRANCH  20  30
ATOM     30  C   UNL A   1      32.834  25.226  21.366  1.00  0.00     0.430 C 
ATOM     31  F   UNL A   1      33.390  26.128  20.512  1.00  0.00    -0.167 F 
ATOM     32  F   UNL A   1      33.133  23.999  20.873  1.00  0.00    -0.167 F 
ATOM     33  F   UNL A   1      31.508  25.377  21.269  1.00  0.00    -0.167 F 
ENDBRANCH  20  30
ENDBRANCH   8  10
ENDBRANCH   7   8
ENDBRANCH   6   7
ENDBRANCH   5   6
ENDBRANCH   4   5
ENDBRANCH   3   4
ENDBRANCH   2   3
ENDBRANCH   1   2
BRANCH   1  34
ATOM     34  C   UNL A   1      34.797  29.998  27.761  1.00  0.00     0.188 C 
BRANCH  34  35
ATOM     35  C   UNL A   1      35.098  31.514  27.725  1.00  0.00     0.188 C 
BRANCH  35  36
ATOM     36  O   UNL A   1      34.420  32.281  28.720  1.00  0.00    -0.376 OA
BRANCH  36  37
ATOM     37  C   UNL A   1      35.197  33.208  29.464  1.00  0.00     0.202 C 
BRANCH  37  38
ATOM     38  C   UNL A   1      34.596  33.592  30.823  1.00  0.00     0.261 C 
BRANCH  38  39
ATOM     39  O   UNL A   1      34.461  32.507  31.751  1.00  0.00    -0.460 OA
BRANCH  39  40
ATOM     40  C   UNL A   1      35.527  31.694  31.911  1.00  0.00     0.338 C 
ATOM     41  O   UNL A   1      35.911  30.826  31.145  1.00  0.00    -0.246 OA
BRANCH  40  42
ATOM     42  C   UNL A   1      36.285  32.172  33.083  1.00  0.00     0.060 A 
ATOM     43  C   UNL A   1      35.938  33.405  33.652  1.00  0.00     0.016 A 
ATOM     44  C   UNL A   1      37.309  31.396  33.631  1.00  0.00     0.016 A 
ATOM     45  C   UNL A   1      36.651  33.887  34.748  1.00  0.00     0.010 A 
ATOM     46  C   UNL A   1      38.031  31.887  34.718  1.00  0.00     0.010 A 
ATOM     47  C   UNL A   1      37.730  33.151  35.254  1.00  0.00    -0.014 A 
BRANCH  47  48
ATOM     48  C   UNL A   1      38.686  33.790  36.187  1.00  0.00     0.031 A 
ATOM     49  C   UNL A   1      39.847  34.542  35.598  1.00  0.00     0.074 A 
ATOM     50  C   UNL A   1      38.545  33.686  37.518  1.00  0.00     0.049 A 
ATOM     51  N   UNL A   1      40.824  35.164  36.201  1.00  0.00    -0.248 NA
ATOM     52  C   UNL A   1      39.916  34.591  34.127  1.00  0.00     0.031 C 
ATOM     53  C   UNL A   1      37.465  32.981  38.205  1.00  0.00     0.029 A 
ATOM     54  N   UNL A   1      39.341  34.159  38.532  1.00  0.00    -0.354 N 
ATOM     55  C   UNL A   1      41.636  35.657  35.187  1.00  0.00     0.074 A 
ATOM     56  C   UNL A   1      41.047  35.249  33.931  1.00  0.00     0.031 C 
ATOM     57  C   UNL A   1      37.679  33.046  39.531  1.00  0.00     0.029 A 
ATOM     58  C   UNL A   1      38.919  33.781  39.784  1.00  0.00     0.049 A 
ATOM     59  H   UNL A   1      40.137  34.716  38.377  1.00  0.00     0.167 HD
ATOM     60  C   UNL A   1      42.765  36.398  35.290  1.00  0.00     0.034 A 
ATOM     61  C   UNL A   1      39.481  33.991  40.991  1.00  0.00     0.034 A 
ATOM     62  C   UNL A   1      43.346  36.806  36.538  1.00  0.00     0.049 A 
ATOM     63  C   UNL A   1      40.756  34.793  41.079  1.00  0.00     0.074 A 
ATOM     64  C   UNL A   1      44.458  37.599  36.750  1.00  0.00     0.029 A 
ATOM     65  N   UNL A   1      42.873  36.434  37.786  1.00  0.00    -0.354 N 
ATOM     66  N   UNL A   1      41.440  35.370  40.120  1.00  0.00    -0.248 NA
ATOM     67  C   UNL A   1      41.321  34.997  42.422  1.00  0.00     0.031 C 
ATOM     68  C   UNL A   1      44.674  37.683  38.130  1.00  0.00     0.029 A 
ATOM     69  C   UNL A   1      43.680  36.966  38.776  1.00  0.00     0.049 A 
ATOM     70  H   UNL A   1      42.079  35.873  37.945  1.00  0.00     0.167 HD
ATOM     71  C   UNL A   1      42.491  36.035  40.744  1.00  0.00     0.074 A 
ATOM     72  C   UNL A   1      42.345  35.801  42.166  1.00  0.00     0.031 C 
ATOM     73  C   UNL A   1      43.491  36.766  40.191  1.00  0.00     0.034 A 
BRANCH  60  74
ATOM     74  C   UNL A   1      43.426  36.823  34.007  1.00  0.00     0.023 A 
ATOM     75  C   UNL A   1      44.154  35.881  33.251  1.00  0.00     0.012 A 
ATOM     76  C   UNL A   1      43.316  38.146  33.540  1.00  0.00     0.148 A 
ATOM     77  C   UNL A   1      44.798  36.259  32.073  1.00  0.00     0.002 A 
ATOM     78  C   UNL A   1      43.923  38.506  32.342  1.00  0.00     0.091 A 
ATOM     79  F   UNL A   1      42.645  39.035  34.287  1.00  0.00    -0.205 F 
ATOM     80  C   UNL A   1      44.674  37.568  31.615  1.00  0.00     0.022 A 
BRANCH  78  81
ATOM     81  S   UNL A   1      43.757  40.149  31.637  1.00  0.00     0.127 S 
ATOM     82  O   UNL A   1      44.955  40.812  32.149  1.00  0.00    -0.237 OA
ATOM     83  O   UNL A   1      43.781  39.872  30.200  1.00  0.00    -0.237 OA
ATOM     84  O   UNL A   1      42.490  40.667  32.130  1.00  0.00    -0.744 OA
ENDBRANCH  78  81
ENDBRANCH  60  74
BRANCH  61  85
ATOM     85  C   UNL A   1      38.813  33.482  42.221  1.00  0.00     0.023 A 
ATOM     86  C   UNL A   1      39.265  32.283  42.805  1.00  0.00     0.012 A 
ATOM     87  C   UNL A   1      37.755  34.187  42.828  1.00  0.00     0.148 A 
ATOM     88  C   UNL A   1      38.661  31.782  43.959  1.00  0.00     0.002 A 
ATOM     89  C   UNL A   1      37.192  33.708  44.006  1.00  0.00     0.091 A 
ATOM     90  F   UNL A   1      37.332  35.317  42.247  1.00  0.00    -0.205 F 
ATOM     91  C   UNL A   1      37.633  32.498  44.564  1.00  0.00     0.022 A 
BRANCH  89  92
ATOM     92  S   UNL A   1      35.940  34.616  44.920  1.00  0.00     0.127 S 
ATOM     93  O   UNL A   1      36.524  35.953  44.981  1.00  0.00    -0.237 OA
ATOM     94  O   UNL A   1      34.778  34.490  44.040  1.00  0.00    -0.237 OA
ATOM     95  O   UNL A   1      35.808  33.929  46.198  1.00  0.00    -0.744 OA
ENDBRANCH  89  92
ENDBRANCH  61  85
BRANCH  73  96
ATOM     96  C   UNL A   1      44.497  37.399  41.119  1.00  0.00     0.023 A 
ATOM     97  C   UNL A   1      44.230  38.658  41.690  1.00  0.00     0.012 A 
ATOM     98  C   UNL A   1      45.665  36.704  41.494  1.00  0.00     0.148 A 
ATOM     99  C   UNL A   1      45.123  39.230  42.596  1.00  0.00     0.002 A 
ATOM    100  C   UNL A   1      46.525  37.257  42.434  1.00  0.00     0.091 A 
ATOM    101  F   UNL A   1      45.910  35.514  40.927  1.00  0.00    -0.205 F 
ATOM    102  C   UNL A   1      46.262  38.524  42.979  1.00  0.00     0.022 A 
BRANCH 100 103
ATOM    103  S   UNL A   1      47.963  36.377  43.058  1.00  0.00     0.127 S 
ATOM    104  O   UNL A   1      47.359  35.156  43.588  1.00  0.00    -0.237 OA
ATOM    105  O   UNL A   1      48.761  36.186  41.846  1.00  0.00    -0.237 OA
ATOM    106  O   UNL A   1      48.572  37.256  44.048  1.00  0.00    -0.744 OA
ENDBRANCH 100 103
ENDBRANCH  73  96
ENDBRANCH  47  48
ENDBRANCH  40  42
ENDBRANCH  39  40
ENDBRANCH  38  39
ENDBRANCH  37  38
ENDBRANCH  36  37
ENDBRANCH  35  36
ENDBRANCH  34  35
ENDBRANCH   1  34
TORSDOF 27
ENDMDL
MODEL 3
REMARK VINA RESULT:      -8.3      3.143      8.750
REMARK SMILES CCOc1ccc(-c2cc(Cl)cc3c2O[C@@H](C(F)(F)F)C(C(=O)OCCOCCOCCOCCOC(=O)c2ccc(-c4c5nc(c(-c6cccc(S(=O)(=O)[O-])c6F)c6ccc([nH]6)c(-c6cccc(S(=O)(=O)[O-])c6F)c6nc(c(-c7cccc(S(=O)(=O)[O-])c7F)c7ccc4[nH]7)C=C6)C=C5)cc2)=C3)cc1
REMARK SMILES IDX 30 1 29 2 28 3 27 4 26 5 25 6 24 7 22 8 23 9 21 10 8 11 9 12
REMARK SMILES IDX 14 13 10 14 13 15 15 16 11 17 12 18 102 19 16 20 7 21 4 22
REMARK SMILES IDX 5 23 104 24 6 25 103 26 3 27 2 28 1 29 17 30 18 31 19 32
REMARK SMILES IDX 20 33 31 34 32 35 33 36 34 37 35 38 36 39 37 40 38 41 39 42
REMARK SMILES IDX 40 43 101 44 41 45 100 46 42 47 43 48 44 49 94 50 45 51
REMARK SMILES IDX 99 52 93 53 95 54 46 55 98 56 92 57 91 58 47 60 79 61 59 62
REMARK SMILES IDX 78 63 60 64 63 65 77 66 96 67 61 68 62 69 76 71 97 72 64 73
REMARK SMILES IDX 48 74 49 75 57 76 50 77 52 78 58 79 51 80 53 81 54 82 55 83
REMARK SMILES IDX 56 84 80 85 81 86 89 87 82 88 84 89 90 90 83 91 85 92 86 93
REMARK SMILES IDX 87 94 88 95 65 96 66 97 74 98 67 99 69 100 75 101 68 102
REMARK SMILES IDX 70 103 71 104 72 105 73 106
REMARK H PARENT 95 59 63 70
REMARK Flexibility Score: inf
ROOT
ATOM      1  O   UNL A   1      34.548  29.377  26.112  1.00  0.00    -0.377 OA
ENDROOT
BRANCH   1   2
ATOM      2  C   UNL A   1      33.401  30.194  26.006  1.00  0.00     0.188 C 
BRANCH   2   3
ATOM      3  C   UNL A   1      32.616  30.279  27.321  1.00  0.00     0.188 C 
BRANCH   3   4
ATOM      4  O   UNL A   1      31.744  29.178  27.557  1.00  0.00    -0.376 OA
BRANCH   4   5
ATOM      5  C   UNL A   1      31.366  28.370  26.443  1.00  0.00     0.202 C 
BRANCH   5   6
ATOM      6  C   UNL A   1      31.861  26.917  26.391  1.00  0.00     0.261 C 
BRANCH   6   7
ATOM      7  O   UNL A   1      32.995  26.795  25.501  1.00  0.00    -0.460 OA
BRANCH   7   8
ATOM      8  C   UNL A   1      32.703  26.517  24.221  1.00  0.00     0.338 C 
ATOM      9  O   UNL A   1      31.901  27.138  23.535  1.00  0.00    -0.246 OA
BRANCH   8  10
ATOM     10  C   UNL A   1      33.602  25.486  23.643  1.00  0.00     0.087 C 
ATOM     11  C   UNL A   1      32.294  21.576  24.123  1.00  0.00     0.026 A 
ATOM     12  C   UNL A   1      31.463  21.567  25.265  1.00  0.00     0.033 A 
ATOM     13  C   UNL A   1      32.925  22.805  23.840  1.00  0.00     0.135 A 
ATOM     14  C   UNL A   1      31.572  22.563  26.234  1.00  0.00     0.042 A 
ATOM     15  C   UNL A   1      33.220  23.668  24.904  1.00  0.00     0.019 A 
ATOM     16  O   UNL A   1      32.998  23.288  22.534  1.00  0.00    -0.475 OA
ATOM     17  Cl  UNL A   1      30.583  22.497  27.637  1.00  0.00    -0.084 Cl
ATOM     18  C   UNL A   1      32.533  23.556  26.107  1.00  0.00     0.032 A 
ATOM     19  C   UNL A   1      34.156  24.784  24.649  1.00  0.00     0.027 C 
ATOM     20  C   UNL A   1      33.450  24.704  22.348  1.00  0.00     0.316 C 
BRANCH  11  21
ATOM     21  C   UNL A   1      32.919  20.241  23.815  1.00  0.00    -0.014 A 
ATOM     22  C   UNL A   1      33.686  17.494  23.950  1.00  0.00     0.119 A 
ATOM     23  C   UNL A   1      32.621  17.892  23.146  1.00  0.00     0.047 A 
ATOM     24  C   UNL A   1      34.426  18.462  24.617  1.00  0.00     0.047 A 
ATOM     25  C   UNL A   1      32.244  19.248  23.076  1.00  0.00     0.013 A 
ATOM     26  C   UNL A   1      34.048  19.814  24.548  1.00  0.00     0.013 A 
BRANCH  22  27
ATOM     27  O   UNL A   1      34.030  16.171  23.956  1.00  0.00    -0.494 OA
BRANCH  27  28
ATOM     28  C   UNL A   1      33.340  15.367  24.925  1.00  0.00     0.226 C 
ATOM     29  C   UNL A   1      32.496  16.219  25.861  1.00  0.00     0.049 C 
ENDBRANCH  27  28
ENDBRANCH  22  27
ENDBRANCH  11  21
BRANCH  20  30
ATOM     30  C   UNL A   1      32.876  25.434  21.105  1.00  0.00     0.430 C 
ATOM     31  F   UNL A   1      33.243  24.762  19.981  1.00  0.00    -0.167 F 
ATOM     32  F   UNL A   1      31.520  25.432  21.125  1.00  0.00    -0.167 F 
ATOM     33  F   UNL A   1      33.264  26.703  20.933  1.00  0.00    -0.167 F 
ENDBRANCH  20  30
ENDBRANCH   8  10
ENDBRANCH   7   8
ENDBRANCH   6   7
ENDBRANCH   5   6
ENDBRANCH   4   5
ENDBRANCH   3   4
ENDBRANCH   2   3
ENDBRANCH   1   2
BRANCH   1  34
ATOM     34  C   UNL A   1      35.227  29.355  27.362  1.00  0.00     0.188 C 
BRANCH  34  35
ATOM     35  C   UNL A   1      35.936  30.615  27.910  1.00  0.00     0.188 C 
BRANCH  35  36
ATOM     36  O   UNL A   1      35.809  30.805  29.319  1.00  0.00    -0.376 OA
BRANCH  36  37
ATOM     37  C   UNL A   1      36.313  32.020  29.855  1.00  0.00     0.202 C 
BRANCH  37  38
ATOM     38  C   UNL A   1      37.091  31.858  31.168  1.00  0.00     0.261 C 
BRANCH  38  39
ATOM     39  O   UNL A   1      38.410  31.316  31.025  1.00  0.00    -0.460 OA
BRANCH  39  40
ATOM     40  C   UNL A   1      39.377  31.824  31.820  1.00  0.00     0.338 C 
ATOM     41  O   UNL A   1      39.246  32.669  32.689  1.00  0.00    -0.246 OA
BRANCH  40  42
ATOM     42  C   UNL A   1      40.601  31.029  31.601  1.00  0.00     0.060 A 
ATOM     43  C   UNL A   1      40.531  29.636  31.731  1.00  0.00     0.016 A 
ATOM     44  C   UNL A   1      41.799  31.654  31.243  1.00  0.00     0.016 A 
ATOM     45  C   UNL A   1      41.678  28.864  31.548  1.00  0.00     0.010 A 
ATOM     46  C   UNL A   1      42.948  30.882  31.077  1.00  0.00     0.010 A 
ATOM     47  C   UNL A   1      42.899  29.491  31.267  1.00  0.00    -0.014 A 
BRANCH  47  48
ATOM     48  C   UNL A   1      44.163  28.731  31.394  1.00  0.00     0.031 A 
ATOM     49  C   UNL A   1      44.868  28.756  32.722  1.00  0.00     0.074 A 
ATOM     50  C   UNL A   1      44.687  28.059  30.356  1.00  0.00     0.049 A 
ATOM     51  N   UNL A   1      45.992  28.193  33.076  1.00  0.00    -0.248 NA
ATOM     52  C   UNL A   1      44.216  29.528  33.794  1.00  0.00     0.031 C 
ATOM     53  C   UNL A   1      44.099  27.965  29.022  1.00  0.00     0.029 A 
ATOM     54  N   UNL A   1      45.856  27.346  30.263  1.00  0.00    -0.354 N 
ATOM     55  C   UNL A   1      46.195  28.561  34.399  1.00  0.00     0.074 A 
ATOM     56  C   UNL A   1      45.087  29.409  34.782  1.00  0.00     0.031 C 
ATOM     57  C   UNL A   1      44.925  27.255  28.234  1.00  0.00     0.029 A 
ATOM     58  C   UNL A   1      46.106  26.861  29.002  1.00  0.00     0.049 A 
ATOM     59  H   UNL A   1      46.458  27.195  31.027  1.00  0.00     0.167 HD
ATOM     60  C   UNL A   1      47.206  28.214  35.231  1.00  0.00     0.034 A 
ATOM     61  C   UNL A   1      47.173  26.192  28.524  1.00  0.00     0.034 A 
ATOM     62  C   UNL A   1      48.303  27.369  34.850  1.00  0.00     0.049 A 
ATOM     63  C   UNL A   1      48.303  25.842  29.460  1.00  0.00     0.074 A 
ATOM     64  C   UNL A   1      49.351  26.917  35.630  1.00  0.00     0.029 A 
ATOM     65  N   UNL A   1      48.506  26.868  33.574  1.00  0.00    -0.354 N 
ATOM     66  N   UNL A   1      48.418  26.079  30.745  1.00  0.00    -0.248 NA
ATOM     67  C   UNL A   1      49.439  25.105  28.885  1.00  0.00     0.031 C 
ATOM     68  C   UNL A   1      50.204  26.163  34.817  1.00  0.00     0.029 A 
ATOM     69  C   UNL A   1      49.671  26.123  33.537  1.00  0.00     0.049 A 
ATOM     70  H   UNL A   1      47.908  27.019  32.806  1.00  0.00     0.167 HD
ATOM     71  C   UNL A   1      49.615  25.490  31.140  1.00  0.00     0.074 A 
ATOM     72  C   UNL A   1      50.183  24.872  29.959  1.00  0.00     0.031 C 
ATOM     73  C   UNL A   1      50.197  25.470  32.365  1.00  0.00     0.034 A 
BRANCH  60  74
ATOM     74  C   UNL A   1      47.149  28.741  36.638  1.00  0.00     0.023 A 
ATOM     75  C   UNL A   1      47.639  30.034  36.920  1.00  0.00     0.012 A 
ATOM     76  C   UNL A   1      46.600  27.969  37.679  1.00  0.00     0.148 A 
ATOM     77  C   UNL A   1      47.621  30.532  38.222  1.00  0.00     0.002 A 
ATOM     78  C   UNL A   1      46.545  28.490  38.967  1.00  0.00     0.091 A 
ATOM     79  F   UNL A   1      46.167  26.732  37.398  1.00  0.00    -0.205 F 
ATOM     80  C   UNL A   1      47.066  29.764  39.243  1.00  0.00     0.022 A 
BRANCH  78  81
ATOM     81  S   UNL A   1      45.782  27.603  40.329  1.00  0.00     0.127 S 
ATOM     82  O   UNL A   1      46.653  26.434  40.445  1.00  0.00    -0.237 OA
ATOM     83  O   UNL A   1      45.901  28.563  41.428  1.00  0.00    -0.237 OA
ATOM     84  O   UNL A   1      44.414  27.331  39.911  1.00  0.00    -0.744 OA
ENDBRANCH  78  81
ENDBRANCH  60  74
BRANCH  61  85
ATOM     85  C   UNL A   1      47.202  25.758  27.098  1.00  0.00     0.023 A 
ATOM     86  C   UNL A   1      46.639  24.517  26.744  1.00  0.00     0.012 A 
ATOM     87  C   UNL A   1      47.757  26.574  26.093  1.00  0.00     0.148 A 
ATOM     88  C   UNL A   1      46.649  24.085  25.417  1.00  0.00     0.002 A 
ATOM     89  C   UNL A   1      47.718  26.160  24.767  1.00  0.00     0.091 A 
ATOM     90  F   UNL A   1      48.300  27.744  26.456  1.00  0.00    -0.205 F 
ATOM     91  C   UNL A   1      47.179  24.909  24.429  1.00  0.00     0.022 A 
BRANCH  89  92
ATOM     92  S   UNL A   1      48.272  27.199  23.410  1.00  0.00     0.127 S 
ATOM     93  O   UNL A   1      48.563  26.209  22.375  1.00  0.00    -0.237 OA
ATOM     94  O   UNL A   1      47.088  28.021  23.161  1.00  0.00    -0.237 OA
ATOM     95  O   UNL A   1      49.423  27.933  23.918  1.00  0.00    -0.744 OA
ENDBRANCH  89  92
ENDBRANCH  61  85
BRANCH  73  96
ATOM     96  C   UNL A   1      51.504  24.731  32.513  1.00  0.00     0.023 A 
ATOM     97  C   UNL A   1      52.718  25.392  32.244  1.00  0.00     0.012 A 
ATOM     98  C   UNL A   1      51.530  23.410  33.005  1.00  0.00     0.148 A 
ATOM     99  C   UNL A   1      53.936  24.740  32.434  1.00  0.00     0.002 A 
ATOM    100  C   UNL A   1      52.748  22.785  33.238  1.00  0.00     0.091 A 
ATOM    101  F   UNL A   1      50.363  22.792  33.240  1.00  0.00    -0.205 F 
ATOM    102  C   UNL A   1      53.952  23.444  32.943  1.00  0.00     0.022 A 
BRANCH 100 103
ATOM    103  S   UNL A   1      52.865  21.154  33.985  1.00  0.00     0.127 S 
ATOM    104  O   UNL A   1      54.312  20.965  34.063  1.00  0.00    -0.237 OA
ATOM    105  O   UNL A   1      52.206  21.355  35.276  1.00  0.00    -0.237 OA
ATOM    106  O   UNL A   1      52.162  20.250  33.084  1.00  0.00    -0.744 OA
ENDBRANCH 100 103
ENDBRANCH  73  96
ENDBRANCH  47  48
ENDBRANCH  40  42
ENDBRANCH  39  40
ENDBRANCH  38  39
ENDBRANCH  37  38
ENDBRANCH  36  37
ENDBRANCH  35  36
ENDBRANCH  34  35
ENDBRANCH   1  34
TORSDOF 27
ENDMDL
