MODEL 1
REMARK VINA RESULT:      -7.6      0.000      0.000
REMARK SMILES O=C(COc1ccc(Br)cc1/C=C1\C(=O)Nc2ccc(Br)cc21)OCCOCCOCCOCCOC(=O)c1ccc(-c2c3nc(c(-c4cccc(S(=O)(=O)[O-])c4F)c4ccc([nH]4)c(-c4cccc(S(=O)(=O)[O-])c4F)c4nc(c(-c5cccc(S(=O)(=O)[O-])c5F)c5ccc2[nH]5)C=C4)C=C3)cc1
REMARK SMILES IDX 30 1 29 2 28 3 27 4 26 5 25 6 24 7 2 8 1 9 3 10 4 11 5 12
REMARK SMILES IDX 6 13 11 14 7 15 10 16 8 17 9 18 12 19 13 20 14 21 23 22
REMARK SMILES IDX 15 23 16 24 17 25 22 26 18 28 20 29 19 30 21 31 31 32 32 33
REMARK SMILES IDX 33 34 34 35 35 36 36 37 37 38 38 39 39 40 40 41 101 42 41 43
REMARK SMILES IDX 100 44 42 45 43 46 44 47 94 48 45 49 99 50 93 51 95 52 46 53
REMARK SMILES IDX 98 54 92 55 91 56 47 58 79 59 59 60 78 61 60 62 63 63 77 64
REMARK SMILES IDX 96 65 61 66 62 67 76 69 97 70 64 71 48 72 49 73 57 74 50 75
REMARK SMILES IDX 52 76 58 77 51 78 53 79 54 80 55 81 56 82 80 83 81 84 89 85
REMARK SMILES IDX 82 86 84 87 90 88 83 89 85 90 86 91 87 92 88 93 65 94 66 95
REMARK SMILES IDX 74 96 67 97 69 98 75 99 68 100 70 101 71 102 72 103 73 104
REMARK H PARENT 16 27 95 57 63 68
REMARK Flexibility Score: inf
ROOT
ATOM      1  O   UNL A   1      44.414  20.801  24.054  1.00  0.00    -0.377 OA
ENDROOT
BRANCH   1   2
ATOM      2  C   UNL A   1      44.727  22.067  24.633  1.00  0.00     0.188 C 
BRANCH   2   3
ATOM      3  C   UNL A   1      45.975  22.728  24.031  1.00  0.00     0.188 C 
BRANCH   3   4
ATOM      4  O   UNL A   1      46.734  23.464  24.983  1.00  0.00    -0.376 OA
BRANCH   4   5
ATOM      5  C   UNL A   1      46.171  24.535  25.720  1.00  0.00     0.202 C 
BRANCH   5   6
ATOM      6  C   UNL A   1      45.811  25.828  24.987  1.00  0.00     0.261 C 
BRANCH   6   7
ATOM      7  O   UNL A   1      46.616  26.981  25.325  1.00  0.00    -0.461 OA
BRANCH   7   8
ATOM      8  C   UNL A   1      46.436  28.249  24.897  1.00  0.00     0.344 C 
ATOM      9  O   UNL A   1      46.748  28.556  23.748  1.00  0.00    -0.248 OA
BRANCH   8  10
ATOM     10  C   UNL A   1      45.892  29.284  25.872  1.00  0.00     0.351 C 
BRANCH  10  11
ATOM     11  O   UNL A   1      46.329  30.638  25.701  1.00  0.00    -0.481 OA
BRANCH  11  12
ATOM     12  C   UNL A   1      45.722  31.420  26.661  1.00  0.00     0.127 A 
ATOM     13  C   UNL A   1      44.496  30.973  27.189  1.00  0.00     0.048 A 
ATOM     14  C   UNL A   1      46.263  32.680  26.984  1.00  0.00     0.018 A 
ATOM     15  C   UNL A   1      43.680  31.841  27.895  1.00  0.00     0.019 A 
ATOM     16  C   UNL A   1      45.388  33.536  27.665  1.00  0.00     0.027 A 
ATOM     17  C   UNL A   1      44.116  33.136  28.095  1.00  0.00     0.018 A 
ATOM     18  Br  UNL A   1      42.980  34.392  28.936  1.00  0.00    -0.051 Br
BRANCH  14  19
ATOM     19  C   UNL A   1      47.638  33.068  26.530  1.00  0.00     0.026 C 
ATOM     20  C   UNL A   1      48.278  34.256  26.571  1.00  0.00     0.050 C 
ATOM     21  C   UNL A   1      47.737  35.574  27.050  1.00  0.00     0.256 C 
ATOM     22  C   UNL A   1      49.417  34.614  25.703  1.00  0.00     0.012 A 
ATOM     23  O   UNL A   1      47.203  35.852  28.104  1.00  0.00    -0.269 OA
ATOM     24  N   UNL A   1      48.123  36.473  26.075  1.00  0.00    -0.321 N 
ATOM     25  C   UNL A   1      49.149  35.935  25.307  1.00  0.00     0.049 A 
ATOM     26  C   UNL A   1      50.611  34.022  25.337  1.00  0.00     0.026 A 
ATOM     27  H   UNL A   1      47.729  37.367  25.944  1.00  0.00     0.170 HD
ATOM     28  C   UNL A   1      49.926  36.636  24.413  1.00  0.00     0.028 A 
ATOM     29  C   UNL A   1      51.469  34.762  24.506  1.00  0.00     0.018 A 
ATOM     30  C   UNL A   1      51.110  36.030  24.004  1.00  0.00     0.018 A 
ATOM     31  Br  UNL A   1      53.197  34.096  24.105  1.00  0.00    -0.051 Br
ENDBRANCH  14  19
ENDBRANCH  11  12
ENDBRANCH  10  11
ENDBRANCH   8  10
ENDBRANCH   7   8
ENDBRANCH   6   7
ENDBRANCH   5   6
ENDBRANCH   4   5
ENDBRANCH   3   4
ENDBRANCH   2   3
ENDBRANCH   1   2
BRANCH   1  32
ATOM     32  C   UNL A   1      45.264  19.739  24.466  1.00  0.00     0.188 C 
BRANCH  32  33
ATOM     33  C   UNL A   1      44.618  18.656  25.364  1.00  0.00     0.188 C 
BRANCH  33  34
ATOM     34  O   UNL A   1      43.252  18.279  25.222  1.00  0.00    -0.376 OA
BRANCH  34  35
ATOM     35  C   UNL A   1      42.268  18.806  26.099  1.00  0.00     0.202 C 
BRANCH  35  36
ATOM     36  C   UNL A   1      42.650  19.954  27.037  1.00  0.00     0.261 C 
BRANCH  36  37
ATOM     37  O   UNL A   1      41.533  20.717  27.509  1.00  0.00    -0.460 OA
BRANCH  37  38
ATOM     38  C   UNL A   1      41.113  21.712  26.688  1.00  0.00     0.338 C 
ATOM     39  O   UNL A   1      40.309  21.623  25.775  1.00  0.00    -0.246 OA
BRANCH  38  40
ATOM     40  C   UNL A   1      41.621  22.998  27.213  1.00  0.00     0.060 A 
ATOM     41  C   UNL A   1      41.841  24.093  26.371  1.00  0.00     0.016 A 
ATOM     42  C   UNL A   1      41.937  23.075  28.575  1.00  0.00     0.016 A 
ATOM     43  C   UNL A   1      42.342  25.281  26.907  1.00  0.00     0.010 A 
ATOM     44  C   UNL A   1      42.469  24.250  29.102  1.00  0.00     0.010 A 
ATOM     45  C   UNL A   1      42.643  25.370  28.277  1.00  0.00    -0.014 A 
BRANCH  45  46
ATOM     46  C   UNL A   1      42.890  26.692  28.898  1.00  0.00     0.031 A 
ATOM     47  C   UNL A   1      41.784  27.588  29.358  1.00  0.00     0.074 A 
ATOM     48  C   UNL A   1      44.176  27.078  29.002  1.00  0.00     0.049 A 
ATOM     49  N   UNL A   1      41.875  28.744  29.964  1.00  0.00    -0.248 NA
ATOM     50  C   UNL A   1      40.403  27.144  29.113  1.00  0.00     0.031 C 
ATOM     51  C   UNL A   1      45.326  26.290  28.545  1.00  0.00     0.029 A 
ATOM     52  N   UNL A   1      44.735  28.222  29.505  1.00  0.00    -0.354 N 
ATOM     53  C   UNL A   1      40.572  29.169  30.181  1.00  0.00     0.074 A 
ATOM     54  C   UNL A   1      39.702  28.152  29.626  1.00  0.00     0.031 C 
ATOM     55  C   UNL A   1      46.451  26.978  28.782  1.00  0.00     0.029 A 
ATOM     56  C   UNL A   1      46.105  28.248  29.410  1.00  0.00     0.049 A 
ATOM     57  H   UNL A   1      44.206  28.954  29.898  1.00  0.00     0.167 HD
ATOM     58  C   UNL A   1      40.154  30.295  30.805  1.00  0.00     0.034 A 
ATOM     59  C   UNL A   1      46.990  29.184  29.797  1.00  0.00     0.034 A 
ATOM     60  C   UNL A   1      41.033  31.292  31.359  1.00  0.00     0.049 A 
ATOM     61  C   UNL A   1      46.491  30.412  30.496  1.00  0.00     0.074 A 
ATOM     62  C   UNL A   1      40.694  32.445  32.048  1.00  0.00     0.029 A 
ATOM     63  N   UNL A   1      42.416  31.264  31.286  1.00  0.00    -0.354 N 
ATOM     64  N   UNL A   1      45.260  30.734  30.806  1.00  0.00    -0.248 NA
ATOM     65  C   UNL A   1      47.500  31.385  30.935  1.00  0.00     0.031 C 
ATOM     66  C   UNL A   1      41.873  33.114  32.390  1.00  0.00     0.029 A 
ATOM     67  C   UNL A   1      42.945  32.374  31.921  1.00  0.00     0.049 A 
ATOM     68  H   UNL A   1      42.945  30.558  30.848  1.00  0.00     0.167 HD
ATOM     69  C   UNL A   1      45.347  31.927  31.509  1.00  0.00     0.074 A 
ATOM     70  C   UNL A   1      46.753  32.270  31.583  1.00  0.00     0.031 C 
ATOM     71  C   UNL A   1      44.348  32.673  32.036  1.00  0.00     0.034 A 
BRANCH  58  72
ATOM     72  C   UNL A   1      38.678  30.503  31.011  1.00  0.00     0.023 A 
ATOM     73  C   UNL A   1      38.103  30.084  32.227  1.00  0.00     0.012 A 
ATOM     74  C   UNL A   1      37.914  31.265  30.105  1.00  0.00     0.148 A 
ATOM     75  C   UNL A   1      36.789  30.426  32.544  1.00  0.00     0.002 A 
ATOM     76  C   UNL A   1      36.611  31.622  30.439  1.00  0.00     0.091 A 
ATOM     77  F   UNL A   1      38.486  31.650  28.956  1.00  0.00    -0.205 F 
ATOM     78  C   UNL A   1      36.049  31.204  31.657  1.00  0.00     0.022 A 
BRANCH  76  79
ATOM     79  S   UNL A   1      35.587  32.668  29.397  1.00  0.00     0.127 S 
ATOM     80  O   UNL A   1      34.293  32.576  30.074  1.00  0.00    -0.237 OA
ATOM     81  O   UNL A   1      36.251  33.965  29.520  1.00  0.00    -0.237 OA
ATOM     82  O   UNL A   1      35.626  32.076  28.067  1.00  0.00    -0.744 OA
ENDBRANCH  76  79
ENDBRANCH  58  72
BRANCH  59  83
ATOM     83  C   UNL A   1      48.442  28.926  29.623  1.00  0.00     0.023 A 
ATOM     84  C   UNL A   1      49.096  28.074  30.533  1.00  0.00     0.012 A 
ATOM     85  C   UNL A   1      49.154  29.455  28.531  1.00  0.00     0.148 A 
ATOM     86  C   UNL A   1      50.445  27.763  30.365  1.00  0.00     0.002 A 
ATOM     87  C   UNL A   1      50.488  29.110  28.348  1.00  0.00     0.091 A 
ATOM     88  F   UNL A   1      48.506  30.265  27.683  1.00  0.00    -0.205 F 
ATOM     89  C   UNL A   1      51.137  28.272  29.269  1.00  0.00     0.022 A 
BRANCH  87  90
ATOM     90  S   UNL A   1      51.430  29.633  26.912  1.00  0.00     0.127 S 
ATOM     91  O   UNL A   1      50.489  29.365  25.827  1.00  0.00    -0.237 OA
ATOM     92  O   UNL A   1      51.654  31.052  27.197  1.00  0.00    -0.237 OA
ATOM     93  O   UNL A   1      52.638  28.821  26.916  1.00  0.00    -0.744 OA
ENDBRANCH  87  90
ENDBRANCH  59  83
BRANCH  71  94
ATOM     94  C   UNL A   1      44.725  33.928  32.771  1.00  0.00     0.023 A 
ATOM     95  C   UNL A   1      44.866  35.132  32.056  1.00  0.00     0.012 A 
ATOM     96  C   UNL A   1      44.832  33.932  34.175  1.00  0.00     0.148 A 
ATOM     97  C   UNL A   1      45.119  36.326  32.730  1.00  0.00     0.002 A 
ATOM     98  C   UNL A   1      45.051  35.130  34.842  1.00  0.00     0.091 A 
ATOM     99  F   UNL A   1      44.706  32.767  34.828  1.00  0.00    -0.205 F 
ATOM    100  C   UNL A   1      45.200  36.326  34.121  1.00  0.00     0.022 A 
BRANCH  98 101
ATOM    101  S   UNL A   1      45.098  35.244  36.634  1.00  0.00     0.127 S 
ATOM    102  O   UNL A   1      43.905  34.489  37.011  1.00  0.00    -0.237 OA
ATOM    103  O   UNL A   1      46.364  34.585  36.953  1.00  0.00    -0.237 OA
ATOM    104  O   UNL A   1      45.058  36.666  36.949  1.00  0.00    -0.744 OA
ENDBRANCH  98 101
ENDBRANCH  71  94
ENDBRANCH  45  46
ENDBRANCH  38  40
ENDBRANCH  37  38
ENDBRANCH  36  37
ENDBRANCH  35  36
ENDBRANCH  34  35
ENDBRANCH  33  34
ENDBRANCH  32  33
ENDBRANCH   1  32
TORSDOF 26
ENDMDL
MODEL 2
REMARK VINA RESULT:      -6.6      4.347     11.914
REMARK SMILES O=C(COc1ccc(Br)cc1/C=C1\C(=O)Nc2ccc(Br)cc21)OCCOCCOCCOCCOC(=O)c1ccc(-c2c3nc(c(-c4cccc(S(=O)(=O)[O-])c4F)c4ccc([nH]4)c(-c4cccc(S(=O)(=O)[O-])c4F)c4nc(c(-c5cccc(S(=O)(=O)[O-])c5F)c5ccc2[nH]5)C=C4)C=C3)cc1
REMARK SMILES IDX 30 1 29 2 28 3 27 4 26 5 25 6 24 7 2 8 1 9 3 10 4 11 5 12
REMARK SMILES IDX 6 13 11 14 7 15 10 16 8 17 9 18 12 19 13 20 14 21 23 22
REMARK SMILES IDX 15 23 16 24 17 25 22 26 18 28 20 29 19 30 21 31 31 32 32 33
REMARK SMILES IDX 33 34 34 35 35 36 36 37 37 38 38 39 39 40 40 41 101 42 41 43
REMARK SMILES IDX 100 44 42 45 43 46 44 47 94 48 45 49 99 50 93 51 95 52 46 53
REMARK SMILES IDX 98 54 92 55 91 56 47 58 79 59 59 60 78 61 60 62 63 63 77 64
REMARK SMILES IDX 96 65 61 66 62 67 76 69 97 70 64 71 48 72 49 73 57 74 50 75
REMARK SMILES IDX 52 76 58 77 51 78 53 79 54 80 55 81 56 82 80 83 81 84 89 85
REMARK SMILES IDX 82 86 84 87 90 88 83 89 85 90 86 91 87 92 88 93 65 94 66 95
REMARK SMILES IDX 74 96 67 97 69 98 75 99 68 100 70 101 71 102 72 103 73 104
REMARK H PARENT 16 27 95 57 63 68
REMARK Flexibility Score: inf
ROOT
ATOM      1  O   UNL A   1      38.197  35.035  34.327  1.00  0.00    -0.377 OA
ENDROOT
BRANCH   1   2
ATOM      2  C   UNL A   1      36.884  34.627  33.945  1.00  0.00     0.188 C 
BRANCH   2   3
ATOM      3  C   UNL A   1      36.778  34.190  32.477  1.00  0.00     0.188 C 
BRANCH   3   4
ATOM      4  O   UNL A   1      38.016  34.263  31.779  1.00  0.00    -0.376 OA
BRANCH   4   5
ATOM      5  C   UNL A   1      38.148  33.814  30.442  1.00  0.00     0.202 C 
BRANCH   5   6
ATOM      6  C   UNL A   1      36.958  33.960  29.493  1.00  0.00     0.261 C 
BRANCH   6   7
ATOM      7  O   UNL A   1      36.060  32.828  29.439  1.00  0.00    -0.461 OA
BRANCH   7   8
ATOM      8  C   UNL A   1      36.240  31.683  28.746  1.00  0.00     0.344 C 
ATOM      9  O   UNL A   1      35.602  31.488  27.713  1.00  0.00    -0.248 OA
BRANCH   8  10
ATOM     10  C   UNL A   1      37.199  30.635  29.293  1.00  0.00     0.351 C 
BRANCH  10  11
ATOM     11  O   UNL A   1      36.631  29.559  30.048  1.00  0.00    -0.481 OA
BRANCH  11  12
ATOM     12  C   UNL A   1      37.193  29.560  31.308  1.00  0.00     0.127 A 
ATOM     13  C   UNL A   1      36.723  30.512  32.232  1.00  0.00     0.048 A 
ATOM     14  C   UNL A   1      38.288  28.720  31.589  1.00  0.00     0.018 A 
ATOM     15  C   UNL A   1      37.447  30.791  33.379  1.00  0.00     0.019 A 
ATOM     16  C   UNL A   1      39.011  29.064  32.738  1.00  0.00     0.027 A 
ATOM     17  C   UNL A   1      38.614  30.089  33.606  1.00  0.00     0.018 A 
ATOM     18  Br  UNL A   1      39.704  30.529  35.088  1.00  0.00    -0.051 Br
BRANCH  14  19
ATOM     19  C   UNL A   1      38.672  27.614  30.652  1.00  0.00     0.026 C 
ATOM     20  C   UNL A   1      39.765  27.454  29.876  1.00  0.00     0.050 C 
ATOM     21  C   UNL A   1      40.910  28.411  29.695  1.00  0.00     0.256 C 
ATOM     22  C   UNL A   1      39.817  26.582  28.686  1.00  0.00     0.012 A 
ATOM     23  O   UNL A   1      41.610  28.944  30.532  1.00  0.00    -0.269 OA
ATOM     24  N   UNL A   1      41.113  28.443  28.330  1.00  0.00    -0.321 N 
ATOM     25  C   UNL A   1      40.514  27.341  27.731  1.00  0.00     0.049 A 
ATOM     26  C   UNL A   1      39.461  25.279  28.394  1.00  0.00     0.026 A 
ATOM     27  H   UNL A   1      41.610  29.145  27.850  1.00  0.00     0.170 HD
ATOM     28  C   UNL A   1      40.717  26.932  26.432  1.00  0.00     0.028 A 
ATOM     29  C   UNL A   1      39.751  24.806  27.103  1.00  0.00     0.018 A 
ATOM     30  C   UNL A   1      40.321  25.636  26.116  1.00  0.00     0.018 A 
ATOM     31  Br  UNL A   1      39.458  22.982  26.681  1.00  0.00    -0.051 Br
ENDBRANCH  14  19
ENDBRANCH  11  12
ENDBRANCH  10  11
ENDBRANCH   8  10
ENDBRANCH   7   8
ENDBRANCH   6   7
ENDBRANCH   5   6
ENDBRANCH   4   5
ENDBRANCH   3   4
ENDBRANCH   2   3
ENDBRANCH   1   2
BRANCH   1  32
ATOM     32  C   UNL A   1      38.572  34.656  35.644  1.00  0.00     0.188 C 
BRANCH  32  33
ATOM     33  C   UNL A   1      39.684  35.502  36.308  1.00  0.00     0.188 C 
BRANCH  33  34
ATOM     34  O   UNL A   1      39.432  36.312  37.451  1.00  0.00    -0.376 OA
BRANCH  34  35
ATOM     35  C   UNL A   1      40.332  36.306  38.548  1.00  0.00     0.202 C 
BRANCH  35  36
ATOM     36  C   UNL A   1      41.494  35.309  38.547  1.00  0.00     0.261 C 
BRANCH  36  37
ATOM     37  O   UNL A   1      42.789  35.923  38.545  1.00  0.00    -0.460 OA
BRANCH  37  38
ATOM     38  C   UNL A   1      43.217  36.384  37.344  1.00  0.00     0.338 C 
ATOM     39  O   UNL A   1      43.651  37.497  37.095  1.00  0.00    -0.246 OA
BRANCH  38  40
ATOM     40  C   UNL A   1      43.287  35.246  36.403  1.00  0.00     0.060 A 
ATOM     41  C   UNL A   1      42.351  35.092  35.375  1.00  0.00     0.016 A 
ATOM     42  C   UNL A   1      44.285  34.284  36.604  1.00  0.00     0.016 A 
ATOM     43  C   UNL A   1      42.444  33.989  34.522  1.00  0.00     0.010 A 
ATOM     44  C   UNL A   1      44.354  33.167  35.776  1.00  0.00     0.010 A 
ATOM     45  C   UNL A   1      43.454  33.031  34.708  1.00  0.00    -0.014 A 
BRANCH  45  46
ATOM     46  C   UNL A   1      43.736  32.034  33.650  1.00  0.00     0.031 A 
ATOM     47  C   UNL A   1      43.807  30.565  33.923  1.00  0.00     0.074 A 
ATOM     48  C   UNL A   1      43.965  32.515  32.413  1.00  0.00     0.049 A 
ATOM     49  N   UNL A   1      43.994  29.590  33.071  1.00  0.00    -0.248 NA
ATOM     50  C   UNL A   1      43.652  30.124  35.318  1.00  0.00     0.031 C 
ATOM     51  C   UNL A   1      43.958  33.938  32.055  1.00  0.00     0.029 A 
ATOM     52  N   UNL A   1      44.261  31.878  31.239  1.00  0.00    -0.354 N 
ATOM     53  C   UNL A   1      43.975  28.419  33.815  1.00  0.00     0.074 A 
ATOM     54  C   UNL A   1      43.774  28.804  35.197  1.00  0.00     0.031 C 
ATOM     55  C   UNL A   1      44.243  34.064  30.751  1.00  0.00     0.029 A 
ATOM     56  C   UNL A   1      44.448  32.736  30.183  1.00  0.00     0.049 A 
ATOM     57  H   UNL A   1      44.332  30.899  31.159  1.00  0.00     0.167 HD
ATOM     58  C   UNL A   1      44.095  27.146  33.372  1.00  0.00     0.034 A 
ATOM     59  C   UNL A   1      44.740  32.485  28.894  1.00  0.00     0.034 A 
ATOM     60  C   UNL A   1      44.286  26.779  31.992  1.00  0.00     0.049 A 
ATOM     61  C   UNL A   1      44.852  31.063  28.437  1.00  0.00     0.074 A 
ATOM     62  C   UNL A   1      44.374  25.508  31.448  1.00  0.00     0.029 A 
ATOM     63  N   UNL A   1      44.424  27.672  30.942  1.00  0.00    -0.354 N 
ATOM     64  N   UNL A   1      44.703  29.965  29.136  1.00  0.00    -0.248 NA
ATOM     65  C   UNL A   1      45.132  30.840  27.012  1.00  0.00     0.031 C 
ATOM     66  C   UNL A   1      44.567  25.634  30.069  1.00  0.00     0.029 A 
ATOM     67  C   UNL A   1      44.592  26.982  29.755  1.00  0.00     0.049 A 
ATOM     68  H   UNL A   1      44.406  28.653  31.029  1.00  0.00     0.167 HD
ATOM     69  C   UNL A   1      44.832  28.921  28.231  1.00  0.00     0.074 A 
ATOM     70  C   UNL A   1      45.069  29.517  26.932  1.00  0.00     0.031 C 
ATOM     71  C   UNL A   1      44.769  27.588  28.461  1.00  0.00     0.034 A 
BRANCH  58  72
ATOM     72  C   UNL A   1      43.946  26.019  34.358  1.00  0.00     0.023 A 
ATOM     73  C   UNL A   1      42.651  25.558  34.664  1.00  0.00     0.012 A 
ATOM     74  C   UNL A   1      45.068  25.306  34.827  1.00  0.00     0.148 A 
ATOM     75  C   UNL A   1      42.470  24.399  35.418  1.00  0.00     0.002 A 
ATOM     76  C   UNL A   1      44.879  24.137  35.558  1.00  0.00     0.091 A 
ATOM     77  F   UNL A   1      46.289  25.766  34.521  1.00  0.00    -0.205 F 
ATOM     78  C   UNL A   1      43.583  23.683  35.853  1.00  0.00     0.022 A 
BRANCH  76  79
ATOM     79  S   UNL A   1      46.239  23.106  36.121  1.00  0.00     0.127 S 
ATOM     80  O   UNL A   1      47.140  24.102  36.700  1.00  0.00    -0.237 OA
ATOM     81  O   UNL A   1      45.581  22.237  37.095  1.00  0.00    -0.237 OA
ATOM     82  O   UNL A   1      46.752  22.431  34.936  1.00  0.00    -0.744 OA
ENDBRANCH  76  79
ENDBRANCH  58  72
BRANCH  59  83
ATOM     83  C   UNL A   1      44.831  33.617  27.937  1.00  0.00     0.023 A 
ATOM     84  C   UNL A   1      43.665  34.044  27.273  1.00  0.00     0.012 A 
ATOM     85  C   UNL A   1      46.037  34.313  27.739  1.00  0.00     0.148 A 
ATOM     86  C   UNL A   1      43.703  35.140  26.413  1.00  0.00     0.002 A 
ATOM     87  C   UNL A   1      46.059  35.429  26.910  1.00  0.00     0.091 A 
ATOM     88  F   UNL A   1      47.131  33.883  28.382  1.00  0.00    -0.205 F 
ATOM     89  C   UNL A   1      44.896  35.838  26.240  1.00  0.00     0.022 A 
BRANCH  87  90
ATOM     90  S   UNL A   1      47.523  36.450  26.709  1.00  0.00     0.127 S 
ATOM     91  O   UNL A   1      47.110  37.353  25.638  1.00  0.00    -0.237 OA
ATOM     92  O   UNL A   1      47.642  37.072  28.029  1.00  0.00    -0.237 OA
ATOM     93  O   UNL A   1      48.602  35.529  26.379  1.00  0.00    -0.744 OA
ENDBRANCH  87  90
ENDBRANCH  59  83
BRANCH  71  94
ATOM     94  C   UNL A   1      44.930  26.666  27.287  1.00  0.00     0.023 A 
ATOM     95  C   UNL A   1      43.800  26.012  26.761  1.00  0.00     0.012 A 
ATOM     96  C   UNL A   1      46.175  26.536  26.643  1.00  0.00     0.148 A 
ATOM     97  C   UNL A   1      43.910  25.229  25.614  1.00  0.00     0.002 A 
ATOM     98  C   UNL A   1      46.270  25.782  25.481  1.00  0.00     0.091 A 
ATOM     99  F   UNL A   1      47.237  27.161  27.174  1.00  0.00    -0.205 F 
ATOM    100  C   UNL A   1      45.141  25.124  24.968  1.00  0.00     0.022 A 
BRANCH  98 101
ATOM    101  S   UNL A   1      47.794  25.646  24.538  1.00  0.00     0.127 S 
ATOM    102  O   UNL A   1      47.573  24.406  23.795  1.00  0.00    -0.237 OA
ATOM    103  O   UNL A   1      47.762  26.859  23.722  1.00  0.00    -0.237 OA
ATOM    104  O   UNL A   1      48.872  25.600  25.516  1.00  0.00    -0.744 OA
ENDBRANCH  98 101
ENDBRANCH  71  94
ENDBRANCH  45  46
ENDBRANCH  38  40
ENDBRANCH  37  38
ENDBRANCH  36  37
ENDBRANCH  35  36
ENDBRANCH  34  35
ENDBRANCH  33  34
ENDBRANCH  32  33
ENDBRANCH   1  32
TORSDOF 26
ENDMDL
MODEL 3
REMARK VINA RESULT:      -6.4     10.746     16.092
REMARK SMILES O=C(COc1ccc(Br)cc1/C=C1\C(=O)Nc2ccc(Br)cc21)OCCOCCOCCOCCOC(=O)c1ccc(-c2c3nc(c(-c4cccc(S(=O)(=O)[O-])c4F)c4ccc([nH]4)c(-c4cccc(S(=O)(=O)[O-])c4F)c4nc(c(-c5cccc(S(=O)(=O)[O-])c5F)c5ccc2[nH]5)C=C4)C=C3)cc1
REMARK SMILES IDX 30 1 29 2 28 3 27 4 26 5 25 6 24 7 2 8 1 9 3 10 4 11 5 12
REMARK SMILES IDX 6 13 11 14 7 15 10 16 8 17 9 18 12 19 13 20 14 21 23 22
REMARK SMILES IDX 15 23 16 24 17 25 22 26 18 28 20 29 19 30 21 31 31 32 32 33
REMARK SMILES IDX 33 34 34 35 35 36 36 37 37 38 38 39 39 40 40 41 101 42 41 43
REMARK SMILES IDX 100 44 42 45 43 46 44 47 94 48 45 49 99 50 93 51 95 52 46 53
REMARK SMILES IDX 98 54 92 55 91 56 47 58 79 59 59 60 78 61 60 62 63 63 77 64
REMARK SMILES IDX 96 65 61 66 62 67 76 69 97 70 64 71 48 72 49 73 57 74 50 75
REMARK SMILES IDX 52 76 58 77 51 78 53 79 54 80 55 81 56 82 80 83 81 84 89 85
REMARK SMILES IDX 82 86 84 87 90 88 83 89 85 90 86 91 87 92 88 93 65 94 66 95
REMARK SMILES IDX 74 96 67 97 69 98 75 99 68 100 70 101 71 102 72 103 73 104
REMARK H PARENT 16 27 95 57 63 68
REMARK Flexibility Score: inf
ROOT
ATOM      1  O   UNL A   1      52.280  20.355  42.576  1.00  0.00    -0.377 OA
ENDROOT
BRANCH   1   2
ATOM      2  C   UNL A   1      52.042  19.475  43.673  1.00  0.00     0.188 C 
BRANCH   2   3
ATOM      3  C   UNL A   1      50.737  19.772  44.428  1.00  0.00     0.188 C 
BRANCH   3   4
ATOM      4  O   UNL A   1      49.837  18.670  44.446  1.00  0.00    -0.376 OA
BRANCH   4   5
ATOM      5  C   UNL A   1      49.790  17.762  45.533  1.00  0.00     0.202 C 
BRANCH   5   6
ATOM      6  C   UNL A   1      48.616  16.787  45.630  1.00  0.00     0.261 C 
BRANCH   6   7
ATOM      7  O   UNL A   1      47.566  17.165  46.549  1.00  0.00    -0.461 OA
BRANCH   7   8
ATOM      8  C   UNL A   1      46.253  17.306  46.265  1.00  0.00     0.344 C 
ATOM      9  O   UNL A   1      45.873  18.265  45.595  1.00  0.00    -0.248 OA
BRANCH   8  10
ATOM     10  C   UNL A   1      45.265  16.294  46.829  1.00  0.00     0.351 C 
BRANCH  10  11
ATOM     11  O   UNL A   1      44.023  16.135  46.135  1.00  0.00    -0.481 OA
BRANCH  11  12
ATOM     12  C   UNL A   1      43.849  14.797  45.846  1.00  0.00     0.127 A 
ATOM     13  C   UNL A   1      43.438  13.951  46.893  1.00  0.00     0.048 A 
ATOM     14  C   UNL A   1      44.207  14.301  44.577  1.00  0.00     0.018 A 
ATOM     15  C   UNL A   1      43.559  12.576  46.771  1.00  0.00     0.019 A 
ATOM     16  C   UNL A   1      44.352  12.910  44.512  1.00  0.00     0.027 A 
ATOM     17  C   UNL A   1      44.055  12.063  45.588  1.00  0.00     0.018 A 
ATOM     18  Br  UNL A   1      44.363  10.205  45.425  1.00  0.00    -0.051 Br
BRANCH  14  19
ATOM     19  C   UNL A   1      44.493  15.232  43.437  1.00  0.00     0.026 C 
ATOM     20  C   UNL A   1      43.685  15.716  42.470  1.00  0.00     0.050 C 
ATOM     21  C   UNL A   1      42.236  15.392  42.236  1.00  0.00     0.256 C 
ATOM     22  C   UNL A   1      44.163  16.239  41.175  1.00  0.00     0.012 A 
ATOM     23  O   UNL A   1      41.300  15.438  43.008  1.00  0.00    -0.269 OA
ATOM     24  N   UNL A   1      42.153  15.171  40.875  1.00  0.00    -0.321 N 
ATOM     25  C   UNL A   1      43.263  15.712  40.235  1.00  0.00     0.049 A 
ATOM     26  C   UNL A   1      45.136  17.130  40.762  1.00  0.00     0.026 A 
ATOM     27  H   UNL A   1      41.416  14.700  40.424  1.00  0.00     0.170 HD
ATOM     28  C   UNL A   1      43.391  15.884  38.875  1.00  0.00     0.028 A 
ATOM     29  C   UNL A   1      45.220  17.400  39.386  1.00  0.00     0.018 A 
ATOM     30  C   UNL A   1      44.397  16.745  38.447  1.00  0.00     0.018 A 
ATOM     31  Br  UNL A   1      46.404  18.740  38.760  1.00  0.00    -0.051 Br
ENDBRANCH  14  19
ENDBRANCH  11  12
ENDBRANCH  10  11
ENDBRANCH   8  10
ENDBRANCH   7   8
ENDBRANCH   6   7
ENDBRANCH   5   6
ENDBRANCH   4   5
ENDBRANCH   3   4
ENDBRANCH   2   3
ENDBRANCH   1   2
BRANCH   1  32
ATOM     32  C   UNL A   1      51.633  21.616  42.680  1.00  0.00     0.188 C 
BRANCH  32  33
ATOM     33  C   UNL A   1      51.249  22.299  41.346  1.00  0.00     0.188 C 
BRANCH  33  34
ATOM     34  O   UNL A   1      49.928  22.228  40.818  1.00  0.00    -0.376 OA
BRANCH  34  35
ATOM     35  C   UNL A   1      49.366  23.340  40.140  1.00  0.00     0.202 C 
BRANCH  35  36
ATOM     36  C   UNL A   1      49.109  23.238  38.634  1.00  0.00     0.261 C 
BRANCH  36  37
ATOM     37  O   UNL A   1      47.742  23.447  38.260  1.00  0.00    -0.460 OA
BRANCH  37  38
ATOM     38  C   UNL A   1      47.424  23.106  36.987  1.00  0.00     0.338 C 
ATOM     39  O   UNL A   1      47.592  22.023  36.451  1.00  0.00    -0.246 OA
BRANCH  38  40
ATOM     40  C   UNL A   1      46.626  24.200  36.394  1.00  0.00     0.060 A 
ATOM     41  C   UNL A   1      47.236  25.289  35.763  1.00  0.00     0.016 A 
ATOM     42  C   UNL A   1      45.233  24.151  36.534  1.00  0.00     0.016 A 
ATOM     43  C   UNL A   1      46.442  26.311  35.236  1.00  0.00     0.010 A 
ATOM     44  C   UNL A   1      44.445  25.188  36.040  1.00  0.00     0.010 A 
ATOM     45  C   UNL A   1      45.043  26.257  35.358  1.00  0.00    -0.014 A 
BRANCH  45  46
ATOM     46  C   UNL A   1      44.193  27.169  34.559  1.00  0.00     0.031 A 
ATOM     47  C   UNL A   1      43.874  26.922  33.119  1.00  0.00     0.074 A 
ATOM     48  C   UNL A   1      43.738  28.271  35.184  1.00  0.00     0.049 A 
ATOM     49  N   UNL A   1      43.099  27.619  32.328  1.00  0.00    -0.248 NA
ATOM     50  C   UNL A   1      44.495  25.753  32.475  1.00  0.00     0.031 C 
ATOM     51  C   UNL A   1      44.028  28.622  36.579  1.00  0.00     0.029 A 
ATOM     52  N   UNL A   1      42.955  29.302  34.739  1.00  0.00    -0.354 N 
ATOM     53  C   UNL A   1      43.130  26.980  31.098  1.00  0.00     0.074 A 
ATOM     54  C   UNL A   1      44.015  25.842  31.238  1.00  0.00     0.031 C 
ATOM     55  C   UNL A   1      43.438  29.789  36.871  1.00  0.00     0.029 A 
ATOM     56  C   UNL A   1      42.726  30.266  35.690  1.00  0.00     0.049 A 
ATOM     57  H   UNL A   1      42.592  29.348  33.824  1.00  0.00     0.167 HD
ATOM     58  C   UNL A   1      42.460  27.309  29.968  1.00  0.00     0.034 A 
ATOM     59  C   UNL A   1      42.011  31.403  35.627  1.00  0.00     0.034 A 
ATOM     60  C   UNL A   1      41.575  28.440  29.848  1.00  0.00     0.049 A 
ATOM     61  C   UNL A   1      41.272  31.728  34.365  1.00  0.00     0.074 A 
ATOM     62  C   UNL A   1      40.820  28.824  28.752  1.00  0.00     0.029 A 
ATOM     63  N   UNL A   1      41.329  29.369  30.846  1.00  0.00    -0.354 N 
ATOM     64  N   UNL A   1      41.211  31.041  33.251  1.00  0.00    -0.248 NA
ATOM     65  C   UNL A   1      40.472  32.960  34.359  1.00  0.00     0.031 C 
ATOM     66  C   UNL A   1      40.119  29.986  29.087  1.00  0.00     0.029 A 
ATOM     67  C   UNL A   1      40.432  30.321  30.394  1.00  0.00     0.049 A 
ATOM     68  H   UNL A   1      41.733  29.353  31.744  1.00  0.00     0.167 HD
ATOM     69  C   UNL A   1      40.338  31.735  32.426  1.00  0.00     0.074 A 
ATOM     70  C   UNL A   1      39.891  32.896  33.168  1.00  0.00     0.031 C 
ATOM     71  C   UNL A   1      39.952  31.439  31.163  1.00  0.00     0.034 A 
BRANCH  58  72
ATOM     72  C   UNL A   1      42.572  26.407  28.769  1.00  0.00     0.023 A 
ATOM     73  C   UNL A   1      41.455  25.631  28.404  1.00  0.00     0.012 A 
ATOM     74  C   UNL A   1      43.689  26.466  27.913  1.00  0.00     0.148 A 
ATOM     75  C   UNL A   1      41.442  24.929  27.199  1.00  0.00     0.002 A 
ATOM     76  C   UNL A   1      43.660  25.782  26.701  1.00  0.00     0.091 A 
ATOM     77  F   UNL A   1      44.739  27.211  28.285  1.00  0.00    -0.205 F 
ATOM     78  C   UNL A   1      42.538  25.016  26.344  1.00  0.00     0.022 A 
BRANCH  76  79
ATOM     79  S   UNL A   1      44.992  25.868  25.499  1.00  0.00     0.127 S 
ATOM     80  O   UNL A   1      44.585  24.842  24.539  1.00  0.00    -0.237 OA
ATOM     81  O   UNL A   1      44.876  27.241  25.011  1.00  0.00    -0.237 OA
ATOM     82  O   UNL A   1      46.217  25.572  26.230  1.00  0.00    -0.744 OA
ENDBRANCH  76  79
ENDBRANCH  58  72
BRANCH  59  83
ATOM     83  C   UNL A   1      41.879  32.246  36.842  1.00  0.00     0.023 A 
ATOM     84  C   UNL A   1      42.980  33.018  37.259  1.00  0.00     0.012 A 
ATOM     85  C   UNL A   1      40.659  32.346  37.536  1.00  0.00     0.148 A 
ATOM     86  C   UNL A   1      42.872  33.866  38.360  1.00  0.00     0.002 A 
ATOM     87  C   UNL A   1      40.547  33.222  38.609  1.00  0.00     0.091 A 
ATOM     88  F   UNL A   1      39.629  31.597  37.118  1.00  0.00    -0.205 F 
ATOM     89  C   UNL A   1      41.655  33.975  39.028  1.00  0.00     0.022 A 
BRANCH  87  90
ATOM     90  S   UNL A   1      38.993  33.506  39.462  1.00  0.00     0.127 S 
ATOM     91  O   UNL A   1      38.691  32.174  39.980  1.00  0.00    -0.237 OA
ATOM     92  O   UNL A   1      39.379  34.489  40.476  1.00  0.00    -0.237 OA
ATOM     93  O   UNL A   1      38.076  34.014  38.451  1.00  0.00    -0.744 OA
ENDBRANCH  87  90
ENDBRANCH  59  83
BRANCH  71  94
ATOM     94  C   UNL A   1      38.973  32.361  30.495  1.00  0.00     0.023 A 
ATOM     95  C   UNL A   1      39.443  33.517  29.846  1.00  0.00     0.012 A 
ATOM     96  C   UNL A   1      37.607  32.025  30.422  1.00  0.00     0.148 A 
ATOM     97  C   UNL A   1      38.565  34.335  29.138  1.00  0.00     0.002 A 
ATOM     98  C   UNL A   1      36.743  32.826  29.688  1.00  0.00     0.091 A 
ATOM     99  F   UNL A   1      37.185  30.925  31.062  1.00  0.00    -0.205 F 
ATOM    100  C   UNL A   1      37.219  33.984  29.050  1.00  0.00     0.022 A 
BRANCH  98 101
ATOM    101  S   UNL A   1      35.009  32.419  29.454  1.00  0.00     0.127 S 
ATOM    102  O   UNL A   1      34.572  33.484  28.552  1.00  0.00    -0.237 OA
ATOM    103  O   UNL A   1      35.083  31.093  28.841  1.00  0.00    -0.237 OA
ATOM    104  O   UNL A   1      34.406  32.441  30.780  1.00  0.00    -0.744 OA
ENDBRANCH  98 101
ENDBRANCH  71  94
ENDBRANCH  45  46
ENDBRANCH  38  40
ENDBRANCH  37  38
ENDBRANCH  36  37
ENDBRANCH  35  36
ENDBRANCH  34  35
ENDBRANCH  33  34
ENDBRANCH  32  33
ENDBRANCH   1  32
TORSDOF 26
ENDMDL
