MODEL 1
REMARK VINA RESULT:      -9.7      0.000      0.000
REMARK SMILES COc1cc(/C=C2/S/C(=[NH+]\C(C)=O)NC2=O)cc(Br)c1OCC(=O)OCCOCCOCCOCCOC(=O)c1ccc(-c2c3nc(c(-c4cccc(S(=O)(=O)[O-])c4F)c4ccc([nH]4)c(-c4cccc(S(=O)(=O)[O-])c4F)c4nc(c(-c5cccc(S(=O)(=O)[O-])c5F)c5ccc2[nH]5)C=C4)C=C3)cc1
REMARK SMILES IDX 31 1 30 2 29 3 28 4 27 5 26 6 25 7 23 8 24 9 22 10 21 11
REMARK SMILES IDX 20 12 3 13 4 14 5 15 18 16 17 17 19 18 2 19 1 20 6 21 7 22
REMARK SMILES IDX 8 23 15 24 9 25 14 26 16 27 10 28 11 30 12 32 13 33 32 34
REMARK SMILES IDX 33 35 34 36 35 37 36 38 37 39 38 40 39 41 40 42 41 43 102 44
REMARK SMILES IDX 42 45 101 46 43 47 44 48 45 49 95 50 46 51 100 52 94 53
REMARK SMILES IDX 96 54 47 55 99 56 93 57 92 58 48 60 80 61 60 62 79 63 61 64
REMARK SMILES IDX 64 65 78 66 97 67 62 68 63 69 77 71 98 72 65 73 49 74 50 75
REMARK SMILES IDX 58 76 51 77 53 78 59 79 52 80 54 81 55 82 56 83 57 84 81 85
REMARK SMILES IDX 82 86 90 87 83 88 85 89 91 90 84 91 86 92 87 93 88 94 89 95
REMARK SMILES IDX 66 96 67 97 75 98 68 99 70 100 76 101 69 102 71 103 72 104
REMARK SMILES IDX 73 105 74 106
REMARK H PARENT 14 29 10 31 96 59 64 70
REMARK Flexibility Score: inf
ROOT
ATOM      1  O   UNL A   1      39.579  22.219  25.840  1.00  0.00    -0.377 OA
ENDROOT
BRANCH   1   2
ATOM      2  C   UNL A   1      38.182  22.031  25.774  1.00  0.00     0.188 C 
BRANCH   2   3
ATOM      3  C   UNL A   1      37.400  23.235  25.148  1.00  0.00     0.188 C 
BRANCH   3   4
ATOM      4  O   UNL A   1      36.302  23.846  25.812  1.00  0.00    -0.376 OA
BRANCH   4   5
ATOM      5  C   UNL A   1      35.053  23.757  25.172  1.00  0.00     0.202 C 
BRANCH   5   6
ATOM      6  C   UNL A   1      34.691  22.335  24.697  1.00  0.00     0.261 C 
BRANCH   6   7
ATOM      7  O   UNL A   1      34.203  21.401  25.712  1.00  0.00    -0.461 OA
BRANCH   7   8
ATOM      8  C   UNL A   1      33.156  20.568  25.442  1.00  0.00     0.344 C 
ATOM      9  O   UNL A   1      33.214  19.350  25.574  1.00  0.00    -0.248 OA
BRANCH   8  10
ATOM     10  C   UNL A   1      31.848  21.326  24.912  1.00  0.00     0.352 C 
BRANCH  10  11
ATOM     11  O   UNL A   1      31.709  22.562  24.202  1.00  0.00    -0.477 OA
BRANCH  11  12
ATOM     12  C   UNL A   1      31.265  23.814  24.576  1.00  0.00     0.176 A 
ATOM     13  C   UNL A   1      31.629  24.859  23.680  1.00  0.00     0.162 A 
ATOM     14  C   UNL A   1      31.553  26.249  24.035  1.00  0.00     0.058 A 
ATOM     15  C   UNL A   1      31.172  26.669  25.324  1.00  0.00    -0.019 A 
ATOM     16  C   UNL A   1      30.637  24.251  25.748  1.00  0.00     0.064 A 
ATOM     17  C   UNL A   1      30.622  25.648  26.123  1.00  0.00     0.028 A 
ATOM     18  Br  UNL A   1      29.720  23.085  26.937  1.00  0.00    -0.047 Br
BRANCH  13  19
ATOM     19  O   UNL A   1      31.955  24.465  22.397  1.00  0.00    -0.493 OA
ATOM     20  C   UNL A   1      32.378  25.492  21.504  1.00  0.00     0.278 C 
ENDBRANCH  13  19
BRANCH  15  21
ATOM     21  C   UNL A   1      31.271  28.127  25.775  1.00  0.00     0.032 C 
ATOM     22  C   UNL A   1      32.266  28.936  26.251  1.00  0.00     0.110 C 
ATOM     23  S   UNL A   1      32.034  30.613  26.807  1.00  0.00     0.007 SA
ATOM     24  C   UNL A   1      33.737  28.786  26.508  1.00  0.00     0.346 C 
ATOM     25  C   UNL A   1      33.593  30.647  27.624  1.00  0.00     0.324 C 
ATOM     26  N   UNL A   1      34.094  29.400  27.649  1.00  0.00    -0.199 N 
ATOM     27  O   UNL A   1      34.608  28.603  25.673  1.00  0.00    -0.240 OA
ATOM     28  N   UNL A   1      34.415  31.528  28.054  1.00  0.00    -0.204 N 
ATOM     29  H   UNL A   1      34.628  29.005  28.376  1.00  0.00     0.316 HD
ATOM     30  C   UNL A   1      34.417  32.872  27.849  1.00  0.00     0.304 C 
ATOM     31  H   UNL A   1      35.149  31.184  28.614  1.00  0.00     0.316 HD
ATOM     32  C   UNL A   1      33.150  33.657  27.923  1.00  0.00     0.144 C 
ATOM     33  O   UNL A   1      35.483  33.475  27.727  1.00  0.00    -0.247 OA
ENDBRANCH  15  21
ENDBRANCH  11  12
ENDBRANCH  10  11
ENDBRANCH   8  10
ENDBRANCH   7   8
ENDBRANCH   6   7
ENDBRANCH   5   6
ENDBRANCH   4   5
ENDBRANCH   3   4
ENDBRANCH   2   3
ENDBRANCH   1   2
BRANCH   1  34
ATOM     34  C   UNL A   1      40.228  21.375  26.770  1.00  0.00     0.188 C 
BRANCH  34  35
ATOM     35  C   UNL A   1      41.756  21.495  26.756  1.00  0.00     0.188 C 
BRANCH  35  36
ATOM     36  O   UNL A   1      42.569  20.360  26.997  1.00  0.00    -0.376 OA
BRANCH  36  37
ATOM     37  C   UNL A   1      42.428  19.132  26.313  1.00  0.00     0.202 C 
BRANCH  37  38
ATOM     38  C   UNL A   1      43.448  18.623  25.296  1.00  0.00     0.261 C 
BRANCH  38  39
ATOM     39  O   UNL A   1      43.782  19.625  24.373  1.00  0.00    -0.460 OA
BRANCH  39  40
ATOM     40  C   UNL A   1      45.069  19.907  24.181  1.00  0.00     0.338 C 
ATOM     41  O   UNL A   1      46.024  19.154  24.026  1.00  0.00    -0.246 OA
BRANCH  40  42
ATOM     42  C   UNL A   1      45.083  21.287  24.639  1.00  0.00     0.060 A 
ATOM     43  C   UNL A   1      44.390  22.281  23.928  1.00  0.00     0.016 A 
ATOM     44  C   UNL A   1      45.569  21.496  25.930  1.00  0.00     0.016 A 
ATOM     45  C   UNL A   1      44.228  23.527  24.504  1.00  0.00     0.010 A 
ATOM     46  C   UNL A   1      45.405  22.738  26.504  1.00  0.00     0.010 A 
ATOM     47  C   UNL A   1      44.780  23.758  25.767  1.00  0.00    -0.014 A 
BRANCH  47  48
ATOM     48  C   UNL A   1      44.965  25.139  26.215  1.00  0.00     0.031 A 
ATOM     49  C   UNL A   1      46.313  25.744  25.970  1.00  0.00     0.074 A 
ATOM     50  C   UNL A   1      43.970  25.782  26.841  1.00  0.00     0.049 A 
ATOM     51  N   UNL A   1      46.775  26.903  26.338  1.00  0.00    -0.248 NA
ATOM     52  C   UNL A   1      47.282  24.917  25.223  1.00  0.00     0.031 C 
ATOM     53  C   UNL A   1      42.639  25.232  27.103  1.00  0.00     0.029 A 
ATOM     54  N   UNL A   1      43.943  27.028  27.397  1.00  0.00    -0.354 N 
ATOM     55  C   UNL A   1      48.093  26.929  25.904  1.00  0.00     0.074 A 
ATOM     56  C   UNL A   1      48.369  25.668  25.261  1.00  0.00     0.031 C 
ATOM     57  C   UNL A   1      41.931  26.133  27.804  1.00  0.00     0.029 A 
ATOM     58  C   UNL A   1      42.772  27.298  28.061  1.00  0.00     0.049 A 
ATOM     59  H   UNL A   1      44.687  27.668  27.329  1.00  0.00     0.167 HD
ATOM     60  C   UNL A   1      48.988  27.932  26.029  1.00  0.00     0.034 A 
ATOM     61  C   UNL A   1      42.450  28.364  28.815  1.00  0.00     0.034 A 
ATOM     62  C   UNL A   1      48.672  29.171  26.678  1.00  0.00     0.049 A 
ATOM     63  C   UNL A   1      43.470  29.463  28.949  1.00  0.00     0.074 A 
ATOM     64  C   UNL A   1      49.467  30.287  26.840  1.00  0.00     0.029 A 
ATOM     65  N   UNL A   1      47.456  29.444  27.293  1.00  0.00    -0.354 N 
ATOM     66  N   UNL A   1      44.682  29.529  28.448  1.00  0.00    -0.248 NA
ATOM     67  C   UNL A   1      43.069  30.646  29.718  1.00  0.00     0.031 C 
ATOM     68  C   UNL A   1      48.745  31.220  27.591  1.00  0.00     0.029 A 
ATOM     69  C   UNL A   1      47.481  30.705  27.850  1.00  0.00     0.049 A 
ATOM     70  H   UNL A   1      46.689  28.826  27.326  1.00  0.00     0.167 HD
ATOM     71  C   UNL A   1      45.177  30.776  28.806  1.00  0.00     0.074 A 
ATOM     72  C   UNL A   1      44.122  31.436  29.553  1.00  0.00     0.031 C 
ATOM     73  C   UNL A   1      46.389  31.331  28.554  1.00  0.00     0.034 A 
BRANCH  60  74
ATOM     74  C   UNL A   1      50.365  27.715  25.466  1.00  0.00     0.023 A 
ATOM     75  C   UNL A   1      50.612  27.928  24.093  1.00  0.00     0.012 A 
ATOM     76  C   UNL A   1      51.423  27.310  26.301  1.00  0.00     0.148 A 
ATOM     77  C   UNL A   1      51.880  27.709  23.556  1.00  0.00     0.002 A 
ATOM     78  C   UNL A   1      52.696  27.145  25.770  1.00  0.00     0.091 A 
ATOM     79  F   UNL A   1      51.161  27.077  27.595  1.00  0.00    -0.205 F 
ATOM     80  C   UNL A   1      52.923  27.330  24.397  1.00  0.00     0.022 A 
BRANCH  78  81
ATOM     81  S   UNL A   1      54.121  26.732  26.781  1.00  0.00     0.127 S 
ATOM     82  O   UNL A   1      55.118  26.398  25.765  1.00  0.00    -0.237 OA
ATOM     83  O   UNL A   1      54.367  27.989  27.487  1.00  0.00    -0.237 OA
ATOM     84  O   UNL A   1      53.707  25.625  27.631  1.00  0.00    -0.744 OA
ENDBRANCH  78  81
ENDBRANCH  60  74
BRANCH  61  85
ATOM     85  C   UNL A   1      41.112  28.445  29.460  1.00  0.00     0.023 A 
ATOM     86  C   UNL A   1      40.920  27.893  30.740  1.00  0.00     0.012 A 
ATOM     87  C   UNL A   1      40.038  29.103  28.827  1.00  0.00     0.148 A 
ATOM     88  C   UNL A   1      39.675  27.966  31.367  1.00  0.00     0.002 A 
ATOM     89  C   UNL A   1      38.817  29.220  29.479  1.00  0.00     0.091 A 
ATOM     90  F   UNL A   1      40.240  29.619  27.607  1.00  0.00    -0.205 F 
ATOM     91  C   UNL A   1      38.627  28.636  30.741  1.00  0.00     0.022 A 
BRANCH  89  92
ATOM     92  S   UNL A   1      37.451  30.173  28.806  1.00  0.00     0.127 S 
ATOM     93  O   UNL A   1      37.999  31.527  28.815  1.00  0.00    -0.237 OA
ATOM     94  O   UNL A   1      37.294  29.578  27.479  1.00  0.00    -0.237 OA
ATOM     95  O   UNL A   1      36.328  29.942  29.705  1.00  0.00    -0.744 OA
ENDBRANCH  89  92
ENDBRANCH  61  85
BRANCH  73  96
ATOM     96  C   UNL A   1      46.615  32.733  29.045  1.00  0.00     0.023 A 
ATOM     97  C   UNL A   1      47.187  32.955  30.313  1.00  0.00     0.012 A 
ATOM     98  C   UNL A   1      46.330  33.829  28.207  1.00  0.00     0.148 A 
ATOM     99  C   UNL A   1      47.432  34.252  30.757  1.00  0.00     0.002 A 
ATOM    100  C   UNL A   1      46.632  35.113  28.633  1.00  0.00     0.091 A 
ATOM    101  F   UNL A   1      45.774  33.591  27.010  1.00  0.00    -0.205 F 
ATOM    102  C   UNL A   1      47.167  35.330  29.913  1.00  0.00     0.022 A 
BRANCH 100 103
ATOM    103  S   UNL A   1      46.430  36.548  27.572  1.00  0.00     0.127 S 
ATOM    104  O   UNL A   1      47.471  37.440  28.079  1.00  0.00    -0.237 OA
ATOM    105  O   UNL A   1      46.696  35.990  26.247  1.00  0.00    -0.237 OA
ATOM    106  O   UNL A   1      45.062  37.008  27.773  1.00  0.00    -0.744 OA
ENDBRANCH 100 103
ENDBRANCH  73  96
ENDBRANCH  47  48
ENDBRANCH  40  42
ENDBRANCH  39  40
ENDBRANCH  38  39
ENDBRANCH  37  38
ENDBRANCH  36  37
ENDBRANCH  35  36
ENDBRANCH  34  35
ENDBRANCH   1  34
TORSDOF 27
ENDMDL
MODEL 2
REMARK VINA RESULT:      -9.4      1.897      2.482
REMARK SMILES COc1cc(/C=C2/S/C(=[NH+]\C(C)=O)NC2=O)cc(Br)c1OCC(=O)OCCOCCOCCOCCOC(=O)c1ccc(-c2c3nc(c(-c4cccc(S(=O)(=O)[O-])c4F)c4ccc([nH]4)c(-c4cccc(S(=O)(=O)[O-])c4F)c4nc(c(-c5cccc(S(=O)(=O)[O-])c5F)c5ccc2[nH]5)C=C4)C=C3)cc1
REMARK SMILES IDX 31 1 30 2 29 3 28 4 27 5 26 6 25 7 23 8 24 9 22 10 21 11
REMARK SMILES IDX 20 12 3 13 4 14 5 15 18 16 17 17 19 18 2 19 1 20 6 21 7 22
REMARK SMILES IDX 8 23 15 24 9 25 14 26 16 27 10 28 11 30 12 32 13 33 32 34
REMARK SMILES IDX 33 35 34 36 35 37 36 38 37 39 38 40 39 41 40 42 41 43 102 44
REMARK SMILES IDX 42 45 101 46 43 47 44 48 45 49 95 50 46 51 100 52 94 53
REMARK SMILES IDX 96 54 47 55 99 56 93 57 92 58 48 60 80 61 60 62 79 63 61 64
REMARK SMILES IDX 64 65 78 66 97 67 62 68 63 69 77 71 98 72 65 73 49 74 50 75
REMARK SMILES IDX 58 76 51 77 53 78 59 79 52 80 54 81 55 82 56 83 57 84 81 85
REMARK SMILES IDX 82 86 90 87 83 88 85 89 91 90 84 91 86 92 87 93 88 94 89 95
REMARK SMILES IDX 66 96 67 97 75 98 68 99 70 100 76 101 69 102 71 103 72 104
REMARK SMILES IDX 73 105 74 106
REMARK H PARENT 14 29 10 31 96 59 64 70
REMARK Flexibility Score: inf
ROOT
ATOM      1  O   UNL A   1      37.158  21.143  24.643  1.00  0.00    -0.377 OA
ENDROOT
BRANCH   1   2
ATOM      2  C   UNL A   1      35.966  20.433  24.900  1.00  0.00     0.188 C 
BRANCH   2   3
ATOM      3  C   UNL A   1      34.736  21.344  25.232  1.00  0.00     0.188 C 
BRANCH   3   4
ATOM      4  O   UNL A   1      33.643  20.877  26.014  1.00  0.00    -0.376 OA
BRANCH   4   5
ATOM      5  C   UNL A   1      32.397  20.795  25.365  1.00  0.00     0.202 C 
BRANCH   5   6
ATOM      6  C   UNL A   1      32.495  20.492  23.856  1.00  0.00     0.261 C 
BRANCH   6   7
ATOM      7  O   UNL A   1      31.856  21.443  22.946  1.00  0.00    -0.461 OA
BRANCH   7   8
ATOM      8  C   UNL A   1      32.348  22.709  22.808  1.00  0.00     0.344 C 
ATOM      9  O   UNL A   1      33.496  22.950  22.452  1.00  0.00    -0.248 OA
BRANCH   8  10
ATOM     10  C   UNL A   1      31.292  23.856  23.181  1.00  0.00     0.352 C 
BRANCH  10  11
ATOM     11  O   UNL A   1      31.417  25.282  23.157  1.00  0.00    -0.477 OA
BRANCH  11  12
ATOM     12  C   UNL A   1      31.530  26.230  24.154  1.00  0.00     0.176 A 
ATOM     13  C   UNL A   1      30.730  27.392  23.954  1.00  0.00     0.162 A 
ATOM     14  C   UNL A   1      30.936  28.612  24.682  1.00  0.00     0.058 A 
ATOM     15  C   UNL A   1      31.991  28.762  25.603  1.00  0.00    -0.019 A 
ATOM     16  C   UNL A   1      32.392  26.305  25.254  1.00  0.00     0.064 A 
ATOM     17  C   UNL A   1      32.636  27.556  25.940  1.00  0.00     0.028 A 
ATOM     18  Br  UNL A   1      33.292  24.797  25.978  1.00  0.00    -0.047 Br
BRANCH  13  19
ATOM     19  O   UNL A   1      29.660  27.244  23.093  1.00  0.00    -0.493 OA
ATOM     20  C   UNL A   1      28.396  26.968  23.690  1.00  0.00     0.278 C 
ENDBRANCH  13  19
BRANCH  15  21
ATOM     21  C   UNL A   1      32.340  30.107  26.241  1.00  0.00     0.032 C 
ATOM     22  C   UNL A   1      33.369  30.587  27.003  1.00  0.00     0.110 C 
ATOM     23  S   UNL A   1      33.437  32.224  27.704  1.00  0.00     0.007 SA
ATOM     24  C   UNL A   1      34.661  30.034  27.530  1.00  0.00     0.346 C 
ATOM     25  C   UNL A   1      34.731  31.786  28.815  1.00  0.00     0.324 C 
ATOM     26  N   UNL A   1      34.891  30.452  28.786  1.00  0.00    -0.199 N 
ATOM     27  O   UNL A   1      35.626  29.682  26.870  1.00  0.00    -0.240 OA
ATOM     28  N   UNL A   1      35.625  32.385  29.507  1.00  0.00    -0.204 N 
ATOM     29  H   UNL A   1      35.134  29.881  29.550  1.00  0.00     0.316 HD
ATOM     30  C   UNL A   1      36.003  33.692  29.474  1.00  0.00     0.304 C 
ATOM     31  H   UNL A   1      36.106  31.822  30.156  1.00  0.00     0.316 HD
ATOM     32  C   UNL A   1      34.984  34.779  29.389  1.00  0.00     0.144 C 
ATOM     33  O   UNL A   1      37.183  33.995  29.644  1.00  0.00    -0.247 OA
ENDBRANCH  15  21
ENDBRANCH  11  12
ENDBRANCH  10  11
ENDBRANCH   8  10
ENDBRANCH   7   8
ENDBRANCH   6   7
ENDBRANCH   5   6
ENDBRANCH   4   5
ENDBRANCH   3   4
ENDBRANCH   2   3
ENDBRANCH   1   2
BRANCH   1  34
ATOM     34  C   UNL A   1      38.322  20.494  25.113  1.00  0.00     0.188 C 
BRANCH  34  35
ATOM     35  C   UNL A   1      39.268  21.409  25.899  1.00  0.00     0.188 C 
BRANCH  35  36
ATOM     36  O   UNL A   1      40.624  21.047  26.094  1.00  0.00    -0.376 OA
BRANCH  36  37
ATOM     37  C   UNL A   1      41.035  19.837  26.696  1.00  0.00     0.202 C 
BRANCH  37  38
ATOM     38  C   UNL A   1      42.117  18.937  26.104  1.00  0.00     0.261 C 
BRANCH  38  39
ATOM     39  O   UNL A   1      42.701  19.529  24.974  1.00  0.00    -0.460 OA
BRANCH  39  40
ATOM     40  C   UNL A   1      44.029  19.631  24.926  1.00  0.00     0.338 C 
ATOM     41  O   UNL A   1      44.886  18.757  24.978  1.00  0.00    -0.246 OA
BRANCH  40  42
ATOM     42  C   UNL A   1      44.171  21.045  25.237  1.00  0.00     0.060 A 
ATOM     43  C   UNL A   1      43.782  22.022  24.307  1.00  0.00     0.016 A 
ATOM     44  C   UNL A   1      44.440  21.351  26.571  1.00  0.00     0.016 A 
ATOM     45  C   UNL A   1      43.711  23.342  24.711  1.00  0.00     0.010 A 
ATOM     46  C   UNL A   1      44.367  22.667  26.974  1.00  0.00     0.010 A 
ATOM     47  C   UNL A   1      44.053  23.658  26.029  1.00  0.00    -0.014 A 
BRANCH  47  48
ATOM     48  C   UNL A   1      44.363  25.049  26.364  1.00  0.00     0.031 A 
ATOM     49  C   UNL A   1      45.783  25.480  26.165  1.00  0.00     0.074 A 
ATOM     50  C   UNL A   1      43.409  25.851  26.855  1.00  0.00     0.049 A 
ATOM     51  N   UNL A   1      46.349  26.614  26.461  1.00  0.00    -0.248 NA
ATOM     52  C   UNL A   1      46.698  24.486  25.568  1.00  0.00     0.031 C 
ATOM     53  C   UNL A   1      42.012  25.474  27.068  1.00  0.00     0.029 A 
ATOM     54  N   UNL A   1      43.488  27.141  27.295  1.00  0.00    -0.354 N 
ATOM     55  C   UNL A   1      47.686  26.457  26.124  1.00  0.00     0.074 A 
ATOM     56  C   UNL A   1      47.858  25.117  25.618  1.00  0.00     0.031 C 
ATOM     57  C   UNL A   1      41.366  26.508  27.632  1.00  0.00     0.029 A 
ATOM     58  C   UNL A   1      42.316  27.596  27.845  1.00  0.00     0.049 A 
ATOM     59  H   UNL A   1      44.302  27.689  27.224  1.00  0.00     0.167 HD
ATOM     60  C   UNL A   1      48.679  27.366  26.224  1.00  0.00     0.034 A 
ATOM     61  C   UNL A   1      42.069  28.758  28.475  1.00  0.00     0.034 A 
ATOM     62  C   UNL A   1      48.464  28.690  26.735  1.00  0.00     0.049 A 
ATOM     63  C   UNL A   1      43.195  29.751  28.584  1.00  0.00     0.074 A 
ATOM     64  C   UNL A   1      49.368  29.725  26.854  1.00  0.00     0.029 A 
ATOM     65  N   UNL A   1      47.251  29.148  27.232  1.00  0.00    -0.354 N 
ATOM     66  N   UNL A   1      44.437  29.639  28.169  1.00  0.00    -0.248 NA
ATOM     67  C   UNL A   1      42.883  31.038  29.213  1.00  0.00     0.031 C 
ATOM     68  C   UNL A   1      48.710  30.798  27.464  1.00  0.00     0.029 A 
ATOM     69  C   UNL A   1      47.382  30.448  27.675  1.00  0.00     0.049 A 
ATOM     70  H   UNL A   1      46.419  28.621  27.264  1.00  0.00     0.167 HD
ATOM     71  C   UNL A   1      45.045  30.855  28.450  1.00  0.00     0.074 A 
ATOM     72  C   UNL A   1      44.027  31.692  29.055  1.00  0.00     0.031 C 
ATOM     73  C   UNL A   1      46.326  31.251  28.238  1.00  0.00     0.034 A 
BRANCH  60  74
ATOM     74  C   UNL A   1      50.055  26.951  25.785  1.00  0.00     0.023 A 
ATOM     75  C   UNL A   1      50.900  26.245  26.668  1.00  0.00     0.012 A 
ATOM     76  C   UNL A   1      50.511  27.250  24.487  1.00  0.00     0.148 A 
ATOM     77  C   UNL A   1      52.186  25.874  26.277  1.00  0.00     0.002 A 
ATOM     78  C   UNL A   1      51.774  26.831  24.088  1.00  0.00     0.091 A 
ATOM     79  F   UNL A   1      49.710  27.953  23.676  1.00  0.00    -0.205 F 
ATOM     80  C   UNL A   1      52.617  26.156  24.985  1.00  0.00     0.022 A 
BRANCH  78  81
ATOM     81  S   UNL A   1      52.393  27.079  22.420  1.00  0.00     0.127 S 
ATOM     82  O   UNL A   1      51.197  26.823  21.619  1.00  0.00    -0.237 OA
ATOM     83  O   UNL A   1      52.814  28.479  22.458  1.00  0.00    -0.237 OA
ATOM     84  O   UNL A   1      53.475  26.120  22.243  1.00  0.00    -0.744 OA
ENDBRANCH  78  81
ENDBRANCH  60  74
BRANCH  61  85
ATOM     85  C   UNL A   1      40.711  29.043  29.010  1.00  0.00     0.023 A 
ATOM     86  C   UNL A   1      39.687  29.451  28.133  1.00  0.00     0.012 A 
ATOM     87  C   UNL A   1      40.416  28.873  30.377  1.00  0.00     0.148 A 
ATOM     88  C   UNL A   1      38.403  29.715  28.613  1.00  0.00     0.002 A 
ATOM     89  C   UNL A   1      39.124  29.085  30.839  1.00  0.00     0.091 A 
ATOM     90  F   UNL A   1      41.405  28.488  31.196  1.00  0.00    -0.205 F 
ATOM     91  C   UNL A   1      38.119  29.524  29.962  1.00  0.00     0.022 A 
BRANCH  89  92
ATOM     92  S   UNL A   1      38.636  28.742  32.534  1.00  0.00     0.127 S 
ATOM     93  O   UNL A   1      39.166  29.907  33.239  1.00  0.00    -0.237 OA
ATOM     94  O   UNL A   1      37.177  28.698  32.424  1.00  0.00    -0.237 OA
ATOM     95  O   UNL A   1      39.252  27.466  32.872  1.00  0.00    -0.744 OA
ENDBRANCH  89  92
ENDBRANCH  61  85
BRANCH  73  96
ATOM     96  C   UNL A   1      46.677  32.662  28.617  1.00  0.00     0.023 A 
ATOM     97  C   UNL A   1      47.208  32.941  29.892  1.00  0.00     0.012 A 
ATOM     98  C   UNL A   1      46.551  33.699  27.672  1.00  0.00     0.148 A 
ATOM     99  C   UNL A   1      47.569  34.242  30.234  1.00  0.00     0.002 A 
ATOM    100  C   UNL A   1      46.968  34.980  28.000  1.00  0.00     0.091 A 
ATOM    101  F   UNL A   1      46.030  33.409  26.470  1.00  0.00    -0.205 F 
ATOM    102  C   UNL A   1      47.462  35.258  29.285  1.00  0.00     0.022 A 
BRANCH 100 103
ATOM    103  S   UNL A   1      46.971  36.323  26.809  1.00  0.00     0.127 S 
ATOM    104  O   UNL A   1      47.826  37.306  27.473  1.00  0.00    -0.237 OA
ATOM    105  O   UNL A   1      47.569  35.689  25.634  1.00  0.00    -0.237 OA
ATOM    106  O   UNL A   1      45.579  36.718  26.643  1.00  0.00    -0.744 OA
ENDBRANCH 100 103
ENDBRANCH  73  96
ENDBRANCH  47  48
ENDBRANCH  40  42
ENDBRANCH  39  40
ENDBRANCH  38  39
ENDBRANCH  37  38
ENDBRANCH  36  37
ENDBRANCH  35  36
ENDBRANCH  34  35
ENDBRANCH   1  34
TORSDOF 27
ENDMDL
MODEL 3
REMARK VINA RESULT:      -8.7      4.457      5.320
REMARK SMILES COc1cc(/C=C2/S/C(=[NH+]\C(C)=O)NC2=O)cc(Br)c1OCC(=O)OCCOCCOCCOCCOC(=O)c1ccc(-c2c3nc(c(-c4cccc(S(=O)(=O)[O-])c4F)c4ccc([nH]4)c(-c4cccc(S(=O)(=O)[O-])c4F)c4nc(c(-c5cccc(S(=O)(=O)[O-])c5F)c5ccc2[nH]5)C=C4)C=C3)cc1
REMARK SMILES IDX 31 1 30 2 29 3 28 4 27 5 26 6 25 7 23 8 24 9 22 10 21 11
REMARK SMILES IDX 20 12 3 13 4 14 5 15 18 16 17 17 19 18 2 19 1 20 6 21 7 22
REMARK SMILES IDX 8 23 15 24 9 25 14 26 16 27 10 28 11 30 12 32 13 33 32 34
REMARK SMILES IDX 33 35 34 36 35 37 36 38 37 39 38 40 39 41 40 42 41 43 102 44
REMARK SMILES IDX 42 45 101 46 43 47 44 48 45 49 95 50 46 51 100 52 94 53
REMARK SMILES IDX 96 54 47 55 99 56 93 57 92 58 48 60 80 61 60 62 79 63 61 64
REMARK SMILES IDX 64 65 78 66 97 67 62 68 63 69 77 71 98 72 65 73 49 74 50 75
REMARK SMILES IDX 58 76 51 77 53 78 59 79 52 80 54 81 55 82 56 83 57 84 81 85
REMARK SMILES IDX 82 86 90 87 83 88 85 89 91 90 84 91 86 92 87 93 88 94 89 95
REMARK SMILES IDX 66 96 67 97 75 98 68 99 70 100 76 101 69 102 71 103 72 104
REMARK SMILES IDX 73 105 74 106
REMARK H PARENT 14 29 10 31 96 59 64 70
REMARK Flexibility Score: inf
ROOT
ATOM      1  O   UNL A   1      41.452  19.234  25.762  1.00  0.00    -0.377 OA
ENDROOT
BRANCH   1   2
ATOM      2  C   UNL A   1      41.011  20.513  26.162  1.00  0.00     0.188 C 
BRANCH   2   3
ATOM      3  C   UNL A   1      39.465  20.729  26.033  1.00  0.00     0.188 C 
BRANCH   3   4
ATOM      4  O   UNL A   1      38.898  22.021  25.858  1.00  0.00    -0.376 OA
BRANCH   4   5
ATOM      5  C   UNL A   1      37.658  22.077  25.197  1.00  0.00     0.202 C 
BRANCH   5   6
ATOM      6  C   UNL A   1      36.719  23.184  25.717  1.00  0.00     0.261 C 
BRANCH   6   7
ATOM      7  O   UNL A   1      35.366  23.223  25.161  1.00  0.00    -0.461 OA
BRANCH   7   8
ATOM      8  C   UNL A   1      35.149  22.933  23.844  1.00  0.00     0.344 C 
ATOM      9  O   UNL A   1      35.980  23.135  22.965  1.00  0.00    -0.248 OA
BRANCH   8  10
ATOM     10  C   UNL A   1      33.697  22.326  23.548  1.00  0.00     0.352 C 
BRANCH  10  11
ATOM     11  O   UNL A   1      32.412  22.684  24.069  1.00  0.00    -0.477 OA
BRANCH  11  12
ATOM     12  C   UNL A   1      31.860  23.886  24.462  1.00  0.00     0.176 A 
ATOM     13  C   UNL A   1      32.137  24.974  23.585  1.00  0.00     0.162 A 
ATOM     14  C   UNL A   1      31.941  26.346  23.963  1.00  0.00     0.058 A 
ATOM     15  C   UNL A   1      31.519  26.710  25.256  1.00  0.00    -0.019 A 
ATOM     16  C   UNL A   1      31.192  24.248  25.637  1.00  0.00     0.064 A 
ATOM     17  C   UNL A   1      31.055  25.632  26.035  1.00  0.00     0.028 A 
ATOM     18  Br  UNL A   1      30.373  22.988  26.801  1.00  0.00    -0.047 Br
BRANCH  13  19
ATOM     19  O   UNL A   1      32.501  24.631  22.298  1.00  0.00    -0.493 OA
ATOM     20  C   UNL A   1      32.551  25.691  21.347  1.00  0.00     0.278 C 
ENDBRANCH  13  19
BRANCH  15  21
ATOM     21  C   UNL A   1      31.490  28.163  25.732  1.00  0.00     0.032 C 
ATOM     22  C   UNL A   1      32.414  29.052  26.209  1.00  0.00     0.110 C 
ATOM     23  S   UNL A   1      32.037  30.691  26.798  1.00  0.00     0.007 SA
ATOM     24  C   UNL A   1      33.896  29.034  26.444  1.00  0.00     0.346 C 
ATOM     25  C   UNL A   1      33.599  30.855  27.594  1.00  0.00     0.324 C 
ATOM     26  N   UNL A   1      34.212  29.659  27.590  1.00  0.00    -0.199 N 
ATOM     27  O   UNL A   1      34.768  28.946  25.594  1.00  0.00    -0.240 OA
ATOM     28  N   UNL A   1      34.343  31.800  28.030  1.00  0.00    -0.204 N 
ATOM     29  H   UNL A   1      34.791  29.303  28.303  1.00  0.00     0.316 HD
ATOM     30  C   UNL A   1      34.218  33.143  27.848  1.00  0.00     0.304 C 
ATOM     31  H   UNL A   1      35.113  31.517  28.573  1.00  0.00     0.316 HD
ATOM     32  C   UNL A   1      32.885  33.806  27.953  1.00  0.00     0.144 C 
ATOM     33  O   UNL A   1      35.222  33.843  27.723  1.00  0.00    -0.247 OA
ENDBRANCH  15  21
ENDBRANCH  11  12
ENDBRANCH  10  11
ENDBRANCH   8  10
ENDBRANCH   7   8
ENDBRANCH   6   7
ENDBRANCH   5   6
ENDBRANCH   4   5
ENDBRANCH   3   4
ENDBRANCH   2   3
ENDBRANCH   1   2
BRANCH   1  34
ATOM     34  C   UNL A   1      42.733  18.891  26.251  1.00  0.00     0.188 C 
BRANCH  34  35
ATOM     35  C   UNL A   1      43.689  18.368  25.173  1.00  0.00     0.188 C 
BRANCH  35  36
ATOM     36  O   UNL A   1      44.196  19.237  24.175  1.00  0.00    -0.376 OA
BRANCH  36  37
ATOM     37  C   UNL A   1      45.497  19.787  24.199  1.00  0.00     0.202 C 
BRANCH  37  38
ATOM     38  C   UNL A   1      45.795  21.199  24.698  1.00  0.00     0.261 C 
BRANCH  38  39
ATOM     39  O   UNL A   1      44.784  21.653  25.559  1.00  0.00    -0.460 OA
BRANCH  39  40
ATOM     40  C   UNL A   1      43.874  22.499  25.078  1.00  0.00     0.338 C 
ATOM     41  O   UNL A   1      43.399  22.586  23.952  1.00  0.00    -0.246 OA
BRANCH  40  42
ATOM     42  C   UNL A   1      43.941  23.529  26.104  1.00  0.00     0.060 A 
ATOM     43  C   UNL A   1      44.188  24.866  25.756  1.00  0.00     0.016 A 
ATOM     44  C   UNL A   1      43.476  23.160  27.367  1.00  0.00     0.016 A 
ATOM     45  C   UNL A   1      44.018  25.850  26.712  1.00  0.00     0.010 A 
ATOM     46  C   UNL A   1      43.305  24.142  28.319  1.00  0.00     0.010 A 
ATOM     47  C   UNL A   1      43.625  25.472  27.999  1.00  0.00    -0.014 A 
BRANCH  47  48
ATOM     48  C   UNL A   1      43.817  26.416  29.102  1.00  0.00     0.031 A 
ATOM     49  C   UNL A   1      45.184  26.458  29.710  1.00  0.00     0.074 A 
ATOM     50  C   UNL A   1      42.790  27.157  29.539  1.00  0.00     0.049 A 
ATOM     51  N   UNL A   1      45.606  27.126  30.744  1.00  0.00    -0.248 NA
ATOM     52  C   UNL A   1      46.216  25.612  29.077  1.00  0.00     0.031 C 
ATOM     53  C   UNL A   1      41.439  27.148  28.977  1.00  0.00     0.029 A 
ATOM     54  N   UNL A   1      42.724  28.036  30.581  1.00  0.00    -0.354 N 
ATOM     55  C   UNL A   1      46.933  26.754  30.908  1.00  0.00     0.074 A 
ATOM     56  C   UNL A   1      47.248  25.789  29.883  1.00  0.00     0.031 C 
ATOM     57  C   UNL A   1      40.662  27.966  29.708  1.00  0.00     0.029 A 
ATOM     58  C   UNL A   1      41.458  28.520  30.799  1.00  0.00     0.049 A 
ATOM     59  H   UNL A   1      43.504  28.297  31.121  1.00  0.00     0.167 HD
ATOM     60  C   UNL A   1      47.809  27.194  31.835  1.00  0.00     0.034 A 
ATOM     61  C   UNL A   1      41.008  29.301  31.797  1.00  0.00     0.034 A 
ATOM     62  C   UNL A   1      47.452  28.155  32.839  1.00  0.00     0.049 A 
ATOM     63  C   UNL A   1      42.003  29.769  32.825  1.00  0.00     0.074 A 
ATOM     64  C   UNL A   1      48.249  28.720  33.814  1.00  0.00     0.029 A 
ATOM     65  N   UNL A   1      46.176  28.677  33.003  1.00  0.00    -0.354 N 
ATOM     66  N   UNL A   1      43.285  29.498  32.916  1.00  0.00    -0.248 NA
ATOM     67  C   UNL A   1      41.503  30.676  33.864  1.00  0.00     0.031 C 
ATOM     68  C   UNL A   1      47.442  29.553  34.594  1.00  0.00     0.029 A 
ATOM     69  C   UNL A   1      46.155  29.548  34.072  1.00  0.00     0.049 A 
ATOM     70  H   UNL A   1      45.399  28.457  32.437  1.00  0.00     0.167 HD
ATOM     71  C   UNL A   1      43.756  30.230  33.998  1.00  0.00     0.074 A 
ATOM     72  C   UNL A   1      42.620  30.970  34.517  1.00  0.00     0.031 C 
ATOM     73  C   UNL A   1      45.004  30.289  34.526  1.00  0.00     0.034 A 
BRANCH  60  74
ATOM     74  C   UNL A   1      49.205  26.636  31.800  1.00  0.00     0.023 A 
ATOM     75  C   UNL A   1      50.217  27.302  31.077  1.00  0.00     0.012 A 
ATOM     76  C   UNL A   1      49.519  25.453  32.495  1.00  0.00     0.148 A 
ATOM     77  C   UNL A   1      51.510  26.781  31.019  1.00  0.00     0.002 A 
ATOM     78  C   UNL A   1      50.821  24.969  32.476  1.00  0.00     0.091 A 
ATOM     79  F   UNL A   1      48.536  24.815  33.145  1.00  0.00    -0.205 F 
ATOM     80  C   UNL A   1      51.813  25.623  31.729  1.00  0.00     0.022 A 
BRANCH  78  81
ATOM     81  S   UNL A   1      51.330  23.527  33.418  1.00  0.00     0.127 S 
ATOM     82  O   UNL A   1      52.760  23.468  33.117  1.00  0.00    -0.237 OA
ATOM     83  O   UNL A   1      51.011  23.931  34.787  1.00  0.00    -0.237 OA
ATOM     84  O   UNL A   1      50.543  22.413  32.910  1.00  0.00    -0.744 OA
ENDBRANCH  78  81
ENDBRANCH  60  74
BRANCH  61  85
ATOM     85  C   UNL A   1      39.576  29.701  31.844  1.00  0.00     0.023 A 
ATOM     86  C   UNL A   1      38.646  28.884  32.513  1.00  0.00     0.012 A 
ATOM     87  C   UNL A   1      39.139  30.909  31.265  1.00  0.00     0.148 A 
ATOM     88  C   UNL A   1      37.299  29.245  32.576  1.00  0.00     0.002 A 
ATOM     89  C   UNL A   1      37.807  31.289  31.378  1.00  0.00     0.091 A 
ATOM     90  F   UNL A   1      40.039  31.671  30.630  1.00  0.00    -0.205 F 
ATOM     91  C   UNL A   1      36.882  30.450  32.018  1.00  0.00     0.022 A 
BRANCH  89  92
ATOM     92  S   UNL A   1      37.205  32.881  30.802  1.00  0.00     0.127 S 
ATOM     93  O   UNL A   1      35.761  32.724  30.947  1.00  0.00    -0.237 OA
ATOM     94  O   UNL A   1      37.827  33.800  31.755  1.00  0.00    -0.237 OA
ATOM     95  O   UNL A   1      37.691  33.015  29.434  1.00  0.00    -0.744 OA
ENDBRANCH  89  92
ENDBRANCH  61  85
BRANCH  73  96
ATOM     96  C   UNL A   1      45.213  31.218  35.688  1.00  0.00     0.023 A 
ATOM     97  C   UNL A   1      45.659  32.536  35.469  1.00  0.00     0.012 A 
ATOM     98  C   UNL A   1      44.886  30.801  36.993  1.00  0.00     0.148 A 
ATOM     99  C   UNL A   1      45.820  33.411  36.540  1.00  0.00     0.002 A 
ATOM    100  C   UNL A   1      44.991  31.697  38.046  1.00  0.00     0.091 A 
ATOM    101  F   UNL A   1      44.475  29.537  37.176  1.00  0.00    -0.205 F 
ATOM    102  C   UNL A   1      45.473  32.997  37.825  1.00  0.00     0.022 A 
BRANCH 100 103
ATOM    103  S   UNL A   1      44.462  31.286  39.712  1.00  0.00     0.127 S 
ATOM    104  O   UNL A   1      43.022  31.530  39.634  1.00  0.00    -0.237 OA
ATOM    105  O   UNL A   1      44.838  29.876  39.814  1.00  0.00    -0.237 OA
ATOM    106  O   UNL A   1      45.198  32.176  40.600  1.00  0.00    -0.744 OA
ENDBRANCH 100 103
ENDBRANCH  73  96
ENDBRANCH  47  48
ENDBRANCH  40  42
ENDBRANCH  39  40
ENDBRANCH  38  39
ENDBRANCH  37  38
ENDBRANCH  36  37
ENDBRANCH  35  36
ENDBRANCH  34  35
ENDBRANCH   1  34
TORSDOF 27
ENDMDL
