MODEL 1
REMARK VINA RESULT:     -10.9      0.000      0.000
REMARK SMILES O=C(OCCOCCOCCOCCOC(=O)c1ccc(-c2c3nc(c(-c4cccc(S(=O)(=O)[O-])c4F)c4ccc([nH]4)c(-c4cccc(S(=O)(=O)[O-])c4F)c4nc(c(-c5cccc(S(=O)(=O)[O-])c5F)c5ccc2[nH]5)C=C4)C=C3)cc1)C1=Cc2cc(C(F)(F)F)ccc2O[C@@H]1C(F)(F)F
REMARK SMILES IDX 10 1 9 2 8 3 7 4 6 5 5 6 4 7 3 8 2 9 1 10 81 11 82 12 94 13
REMARK SMILES IDX 83 14 93 15 84 16 92 17 85 18 91 19 90 20 95 21 96 22 97 23
REMARK SMILES IDX 98 24 86 25 87 26 88 27 89 28 11 29 12 30 13 31 14 32 15 33
REMARK SMILES IDX 16 34 17 35 18 36 19 37 80 38 20 39 79 40 21 41 22 42 23 43
REMARK SMILES IDX 73 44 24 45 78 46 72 47 74 48 25 49 77 50 71 51 70 52 26 54
REMARK SMILES IDX 58 55 38 56 57 57 39 58 42 59 56 60 75 61 40 62 41 63 55 65
REMARK SMILES IDX 76 66 43 67 27 68 28 69 36 70 29 71 31 72 37 73 30 74 32 75
REMARK SMILES IDX 33 76 34 77 35 78 59 79 60 80 68 81 61 82 63 83 69 84 62 85
REMARK SMILES IDX 64 86 65 87 66 88 67 89 44 90 45 91 53 92 46 93 48 94 54 95
REMARK SMILES IDX 47 96 49 97 50 98 51 99 52 100
REMARK H PARENT 74 53 42 64
REMARK Flexibility Score: inf
ROOT
ATOM      1  C   UNL A   1      30.951  27.926  24.176  1.00  0.00     0.188 C 
ENDROOT
BRANCH   1   2
ATOM      2  O   UNL A   1      32.022  28.573  23.499  1.00  0.00    -0.377 OA
BRANCH   2   3
ATOM      3  C   UNL A   1      33.232  27.828  23.432  1.00  0.00     0.188 C 
BRANCH   3   4
ATOM      4  C   UNL A   1      33.904  27.957  22.073  1.00  0.00     0.188 C 
BRANCH   4   5
ATOM      5  O   UNL A   1      33.650  26.863  21.206  1.00  0.00    -0.376 OA
BRANCH   5   6
ATOM      6  C   UNL A   1      32.702  25.883  21.604  1.00  0.00     0.202 C 
BRANCH   6   7
ATOM      7  C   UNL A   1      33.232  24.768  22.505  1.00  0.00     0.261 C 
BRANCH   7   8
ATOM      8  O   UNL A   1      32.194  24.136  23.278  1.00  0.00    -0.460 OA
BRANCH   8   9
ATOM      9  C   UNL A   1      32.171  22.783  23.311  1.00  0.00     0.338 C 
ATOM     10  O   UNL A   1      31.780  22.101  22.376  1.00  0.00    -0.246 OA
BRANCH   9  11
ATOM     11  C   UNL A   1      32.480  22.207  24.648  1.00  0.00     0.087 C 
ATOM     12  C   UNL A   1      32.123  20.913  24.733  1.00  0.00     0.027 C 
ATOM     13  C   UNL A   1      33.703  22.737  25.351  1.00  0.00     0.316 C 
ATOM     14  C   UNL A   1      33.252  19.987  24.837  1.00  0.00     0.018 A 
ATOM     15  O   UNL A   1      34.753  21.761  25.553  1.00  0.00    -0.475 OA
ATOM     16  C   UNL A   1      33.080  18.630  24.532  1.00  0.00     0.025 A 
ATOM     17  C   UNL A   1      34.524  20.482  25.122  1.00  0.00     0.128 A 
ATOM     18  C   UNL A   1      34.195  17.784  24.430  1.00  0.00     0.056 A 
ATOM     19  C   UNL A   1      35.639  19.667  24.949  1.00  0.00     0.048 A 
ATOM     20  C   UNL A   1      35.479  18.333  24.571  1.00  0.00     0.017 A 
BRANCH  13  21
ATOM     21  C   UNL A   1      33.338  23.472  26.644  1.00  0.00     0.430 C 
ATOM     22  F   UNL A   1      31.995  23.586  26.786  1.00  0.00    -0.167 F 
ATOM     23  F   UNL A   1      33.779  22.792  27.734  1.00  0.00    -0.167 F 
ATOM     24  F   UNL A   1      33.865  24.714  26.710  1.00  0.00    -0.167 F 
ENDBRANCH  13  21
BRANCH  18  25
ATOM     25  C   UNL A   1      34.038  16.291  24.262  1.00  0.00     0.416 C 
ATOM     26  F   UNL A   1      34.931  15.611  25.036  1.00  0.00    -0.166 F 
ATOM     27  F   UNL A   1      32.810  15.825  24.622  1.00  0.00    -0.166 F 
ATOM     28  F   UNL A   1      34.249  15.866  22.989  1.00  0.00    -0.166 F 
ENDBRANCH  18  25
ENDBRANCH   9  11
ENDBRANCH   8   9
ENDBRANCH   7   8
ENDBRANCH   6   7
ENDBRANCH   5   6
ENDBRANCH   4   5
ENDBRANCH   3   4
ENDBRANCH   2   3
ENDBRANCH   1   2
BRANCH   1  29
ATOM     29  C   UNL A   1      31.339  27.002  25.357  1.00  0.00     0.188 C 
BRANCH  29  30
ATOM     30  O   UNL A   1      30.963  27.251  26.707  1.00  0.00    -0.376 OA
BRANCH  30  31
ATOM     31  C   UNL A   1      31.667  28.218  27.460  1.00  0.00     0.202 C 
BRANCH  31  32
ATOM     32  C   UNL A   1      31.547  29.670  26.969  1.00  0.00     0.261 C 
BRANCH  32  33
ATOM     33  O   UNL A   1      32.770  30.250  26.483  1.00  0.00    -0.460 OA
BRANCH  33  34
ATOM     34  C   UNL A   1      33.172  31.406  27.087  1.00  0.00     0.338 C 
ATOM     35  O   UNL A   1      32.503  32.391  27.280  1.00  0.00    -0.246 OA
BRANCH  34  36
ATOM     36  C   UNL A   1      34.533  31.202  27.674  1.00  0.00     0.060 A 
ATOM     37  C   UNL A   1      34.918  29.889  27.984  1.00  0.00     0.016 A 
ATOM     38  C   UNL A   1      35.445  32.248  27.852  1.00  0.00     0.016 A 
ATOM     39  C   UNL A   1      36.202  29.616  28.471  1.00  0.00     0.010 A 
ATOM     40  C   UNL A   1      36.723  31.977  28.366  1.00  0.00     0.010 A 
ATOM     41  C   UNL A   1      37.103  30.663  28.700  1.00  0.00    -0.014 A 
BRANCH  41  42
ATOM     42  C   UNL A   1      38.340  30.425  29.493  1.00  0.00     0.031 A 
ATOM     43  C   UNL A   1      39.372  29.491  28.915  1.00  0.00     0.074 A 
ATOM     44  C   UNL A   1      38.554  30.988  30.698  1.00  0.00     0.049 A 
ATOM     45  N   UNL A   1      40.477  29.042  29.447  1.00  0.00    -0.248 NA
ATOM     46  C   UNL A   1      39.116  28.995  27.551  1.00  0.00     0.031 C 
ATOM     47  C   UNL A   1      37.659  31.930  31.367  1.00  0.00     0.029 A 
ATOM     48  N   UNL A   1      39.585  30.813  31.592  1.00  0.00    -0.354 N 
ATOM     49  C   UNL A   1      41.025  28.179  28.506  1.00  0.00     0.074 A 
ATOM     50  C   UNL A   1      40.139  28.175  27.364  1.00  0.00     0.031 C 
ATOM     51  C   UNL A   1      38.156  32.212  32.586  1.00  0.00     0.029 A 
ATOM     52  C   UNL A   1      39.385  31.447  32.799  1.00  0.00     0.049 A 
ATOM     53  H   UNL A   1      40.392  30.286  31.388  1.00  0.00     0.167 HD
ATOM     54  C   UNL A   1      42.164  27.454  28.580  1.00  0.00     0.034 A 
ATOM     55  C   UNL A   1      40.085  31.378  33.953  1.00  0.00     0.034 A 
ATOM     56  C   UNL A   1      43.064  27.467  29.700  1.00  0.00     0.049 A 
ATOM     57  C   UNL A   1      41.328  30.521  34.023  1.00  0.00     0.074 A 
ATOM     58  C   UNL A   1      44.275  26.811  29.832  1.00  0.00     0.029 A 
ATOM     59  N   UNL A   1      42.842  28.145  30.885  1.00  0.00    -0.354 N 
ATOM     60  N   UNL A   1      41.903  29.817  33.079  1.00  0.00    -0.248 NA
ATOM     61  C   UNL A   1      42.032  30.465  35.316  1.00  0.00     0.031 C 
ATOM     62  C   UNL A   1      44.765  27.058  31.118  1.00  0.00     0.029 A 
ATOM     63  C   UNL A   1      43.878  27.899  31.769  1.00  0.00     0.049 A 
ATOM     64  H   UNL A   1      42.064  28.717  31.073  1.00  0.00     0.167 HD
ATOM     65  C   UNL A   1      43.043  29.261  33.654  1.00  0.00     0.074 A 
ATOM     66  C   UNL A   1      43.097  29.735  35.020  1.00  0.00     0.031 C 
ATOM     67  C   UNL A   1      43.954  28.417  33.109  1.00  0.00     0.034 A 
BRANCH  54  68
ATOM     68  C   UNL A   1      42.517  26.574  27.413  1.00  0.00     0.023 A 
ATOM     69  C   UNL A   1      43.363  27.059  26.397  1.00  0.00     0.012 A 
ATOM     70  C   UNL A   1      42.082  25.235  27.377  1.00  0.00     0.148 A 
ATOM     71  C   UNL A   1      43.760  26.226  25.353  1.00  0.00     0.002 A 
ATOM     72  C   UNL A   1      42.518  24.399  26.358  1.00  0.00     0.091 A 
ATOM     73  F   UNL A   1      41.259  24.806  28.344  1.00  0.00    -0.205 F 
ATOM     74  C   UNL A   1      43.349  24.895  25.340  1.00  0.00     0.022 A 
BRANCH  72  75
ATOM     75  S   UNL A   1      42.112  22.651  26.297  1.00  0.00     0.127 S 
ATOM     76  O   UNL A   1      42.743  22.159  27.522  1.00  0.00    -0.237 OA
ATOM     77  O   UNL A   1      40.651  22.677  26.333  1.00  0.00    -0.237 OA
ATOM     78  O   UNL A   1      42.687  22.146  25.059  1.00  0.00    -0.744 OA
ENDBRANCH  72  75
ENDBRANCH  54  68
BRANCH  55  79
ATOM     79  C   UNL A   1      39.625  32.117  35.168  1.00  0.00     0.023 A 
ATOM     80  C   UNL A   1      38.759  31.491  36.087  1.00  0.00     0.012 A 
ATOM     81  C   UNL A   1      40.005  33.455  35.391  1.00  0.00     0.148 A 
ATOM     82  C   UNL A   1      38.247  32.197  37.179  1.00  0.00     0.002 A 
ATOM     83  C   UNL A   1      39.544  34.130  36.515  1.00  0.00     0.091 A 
ATOM     84  F   UNL A   1      40.805  34.048  34.494  1.00  0.00    -0.205 F 
ATOM     85  C   UNL A   1      38.646  33.512  37.398  1.00  0.00     0.022 A 
BRANCH  83  86
ATOM     86  S   UNL A   1      40.119  35.777  36.946  1.00  0.00     0.127 S 
ATOM     87  O   UNL A   1      39.620  36.573  35.829  1.00  0.00    -0.237 OA
ATOM     88  O   UNL A   1      39.442  36.008  38.222  1.00  0.00    -0.237 OA
ATOM     89  O   UNL A   1      41.569  35.667  37.054  1.00  0.00    -0.744 OA
ENDBRANCH  83  86
ENDBRANCH  55  79
BRANCH  67  90
ATOM     90  C   UNL A   1      45.110  27.964  33.967  1.00  0.00     0.023 A 
ATOM     91  C   UNL A   1      46.309  28.704  33.972  1.00  0.00     0.012 A 
ATOM     92  C   UNL A   1      44.975  26.861  34.832  1.00  0.00     0.148 A 
ATOM     93  C   UNL A   1      47.366  28.333  34.803  1.00  0.00     0.002 A 
ATOM     94  C   UNL A   1      46.013  26.528  35.694  1.00  0.00     0.091 A 
ATOM     95  F   UNL A   1      43.829  26.164  34.805  1.00  0.00    -0.205 F 
ATOM     96  C   UNL A   1      47.215  27.255  35.672  1.00  0.00     0.022 A 
BRANCH  94  97
ATOM     97  S   UNL A   1      45.877  25.216  36.915  1.00  0.00     0.127 S 
ATOM     98  O   UNL A   1      47.148  25.339  37.627  1.00  0.00    -0.237 OA
ATOM     99  O   UNL A   1      44.703  25.631  37.684  1.00  0.00    -0.237 OA
ATOM    100  O   UNL A   1      45.703  23.980  36.162  1.00  0.00    -0.744 OA
ENDBRANCH  94  97
ENDBRANCH  67  90
ENDBRANCH  41  42
ENDBRANCH  34  36
ENDBRANCH  33  34
ENDBRANCH  32  33
ENDBRANCH  31  32
ENDBRANCH  30  31
ENDBRANCH  29  30
ENDBRANCH   1  29
TORSDOF 25
ENDMDL
MODEL 2
REMARK VINA RESULT:     -10.1      5.431      9.171
REMARK SMILES O=C(OCCOCCOCCOCCOC(=O)c1ccc(-c2c3nc(c(-c4cccc(S(=O)(=O)[O-])c4F)c4ccc([nH]4)c(-c4cccc(S(=O)(=O)[O-])c4F)c4nc(c(-c5cccc(S(=O)(=O)[O-])c5F)c5ccc2[nH]5)C=C4)C=C3)cc1)C1=Cc2cc(C(F)(F)F)ccc2O[C@@H]1C(F)(F)F
REMARK SMILES IDX 10 1 9 2 8 3 7 4 6 5 5 6 4 7 3 8 2 9 1 10 81 11 82 12 94 13
REMARK SMILES IDX 83 14 93 15 84 16 92 17 85 18 91 19 90 20 95 21 96 22 97 23
REMARK SMILES IDX 98 24 86 25 87 26 88 27 89 28 11 29 12 30 13 31 14 32 15 33
REMARK SMILES IDX 16 34 17 35 18 36 19 37 80 38 20 39 79 40 21 41 22 42 23 43
REMARK SMILES IDX 73 44 24 45 78 46 72 47 74 48 25 49 77 50 71 51 70 52 26 54
REMARK SMILES IDX 58 55 38 56 57 57 39 58 42 59 56 60 75 61 40 62 41 63 55 65
REMARK SMILES IDX 76 66 43 67 27 68 28 69 36 70 29 71 31 72 37 73 30 74 32 75
REMARK SMILES IDX 33 76 34 77 35 78 59 79 60 80 68 81 61 82 63 83 69 84 62 85
REMARK SMILES IDX 64 86 65 87 66 88 67 89 44 90 45 91 53 92 46 93 48 94 54 95
REMARK SMILES IDX 47 96 49 97 50 98 51 99 52 100
REMARK H PARENT 74 53 42 64
REMARK Flexibility Score: inf
ROOT
ATOM      1  C   UNL A   1      38.595  21.522  25.779  1.00  0.00     0.188 C 
ENDROOT
BRANCH   1   2
ATOM      2  O   UNL A   1      37.845  22.469  25.027  1.00  0.00    -0.377 OA
BRANCH   2   3
ATOM      3  C   UNL A   1      36.862  21.912  24.165  1.00  0.00     0.188 C 
BRANCH   3   4
ATOM      4  C   UNL A   1      35.518  21.756  24.861  1.00  0.00     0.188 C 
BRANCH   4   5
ATOM      5  O   UNL A   1      34.548  22.706  24.449  1.00  0.00    -0.376 OA
BRANCH   5   6
ATOM      6  C   UNL A   1      33.703  22.385  23.354  1.00  0.00     0.202 C 
BRANCH   6   7
ATOM      7  C   UNL A   1      33.525  23.482  22.304  1.00  0.00     0.261 C 
BRANCH   7   8
ATOM      8  O   UNL A   1      34.130  24.730  22.696  1.00  0.00    -0.460 OA
BRANCH   8   9
ATOM      9  C   UNL A   1      33.491  25.872  22.349  1.00  0.00     0.338 C 
ATOM     10  O   UNL A   1      33.486  26.313  21.209  1.00  0.00    -0.246 OA
BRANCH   9  11
ATOM     11  C   UNL A   1      32.960  26.642  23.508  1.00  0.00     0.087 C 
ATOM     12  C   UNL A   1      32.556  27.873  23.150  1.00  0.00     0.027 C 
ATOM     13  C   UNL A   1      32.248  25.855  24.578  1.00  0.00     0.316 C 
ATOM     14  C   UNL A   1      31.108  28.075  23.235  1.00  0.00     0.018 A 
ATOM     15  O   UNL A   1      30.843  26.170  24.723  1.00  0.00    -0.475 OA
ATOM     16  C   UNL A   1      30.502  29.127  22.535  1.00  0.00     0.025 A 
ATOM     17  C   UNL A   1      30.322  27.145  23.915  1.00  0.00     0.128 A 
ATOM     18  C   UNL A   1      29.103  29.200  22.446  1.00  0.00     0.056 A 
ATOM     19  C   UNL A   1      28.938  27.169  23.769  1.00  0.00     0.048 A 
ATOM     20  C   UNL A   1      28.332  28.171  23.009  1.00  0.00     0.017 A 
BRANCH  13  21
ATOM     21  C   UNL A   1      32.996  25.911  25.913  1.00  0.00     0.430 C 
ATOM     22  F   UNL A   1      32.334  25.231  26.879  1.00  0.00    -0.167 F 
ATOM     23  F   UNL A   1      34.220  25.331  25.812  1.00  0.00    -0.167 F 
ATOM     24  F   UNL A   1      33.188  27.173  26.355  1.00  0.00    -0.167 F 
ENDBRANCH  13  21
BRANCH  18  25
ATOM     25  C   UNL A   1      28.415  30.400  21.840  1.00  0.00     0.416 C 
ATOM     26  F   UNL A   1      27.456  30.892  22.676  1.00  0.00    -0.166 F 
ATOM     27  F   UNL A   1      29.252  31.444  21.588  1.00  0.00    -0.166 F 
ATOM     28  F   UNL A   1      27.783  30.126  20.669  1.00  0.00    -0.166 F 
ENDBRANCH  18  25
ENDBRANCH   9  11
ENDBRANCH   8   9
ENDBRANCH   7   8
ENDBRANCH   6   7
ENDBRANCH   5   6
ENDBRANCH   4   5
ENDBRANCH   3   4
ENDBRANCH   2   3
ENDBRANCH   1   2
BRANCH   1  29
ATOM     29  C   UNL A   1      39.806  22.073  26.572  1.00  0.00     0.188 C 
BRANCH  29  30
ATOM     30  O   UNL A   1      41.133  22.109  26.058  1.00  0.00    -0.376 OA
BRANCH  30  31
ATOM     31  C   UNL A   1      42.055  23.048  26.573  1.00  0.00     0.202 C 
BRANCH  31  32
ATOM     32  C   UNL A   1      41.634  23.763  27.868  1.00  0.00     0.261 C 
BRANCH  32  33
ATOM     33  O   UNL A   1      41.689  25.199  27.814  1.00  0.00    -0.460 OA
BRANCH  33  34
ATOM     34  C   UNL A   1      40.537  25.859  28.128  1.00  0.00     0.338 C 
ATOM     35  O   UNL A   1      39.427  25.391  28.182  1.00  0.00    -0.246 OA
BRANCH  34  36
ATOM     36  C   UNL A   1      40.878  27.234  28.610  1.00  0.00     0.060 A 
ATOM     37  C   UNL A   1      41.775  27.343  29.684  1.00  0.00     0.016 A 
ATOM     38  C   UNL A   1      40.401  28.394  27.991  1.00  0.00     0.016 A 
ATOM     39  C   UNL A   1      42.194  28.598  30.142  1.00  0.00     0.010 A 
ATOM     40  C   UNL A   1      40.800  29.653  28.468  1.00  0.00     0.010 A 
ATOM     41  C   UNL A   1      41.681  29.764  29.561  1.00  0.00    -0.014 A 
BRANCH  41  42
ATOM     42  C   UNL A   1      41.878  31.080  30.227  1.00  0.00     0.031 A 
ATOM     43  C   UNL A   1      43.151  31.831  29.933  1.00  0.00     0.074 A 
ATOM     44  C   UNL A   1      40.981  31.603  31.087  1.00  0.00     0.049 A 
ATOM     45  N   UNL A   1      43.604  32.937  30.459  1.00  0.00    -0.248 NA
ATOM     46  C   UNL A   1      44.033  31.247  28.908  1.00  0.00     0.031 C 
ATOM     47  C   UNL A   1      39.697  31.005  31.445  1.00  0.00     0.029 A 
ATOM     48  N   UNL A   1      41.040  32.749  31.847  1.00  0.00    -0.354 N 
ATOM     49  C   UNL A   1      44.840  33.159  29.864  1.00  0.00     0.074 A 
ATOM     50  C   UNL A   1      45.062  32.080  28.929  1.00  0.00     0.031 C 
ATOM     51  C   UNL A   1      39.112  31.763  32.391  1.00  0.00     0.029 A 
ATOM     52  C   UNL A   1      39.992  32.881  32.732  1.00  0.00     0.049 A 
ATOM     53  H   UNL A   1      41.763  33.413  31.766  1.00  0.00     0.167 HD
ATOM     54  C   UNL A   1      45.714  34.169  30.073  1.00  0.00     0.034 A 
ATOM     55  C   UNL A   1      39.792  33.771  33.729  1.00  0.00     0.034 A 
ATOM     56  C   UNL A   1      45.494  35.259  30.983  1.00  0.00     0.049 A 
ATOM     57  C   UNL A   1      40.810  34.862  33.972  1.00  0.00     0.074 A 
ATOM     58  C   UNL A   1      46.299  36.361  31.210  1.00  0.00     0.029 A 
ATOM     59  N   UNL A   1      44.408  35.373  31.833  1.00  0.00    -0.354 N 
ATOM     60  N   UNL A   1      41.908  35.133  33.310  1.00  0.00    -0.248 NA
ATOM     61  C   UNL A   1      40.550  35.784  35.092  1.00  0.00     0.031 C 
ATOM     62  C   UNL A   1      45.721  37.119  32.232  1.00  0.00     0.029 A 
ATOM     63  C   UNL A   1      44.537  36.510  32.611  1.00  0.00     0.049 A 
ATOM     64  H   UNL A   1      43.656  34.739  31.880  1.00  0.00     0.167 HD
ATOM     65  C   UNL A   1      42.450  36.266  33.912  1.00  0.00     0.074 A 
ATOM     66  C   UNL A   1      41.545  36.651  34.973  1.00  0.00     0.031 C 
ATOM     67  C   UNL A   1      43.605  36.917  33.628  1.00  0.00     0.034 A 
BRANCH  54  68
ATOM     68  C   UNL A   1      47.005  34.156  29.301  1.00  0.00     0.023 A 
ATOM     69  C   UNL A   1      48.143  33.531  29.846  1.00  0.00     0.012 A 
ATOM     70  C   UNL A   1      47.056  34.684  27.997  1.00  0.00     0.148 A 
ATOM     71  C   UNL A   1      49.321  33.444  29.106  1.00  0.00     0.002 A 
ATOM     72  C   UNL A   1      48.218  34.554  27.250  1.00  0.00     0.091 A 
ATOM     73  F   UNL A   1      45.965  35.295  27.513  1.00  0.00    -0.205 F 
ATOM     74  C   UNL A   1      49.355  33.943  27.805  1.00  0.00     0.022 A 
BRANCH  72  75
ATOM     75  S   UNL A   1      48.338  35.089  25.540  1.00  0.00     0.127 S 
ATOM     76  O   UNL A   1      49.580  34.443  25.115  1.00  0.00    -0.237 OA
ATOM     77  O   UNL A   1      47.124  34.519  24.958  1.00  0.00    -0.237 OA
ATOM     78  O   UNL A   1      48.378  36.543  25.573  1.00  0.00    -0.744 OA
ENDBRANCH  72  75
ENDBRANCH  54  68
BRANCH  55  79
ATOM     79  C   UNL A   1      38.591  33.668  34.612  1.00  0.00     0.023 A 
ATOM     80  C   UNL A   1      37.382  34.283  34.231  1.00  0.00     0.012 A 
ATOM     81  C   UNL A   1      38.656  33.001  35.851  1.00  0.00     0.148 A 
ATOM     82  C   UNL A   1      36.277  34.275  35.086  1.00  0.00     0.002 A 
ATOM     83  C   UNL A   1      37.533  32.941  36.668  1.00  0.00     0.091 A 
ATOM     84  F   UNL A   1      39.821  32.446  36.215  1.00  0.00    -0.205 F 
ATOM     85  C   UNL A   1      36.349  33.597  36.299  1.00  0.00     0.022 A 
BRANCH  83  86
ATOM     86  S   UNL A   1      37.500  31.971  38.180  1.00  0.00     0.127 S 
ATOM     87  O   UNL A   1      37.575  30.607  37.665  1.00  0.00    -0.237 OA
ATOM     88  O   UNL A   1      38.703  32.441  38.866  1.00  0.00    -0.237 OA
ATOM     89  O   UNL A   1      36.256  32.333  38.848  1.00  0.00    -0.744 OA
ENDBRANCH  83  86
ENDBRANCH  55  79
BRANCH  67  90
ATOM     90  C   UNL A   1      43.956  38.135  34.447  1.00  0.00     0.023 A 
ATOM     91  C   UNL A   1      44.778  38.002  35.583  1.00  0.00     0.012 A 
ATOM     92  C   UNL A   1      43.544  39.420  34.039  1.00  0.00     0.148 A 
ATOM     93  C   UNL A   1      45.160  39.125  36.317  1.00  0.00     0.002 A 
ATOM     94  C   UNL A   1      43.969  40.539  34.746  1.00  0.00     0.091 A 
ATOM     95  F   UNL A   1      42.752  39.525  32.962  1.00  0.00    -0.205 F 
ATOM     96  C   UNL A   1      44.767  40.392  35.893  1.00  0.00     0.022 A 
BRANCH  94  97
ATOM     97  S   UNL A   1      43.594  42.216  34.223  1.00  0.00     0.127 S 
ATOM     98  O   UNL A   1      44.227  42.265  32.906  1.00  0.00    -0.237 OA
ATOM     99  O   UNL A   1      42.131  42.211  34.197  1.00  0.00    -0.237 OA
ATOM    100  O   UNL A   1      44.180  43.093  35.227  1.00  0.00    -0.744 OA
ENDBRANCH  94  97
ENDBRANCH  67  90
ENDBRANCH  41  42
ENDBRANCH  34  36
ENDBRANCH  33  34
ENDBRANCH  32  33
ENDBRANCH  31  32
ENDBRANCH  30  31
ENDBRANCH  29  30
ENDBRANCH   1  29
TORSDOF 25
ENDMDL
MODEL 3
REMARK VINA RESULT:      -9.9      1.695      1.987
REMARK SMILES O=C(OCCOCCOCCOCCOC(=O)c1ccc(-c2c3nc(c(-c4cccc(S(=O)(=O)[O-])c4F)c4ccc([nH]4)c(-c4cccc(S(=O)(=O)[O-])c4F)c4nc(c(-c5cccc(S(=O)(=O)[O-])c5F)c5ccc2[nH]5)C=C4)C=C3)cc1)C1=Cc2cc(C(F)(F)F)ccc2O[C@@H]1C(F)(F)F
REMARK SMILES IDX 10 1 9 2 8 3 7 4 6 5 5 6 4 7 3 8 2 9 1 10 81 11 82 12 94 13
REMARK SMILES IDX 83 14 93 15 84 16 92 17 85 18 91 19 90 20 95 21 96 22 97 23
REMARK SMILES IDX 98 24 86 25 87 26 88 27 89 28 11 29 12 30 13 31 14 32 15 33
REMARK SMILES IDX 16 34 17 35 18 36 19 37 80 38 20 39 79 40 21 41 22 42 23 43
REMARK SMILES IDX 73 44 24 45 78 46 72 47 74 48 25 49 77 50 71 51 70 52 26 54
REMARK SMILES IDX 58 55 38 56 57 57 39 58 42 59 56 60 75 61 40 62 41 63 55 65
REMARK SMILES IDX 76 66 43 67 27 68 28 69 36 70 29 71 31 72 37 73 30 74 32 75
REMARK SMILES IDX 33 76 34 77 35 78 59 79 60 80 68 81 61 82 63 83 69 84 62 85
REMARK SMILES IDX 64 86 65 87 66 88 67 89 44 90 45 91 53 92 46 93 48 94 54 95
REMARK SMILES IDX 47 96 49 97 50 98 51 99 52 100
REMARK H PARENT 74 53 42 64
REMARK Flexibility Score: inf
ROOT
ATOM      1  C   UNL A   1      31.157  28.137  24.204  1.00  0.00     0.188 C 
ENDROOT
BRANCH   1   2
ATOM      2  O   UNL A   1      32.228  28.704  23.458  1.00  0.00    -0.377 OA
BRANCH   2   3
ATOM      3  C   UNL A   1      33.394  27.895  23.366  1.00  0.00     0.188 C 
BRANCH   3   4
ATOM      4  C   UNL A   1      33.986  27.908  21.964  1.00  0.00     0.188 C 
BRANCH   4   5
ATOM      5  O   UNL A   1      33.651  26.766  21.193  1.00  0.00    -0.376 OA
BRANCH   5   6
ATOM      6  C   UNL A   1      32.747  25.816  21.740  1.00  0.00     0.202 C 
BRANCH   6   7
ATOM      7  C   UNL A   1      33.303  24.931  22.855  1.00  0.00     0.261 C 
BRANCH   7   8
ATOM      8  O   UNL A   1      32.267  24.275  23.612  1.00  0.00    -0.460 OA
BRANCH   8   9
ATOM      9  C   UNL A   1      32.220  22.922  23.569  1.00  0.00     0.338 C 
ATOM     10  O   UNL A   1      31.784  22.302  22.610  1.00  0.00    -0.246 OA
BRANCH   9  11
ATOM     11  C   UNL A   1      32.564  22.265  24.859  1.00  0.00     0.087 C 
ATOM     12  C   UNL A   1      32.205  20.969  24.875  1.00  0.00     0.027 C 
ATOM     13  C   UNL A   1      33.808  22.749  25.559  1.00  0.00     0.316 C 
ATOM     14  C   UNL A   1      33.333  20.036  24.890  1.00  0.00     0.018 A 
ATOM     15  O   UNL A   1      34.860  21.761  25.670  1.00  0.00    -0.475 OA
ATOM     16  C   UNL A   1      33.148  18.701  24.508  1.00  0.00     0.025 A 
ATOM     17  C   UNL A   1      34.615  20.511  25.169  1.00  0.00     0.128 A 
ATOM     18  C   UNL A   1      34.257  17.860  24.323  1.00  0.00     0.056 A 
ATOM     19  C   UNL A   1      35.721  19.705  24.915  1.00  0.00     0.048 A 
ATOM     20  C   UNL A   1      35.546  18.398  24.461  1.00  0.00     0.017 A 
BRANCH  13  21
ATOM     21  C   UNL A   1      33.482  23.404  26.903  1.00  0.00     0.430 C 
ATOM     22  F   UNL A   1      33.221  24.726  26.759  1.00  0.00    -0.167 F 
ATOM     23  F   UNL A   1      32.370  22.856  27.457  1.00  0.00    -0.167 F 
ATOM     24  F   UNL A   1      34.480  23.278  27.805  1.00  0.00    -0.167 F 
ENDBRANCH  13  21
BRANCH  18  25
ATOM     25  C   UNL A   1      34.089  16.381  24.068  1.00  0.00     0.416 C 
ATOM     26  F   UNL A   1      34.879  15.645  24.902  1.00  0.00    -0.166 F 
ATOM     27  F   UNL A   1      32.820  15.930  24.271  1.00  0.00    -0.166 F 
ATOM     28  F   UNL A   1      34.430  16.008  22.807  1.00  0.00    -0.166 F 
ENDBRANCH  18  25
ENDBRANCH   9  11
ENDBRANCH   8   9
ENDBRANCH   7   8
ENDBRANCH   6   7
ENDBRANCH   5   6
ENDBRANCH   4   5
ENDBRANCH   3   4
ENDBRANCH   2   3
ENDBRANCH   1   2
BRANCH   1  29
ATOM     29  C   UNL A   1      31.551  27.269  25.425  1.00  0.00     0.188 C 
BRANCH  29  30
ATOM     30  O   UNL A   1      31.128  27.546  26.756  1.00  0.00    -0.376 OA
BRANCH  30  31
ATOM     31  C   UNL A   1      31.900  28.408  27.568  1.00  0.00     0.202 C 
BRANCH  31  32
ATOM     32  C   UNL A   1      31.930  29.885  27.140  1.00  0.00     0.261 C 
BRANCH  32  33
ATOM     33  O   UNL A   1      33.221  30.373  26.734  1.00  0.00    -0.460 OA
BRANCH  33  34
ATOM     34  C   UNL A   1      33.672  31.490  27.375  1.00  0.00     0.338 C 
ATOM     35  O   UNL A   1      33.031  32.473  27.653  1.00  0.00    -0.246 OA
BRANCH  34  36
ATOM     36  C   UNL A   1      35.058  31.236  27.881  1.00  0.00     0.060 A 
ATOM     37  C   UNL A   1      35.405  29.912  28.190  1.00  0.00     0.016 A 
ATOM     38  C   UNL A   1      36.022  32.243  27.984  1.00  0.00     0.016 A 
ATOM     39  C   UNL A   1      36.704  29.591  28.602  1.00  0.00     0.010 A 
ATOM     40  C   UNL A   1      37.318  31.925  28.423  1.00  0.00     0.010 A 
ATOM     41  C   UNL A   1      37.661  30.601  28.756  1.00  0.00    -0.014 A 
BRANCH  41  42
ATOM     42  C   UNL A   1      38.934  30.321  29.475  1.00  0.00     0.031 A 
ATOM     43  C   UNL A   1      39.819  29.229  28.931  1.00  0.00     0.074 A 
ATOM     44  C   UNL A   1      39.304  30.983  30.589  1.00  0.00     0.049 A 
ATOM     45  N   UNL A   1      40.919  28.727  29.426  1.00  0.00    -0.248 NA
ATOM     46  C   UNL A   1      39.401  28.620  27.656  1.00  0.00     0.031 C 
ATOM     47  C   UNL A   1      38.564  32.079  31.212  1.00  0.00     0.029 A 
ATOM     48  N   UNL A   1      40.388  30.798  31.416  1.00  0.00    -0.354 N 
ATOM     49  C   UNL A   1      41.299  27.716  28.551  1.00  0.00     0.074 A 
ATOM     50  C   UNL A   1      40.321  27.684  27.487  1.00  0.00     0.031 C 
ATOM     51  C   UNL A   1      39.189  32.435  32.349  1.00  0.00     0.029 A 
ATOM     52  C   UNL A   1      40.354  31.573  32.555  1.00  0.00     0.049 A 
ATOM     53  H   UNL A   1      41.120  30.171  31.213  1.00  0.00     0.167 HD
ATOM     54  C   UNL A   1      42.366  26.889  28.621  1.00  0.00     0.034 A 
ATOM     55  C   UNL A   1      41.141  31.555  33.653  1.00  0.00     0.034 A 
ATOM     56  C   UNL A   1      43.357  26.927  29.661  1.00  0.00     0.049 A 
ATOM     57  C   UNL A   1      42.299  30.586  33.726  1.00  0.00     0.074 A 
ATOM     58  C   UNL A   1      44.507  26.167  29.775  1.00  0.00     0.029 A 
ATOM     59  N   UNL A   1      43.304  27.746  30.774  1.00  0.00    -0.354 N 
ATOM     60  N   UNL A   1      42.720  29.730  32.828  1.00  0.00    -0.248 NA
ATOM     61  C   UNL A   1      43.103  30.595  34.960  1.00  0.00     0.031 C 
ATOM     62  C   UNL A   1      45.127  26.496  30.983  1.00  0.00     0.029 A 
ATOM     63  C   UNL A   1      44.384  27.489  31.599  1.00  0.00     0.049 A 
ATOM     64  H   UNL A   1      42.602  28.413  30.954  1.00  0.00     0.167 HD
ATOM     65  C   UNL A   1      43.848  29.123  33.375  1.00  0.00     0.074 A 
ATOM     66  C   UNL A   1      44.065  29.730  34.670  1.00  0.00     0.031 C 
ATOM     67  C   UNL A   1      44.624  28.136  32.862  1.00  0.00     0.034 A 
BRANCH  54  68
ATOM     68  C   UNL A   1      42.532  25.859  27.538  1.00  0.00     0.023 A 
ATOM     69  C   UNL A   1      43.322  26.146  26.409  1.00  0.00     0.012 A 
ATOM     70  C   UNL A   1      41.978  24.573  27.692  1.00  0.00     0.148 A 
ATOM     71  C   UNL A   1      43.547  25.171  25.439  1.00  0.00     0.002 A 
ATOM     72  C   UNL A   1      42.242  23.594  26.745  1.00  0.00     0.091 A 
ATOM     73  F   UNL A   1      41.210  24.334  28.765  1.00  0.00    -0.205 F 
ATOM     74  C   UNL A   1      43.019  23.893  25.613  1.00  0.00     0.022 A 
BRANCH  72  75
ATOM     75  S   UNL A   1      41.679  21.898  26.918  1.00  0.00     0.127 S 
ATOM     76  O   UNL A   1      42.616  21.376  27.912  1.00  0.00    -0.237 OA
ATOM     77  O   UNL A   1      40.312  22.081  27.406  1.00  0.00    -0.237 OA
ATOM     78  O   UNL A   1      41.783  21.300  25.596  1.00  0.00    -0.744 OA
ENDBRANCH  72  75
ENDBRANCH  54  68
BRANCH  55  79
ATOM     79  C   UNL A   1      40.860  32.462  34.807  1.00  0.00     0.023 A 
ATOM     80  C   UNL A   1      41.714  33.550  35.072  1.00  0.00     0.012 A 
ATOM     81  C   UNL A   1      39.773  32.221  35.671  1.00  0.00     0.148 A 
ATOM     82  C   UNL A   1      41.519  34.353  36.199  1.00  0.00     0.002 A 
ATOM     83  C   UNL A   1      39.547  33.063  36.754  1.00  0.00     0.091 A 
ATOM     84  F   UNL A   1      38.986  31.165  35.425  1.00  0.00    -0.205 F 
ATOM     85  C   UNL A   1      40.431  34.115  37.035  1.00  0.00     0.022 A 
BRANCH  83  86
ATOM     86  S   UNL A   1      38.091  32.911  37.796  1.00  0.00     0.127 S 
ATOM     87  O   UNL A   1      38.006  34.241  38.391  1.00  0.00    -0.237 OA
ATOM     88  O   UNL A   1      37.049  32.604  36.815  1.00  0.00    -0.237 OA
ATOM     89  O   UNL A   1      38.382  31.817  38.715  1.00  0.00    -0.744 OA
ENDBRANCH  83  86
ENDBRANCH  55  79
BRANCH  67  90
ATOM     90  C   UNL A   1      45.802  27.659  33.676  1.00  0.00     0.023 A 
ATOM     91  C   UNL A   1      45.637  26.603  34.593  1.00  0.00     0.012 A 
ATOM     92  C   UNL A   1      47.087  28.198  33.467  1.00  0.00     0.148 A 
ATOM     93  C   UNL A   1      46.727  26.111  35.312  1.00  0.00     0.002 A 
ATOM     94  C   UNL A   1      48.177  27.670  34.148  1.00  0.00     0.091 A 
ATOM     95  F   UNL A   1      47.221  29.211  32.598  1.00  0.00    -0.205 F 
ATOM     96  C   UNL A   1      47.998  26.635  35.081  1.00  0.00     0.022 A 
BRANCH  94  97
ATOM     97  S   UNL A   1      49.863  28.214  33.849  1.00  0.00     0.127 S 
ATOM     98  O   UNL A   1      49.715  29.669  33.872  1.00  0.00    -0.237 OA
ATOM     99  O   UNL A   1      50.576  27.654  34.997  1.00  0.00    -0.237 OA
ATOM    100  O   UNL A   1      50.247  27.649  32.561  1.00  0.00    -0.744 OA
ENDBRANCH  94  97
ENDBRANCH  67  90
ENDBRANCH  41  42
ENDBRANCH  34  36
ENDBRANCH  33  34
ENDBRANCH  32  33
ENDBRANCH  31  32
ENDBRANCH  30  31
ENDBRANCH  29  30
ENDBRANCH   1  29
TORSDOF 25
ENDMDL
