MODEL 1
REMARK VINA RESULT:     -10.2      0.000      0.000
REMARK SMILES O=C(OCCOCCOCCOCCOC(=O)[C@@H]1CC2(CC[NH2+]CC2)C[N@@H+]1Cc1cccc2nonc12)c1ccc(-c2c3nc(c(-c4cccc(S(=O)(=O)[O-])c4F)c4ccc([nH]4)c(-c4cccc(S(=O)(=O)[O-])c4F)c4nc(c(-c5cccc(S(=O)(=O)[O-])c5F)c5ccc2[nH]5)C=C4)C=C3)cc1
REMARK SMILES IDX 8 1 7 2 6 3 5 4 4 5 3 6 2 7 1 8 38 9 39 10 100 11 40 12
REMARK SMILES IDX 99 13 41 14 42 15 43 16 93 17 44 18 98 19 92 20 94 21 45 22
REMARK SMILES IDX 97 23 91 24 90 25 46 27 78 28 58 29 77 30 59 31 62 32 76 33
REMARK SMILES IDX 95 34 60 35 61 36 75 38 96 39 63 40 47 41 48 42 56 43 49 44
REMARK SMILES IDX 51 45 57 46 50 47 52 48 53 49 54 50 55 51 79 52 80 53 88 54
REMARK SMILES IDX 81 55 83 56 89 57 82 58 84 59 85 60 86 61 87 62 64 63 65 64
REMARK SMILES IDX 73 65 66 66 68 67 74 68 67 69 69 70 70 71 71 72 72 73 9 74
REMARK SMILES IDX 10 75 11 76 12 77 13 78 14 79 15 80 16 81 17 82 18 83 19 84
REMARK SMILES IDX 27 85 20 86 26 87 21 89 25 90 22 91 24 92 23 93 28 96 29 97
REMARK SMILES IDX 30 98 37 99 31 100 33 101 36 102 32 103 34 104 35 105
REMARK H PARENT 94 26 62 37 27 88 23 94 23 95
REMARK Flexibility Score: inf
ROOT
ATOM      1  C   UNL A   1      41.651  19.722  27.061  1.00  0.00     0.188 C 
ENDROOT
BRANCH   1   2
ATOM      2  C   UNL A   1      42.250  18.715  26.086  1.00  0.00     0.188 C 
BRANCH   2   3
ATOM      3  O   UNL A   1      42.991  19.367  25.066  1.00  0.00    -0.376 OA
BRANCH   3   4
ATOM      4  C   UNL A   1      44.413  19.268  25.139  1.00  0.00     0.202 C 
BRANCH   4   5
ATOM      5  C   UNL A   1      45.047  20.657  25.147  1.00  0.00     0.261 C 
BRANCH   5   6
ATOM      6  O   UNL A   1      44.036  21.615  25.506  1.00  0.00    -0.460 OA
BRANCH   6   7
ATOM      7  C   UNL A   1      43.891  22.607  24.587  1.00  0.00     0.338 C 
ATOM      8  O   UNL A   1      43.839  22.443  23.377  1.00  0.00    -0.246 OA
BRANCH   7   9
ATOM      9  C   UNL A   1      43.917  23.940  25.245  1.00  0.00     0.060 A 
ATOM     10  C   UNL A   1      42.834  24.326  26.040  1.00  0.00     0.016 A 
ATOM     11  C   UNL A   1      44.938  24.859  24.974  1.00  0.00     0.016 A 
ATOM     12  C   UNL A   1      42.821  25.594  26.627  1.00  0.00     0.010 A 
ATOM     13  C   UNL A   1      44.894  26.138  25.511  1.00  0.00     0.010 A 
ATOM     14  C   UNL A   1      43.872  26.494  26.395  1.00  0.00    -0.014 A 
BRANCH  14  15
ATOM     15  C   UNL A   1      44.005  27.694  27.247  1.00  0.00     0.031 A 
ATOM     16  C   UNL A   1      42.732  28.438  27.535  1.00  0.00     0.074 A 
ATOM     17  C   UNL A   1      44.991  27.800  28.157  1.00  0.00     0.049 A 
ATOM     18  N   UNL A   1      42.039  28.339  28.632  1.00  0.00    -0.248 NA
ATOM     19  C   UNL A   1      42.023  29.117  26.445  1.00  0.00     0.031 C 
ATOM     20  C   UNL A   1      45.217  26.824  29.225  1.00  0.00     0.029 A 
ATOM     21  N   UNL A   1      45.678  28.924  28.551  1.00  0.00    -0.354 N 
ATOM     22  C   UNL A   1      40.782  28.872  28.368  1.00  0.00     0.074 A 
ATOM     23  C   UNL A   1      40.821  29.332  26.995  1.00  0.00     0.031 C 
ATOM     24  C   UNL A   1      45.872  27.442  30.229  1.00  0.00     0.029 A 
ATOM     25  C   UNL A   1      46.200  28.804  29.828  1.00  0.00     0.049 A 
ATOM     26  H   UNL A   1      45.786  29.723  27.988  1.00  0.00     0.167 HD
ATOM     27  C   UNL A   1      39.759  28.920  29.265  1.00  0.00     0.034 A 
ATOM     28  C   UNL A   1      46.534  29.853  30.626  1.00  0.00     0.034 A 
ATOM     29  C   UNL A   1      39.992  28.538  30.646  1.00  0.00     0.049 A 
ATOM     30  C   UNL A   1      45.283  30.025  31.438  1.00  0.00     0.074 A 
ATOM     31  C   UNL A   1      39.210  28.447  31.787  1.00  0.00     0.029 A 
ATOM     32  N   UNL A   1      41.264  28.219  31.059  1.00  0.00    -0.354 N 
ATOM     33  N   UNL A   1      44.925  29.305  32.470  1.00  0.00    -0.248 NA
ATOM     34  C   UNL A   1      44.204  30.850  30.864  1.00  0.00     0.031 C 
ATOM     35  C   UNL A   1      40.085  28.299  32.909  1.00  0.00     0.029 A 
ATOM     36  C   UNL A   1      41.375  28.340  32.425  1.00  0.00     0.049 A 
ATOM     37  H   UNL A   1      41.994  27.940  30.460  1.00  0.00     0.167 HD
ATOM     38  C   UNL A   1      43.540  29.359  32.457  1.00  0.00     0.074 A 
ATOM     39  C   UNL A   1      43.157  30.428  31.560  1.00  0.00     0.031 C 
ATOM     40  C   UNL A   1      42.710  28.400  32.942  1.00  0.00     0.034 A 
BRANCH  27  41
ATOM     41  C   UNL A   1      38.466  29.591  28.932  1.00  0.00     0.023 A 
ATOM     42  C   UNL A   1      37.537  28.818  28.208  1.00  0.00     0.012 A 
ATOM     43  C   UNL A   1      38.203  30.958  29.149  1.00  0.00     0.148 A 
ATOM     44  C   UNL A   1      36.378  29.387  27.685  1.00  0.00     0.002 A 
ATOM     45  C   UNL A   1      37.039  31.523  28.623  1.00  0.00     0.091 A 
ATOM     46  F   UNL A   1      39.107  31.688  29.819  1.00  0.00    -0.205 F 
ATOM     47  C   UNL A   1      36.131  30.739  27.889  1.00  0.00     0.022 A 
BRANCH  45  48
ATOM     48  S   UNL A   1      36.616  33.264  28.791  1.00  0.00     0.127 S 
ATOM     49  O   UNL A   1      35.728  33.472  27.647  1.00  0.00    -0.237 OA
ATOM     50  O   UNL A   1      35.950  33.293  30.093  1.00  0.00    -0.237 OA
ATOM     51  O   UNL A   1      37.878  33.989  28.737  1.00  0.00    -0.744 OA
ENDBRANCH  45  48
ENDBRANCH  27  41
BRANCH  28  52
ATOM     52  C   UNL A   1      47.297  30.955  29.956  1.00  0.00     0.023 A 
ATOM     53  C   UNL A   1      48.610  31.191  30.444  1.00  0.00     0.012 A 
ATOM     54  C   UNL A   1      46.855  31.747  28.885  1.00  0.00     0.148 A 
ATOM     55  C   UNL A   1      49.483  32.080  29.817  1.00  0.00     0.002 A 
ATOM     56  C   UNL A   1      47.747  32.593  28.226  1.00  0.00     0.091 A 
ATOM     57  F   UNL A   1      45.579  31.666  28.494  1.00  0.00    -0.205 F 
ATOM     58  C   UNL A   1      49.061  32.759  28.685  1.00  0.00     0.022 A 
BRANCH  56  59
ATOM     59  S   UNL A   1      47.303  33.448  26.708  1.00  0.00     0.127 S 
ATOM     60  O   UNL A   1      47.124  34.826  27.165  1.00  0.00    -0.237 OA
ATOM     61  O   UNL A   1      48.495  33.219  25.892  1.00  0.00    -0.237 OA
ATOM     62  O   UNL A   1      46.085  32.804  26.237  1.00  0.00    -0.744 OA
ENDBRANCH  56  59
ENDBRANCH  28  52
BRANCH  40  63
ATOM     63  C   UNL A   1      43.260  27.393  33.874  1.00  0.00     0.023 A 
ATOM     64  C   UNL A   1      43.209  27.691  35.247  1.00  0.00     0.012 A 
ATOM     65  C   UNL A   1      43.828  26.181  33.440  1.00  0.00     0.148 A 
ATOM     66  C   UNL A   1      43.715  26.794  36.184  1.00  0.00     0.002 A 
ATOM     67  C   UNL A   1      44.337  25.290  34.381  1.00  0.00     0.091 A 
ATOM     68  F   UNL A   1      43.851  25.912  32.127  1.00  0.00    -0.205 F 
ATOM     69  C   UNL A   1      44.276  25.594  35.753  1.00  0.00     0.022 A 
BRANCH  67  70
ATOM     70  S   UNL A   1      45.051  23.702  33.935  1.00  0.00     0.127 S 
ATOM     71  O   UNL A   1      44.149  23.248  32.878  1.00  0.00    -0.237 OA
ATOM     72  O   UNL A   1      46.388  24.075  33.467  1.00  0.00    -0.237 OA
ATOM     73  O   UNL A   1      45.048  22.890  35.146  1.00  0.00    -0.744 OA
ENDBRANCH  67  70
ENDBRANCH  40  63
ENDBRANCH  14  15
ENDBRANCH   7   9
ENDBRANCH   6   7
ENDBRANCH   5   6
ENDBRANCH   4   5
ENDBRANCH   3   4
ENDBRANCH   2   3
ENDBRANCH   1   2
BRANCH   1  74
ATOM     74  O   UNL A   1      40.417  20.190  26.538  1.00  0.00    -0.377 OA
BRANCH  74  75
ATOM     75  C   UNL A   1      40.353  21.573  26.176  1.00  0.00     0.188 C 
BRANCH  75  76
ATOM     76  C   UNL A   1      39.049  22.392  26.270  1.00  0.00     0.188 C 
BRANCH  76  77
ATOM     77  O   UNL A   1      37.999  21.845  25.489  1.00  0.00    -0.376 OA
BRANCH  77  78
ATOM     78  C   UNL A   1      37.188  22.771  24.761  1.00  0.00     0.202 C 
BRANCH  78  79
ATOM     79  C   UNL A   1      36.344  23.709  25.645  1.00  0.00     0.261 C 
BRANCH  79  80
ATOM     80  O   UNL A   1      34.903  23.501  25.757  1.00  0.00    -0.459 OA
BRANCH  80  81
ATOM     81  C   UNL A   1      34.084  24.583  25.864  1.00  0.00     0.365 C 
ATOM     82  O   UNL A   1      33.305  24.745  26.771  1.00  0.00    -0.245 OA
BRANCH  81  83
ATOM     83  C   UNL A   1      34.360  25.630  24.777  1.00  0.00     0.296 C 
ATOM     84  C   UNL A   1      34.256  27.044  25.376  1.00  0.00     0.091 C 
ATOM     85  N   UNL A   1      33.395  25.677  23.665  1.00  0.00    -0.319 N 
ATOM     86  C   UNL A   1      32.848  27.579  25.026  1.00  0.00     0.036 C 
ATOM     87  C   UNL A   1      32.560  26.863  23.698  1.00  0.00     0.270 C 
ATOM     88  H   UNL A   1      34.038  25.766  22.878  1.00  0.00     0.349 HD
ATOM     89  C   UNL A   1      32.834  29.108  24.825  1.00  0.00     0.074 C 
ATOM     90  C   UNL A   1      31.770  27.252  26.095  1.00  0.00     0.074 C 
ATOM     91  C   UNL A   1      32.935  29.882  26.139  1.00  0.00     0.261 C 
ATOM     92  C   UNL A   1      31.894  28.093  27.368  1.00  0.00     0.261 C 
ATOM     93  N   UNL A   1      31.873  29.527  27.074  1.00  0.00    -0.346 N 
ATOM     94  H   UNL A   1      30.972  29.771  26.664  1.00  0.00     0.346 HD
ATOM     95  H   UNL A   1      32.019  30.040  27.944  1.00  0.00     0.346 HD
BRANCH  85  96
ATOM     96  C   UNL A   1      32.908  24.481  22.985  1.00  0.00     0.302 C 
BRANCH  96  97
ATOM     97  C   UNL A   1      31.984  23.619  23.796  1.00  0.00     0.038 A 
ATOM     98  C   UNL A   1      30.873  24.139  24.517  1.00  0.00     0.012 A 
ATOM     99  C   UNL A   1      32.284  22.274  24.122  1.00  0.00     0.144 A 
ATOM    100  C   UNL A   1      30.276  23.476  25.617  1.00  0.00     0.003 A 
ATOM    101  C   UNL A   1      31.653  21.590  25.233  1.00  0.00     0.135 A 
ATOM    102  N   UNL A   1      33.209  21.459  23.594  1.00  0.00    -0.049 NA
ATOM    103  C   UNL A   1      30.696  22.211  26.047  1.00  0.00     0.034 A 
ATOM    104  N   UNL A   1      32.192  20.375  25.335  1.00  0.00    -0.050 NA
ATOM    105  O   UNL A   1      33.152  20.294  24.345  1.00  0.00    -0.243 OA
ENDBRANCH  96  97
ENDBRANCH  85  96
ENDBRANCH  81  83
ENDBRANCH  80  81
ENDBRANCH  79  80
ENDBRANCH  78  79
ENDBRANCH  77  78
ENDBRANCH  76  77
ENDBRANCH  75  76
ENDBRANCH  74  75
ENDBRANCH   1  74
TORSDOF 25
ENDMDL
MODEL 2
REMARK VINA RESULT:      -9.9      3.945      5.434
REMARK SMILES O=C(OCCOCCOCCOCCOC(=O)[C@@H]1CC2(CC[NH2+]CC2)C[N@@H+]1Cc1cccc2nonc12)c1ccc(-c2c3nc(c(-c4cccc(S(=O)(=O)[O-])c4F)c4ccc([nH]4)c(-c4cccc(S(=O)(=O)[O-])c4F)c4nc(c(-c5cccc(S(=O)(=O)[O-])c5F)c5ccc2[nH]5)C=C4)C=C3)cc1
REMARK SMILES IDX 8 1 7 2 6 3 5 4 4 5 3 6 2 7 1 8 38 9 39 10 100 11 40 12
REMARK SMILES IDX 99 13 41 14 42 15 43 16 93 17 44 18 98 19 92 20 94 21 45 22
REMARK SMILES IDX 97 23 91 24 90 25 46 27 78 28 58 29 77 30 59 31 62 32 76 33
REMARK SMILES IDX 95 34 60 35 61 36 75 38 96 39 63 40 47 41 48 42 56 43 49 44
REMARK SMILES IDX 51 45 57 46 50 47 52 48 53 49 54 50 55 51 79 52 80 53 88 54
REMARK SMILES IDX 81 55 83 56 89 57 82 58 84 59 85 60 86 61 87 62 64 63 65 64
REMARK SMILES IDX 73 65 66 66 68 67 74 68 67 69 69 70 70 71 71 72 72 73 9 74
REMARK SMILES IDX 10 75 11 76 12 77 13 78 14 79 15 80 16 81 17 82 18 83 19 84
REMARK SMILES IDX 27 85 20 86 26 87 21 89 25 90 22 91 24 92 23 93 28 96 29 97
REMARK SMILES IDX 30 98 37 99 31 100 33 101 36 102 32 103 34 104 35 105
REMARK H PARENT 94 26 62 37 27 88 23 94 23 95
REMARK Flexibility Score: inf
ROOT
ATOM      1  C   UNL A   1      41.980  23.600  26.023  1.00  0.00     0.188 C 
ENDROOT
BRANCH   1   2
ATOM      2  C   UNL A   1      41.723  22.213  26.599  1.00  0.00     0.188 C 
BRANCH   2   3
ATOM      3  O   UNL A   1      42.042  21.199  25.657  1.00  0.00    -0.376 OA
BRANCH   3   4
ATOM      4  C   UNL A   1      42.019  19.852  26.127  1.00  0.00     0.202 C 
BRANCH   4   5
ATOM      5  C   UNL A   1      43.110  19.029  25.447  1.00  0.00     0.261 C 
BRANCH   5   6
ATOM      6  O   UNL A   1      43.905  19.912  24.636  1.00  0.00    -0.460 OA
BRANCH   6   7
ATOM      7  C   UNL A   1      45.207  19.965  25.024  1.00  0.00     0.338 C 
ATOM      8  O   UNL A   1      45.901  18.997  25.298  1.00  0.00    -0.246 OA
BRANCH   7   9
ATOM      9  C   UNL A   1      45.649  21.376  25.184  1.00  0.00     0.060 A 
ATOM     10  C   UNL A   1      45.354  22.050  26.373  1.00  0.00     0.016 A 
ATOM     11  C   UNL A   1      46.233  22.075  24.120  1.00  0.00     0.016 A 
ATOM     12  C   UNL A   1      45.720  23.390  26.521  1.00  0.00     0.010 A 
ATOM     13  C   UNL A   1      46.543  23.421  24.249  1.00  0.00     0.010 A 
ATOM     14  C   UNL A   1      46.352  24.073  25.471  1.00  0.00    -0.014 A 
BRANCH  14  15
ATOM     15  C   UNL A   1      47.003  25.372  25.735  1.00  0.00     0.031 A 
ATOM     16  C   UNL A   1      46.130  26.430  26.348  1.00  0.00     0.074 A 
ATOM     17  C   UNL A   1      48.324  25.457  25.978  1.00  0.00     0.049 A 
ATOM     18  N   UNL A   1      46.108  26.742  27.612  1.00  0.00    -0.248 NA
ATOM     19  C   UNL A   1      45.012  26.987  25.581  1.00  0.00     0.031 C 
ATOM     20  C   UNL A   1      48.998  24.723  27.052  1.00  0.00     0.029 A 
ATOM     21  N   UNL A   1      49.199  26.455  25.625  1.00  0.00    -0.354 N 
ATOM     22  C   UNL A   1      44.944  27.471  27.830  1.00  0.00     0.074 A 
ATOM     23  C   UNL A   1      44.295  27.587  26.540  1.00  0.00     0.031 C 
ATOM     24  C   UNL A   1      50.127  25.388  27.372  1.00  0.00     0.029 A 
ATOM     25  C   UNL A   1      50.301  26.514  26.462  1.00  0.00     0.049 A 
ATOM     26  H   UNL A   1      49.059  27.061  24.862  1.00  0.00     0.167 HD
ATOM     27  C   UNL A   1      44.548  27.951  29.041  1.00  0.00     0.034 A 
ATOM     28  C   UNL A   1      51.083  27.613  26.633  1.00  0.00     0.034 A 
ATOM     29  C   UNL A   1      45.438  27.849  30.182  1.00  0.00     0.049 A 
ATOM     30  C   UNL A   1      50.459  28.242  27.844  1.00  0.00     0.074 A 
ATOM     31  C   UNL A   1      45.363  28.199  31.523  1.00  0.00     0.029 A 
ATOM     32  N   UNL A   1      46.709  27.354  30.013  1.00  0.00    -0.354 N 
ATOM     33  N   UNL A   1      50.639  27.875  29.087  1.00  0.00    -0.248 NA
ATOM     34  C   UNL A   1      49.307  29.138  27.632  1.00  0.00     0.031 C 
ATOM     35  C   UNL A   1      46.682  28.115  32.073  1.00  0.00     0.029 A 
ATOM     36  C   UNL A   1      47.527  27.753  31.045  1.00  0.00     0.049 A 
ATOM     37  H   UNL A   1      46.994  26.789  29.259  1.00  0.00     0.167 HD
ATOM     38  C   UNL A   1      49.461  28.237  29.721  1.00  0.00     0.074 A 
ATOM     39  C   UNL A   1      48.749  29.133  28.835  1.00  0.00     0.031 C 
ATOM     40  C   UNL A   1      48.935  27.626  30.814  1.00  0.00     0.034 A 
BRANCH  27  41
ATOM     41  C   UNL A   1      43.328  28.804  29.176  1.00  0.00     0.023 A 
ATOM     42  C   UNL A   1      43.538  30.197  29.112  1.00  0.00     0.012 A 
ATOM     43  C   UNL A   1      42.052  28.316  29.518  1.00  0.00     0.148 A 
ATOM     44  C   UNL A   1      42.514  31.093  29.403  1.00  0.00     0.002 A 
ATOM     45  C   UNL A   1      41.028  29.220  29.808  1.00  0.00     0.091 A 
ATOM     46  F   UNL A   1      41.872  26.990  29.598  1.00  0.00    -0.205 F 
ATOM     47  C   UNL A   1      41.261  30.606  29.755  1.00  0.00     0.022 A 
BRANCH  45  48
ATOM     48  S   UNL A   1      39.372  28.721  30.304  1.00  0.00     0.127 S 
ATOM     49  O   UNL A   1      39.646  27.853  31.449  1.00  0.00    -0.237 OA
ATOM     50  O   UNL A   1      38.755  30.003  30.644  1.00  0.00    -0.237 OA
ATOM     51  O   UNL A   1      38.791  28.056  29.145  1.00  0.00    -0.744 OA
ENDBRANCH  45  48
ENDBRANCH  27  41
BRANCH  28  52
ATOM     52  C   UNL A   1      51.466  28.333  25.376  1.00  0.00     0.023 A 
ATOM     53  C   UNL A   1      51.313  27.604  24.167  1.00  0.00     0.012 A 
ATOM     54  C   UNL A   1      51.928  29.654  25.277  1.00  0.00     0.148 A 
ATOM     55  C   UNL A   1      51.487  28.198  22.917  1.00  0.00     0.002 A 
ATOM     56  C   UNL A   1      52.049  30.262  24.028  1.00  0.00     0.091 A 
ATOM     57  F   UNL A   1      52.233  30.327  26.392  1.00  0.00    -0.205 F 
ATOM     58  C   UNL A   1      51.825  29.540  22.847  1.00  0.00     0.022 A 
BRANCH  56  59
ATOM     59  S   UNL A   1      52.405  32.016  23.853  1.00  0.00     0.127 S 
ATOM     60  O   UNL A   1      52.366  32.200  22.402  1.00  0.00    -0.237 OA
ATOM     61  O   UNL A   1      51.283  32.609  24.579  1.00  0.00    -0.237 OA
ATOM     62  O   UNL A   1      53.717  32.212  24.453  1.00  0.00    -0.744 OA
ENDBRANCH  56  59
ENDBRANCH  28  52
BRANCH  40  63
ATOM     63  C   UNL A   1      49.811  26.759  31.630  1.00  0.00     0.023 A 
ATOM     64  C   UNL A   1      49.810  25.385  31.337  1.00  0.00     0.012 A 
ATOM     65  C   UNL A   1      50.618  27.253  32.672  1.00  0.00     0.148 A 
ATOM     66  C   UNL A   1      50.604  24.505  32.068  1.00  0.00     0.002 A 
ATOM     67  C   UNL A   1      51.406  26.368  33.404  1.00  0.00     0.091 A 
ATOM     68  F   UNL A   1      50.615  28.570  32.923  1.00  0.00    -0.205 F 
ATOM     69  C   UNL A   1      51.403  24.995  33.099  1.00  0.00     0.022 A 
BRANCH  67  70
ATOM     70  S   UNL A   1      52.497  26.899  34.729  1.00  0.00     0.127 S 
ATOM     71  O   UNL A   1      53.078  25.632  35.173  1.00  0.00    -0.237 OA
ATOM     72  O   UNL A   1      53.436  27.781  34.033  1.00  0.00    -0.237 OA
ATOM     73  O   UNL A   1      51.660  27.576  35.712  1.00  0.00    -0.744 OA
ENDBRANCH  67  70
ENDBRANCH  40  63
ENDBRANCH  14  15
ENDBRANCH   7   9
ENDBRANCH   6   7
ENDBRANCH   5   6
ENDBRANCH   4   5
ENDBRANCH   3   4
ENDBRANCH   2   3
ENDBRANCH   1   2
BRANCH   1  74
ATOM     74  O   UNL A   1      41.891  24.556  27.069  1.00  0.00    -0.377 OA
BRANCH  74  75
ATOM     75  C   UNL A   1      40.950  24.283  28.112  1.00  0.00     0.188 C 
BRANCH  75  76
ATOM     76  C   UNL A   1      39.526  24.879  28.118  1.00  0.00     0.188 C 
BRANCH  76  77
ATOM     77  O   UNL A   1      38.951  24.939  26.823  1.00  0.00    -0.376 OA
BRANCH  77  78
ATOM     78  C   UNL A   1      38.322  23.748  26.342  1.00  0.00     0.202 C 
BRANCH  78  79
ATOM     79  C   UNL A   1      36.803  23.877  26.118  1.00  0.00     0.261 C 
BRANCH  79  80
ATOM     80  O   UNL A   1      36.185  23.251  24.951  1.00  0.00    -0.459 OA
BRANCH  80  81
ATOM     81  C   UNL A   1      35.380  22.168  25.130  1.00  0.00     0.365 C 
ATOM     82  O   UNL A   1      35.414  21.466  26.110  1.00  0.00    -0.245 OA
BRANCH  81  83
ATOM     83  C   UNL A   1      34.342  22.025  24.010  1.00  0.00     0.296 C 
ATOM     84  C   UNL A   1      34.232  23.345  23.227  1.00  0.00     0.091 C 
ATOM     85  N   UNL A   1      32.953  21.788  24.442  1.00  0.00    -0.319 N 
ATOM     86  C   UNL A   1      32.999  24.096  23.780  1.00  0.00     0.036 C 
ATOM     87  C   UNL A   1      32.095  22.936  24.221  1.00  0.00     0.270 C 
ATOM     88  H   UNL A   1      32.684  21.060  23.780  1.00  0.00     0.349 HD
ATOM     89  C   UNL A   1      32.296  24.945  22.702  1.00  0.00     0.074 C 
ATOM     90  C   UNL A   1      33.324  25.046  24.965  1.00  0.00     0.074 C 
ATOM     91  C   UNL A   1      33.066  26.218  22.350  1.00  0.00     0.261 C 
ATOM     92  C   UNL A   1      34.053  26.324  24.544  1.00  0.00     0.261 C 
ATOM     93  N   UNL A   1      33.310  27.059  23.518  1.00  0.00    -0.346 N 
ATOM     94  H   UNL A   1      32.416  27.360  23.904  1.00  0.00     0.346 HD
ATOM     95  H   UNL A   1      33.863  27.865  23.230  1.00  0.00     0.346 HD
BRANCH  85  96
ATOM     96  C   UNL A   1      32.597  20.820  25.476  1.00  0.00     0.302 C 
BRANCH  96  97
ATOM     97  C   UNL A   1      32.550  19.390  25.021  1.00  0.00     0.038 A 
ATOM     98  C   UNL A   1      32.898  18.298  25.864  1.00  0.00     0.012 A 
ATOM     99  C   UNL A   1      32.411  19.026  23.660  1.00  0.00     0.144 A 
ATOM    100  C   UNL A   1      33.300  17.031  25.376  1.00  0.00     0.003 A 
ATOM    101  C   UNL A   1      32.801  17.720  23.167  1.00  0.00     0.135 A 
ATOM    102  N   UNL A   1      32.032  19.776  22.615  1.00  0.00    -0.049 NA
ATOM    103  C   UNL A   1      33.327  16.730  24.008  1.00  0.00     0.034 A 
ATOM    104  N   UNL A   1      32.626  17.704  21.845  1.00  0.00    -0.050 NA
ATOM    105  O   UNL A   1      32.169  18.961  21.501  1.00  0.00    -0.243 OA
ENDBRANCH  96  97
ENDBRANCH  85  96
ENDBRANCH  81  83
ENDBRANCH  80  81
ENDBRANCH  79  80
ENDBRANCH  78  79
ENDBRANCH  77  78
ENDBRANCH  76  77
ENDBRANCH  75  76
ENDBRANCH  74  75
ENDBRANCH   1  74
TORSDOF 25
ENDMDL
MODEL 3
REMARK VINA RESULT:      -9.6      1.522      2.043
REMARK SMILES O=C(OCCOCCOCCOCCOC(=O)[C@@H]1CC2(CC[NH2+]CC2)C[N@@H+]1Cc1cccc2nonc12)c1ccc(-c2c3nc(c(-c4cccc(S(=O)(=O)[O-])c4F)c4ccc([nH]4)c(-c4cccc(S(=O)(=O)[O-])c4F)c4nc(c(-c5cccc(S(=O)(=O)[O-])c5F)c5ccc2[nH]5)C=C4)C=C3)cc1
REMARK SMILES IDX 8 1 7 2 6 3 5 4 4 5 3 6 2 7 1 8 38 9 39 10 100 11 40 12
REMARK SMILES IDX 99 13 41 14 42 15 43 16 93 17 44 18 98 19 92 20 94 21 45 22
REMARK SMILES IDX 97 23 91 24 90 25 46 27 78 28 58 29 77 30 59 31 62 32 76 33
REMARK SMILES IDX 95 34 60 35 61 36 75 38 96 39 63 40 47 41 48 42 56 43 49 44
REMARK SMILES IDX 51 45 57 46 50 47 52 48 53 49 54 50 55 51 79 52 80 53 88 54
REMARK SMILES IDX 81 55 83 56 89 57 82 58 84 59 85 60 86 61 87 62 64 63 65 64
REMARK SMILES IDX 73 65 66 66 68 67 74 68 67 69 69 70 70 71 71 72 72 73 9 74
REMARK SMILES IDX 10 75 11 76 12 77 13 78 14 79 15 80 16 81 17 82 18 83 19 84
REMARK SMILES IDX 27 85 20 86 26 87 21 89 25 90 22 91 24 92 23 93 28 96 29 97
REMARK SMILES IDX 30 98 37 99 31 100 33 101 36 102 32 103 34 104 35 105
REMARK H PARENT 94 26 62 37 27 88 23 94 23 95
REMARK Flexibility Score: inf
ROOT
ATOM      1  C   UNL A   1      40.134  20.673  26.505  1.00  0.00     0.188 C 
ENDROOT
BRANCH   1   2
ATOM      2  C   UNL A   1      40.886  19.347  26.497  1.00  0.00     0.188 C 
BRANCH   2   3
ATOM      3  O   UNL A   1      42.267  19.539  26.767  1.00  0.00    -0.376 OA
BRANCH   3   4
ATOM      4  C   UNL A   1      42.733  20.887  26.812  1.00  0.00     0.202 C 
BRANCH   4   5
ATOM      5  C   UNL A   1      43.553  21.212  25.566  1.00  0.00     0.261 C 
BRANCH   5   6
ATOM      6  O   UNL A   1      42.920  22.305  24.878  1.00  0.00    -0.460 OA
BRANCH   6   7
ATOM      7  C   UNL A   1      43.806  23.213  24.390  1.00  0.00     0.338 C 
ATOM      8  O   UNL A   1      44.567  23.021  23.453  1.00  0.00    -0.246 OA
BRANCH   7   9
ATOM      9  C   UNL A   1      43.809  24.444  25.224  1.00  0.00     0.060 A 
ATOM     10  C   UNL A   1      45.017  25.115  25.440  1.00  0.00     0.016 A 
ATOM     11  C   UNL A   1      42.656  24.861  25.901  1.00  0.00     0.016 A 
ATOM     12  C   UNL A   1      45.047  26.245  26.260  1.00  0.00     0.010 A 
ATOM     13  C   UNL A   1      42.701  25.949  26.760  1.00  0.00     0.010 A 
ATOM     14  C   UNL A   1      43.877  26.691  26.895  1.00  0.00    -0.014 A 
BRANCH  14  15
ATOM     15  C   UNL A   1      43.847  28.038  27.501  1.00  0.00     0.031 A 
ATOM     16  C   UNL A   1      42.485  28.652  27.667  1.00  0.00     0.074 A 
ATOM     17  C   UNL A   1      44.804  28.443  28.356  1.00  0.00     0.049 A 
ATOM     18  N   UNL A   1      41.804  28.675  28.776  1.00  0.00    -0.248 NA
ATOM     19  C   UNL A   1      41.701  29.013  26.482  1.00  0.00     0.031 C 
ATOM     20  C   UNL A   1      45.149  27.725  29.585  1.00  0.00     0.029 A 
ATOM     21  N   UNL A   1      45.335  29.700  28.517  1.00  0.00    -0.354 N 
ATOM     22  C   UNL A   1      40.490  28.980  28.439  1.00  0.00     0.074 A 
ATOM     23  C   UNL A   1      40.477  29.171  27.003  1.00  0.00     0.031 C 
ATOM     24  C   UNL A   1      45.711  28.603  30.442  1.00  0.00     0.029 A 
ATOM     25  C   UNL A   1      45.861  29.895  29.783  1.00  0.00     0.049 A 
ATOM     26  H   UNL A   1      45.342  30.385  27.810  1.00  0.00     0.167 HD
ATOM     27  C   UNL A   1      39.463  29.065  29.329  1.00  0.00     0.034 A 
ATOM     28  C   UNL A   1      46.049  31.110  30.361  1.00  0.00     0.034 A 
ATOM     29  C   UNL A   1      39.736  28.987  30.752  1.00  0.00     0.049 A 
ATOM     30  C   UNL A   1      44.781  31.270  31.149  1.00  0.00     0.074 A 
ATOM     31  C   UNL A   1      38.965  29.015  31.905  1.00  0.00     0.029 A 
ATOM     32  N   UNL A   1      41.036  28.920  31.195  1.00  0.00    -0.354 N 
ATOM     33  N   UNL A   1      44.515  30.720  32.306  1.00  0.00    -0.248 NA
ATOM     34  C   UNL A   1      43.607  31.825  30.450  1.00  0.00     0.031 C 
ATOM     35  C   UNL A   1      39.845  29.197  33.018  1.00  0.00     0.029 A 
ATOM     36  C   UNL A   1      41.122  29.313  32.511  1.00  0.00     0.049 A 
ATOM     37  H   UNL A   1      41.800  28.629  30.646  1.00  0.00     0.167 HD
ATOM     38  C   UNL A   1      43.135  30.591  32.309  1.00  0.00     0.074 A 
ATOM     39  C   UNL A   1      42.620  31.410  31.233  1.00  0.00     0.031 C 
ATOM     40  C   UNL A   1      42.433  29.643  32.982  1.00  0.00     0.034 A 
BRANCH  27  41
ATOM     41  C   UNL A   1      38.096  29.488  28.899  1.00  0.00     0.023 A 
ATOM     42  C   UNL A   1      37.425  28.609  28.024  1.00  0.00     0.012 A 
ATOM     43  C   UNL A   1      37.531  30.748  29.176  1.00  0.00     0.148 A 
ATOM     44  C   UNL A   1      36.228  28.976  27.414  1.00  0.00     0.002 A 
ATOM     45  C   UNL A   1      36.330  31.109  28.562  1.00  0.00     0.091 A 
ATOM     46  F   UNL A   1      38.192  31.582  29.991  1.00  0.00    -0.205 F 
ATOM     47  C   UNL A   1      35.683  30.226  27.680  1.00  0.00     0.022 A 
BRANCH  45  48
ATOM     48  S   UNL A   1      35.535  32.706  28.798  1.00  0.00     0.127 S 
ATOM     49  O   UNL A   1      36.020  33.461  27.643  1.00  0.00    -0.237 OA
ATOM     50  O   UNL A   1      34.116  32.352  28.742  1.00  0.00    -0.237 OA
ATOM     51  O   UNL A   1      35.990  33.192  30.093  1.00  0.00    -0.744 OA
ENDBRANCH  45  48
ENDBRANCH  27  41
BRANCH  28  52
ATOM     52  C   UNL A   1      46.666  32.154  29.481  1.00  0.00     0.023 A 
ATOM     53  C   UNL A   1      48.005  32.517  29.786  1.00  0.00     0.012 A 
ATOM     54  C   UNL A   1      46.065  32.778  28.377  1.00  0.00     0.148 A 
ATOM     55  C   UNL A   1      48.749  33.361  28.962  1.00  0.00     0.002 A 
ATOM     56  C   UNL A   1      46.827  33.577  27.524  1.00  0.00     0.091 A 
ATOM     57  F   UNL A   1      44.763  32.584  28.143  1.00  0.00    -0.205 F 
ATOM     58  C   UNL A   1      48.168  33.866  27.809  1.00  0.00     0.022 A 
BRANCH  56  59
ATOM     59  S   UNL A   1      46.172  34.205  25.972  1.00  0.00     0.127 S 
ATOM     60  O   UNL A   1      45.564  33.013  25.383  1.00  0.00    -0.237 OA
ATOM     61  O   UNL A   1      45.223  35.210  26.448  1.00  0.00    -0.237 OA
ATOM     62  O   UNL A   1      47.322  34.721  25.241  1.00  0.00    -0.744 OA
ENDBRANCH  56  59
ENDBRANCH  28  52
BRANCH  40  63
ATOM     63  C   UNL A   1      43.104  28.912  34.078  1.00  0.00     0.023 A 
ATOM     64  C   UNL A   1      43.183  29.553  35.326  1.00  0.00     0.012 A 
ATOM     65  C   UNL A   1      43.662  27.631  33.912  1.00  0.00     0.148 A 
ATOM     66  C   UNL A   1      43.808  28.929  36.403  1.00  0.00     0.002 A 
ATOM     67  C   UNL A   1      44.290  27.014  34.991  1.00  0.00     0.091 A 
ATOM     68  F   UNL A   1      43.561  27.032  32.716  1.00  0.00    -0.205 F 
ATOM     69  C   UNL A   1      44.358  27.661  36.237  1.00  0.00     0.022 A 
BRANCH  67  70
ATOM     70  S   UNL A   1      45.003  25.367  34.894  1.00  0.00     0.127 S 
ATOM     71  O   UNL A   1      43.817  24.532  34.709  1.00  0.00    -0.237 OA
ATOM     72  O   UNL A   1      45.862  25.461  33.712  1.00  0.00    -0.237 OA
ATOM     73  O   UNL A   1      45.726  25.152  36.141  1.00  0.00    -0.744 OA
ENDBRANCH  67  70
ENDBRANCH  40  63
ENDBRANCH  14  15
ENDBRANCH   7   9
ENDBRANCH   6   7
ENDBRANCH   5   6
ENDBRANCH   4   5
ENDBRANCH   3   4
ENDBRANCH   2   3
ENDBRANCH   1   2
BRANCH   1  74
ATOM     74  O   UNL A   1      38.983  20.553  25.681  1.00  0.00    -0.377 OA
BRANCH  74  75
ATOM     75  C   UNL A   1      38.224  21.745  25.457  1.00  0.00     0.188 C 
BRANCH  75  76
ATOM     76  C   UNL A   1      37.267  21.901  24.257  1.00  0.00     0.188 C 
BRANCH  76  77
ATOM     77  O   UNL A   1      36.330  22.951  24.435  1.00  0.00    -0.376 OA
BRANCH  77  78
ATOM     78  C   UNL A   1      35.477  23.248  23.328  1.00  0.00     0.202 C 
BRANCH  78  79
ATOM     79  C   UNL A   1      34.535  24.447  23.554  1.00  0.00     0.261 C 
BRANCH  79  80
ATOM     80  O   UNL A   1      34.626  25.218  24.791  1.00  0.00    -0.459 OA
BRANCH  80  81
ATOM     81  C   UNL A   1      33.497  25.781  25.304  1.00  0.00     0.365 C 
ATOM     82  O   UNL A   1      33.504  26.658  26.132  1.00  0.00    -0.245 OA
BRANCH  81  83
ATOM     83  C   UNL A   1      32.227  25.268  24.613  1.00  0.00     0.296 C 
ATOM     84  C   UNL A   1      31.670  26.351  23.673  1.00  0.00     0.091 C 
ATOM     85  N   UNL A   1      31.081  24.984  25.495  1.00  0.00    -0.319 N 
ATOM     86  C   UNL A   1      30.531  27.068  24.435  1.00  0.00     0.036 C 
ATOM     87  C   UNL A   1      30.007  25.947  25.345  1.00  0.00     0.270 C 
ATOM     88  H   UNL A   1      30.769  24.098  25.098  1.00  0.00     0.349 HD
ATOM     89  C   UNL A   1      29.414  27.562  23.494  1.00  0.00     0.074 C 
ATOM     90  C   UNL A   1      31.005  28.295  25.261  1.00  0.00     0.074 C 
ATOM     91  C   UNL A   1      29.817  28.797  22.689  1.00  0.00     0.261 C 
ATOM     92  C   UNL A   1      31.348  29.515  24.403  1.00  0.00     0.261 C 
ATOM     93  N   UNL A   1      30.228  29.906  23.544  1.00  0.00    -0.346 N 
ATOM     94  H   UNL A   1      29.442  30.187  24.128  1.00  0.00     0.346 HD
ATOM     95  H   UNL A   1      30.527  30.681  22.952  1.00  0.00     0.346 HD
BRANCH  85  96
ATOM     96  C   UNL A   1      31.208  24.247  26.749  1.00  0.00     0.302 C 
BRANCH  96  97
ATOM     97  C   UNL A   1      32.005  22.978  26.664  1.00  0.00     0.038 A 
ATOM     98  C   UNL A   1      32.944  22.585  27.659  1.00  0.00     0.012 A 
ATOM     99  C   UNL A   1      32.084  22.203  25.481  1.00  0.00     0.144 A 
ATOM    100  C   UNL A   1      34.007  21.681  27.416  1.00  0.00     0.003 A 
ATOM    101  C   UNL A   1      33.160  21.261  25.246  1.00  0.00     0.135 A 
ATOM    102  N   UNL A   1      31.317  22.251  24.382  1.00  0.00    -0.049 NA
ATOM    103  C   UNL A   1      34.183  21.046  26.181  1.00  0.00     0.034 A 
ATOM    104  N   UNL A   1      33.005  20.747  24.026  1.00  0.00    -0.050 NA
ATOM    105  O   UNL A   1      31.889  21.358  23.489  1.00  0.00    -0.243 OA
ENDBRANCH  96  97
ENDBRANCH  85  96
ENDBRANCH  81  83
ENDBRANCH  80  81
ENDBRANCH  79  80
ENDBRANCH  78  79
ENDBRANCH  77  78
ENDBRANCH  76  77
ENDBRANCH  75  76
ENDBRANCH  74  75
ENDBRANCH   1  74
TORSDOF 25
ENDMDL
