MODEL 1
REMARK VINA RESULT:      -9.0      0.000      0.000
REMARK SMILES CCCOC(=O)c1c(NC(=O)[C@@H]2CC=CC[C@H]2C(=O)OCCOCCOCCOCCOC(=O)c2ccc(-c3c4nc(c(-c5cccc(S(=O)(=O)[O-])c5F)c5ccc([nH]5)c(-c5cccc(S(=O)(=O)[O-])c5F)c5nc(c(-c6cccc(S(=O)(=O)[O-])c6F)c6ccc3[nH]6)C=C5)C=C4)cc2)sc2c1CCCC2
REMARK SMILES IDX 24 1 23 2 22 3 21 4 20 5 18 6 19 7 17 8 12 9 13 10 14 11
REMARK SMILES IDX 16 12 15 13 10 14 9 15 11 17 8 18 7 19 100 20 98 21 99 22
REMARK SMILES IDX 101 23 104 24 102 25 103 26 5 27 6 28 4 29 3 30 2 31 1 32
REMARK SMILES IDX 25 33 26 34 27 35 28 36 29 37 30 38 31 39 32 40 33 41 34 42
REMARK SMILES IDX 35 43 36 44 97 45 37 46 96 47 38 48 39 49 40 50 90 51 41 52
REMARK SMILES IDX 95 53 89 54 91 55 42 56 94 57 88 58 87 59 43 61 75 62 55 63
REMARK SMILES IDX 74 64 56 65 59 66 73 67 92 68 57 69 58 70 72 72 93 73 60 74
REMARK SMILES IDX 44 75 45 76 53 77 46 78 48 79 54 80 47 81 49 82 50 83 51 84
REMARK SMILES IDX 52 85 76 86 77 87 85 88 78 89 80 90 86 91 79 92 81 93 82 94
REMARK SMILES IDX 83 95 84 96 61 97 62 98 70 99 63 100 65 101 71 102 64 103
REMARK SMILES IDX 66 104 67 105 68 106 69 107
REMARK H PARENT 9 16 91 60 59 71
REMARK Flexibility Score: inf
ROOT
ATOM      1  C   UNL A   1      40.067  25.023  27.210  1.00  0.00     0.188 C 
ENDROOT
BRANCH   1   2
ATOM      2  O   UNL A   1      38.938  24.178  27.387  1.00  0.00    -0.376 OA
BRANCH   2   3
ATOM      3  C   UNL A   1      38.416  23.386  26.329  1.00  0.00     0.202 C 
BRANCH   3   4
ATOM      4  C   UNL A   1      37.179  23.881  25.566  1.00  0.00     0.261 C 
BRANCH   4   5
ATOM      5  O   UNL A   1      35.910  23.410  26.054  1.00  0.00    -0.463 OA
BRANCH   5   6
ATOM      6  C   UNL A   1      35.026  22.926  25.145  1.00  0.00     0.310 C 
ATOM      7  O   UNL A   1      35.231  21.965  24.413  1.00  0.00    -0.252 OA
BRANCH   6   8
ATOM      8  C   UNL A   1      33.764  23.780  25.039  1.00  0.00     0.116 C 
ATOM      9  C   UNL A   1      32.783  23.449  23.883  1.00  0.00     0.097 C 
ATOM     10  C   UNL A   1      31.296  23.683  24.098  1.00  0.00     0.041 C 
ATOM     11  C   UNL A   1      30.895  23.761  25.503  1.00  0.00    -0.030 C 
ATOM     12  C   UNL A   1      33.180  23.729  26.461  1.00  0.00     0.043 C 
ATOM     13  C   UNL A   1      31.708  23.825  26.555  1.00  0.00    -0.030 C 
BRANCH   9  14
ATOM     14  C   UNL A   1      32.972  24.133  22.533  1.00  0.00     0.229 C 
ATOM     15  N   UNL A   1      32.374  25.300  22.154  1.00  0.00    -0.317 N 
ATOM     16  H   UNL A   1      32.007  25.322  21.240  1.00  0.00     0.170 HD
ATOM     17  O   UNL A   1      33.560  23.530  21.621  1.00  0.00    -0.274 OA
BRANCH  15  18
ATOM     18  C   UNL A   1      32.226  26.445  22.892  1.00  0.00     0.110 A 
ATOM     19  C   UNL A   1      31.266  27.313  23.397  1.00  0.00     0.098 A 
ATOM     20  C   UNL A   1      31.853  27.872  24.650  1.00  0.00    -0.017 A 
ATOM     21  S   UNL A   1      33.815  26.846  23.426  1.00  0.00    -0.122 S 
ATOM     22  C   UNL A   1      33.183  27.538  24.825  1.00  0.00     0.011 A 
ATOM     23  C   UNL A   1      31.140  28.641  25.736  1.00  0.00     0.038 C 
ATOM     24  C   UNL A   1      34.037  27.794  26.028  1.00  0.00     0.047 C 
ATOM     25  C   UNL A   1      32.133  29.344  26.679  1.00  0.00     0.005 C 
ATOM     26  C   UNL A   1      33.217  28.384  27.180  1.00  0.00     0.006 C 
BRANCH  19  27
ATOM     27  C   UNL A   1      29.845  27.594  23.011  1.00  0.00     0.341 C 
ATOM     28  O   UNL A   1      28.936  27.091  23.669  1.00  0.00    -0.246 OA
BRANCH  27  29
ATOM     29  O   UNL A   1      29.566  28.505  21.992  1.00  0.00    -0.462 OA
BRANCH  29  30
ATOM     30  C   UNL A   1      30.038  29.861  22.321  1.00  0.00     0.233 C 
BRANCH  30  31
ATOM     31  C   UNL A   1      28.990  30.981  22.585  1.00  0.00     0.038 C 
ATOM     32  C   UNL A   1      27.755  30.653  23.446  1.00  0.00     0.007 C 
ENDBRANCH  30  31
ENDBRANCH  29  30
ENDBRANCH  27  29
ENDBRANCH  19  27
ENDBRANCH  15  18
ENDBRANCH   9  14
ENDBRANCH   6   8
ENDBRANCH   5   6
ENDBRANCH   4   5
ENDBRANCH   3   4
ENDBRANCH   2   3
ENDBRANCH   1   2
BRANCH   1  33
ATOM     33  C   UNL A   1      39.959  26.546  27.208  1.00  0.00     0.188 C 
BRANCH  33  34
ATOM     34  O   UNL A   1      40.189  27.178  28.446  1.00  0.00    -0.377 OA
BRANCH  34  35
ATOM     35  C   UNL A   1      39.217  28.079  28.947  1.00  0.00     0.188 C 
BRANCH  35  36
ATOM     36  C   UNL A   1      39.142  29.449  28.270  1.00  0.00     0.188 C 
BRANCH  36  37
ATOM     37  O   UNL A   1      38.586  30.460  29.102  1.00  0.00    -0.376 OA
BRANCH  37  38
ATOM     38  C   UNL A   1      38.361  30.167  30.477  1.00  0.00     0.202 C 
BRANCH  38  39
ATOM     39  C   UNL A   1      37.597  31.185  31.343  1.00  0.00     0.261 C 
BRANCH  39  40
ATOM     40  O   UNL A   1      37.385  32.500  30.796  1.00  0.00    -0.460 OA
BRANCH  40  41
ATOM     41  C   UNL A   1      37.788  33.593  31.477  1.00  0.00     0.338 C 
ATOM     42  O   UNL A   1      37.344  34.028  32.518  1.00  0.00    -0.246 OA
BRANCH  41  43
ATOM     43  C   UNL A   1      39.035  34.054  30.831  1.00  0.00     0.060 A 
ATOM     44  C   UNL A   1      39.013  34.377  29.467  1.00  0.00     0.016 A 
ATOM     45  C   UNL A   1      40.209  34.188  31.573  1.00  0.00     0.016 A 
ATOM     46  C   UNL A   1      40.171  34.830  28.838  1.00  0.00     0.010 A 
ATOM     47  C   UNL A   1      41.376  34.608  30.935  1.00  0.00     0.010 A 
ATOM     48  C   UNL A   1      41.366  34.909  29.562  1.00  0.00    -0.014 A 
BRANCH  48  49
ATOM     49  C   UNL A   1      42.648  35.105  28.850  1.00  0.00     0.031 A 
ATOM     50  C   UNL A   1      43.567  33.924  28.716  1.00  0.00     0.074 A 
ATOM     51  C   UNL A   1      43.002  36.309  28.369  1.00  0.00     0.049 A 
ATOM     52  N   UNL A   1      44.774  33.866  28.224  1.00  0.00    -0.248 NA
ATOM     53  C   UNL A   1      43.051  32.634  29.208  1.00  0.00     0.031 C 
ATOM     54  C   UNL A   1      42.181  37.517  28.423  1.00  0.00     0.029 A 
ATOM     55  N   UNL A   1      44.168  36.718  27.771  1.00  0.00    -0.354 N 
ATOM     56  C   UNL A   1      45.176  32.545  28.374  1.00  0.00     0.074 A 
ATOM     57  C   UNL A   1      44.085  31.834  29.001  1.00  0.00     0.031 C 
ATOM     58  C   UNL A   1      42.886  38.545  27.921  1.00  0.00     0.029 A 
ATOM     59  C   UNL A   1      44.218  38.073  27.542  1.00  0.00     0.049 A 
ATOM     60  H   UNL A   1      44.896  36.101  27.531  1.00  0.00     0.167 HD
ATOM     61  C   UNL A   1      46.349  31.974  28.017  1.00  0.00     0.034 A 
ATOM     62  C   UNL A   1      45.237  38.844  27.111  1.00  0.00     0.034 A 
ATOM     63  C   UNL A   1      47.430  32.688  27.395  1.00  0.00     0.049 A 
ATOM     64  C   UNL A   1      46.557  38.193  26.773  1.00  0.00     0.074 A 
ATOM     65  C   UNL A   1      48.644  32.195  26.955  1.00  0.00     0.029 A 
ATOM     66  N   UNL A   1      47.435  34.051  27.148  1.00  0.00    -0.354 N 
ATOM     67  N   UNL A   1      46.884  36.923  26.806  1.00  0.00    -0.248 NA
ATOM     68  C   UNL A   1      47.640  39.079  26.320  1.00  0.00     0.031 C 
ATOM     69  C   UNL A   1      49.399  33.269  26.473  1.00  0.00     0.029 A 
ATOM     70  C   UNL A   1      48.641  34.425  26.584  1.00  0.00     0.049 A 
ATOM     71  H   UNL A   1      46.690  34.665  27.346  1.00  0.00     0.167 HD
ATOM     72  C   UNL A   1      48.197  36.854  26.351  1.00  0.00     0.074 A 
ATOM     73  C   UNL A   1      48.598  38.207  26.028  1.00  0.00     0.031 C 
ATOM     74  C   UNL A   1      49.004  35.772  26.223  1.00  0.00     0.034 A 
BRANCH  61  75
ATOM     75  C   UNL A   1      46.520  30.504  28.288  1.00  0.00     0.023 A 
ATOM     76  C   UNL A   1      47.094  30.080  29.504  1.00  0.00     0.012 A 
ATOM     77  C   UNL A   1      46.076  29.546  27.358  1.00  0.00     0.148 A 
ATOM     78  C   UNL A   1      47.250  28.722  29.777  1.00  0.00     0.002 A 
ATOM     79  C   UNL A   1      46.195  28.194  27.656  1.00  0.00     0.091 A 
ATOM     80  F   UNL A   1      45.559  29.971  26.197  1.00  0.00    -0.205 F 
ATOM     81  C   UNL A   1      46.791  27.781  28.859  1.00  0.00     0.022 A 
BRANCH  79  82
ATOM     82  S   UNL A   1      45.570  26.905  26.573  1.00  0.00     0.127 S 
ATOM     83  O   UNL A   1      44.157  27.263  26.473  1.00  0.00    -0.237 OA
ATOM     84  O   UNL A   1      46.345  27.128  25.353  1.00  0.00    -0.237 OA
ATOM     85  O   UNL A   1      45.848  25.644  27.247  1.00  0.00    -0.744 OA
ENDBRANCH  79  82
ENDBRANCH  61  75
BRANCH  62  86
ATOM     86  C   UNL A   1      45.054  40.317  26.971  1.00  0.00     0.023 A 
ATOM     87  C   UNL A   1      44.610  40.848  25.744  1.00  0.00     0.012 A 
ATOM     88  C   UNL A   1      45.308  41.192  28.045  1.00  0.00     0.148 A 
ATOM     89  C   UNL A   1      44.448  42.225  25.582  1.00  0.00     0.002 A 
ATOM     90  C   UNL A   1      45.092  42.557  27.894  1.00  0.00     0.091 A 
ATOM     91  F   UNL A   1      45.750  40.670  29.198  1.00  0.00    -0.205 F 
ATOM     92  C   UNL A   1      44.678  43.077  26.658  1.00  0.00     0.022 A 
BRANCH  90  93
ATOM     93  S   UNL A   1      45.245  43.716  29.258  1.00  0.00     0.127 S 
ATOM     94  O   UNL A   1      45.149  45.002  28.572  1.00  0.00    -0.237 OA
ATOM     95  O   UNL A   1      44.086  43.369  30.081  1.00  0.00    -0.237 OA
ATOM     96  O   UNL A   1      46.530  43.427  29.879  1.00  0.00    -0.744 OA
ENDBRANCH  90  93
ENDBRANCH  62  86
BRANCH  74  97
ATOM     97  C   UNL A   1      50.396  35.987  25.688  1.00  0.00     0.023 A 
ATOM     98  C   UNL A   1      50.611  36.032  24.297  1.00  0.00     0.012 A 
ATOM     99  C   UNL A   1      51.468  36.253  26.564  1.00  0.00     0.148 A 
ATOM    100  C   UNL A   1      51.877  36.314  23.786  1.00  0.00     0.002 A 
ATOM    101  C   UNL A   1      52.714  36.581  26.047  1.00  0.00     0.091 A 
ATOM    102  F   UNL A   1      51.243  36.193  27.885  1.00  0.00    -0.205 F 
ATOM    103  C   UNL A   1      52.924  36.601  24.659  1.00  0.00     0.022 A 
BRANCH 101 104
ATOM    104  S   UNL A   1      54.097  37.063  27.087  1.00  0.00     0.127 S 
ATOM    105  O   UNL A   1      55.114  37.403  26.093  1.00  0.00    -0.237 OA
ATOM    106  O   UNL A   1      53.551  38.208  27.818  1.00  0.00    -0.237 OA
ATOM    107  O   UNL A   1      54.402  35.904  27.917  1.00  0.00    -0.744 OA
ENDBRANCH 101 104
ENDBRANCH  74  97
ENDBRANCH  48  49
ENDBRANCH  41  43
ENDBRANCH  40  41
ENDBRANCH  39  40
ENDBRANCH  38  39
ENDBRANCH  37  38
ENDBRANCH  36  37
ENDBRANCH  35  36
ENDBRANCH  34  35
ENDBRANCH  33  34
ENDBRANCH   1  33
TORSDOF 29
ENDMDL
MODEL 2
REMARK VINA RESULT:      -8.5      7.536     11.642
REMARK SMILES CCCOC(=O)c1c(NC(=O)[C@@H]2CC=CC[C@H]2C(=O)OCCOCCOCCOCCOC(=O)c2ccc(-c3c4nc(c(-c5cccc(S(=O)(=O)[O-])c5F)c5ccc([nH]5)c(-c5cccc(S(=O)(=O)[O-])c5F)c5nc(c(-c6cccc(S(=O)(=O)[O-])c6F)c6ccc3[nH]6)C=C5)C=C4)cc2)sc2c1CCCC2
REMARK SMILES IDX 24 1 23 2 22 3 21 4 20 5 18 6 19 7 17 8 12 9 13 10 14 11
REMARK SMILES IDX 16 12 15 13 10 14 9 15 11 17 8 18 7 19 100 20 98 21 99 22
REMARK SMILES IDX 101 23 104 24 102 25 103 26 5 27 6 28 4 29 3 30 2 31 1 32
REMARK SMILES IDX 25 33 26 34 27 35 28 36 29 37 30 38 31 39 32 40 33 41 34 42
REMARK SMILES IDX 35 43 36 44 97 45 37 46 96 47 38 48 39 49 40 50 90 51 41 52
REMARK SMILES IDX 95 53 89 54 91 55 42 56 94 57 88 58 87 59 43 61 75 62 55 63
REMARK SMILES IDX 74 64 56 65 59 66 73 67 92 68 57 69 58 70 72 72 93 73 60 74
REMARK SMILES IDX 44 75 45 76 53 77 46 78 48 79 54 80 47 81 49 82 50 83 51 84
REMARK SMILES IDX 52 85 76 86 77 87 85 88 78 89 80 90 86 91 79 92 81 93 82 94
REMARK SMILES IDX 83 95 84 96 61 97 62 98 70 99 63 100 65 101 71 102 64 103
REMARK SMILES IDX 66 104 67 105 68 106 69 107
REMARK H PARENT 9 16 91 60 59 71
REMARK Flexibility Score: inf
ROOT
ATOM      1  C   UNL A   1      36.876  21.685  24.360  1.00  0.00     0.188 C 
ENDROOT
BRANCH   1   2
ATOM      2  O   UNL A   1      35.493  21.704  24.687  1.00  0.00    -0.376 OA
BRANCH   2   3
ATOM      3  C   UNL A   1      34.826  20.562  25.206  1.00  0.00     0.202 C 
BRANCH   3   4
ATOM      4  C   UNL A   1      33.479  20.143  24.599  1.00  0.00     0.261 C 
BRANCH   4   5
ATOM      5  O   UNL A   1      32.435  21.133  24.645  1.00  0.00    -0.463 OA
BRANCH   5   6
ATOM      6  C   UNL A   1      32.228  21.881  23.532  1.00  0.00     0.310 C 
ATOM      7  O   UNL A   1      32.105  21.430  22.399  1.00  0.00    -0.252 OA
BRANCH   6   8
ATOM      8  C   UNL A   1      32.273  23.381  23.815  1.00  0.00     0.116 C 
ATOM      9  C   UNL A   1      33.072  23.840  25.065  1.00  0.00     0.097 C 
ATOM     10  C   UNL A   1      33.764  25.194  25.032  1.00  0.00     0.041 C 
ATOM     11  C   UNL A   1      33.991  25.722  23.687  1.00  0.00    -0.030 C 
ATOM     12  C   UNL A   1      32.713  23.982  22.470  1.00  0.00     0.043 C 
ATOM     13  C   UNL A   1      33.503  25.230  22.551  1.00  0.00    -0.030 C 
BRANCH   9  14
ATOM     14  C   UNL A   1      32.355  23.935  26.407  1.00  0.00     0.229 C 
ATOM     15  N   UNL A   1      32.049  25.097  27.053  1.00  0.00    -0.317 N 
ATOM     16  H   UNL A   1      32.222  25.113  28.023  1.00  0.00     0.170 HD
ATOM     17  O   UNL A   1      32.178  22.906  27.078  1.00  0.00    -0.274 OA
BRANCH  15  18
ATOM     18  C   UNL A   1      31.528  26.245  26.514  1.00  0.00     0.110 A 
ATOM     19  C   UNL A   1      31.774  27.605  26.372  1.00  0.00     0.098 A 
ATOM     20  C   UNL A   1      31.127  27.995  25.086  1.00  0.00    -0.017 A 
ATOM     21  S   UNL A   1      30.126  25.740  25.647  1.00  0.00    -0.122 S 
ATOM     22  C   UNL A   1      30.344  26.992  24.543  1.00  0.00     0.011 A 
ATOM     23  C   UNL A   1      31.318  29.276  24.311  1.00  0.00     0.038 C 
ATOM     24  C   UNL A   1      29.679  26.980  23.202  1.00  0.00     0.047 C 
ATOM     25  C   UNL A   1      30.231  29.458  23.236  1.00  0.00     0.005 C 
ATOM     26  C   UNL A   1      30.074  28.205  22.370  1.00  0.00     0.006 C 
BRANCH  19  27
ATOM     27  C   UNL A   1      32.633  28.568  27.134  1.00  0.00     0.341 C 
ATOM     28  O   UNL A   1      32.119  29.579  27.610  1.00  0.00    -0.246 OA
BRANCH  27  29
ATOM     29  O   UNL A   1      33.968  28.257  27.395  1.00  0.00    -0.462 OA
BRANCH  29  30
ATOM     30  C   UNL A   1      34.847  29.428  27.237  1.00  0.00     0.233 C 
BRANCH  30  31
ATOM     31  C   UNL A   1      35.938  29.703  28.313  1.00  0.00     0.038 C 
ATOM     32  C   UNL A   1      37.421  29.629  27.901  1.00  0.00     0.007 C 
ENDBRANCH  30  31
ENDBRANCH  29  30
ENDBRANCH  27  29
ENDBRANCH  19  27
ENDBRANCH  15  18
ENDBRANCH   9  14
ENDBRANCH   6   8
ENDBRANCH   5   6
ENDBRANCH   4   5
ENDBRANCH   3   4
ENDBRANCH   2   3
ENDBRANCH   1   2
BRANCH   1  33
ATOM     33  C   UNL A   1      37.969  21.882  25.409  1.00  0.00     0.188 C 
BRANCH  33  34
ATOM     34  O   UNL A   1      37.962  23.124  26.075  1.00  0.00    -0.377 OA
BRANCH  34  35
ATOM     35  C   UNL A   1      39.188  23.658  26.542  1.00  0.00     0.188 C 
BRANCH  35  36
ATOM     36  C   UNL A   1      40.151  22.676  27.213  1.00  0.00     0.188 C 
BRANCH  36  37
ATOM     37  O   UNL A   1      41.520  22.975  26.973  1.00  0.00    -0.376 OA
BRANCH  37  38
ATOM     38  C   UNL A   1      41.854  23.823  25.880  1.00  0.00     0.202 C 
BRANCH  38  39
ATOM     39  C   UNL A   1      42.380  25.241  26.166  1.00  0.00     0.261 C 
BRANCH  39  40
ATOM     40  O   UNL A   1      43.807  25.429  26.201  1.00  0.00    -0.460 OA
BRANCH  40  41
ATOM     41  C   UNL A   1      44.497  25.190  27.336  1.00  0.00     0.338 C 
ATOM     42  O   UNL A   1      45.497  24.519  27.473  1.00  0.00    -0.246 OA
BRANCH  41  43
ATOM     43  C   UNL A   1      43.931  26.086  28.368  1.00  0.00     0.060 A 
ATOM     44  C   UNL A   1      44.389  27.408  28.441  1.00  0.00     0.016 A 
ATOM     45  C   UNL A   1      42.941  25.628  29.237  1.00  0.00     0.016 A 
ATOM     46  C   UNL A   1      43.860  28.278  29.393  1.00  0.00     0.010 A 
ATOM     47  C   UNL A   1      42.437  26.488  30.212  1.00  0.00     0.010 A 
ATOM     48  C   UNL A   1      42.910  27.809  30.308  1.00  0.00    -0.014 A 
BRANCH  48  49
ATOM     49  C   UNL A   1      42.560  28.625  31.491  1.00  0.00     0.031 A 
ATOM     50  C   UNL A   1      41.514  29.691  31.325  1.00  0.00     0.074 A 
ATOM     51  C   UNL A   1      43.182  28.450  32.669  1.00  0.00     0.049 A 
ATOM     52  N   UNL A   1      41.106  30.590  32.178  1.00  0.00    -0.248 NA
ATOM     53  C   UNL A   1      40.840  29.748  30.015  1.00  0.00     0.031 C 
ATOM     54  C   UNL A   1      44.195  27.434  32.949  1.00  0.00     0.029 A 
ATOM     55  N   UNL A   1      43.074  29.153  33.843  1.00  0.00    -0.354 N 
ATOM     56  C   UNL A   1      40.151  31.340  31.503  1.00  0.00     0.074 A 
ATOM     57  C   UNL A   1      40.039  30.791  30.170  1.00  0.00     0.031 C 
ATOM     58  C   UNL A   1      44.649  27.608  34.201  1.00  0.00     0.029 A 
ATOM     59  C   UNL A   1      43.984  28.766  34.798  1.00  0.00     0.049 A 
ATOM     60  H   UNL A   1      42.409  29.865  33.986  1.00  0.00     0.167 HD
ATOM     61  C   UNL A   1      39.430  32.391  31.955  1.00  0.00     0.034 A 
ATOM     62  C   UNL A   1      44.269  29.311  35.997  1.00  0.00     0.034 A 
ATOM     63  C   UNL A   1      39.548  32.932  33.280  1.00  0.00     0.049 A 
ATOM     64  C   UNL A   1      43.490  30.519  36.458  1.00  0.00     0.074 A 
ATOM     65  C   UNL A   1      38.833  33.968  33.852  1.00  0.00     0.029 A 
ATOM     66  N   UNL A   1      40.456  32.496  34.231  1.00  0.00    -0.354 N 
ATOM     67  N   UNL A   1      42.506  31.145  35.858  1.00  0.00    -0.248 NA
ATOM     68  C   UNL A   1      43.847  31.083  37.768  1.00  0.00     0.031 C 
ATOM     69  C   UNL A   1      39.335  34.181  35.140  1.00  0.00     0.029 A 
ATOM     70  C   UNL A   1      40.339  33.257  35.381  1.00  0.00     0.049 A 
ATOM     71  H   UNL A   1      41.092  31.754  34.108  1.00  0.00     0.167 HD
ATOM     72  C   UNL A   1      42.107  32.156  36.727  1.00  0.00     0.074 A 
ATOM     73  C   UNL A   1      42.942  32.044  37.906  1.00  0.00     0.031 C 
ATOM     74  C   UNL A   1      41.147  33.099  36.563  1.00  0.00     0.034 A 
BRANCH  61  75
ATOM     75  C   UNL A   1      38.446  33.020  31.006  1.00  0.00     0.023 A 
ATOM     76  C   UNL A   1      38.915  33.783  29.917  1.00  0.00     0.012 A 
ATOM     77  C   UNL A   1      37.063  32.823  31.171  1.00  0.00     0.148 A 
ATOM     78  C   UNL A   1      38.019  34.364  29.022  1.00  0.00     0.002 A 
ATOM     79  C   UNL A   1      36.177  33.369  30.250  1.00  0.00     0.091 A 
ATOM     80  F   UNL A   1      36.638  32.118  32.229  1.00  0.00    -0.205 F 
ATOM     81  C   UNL A   1      36.652  34.148  29.182  1.00  0.00     0.022 A 
BRANCH  79  82
ATOM     82  S   UNL A   1      34.405  33.089  30.327  1.00  0.00     0.127 S 
ATOM     83  O   UNL A   1      33.891  34.457  30.349  1.00  0.00    -0.237 OA
ATOM     84  O   UNL A   1      34.155  32.363  29.083  1.00  0.00    -0.237 OA
ATOM     85  O   UNL A   1      34.173  32.317  31.539  1.00  0.00    -0.744 OA
ENDBRANCH  79  82
ENDBRANCH  61  75
BRANCH  62  86
ATOM     86  C   UNL A   1      45.337  28.719  36.853  1.00  0.00     0.023 A 
ATOM     87  C   UNL A   1      46.669  29.152  36.703  1.00  0.00     0.012 A 
ATOM     88  C   UNL A   1      45.041  27.738  37.820  1.00  0.00     0.148 A 
ATOM     89  C   UNL A   1      47.689  28.601  37.479  1.00  0.00     0.002 A 
ATOM     90  C   UNL A   1      46.052  27.233  38.629  1.00  0.00     0.091 A 
ATOM     91  F   UNL A   1      43.771  27.323  37.935  1.00  0.00    -0.205 F 
ATOM     92  C   UNL A   1      47.380  27.651  38.448  1.00  0.00     0.022 A 
BRANCH  90  93
ATOM     93  S   UNL A   1      45.731  26.096  39.982  1.00  0.00     0.127 S 
ATOM     94  O   UNL A   1      45.761  24.803  39.303  1.00  0.00    -0.237 OA
ATOM     95  O   UNL A   1      46.867  26.354  40.868  1.00  0.00    -0.237 OA
ATOM     96  O   UNL A   1      44.441  26.490  40.531  1.00  0.00    -0.744 OA
ENDBRANCH  90  93
ENDBRANCH  62  86
BRANCH  74  97
ATOM     97  C   UNL A   1      40.917  34.076  37.686  1.00  0.00     0.023 A 
ATOM     98  C   UNL A   1      41.470  35.370  37.611  1.00  0.00     0.012 A 
ATOM     99  C   UNL A   1      40.067  33.748  38.761  1.00  0.00     0.148 A 
ATOM    100  C   UNL A   1      41.198  36.314  38.599  1.00  0.00     0.002 A 
ATOM    101  C   UNL A   1      39.762  34.710  39.716  1.00  0.00     0.091 A 
ATOM    102  F   UNL A   1      39.562  32.507  38.820  1.00  0.00    -0.205 F 
ATOM    103  C   UNL A   1      40.335  35.989  39.644  1.00  0.00     0.022 A 
BRANCH 101 104
ATOM    104  S   UNL A   1      38.585  34.417  41.041  1.00  0.00     0.127 S 
ATOM    105  O   UNL A   1      38.394  35.766  41.573  1.00  0.00    -0.237 OA
ATOM    106  O   UNL A   1      37.433  33.877  40.318  1.00  0.00    -0.237 OA
ATOM    107  O   UNL A   1      39.226  33.476  41.951  1.00  0.00    -0.744 OA
ENDBRANCH 101 104
ENDBRANCH  74  97
ENDBRANCH  48  49
ENDBRANCH  41  43
ENDBRANCH  40  41
ENDBRANCH  39  40
ENDBRANCH  38  39
ENDBRANCH  37  38
ENDBRANCH  36  37
ENDBRANCH  35  36
ENDBRANCH  34  35
ENDBRANCH  33  34
ENDBRANCH   1  33
TORSDOF 29
ENDMDL
MODEL 3
REMARK VINA RESULT:      -8.1      7.456      9.552
REMARK SMILES CCCOC(=O)c1c(NC(=O)[C@@H]2CC=CC[C@H]2C(=O)OCCOCCOCCOCCOC(=O)c2ccc(-c3c4nc(c(-c5cccc(S(=O)(=O)[O-])c5F)c5ccc([nH]5)c(-c5cccc(S(=O)(=O)[O-])c5F)c5nc(c(-c6cccc(S(=O)(=O)[O-])c6F)c6ccc3[nH]6)C=C5)C=C4)cc2)sc2c1CCCC2
REMARK SMILES IDX 24 1 23 2 22 3 21 4 20 5 18 6 19 7 17 8 12 9 13 10 14 11
REMARK SMILES IDX 16 12 15 13 10 14 9 15 11 17 8 18 7 19 100 20 98 21 99 22
REMARK SMILES IDX 101 23 104 24 102 25 103 26 5 27 6 28 4 29 3 30 2 31 1 32
REMARK SMILES IDX 25 33 26 34 27 35 28 36 29 37 30 38 31 39 32 40 33 41 34 42
REMARK SMILES IDX 35 43 36 44 97 45 37 46 96 47 38 48 39 49 40 50 90 51 41 52
REMARK SMILES IDX 95 53 89 54 91 55 42 56 94 57 88 58 87 59 43 61 75 62 55 63
REMARK SMILES IDX 74 64 56 65 59 66 73 67 92 68 57 69 58 70 72 72 93 73 60 74
REMARK SMILES IDX 44 75 45 76 53 77 46 78 48 79 54 80 47 81 49 82 50 83 51 84
REMARK SMILES IDX 52 85 76 86 77 87 85 88 78 89 80 90 86 91 79 92 81 93 82 94
REMARK SMILES IDX 83 95 84 96 61 97 62 98 70 99 63 100 65 101 71 102 64 103
REMARK SMILES IDX 66 104 67 105 68 106 69 107
REMARK H PARENT 9 16 91 60 59 71
REMARK Flexibility Score: inf
ROOT
ATOM      1  C   UNL A   1      39.949  23.986  26.974  1.00  0.00     0.188 C 
ENDROOT
BRANCH   1   2
ATOM      2  O   UNL A   1      38.826  23.120  26.895  1.00  0.00    -0.376 OA
BRANCH   2   3
ATOM      3  C   UNL A   1      38.177  22.836  25.664  1.00  0.00     0.202 C 
BRANCH   3   4
ATOM      4  C   UNL A   1      36.948  23.663  25.258  1.00  0.00     0.261 C 
BRANCH   4   5
ATOM      5  O   UNL A   1      35.768  23.467  26.058  1.00  0.00    -0.463 OA
BRANCH   5   6
ATOM      6  C   UNL A   1      34.723  22.816  25.489  1.00  0.00     0.310 C 
ATOM      7  O   UNL A   1      34.742  21.645  25.125  1.00  0.00    -0.252 OA
BRANCH   6   8
ATOM      8  C   UNL A   1      33.526  23.731  25.236  1.00  0.00     0.116 C 
ATOM      9  C   UNL A   1      32.664  23.435  23.979  1.00  0.00     0.097 C 
ATOM     10  C   UNL A   1      31.176  23.746  24.025  1.00  0.00     0.041 C 
ATOM     11  C   UNL A   1      30.626  23.862  25.376  1.00  0.00    -0.030 C 
ATOM     12  C   UNL A   1      32.786  23.727  26.583  1.00  0.00     0.043 C 
ATOM     13  C   UNL A   1      31.319  23.899  26.511  1.00  0.00    -0.030 C 
BRANCH   9  14
ATOM     14  C   UNL A   1      33.037  24.091  22.654  1.00  0.00     0.229 C 
ATOM     15  N   UNL A   1      32.552  25.286  22.206  1.00  0.00    -0.317 N 
ATOM     16  H   UNL A   1      32.288  25.318  21.258  1.00  0.00     0.170 HD
ATOM     17  O   UNL A   1      33.685  23.446  21.816  1.00  0.00    -0.274 OA
BRANCH  15  18
ATOM     18  C   UNL A   1      32.391  26.446  22.918  1.00  0.00     0.110 A 
ATOM     19  C   UNL A   1      31.420  27.313  23.405  1.00  0.00     0.098 A 
ATOM     20  C   UNL A   1      32.003  27.909  24.643  1.00  0.00    -0.017 A 
ATOM     21  S   UNL A   1      33.976  26.880  23.438  1.00  0.00    -0.122 S 
ATOM     22  C   UNL A   1      33.338  27.597  24.822  1.00  0.00     0.011 A 
ATOM     23  C   UNL A   1      31.283  28.693  25.713  1.00  0.00     0.038 C 
ATOM     24  C   UNL A   1      34.191  27.892  26.017  1.00  0.00     0.047 C 
ATOM     25  C   UNL A   1      32.269  29.432  26.636  1.00  0.00     0.005 C 
ATOM     26  C   UNL A   1      33.366  28.498  27.157  1.00  0.00     0.006 C 
BRANCH  19  27
ATOM     27  C   UNL A   1      29.995  27.566  23.016  1.00  0.00     0.341 C 
ATOM     28  O   UNL A   1      29.096  27.029  23.660  1.00  0.00    -0.246 OA
BRANCH  27  29
ATOM     29  O   UNL A   1      29.699  28.489  22.012  1.00  0.00    -0.462 OA
BRANCH  29  30
ATOM     30  C   UNL A   1      29.925  29.875  22.455  1.00  0.00     0.233 C 
BRANCH  30  31
ATOM     31  C   UNL A   1      28.830  30.584  23.304  1.00  0.00     0.038 C 
ATOM     32  C   UNL A   1      27.374  30.087  23.200  1.00  0.00     0.007 C 
ENDBRANCH  30  31
ENDBRANCH  29  30
ENDBRANCH  27  29
ENDBRANCH  19  27
ENDBRANCH  15  18
ENDBRANCH   9  14
ENDBRANCH   6   8
ENDBRANCH   5   6
ENDBRANCH   4   5
ENDBRANCH   3   4
ENDBRANCH   2   3
ENDBRANCH   1   2
BRANCH   1  33
ATOM     33  C   UNL A   1      39.816  25.507  26.940  1.00  0.00     0.188 C 
BRANCH  33  34
ATOM     34  O   UNL A   1      40.001  26.166  28.172  1.00  0.00    -0.377 OA
BRANCH  34  35
ATOM     35  C   UNL A   1      39.100  27.195  28.541  1.00  0.00     0.188 C 
BRANCH  35  36
ATOM     36  C   UNL A   1      39.460  28.613  28.091  1.00  0.00     0.188 C 
BRANCH  36  37
ATOM     37  O   UNL A   1      38.541  29.599  28.544  1.00  0.00    -0.376 OA
BRANCH  37  38
ATOM     38  C   UNL A   1      37.218  29.595  28.018  1.00  0.00     0.202 C 
BRANCH  38  39
ATOM     39  C   UNL A   1      36.337  30.844  28.200  1.00  0.00     0.261 C 
BRANCH  39  40
ATOM     40  O   UNL A   1      36.801  31.861  29.107  1.00  0.00    -0.460 OA
BRANCH  40  41
ATOM     41  C   UNL A   1      36.055  32.212  30.175  1.00  0.00     0.338 C 
ATOM     42  O   UNL A   1      34.846  32.220  30.269  1.00  0.00    -0.246 OA
BRANCH  41  43
ATOM     43  C   UNL A   1      36.992  32.380  31.306  1.00  0.00     0.060 A 
ATOM     44  C   UNL A   1      38.166  33.121  31.108  1.00  0.00     0.016 A 
ATOM     45  C   UNL A   1      36.701  31.831  32.555  1.00  0.00     0.016 A 
ATOM     46  C   UNL A   1      39.058  33.309  32.162  1.00  0.00     0.010 A 
ATOM     47  C   UNL A   1      37.611  31.990  33.600  1.00  0.00     0.010 A 
ATOM     48  C   UNL A   1      38.802  32.709  33.401  1.00  0.00    -0.014 A 
BRANCH  48  49
ATOM     49  C   UNL A   1      39.865  32.656  34.428  1.00  0.00     0.031 A 
ATOM     50  C   UNL A   1      40.786  31.469  34.427  1.00  0.00     0.074 A 
ATOM     51  C   UNL A   1      39.985  33.618  35.360  1.00  0.00     0.049 A 
ATOM     52  N   UNL A   1      41.726  31.149  35.274  1.00  0.00    -0.248 NA
ATOM     53  C   UNL A   1      40.620  30.513  33.318  1.00  0.00     0.031 C 
ATOM     54  C   UNL A   1      39.161  34.823  35.443  1.00  0.00     0.029 A 
ATOM     55  N   UNL A   1      40.828  33.708  36.439  1.00  0.00    -0.354 N 
ATOM     56  C   UNL A   1      42.243  29.942  34.822  1.00  0.00     0.074 A 
ATOM     57  C   UNL A   1      41.514  29.587  33.625  1.00  0.00     0.031 C 
ATOM     58  C   UNL A   1      39.510  35.511  36.543  1.00  0.00     0.029 A 
ATOM     59  C   UNL A   1      40.556  34.779  37.257  1.00  0.00     0.049 A 
ATOM     60  H   UNL A   1      41.555  33.067  36.610  1.00  0.00     0.167 HD
ATOM     61  C   UNL A   1      43.239  29.198  35.355  1.00  0.00     0.034 A 
ATOM     62  C   UNL A   1      41.068  35.105  38.461  1.00  0.00     0.034 A 
ATOM     63  C   UNL A   1      43.957  29.558  36.546  1.00  0.00     0.049 A 
ATOM     64  C   UNL A   1      42.138  34.228  39.064  1.00  0.00     0.074 A 
ATOM     65  C   UNL A   1      45.012  28.895  37.146  1.00  0.00     0.029 A 
ATOM     66  N   UNL A   1      43.677  30.665  37.330  1.00  0.00    -0.354 N 
ATOM     67  N   UNL A   1      42.703  33.154  38.567  1.00  0.00    -0.248 NA
ATOM     68  C   UNL A   1      42.656  34.620  40.384  1.00  0.00     0.031 C 
ATOM     69  C   UNL A   1      45.347  29.585  38.315  1.00  0.00     0.029 A 
ATOM     70  C   UNL A   1      44.522  30.693  38.425  1.00  0.00     0.049 A 
ATOM     71  H   UNL A   1      42.979  31.332  37.139  1.00  0.00     0.167 HD
ATOM     72  C   UNL A   1      43.661  32.758  39.496  1.00  0.00     0.074 A 
ATOM     73  C   UNL A   1      43.615  33.722  40.576  1.00  0.00     0.031 C 
ATOM     74  C   UNL A   1      44.494  31.689  39.466  1.00  0.00     0.034 A 
BRANCH  61  75
ATOM     75  C   UNL A   1      43.610  27.923  34.648  1.00  0.00     0.023 A 
ATOM     76  C   UNL A   1      43.092  26.694  35.105  1.00  0.00     0.012 A 
ATOM     77  C   UNL A   1      44.437  27.947  33.510  1.00  0.00     0.148 A 
ATOM     78  C   UNL A   1      43.416  25.504  34.457  1.00  0.00     0.002 A 
ATOM     79  C   UNL A   1      44.721  26.762  32.843  1.00  0.00     0.091 A 
ATOM     80  F   UNL A   1      44.941  29.123  33.109  1.00  0.00    -0.205 F 
ATOM     81  C   UNL A   1      44.221  25.539  33.320  1.00  0.00     0.022 A 
BRANCH  79  82
ATOM     82  S   UNL A   1      45.688  26.710  31.330  1.00  0.00     0.127 S 
ATOM     83  O   UNL A   1      47.022  27.050  31.821  1.00  0.00    -0.237 OA
ATOM     84  O   UNL A   1      45.529  25.317  30.912  1.00  0.00    -0.237 OA
ATOM     85  O   UNL A   1      45.085  27.686  30.434  1.00  0.00    -0.744 OA
ENDBRANCH  79  82
ENDBRANCH  61  75
BRANCH  62  86
ATOM     86  C   UNL A   1      40.582  36.318  39.178  1.00  0.00     0.023 A 
ATOM     87  C   UNL A   1      39.308  36.307  39.780  1.00  0.00     0.012 A 
ATOM     88  C   UNL A   1      41.375  37.479  39.274  1.00  0.00     0.148 A 
ATOM     89  C   UNL A   1      38.824  37.436  40.441  1.00  0.00     0.002 A 
ATOM     90  C   UNL A   1      40.909  38.581  39.981  1.00  0.00     0.091 A 
ATOM     91  F   UNL A   1      42.575  37.479  38.677  1.00  0.00    -0.205 F 
ATOM     92  C   UNL A   1      39.627  38.568  40.551  1.00  0.00     0.022 A 
BRANCH  90  93
ATOM     93  S   UNL A   1      41.919  40.037  40.277  1.00  0.00     0.127 S 
ATOM     94  O   UNL A   1      41.069  41.105  39.757  1.00  0.00    -0.237 OA
ATOM     95  O   UNL A   1      42.059  40.015  41.734  1.00  0.00    -0.237 OA
ATOM     96  O   UNL A   1      43.161  39.810  39.551  1.00  0.00    -0.744 OA
ENDBRANCH  90  93
ENDBRANCH  62  86
BRANCH  74  97
ATOM     97  C   UNL A   1      45.449  31.506  40.617  1.00  0.00     0.023 A 
ATOM     98  C   UNL A   1      46.746  32.048  40.542  1.00  0.00     0.012 A 
ATOM     99  C   UNL A   1      45.024  30.890  41.811  1.00  0.00     0.148 A 
ATOM    100  C   UNL A   1      47.614  31.961  41.630  1.00  0.00     0.002 A 
ATOM    101  C   UNL A   1      45.876  30.850  42.907  1.00  0.00     0.091 A 
ATOM    102  F   UNL A   1      43.788  30.369  41.856  1.00  0.00    -0.205 F 
ATOM    103  C   UNL A   1      47.175  31.375  42.815  1.00  0.00     0.022 A 
BRANCH 101 104
ATOM    104  S   UNL A   1      45.368  30.206  44.505  1.00  0.00     0.127 S 
ATOM    105  O   UNL A   1      45.688  28.785  44.369  1.00  0.00    -0.237 OA
ATOM    106  O   UNL A   1      46.236  30.942  45.425  1.00  0.00    -0.237 OA
ATOM    107  O   UNL A   1      43.949  30.514  44.633  1.00  0.00    -0.744 OA
ENDBRANCH 101 104
ENDBRANCH  74  97
ENDBRANCH  48  49
ENDBRANCH  41  43
ENDBRANCH  40  41
ENDBRANCH  39  40
ENDBRANCH  38  39
ENDBRANCH  37  38
ENDBRANCH  36  37
ENDBRANCH  35  36
ENDBRANCH  34  35
ENDBRANCH  33  34
ENDBRANCH   1  33
TORSDOF 29
ENDMDL
