MODEL 1
REMARK VINA RESULT:      -8.4      0.000      0.000
REMARK SMILES C[C@H]1[NH2+]CC[C@@H]1C(=O)N[C@@H](CC(=O)OCCOCCOCCOCCOC(=O)c1ccc(-c2c3nc(c(-c4cccc(S(=O)(=O)[O-])c4F)c4ccc([nH]4)c(-c4cccc(S(=O)(=O)[O-])c4F)c4nc(c(-c5cccc(S(=O)(=O)[O-])c5F)c5ccc2[nH]5)C=C4)C=C3)cc1)c1cccs1
REMARK SMILES IDX 20 1 19 2 18 3 17 4 16 5 15 6 14 7 12 8 13 9 11 10 10 11
REMARK SMILES IDX 9 12 7 13 8 14 6 16 1 17 2 18 3 19 4 20 5 23 92 24 93 25
REMARK SMILES IDX 96 26 94 27 95 28 21 29 22 30 23 31 24 32 25 33 26 34 27 35
REMARK SMILES IDX 28 36 29 37 30 38 91 39 31 40 90 41 32 42 33 43 34 44 84 45
REMARK SMILES IDX 35 46 89 47 83 48 85 49 36 50 88 51 82 52 81 53 37 55 69 56
REMARK SMILES IDX 49 57 68 58 50 59 53 60 67 61 86 62 51 63 52 64 66 66 87 67
REMARK SMILES IDX 54 68 38 69 39 70 47 71 40 72 42 73 48 74 41 75 43 76 44 77
REMARK SMILES IDX 45 78 46 79 70 80 71 81 79 82 72 83 74 84 80 85 73 86 75 87
REMARK SMILES IDX 76 88 77 89 78 90 55 91 56 92 64 93 57 94 59 95 65 96 58 97
REMARK SMILES IDX 60 98 61 99 62 100 63 101
REMARK H PARENT 9 15 3 21 3 22 85 54 53 65
REMARK Flexibility Score: inf
ROOT
ATOM      1  O   UNL A   1      45.882  19.734  37.644  1.00  0.00    -0.377 OA
ENDROOT
BRANCH   1   2
ATOM      2  C   UNL A   1      47.070  19.348  38.290  1.00  0.00     0.188 C 
BRANCH   2   3
ATOM      3  C   UNL A   1      46.941  18.840  39.724  1.00  0.00     0.188 C 
BRANCH   3   4
ATOM      4  O   UNL A   1      47.228  17.490  40.067  1.00  0.00    -0.376 OA
BRANCH   4   5
ATOM      5  C   UNL A   1      46.318  16.765  40.879  1.00  0.00     0.202 C 
BRANCH   5   6
ATOM      6  C   UNL A   1      46.913  16.088  42.132  1.00  0.00     0.261 C 
BRANCH   6   7
ATOM      7  O   UNL A   1      47.023  16.879  43.346  1.00  0.00    -0.463 OA
BRANCH   7   8
ATOM      8  C   UNL A   1      45.945  17.630  43.671  1.00  0.00     0.308 C 
ATOM      9  O   UNL A   1      45.965  18.858  43.748  1.00  0.00    -0.252 OA
BRANCH   8  10
ATOM     10  C   UNL A   1      44.693  16.869  44.077  1.00  0.00     0.153 C 
BRANCH  10  11
ATOM     11  C   UNL A   1      44.533  15.875  45.241  1.00  0.00     0.133 C 
BRANCH  11  12
ATOM     12  N   UNL A   1      43.557  14.830  45.023  1.00  0.00    -0.347 N 
ATOM     13  C   UNL A   1      43.694  13.469  45.117  1.00  0.00     0.229 C 
ATOM     14  O   UNL A   1      42.659  12.811  45.016  1.00  0.00    -0.275 OA
ATOM     15  H   UNL A   1      42.659  15.143  44.766  1.00  0.00     0.164 HD
BRANCH  13  16
ATOM     16  C   UNL A   1      45.086  12.811  45.232  1.00  0.00     0.142 C 
ATOM     17  C   UNL A   1      46.375  10.891  44.171  1.00  0.00     0.076 C 
ATOM     18  C   UNL A   1      45.055  11.320  44.827  1.00  0.00     0.192 C 
ATOM     19  N   UNL A   1      44.879  10.548  46.078  1.00  0.00    -0.343 N 
ATOM     20  C   UNL A   1      45.021  11.463  47.202  1.00  0.00     0.261 C 
ATOM     21  H   UNL A   1      45.589   9.818  46.136  1.00  0.00     0.346 HD
ATOM     22  H   UNL A   1      43.957  10.111  46.095  1.00  0.00     0.346 HD
ATOM     23  C   UNL A   1      45.683  12.697  46.629  1.00  0.00     0.081 C 
ENDBRANCH  13  16
ENDBRANCH  11  12
BRANCH  11  24
ATOM     24  C   UNL A   1      44.431  16.456  46.665  1.00  0.00     0.027 A 
ATOM     25  C   UNL A   1      44.118  15.790  47.842  1.00  0.00     0.017 A 
ATOM     26  S   UNL A   1      44.521  18.166  46.976  1.00  0.00    -0.147 S 
ATOM     27  C   UNL A   1      43.968  16.663  48.965  1.00  0.00     0.012 A 
ATOM     28  C   UNL A   1      44.155  17.981  48.627  1.00  0.00     0.065 A 
ENDBRANCH  11  24
ENDBRANCH  10  11
ENDBRANCH   8  10
ENDBRANCH   7   8
ENDBRANCH   6   7
ENDBRANCH   5   6
ENDBRANCH   4   5
ENDBRANCH   3   4
ENDBRANCH   2   3
ENDBRANCH   1   2
BRANCH   1  29
ATOM     29  C   UNL A   1      45.447  18.868  36.617  1.00  0.00     0.188 C 
BRANCH  29  30
ATOM     30  C   UNL A   1      45.530  19.484  35.215  1.00  0.00     0.188 C 
BRANCH  30  31
ATOM     31  O   UNL A   1      46.574  20.399  34.914  1.00  0.00    -0.376 OA
BRANCH  31  32
ATOM     32  C   UNL A   1      46.359  21.702  34.397  1.00  0.00     0.202 C 
BRANCH  32  33
ATOM     33  C   UNL A   1      47.313  22.895  34.544  1.00  0.00     0.261 C 
BRANCH  33  34
ATOM     34  O   UNL A   1      47.044  23.805  35.605  1.00  0.00    -0.460 OA
BRANCH  34  35
ATOM     35  C   UNL A   1      47.569  25.039  35.434  1.00  0.00     0.338 C 
ATOM     36  O   UNL A   1      48.757  25.331  35.389  1.00  0.00    -0.246 OA
BRANCH  35  37
ATOM     37  C   UNL A   1      46.495  25.980  35.088  1.00  0.00     0.060 A 
ATOM     38  C   UNL A   1      45.183  25.606  35.405  1.00  0.00     0.016 A 
ATOM     39  C   UNL A   1      46.760  27.176  34.418  1.00  0.00     0.016 A 
ATOM     40  C   UNL A   1      44.120  26.402  35.007  1.00  0.00     0.010 A 
ATOM     41  C   UNL A   1      45.689  27.961  33.990  1.00  0.00     0.010 A 
ATOM     42  C   UNL A   1      44.369  27.546  34.242  1.00  0.00    -0.014 A 
BRANCH  42  43
ATOM     43  C   UNL A   1      43.240  28.157  33.513  1.00  0.00     0.031 A 
ATOM     44  C   UNL A   1      43.034  27.764  32.077  1.00  0.00     0.074 A 
ATOM     45  C   UNL A   1      42.392  28.989  34.136  1.00  0.00     0.049 A 
ATOM     46  N   UNL A   1      42.112  28.147  31.236  1.00  0.00    -0.248 NA
ATOM     47  C   UNL A   1      44.001  26.805  31.513  1.00  0.00     0.031 C 
ATOM     48  C   UNL A   1      42.488  29.401  35.535  1.00  0.00     0.029 A 
ATOM     49  N   UNL A   1      41.288  29.648  33.662  1.00  0.00    -0.354 N 
ATOM     50  C   UNL A   1      42.402  27.502  30.040  1.00  0.00     0.074 A 
ATOM     51  C   UNL A   1      43.594  26.713  30.257  1.00  0.00     0.031 C 
ATOM     52  C   UNL A   1      41.494  30.264  35.802  1.00  0.00     0.029 A 
ATOM     53  C   UNL A   1      40.713  30.484  34.587  1.00  0.00     0.049 A 
ATOM     54  H   UNL A   1      40.942  29.533  32.747  1.00  0.00     0.167 HD
ATOM     55  C   UNL A   1      41.727  27.554  28.868  1.00  0.00     0.034 A 
ATOM     56  C   UNL A   1      39.684  31.343  34.451  1.00  0.00     0.034 A 
ATOM     57  C   UNL A   1      40.544  28.345  28.670  1.00  0.00     0.049 A 
ATOM     58  C   UNL A   1      38.981  31.423  33.121  1.00  0.00     0.074 A 
ATOM     59  C   UNL A   1      39.763  28.459  27.536  1.00  0.00     0.029 A 
ATOM     60  N   UNL A   1      39.983  29.175  29.631  1.00  0.00    -0.354 N 
ATOM     61  N   UNL A   1      39.207  30.742  32.023  1.00  0.00    -0.248 NA
ATOM     62  C   UNL A   1      37.860  32.367  33.022  1.00  0.00     0.031 C 
ATOM     63  C   UNL A   1      38.752  29.390  27.798  1.00  0.00     0.029 A 
ATOM     64  C   UNL A   1      38.874  29.818  29.112  1.00  0.00     0.049 A 
ATOM     65  H   UNL A   1      40.323  29.289  30.548  1.00  0.00     0.167 HD
ATOM     66  C   UNL A   1      38.234  31.144  31.115  1.00  0.00     0.074 A 
ATOM     67  C   UNL A   1      37.407  32.118  31.800  1.00  0.00     0.031 C 
ATOM     68  C   UNL A   1      38.042  30.751  29.831  1.00  0.00     0.034 A 
BRANCH  55  69
ATOM     69  C   UNL A   1      42.261  26.735  27.721  1.00  0.00     0.023 A 
ATOM     70  C   UNL A   1      43.123  27.326  26.773  1.00  0.00     0.012 A 
ATOM     71  C   UNL A   1      41.922  25.374  27.589  1.00  0.00     0.148 A 
ATOM     72  C   UNL A   1      43.601  26.590  25.690  1.00  0.00     0.002 A 
ATOM     73  C   UNL A   1      42.443  24.634  26.534  1.00  0.00     0.091 A 
ATOM     74  F   UNL A   1      41.082  24.834  28.483  1.00  0.00    -0.205 F 
ATOM     75  C   UNL A   1      43.269  25.243  25.575  1.00  0.00     0.022 A 
BRANCH  73  76
ATOM     76  S   UNL A   1      42.136  22.875  26.342  1.00  0.00     0.127 S 
ATOM     77  O   UNL A   1      42.786  22.600  25.061  1.00  0.00    -0.237 OA
ATOM     78  O   UNL A   1      42.825  22.316  27.506  1.00  0.00    -0.237 OA
ATOM     79  O   UNL A   1      40.690  22.713  26.356  1.00  0.00    -0.744 OA
ENDBRANCH  73  76
ENDBRANCH  55  69
BRANCH  56  80
ATOM     80  C   UNL A   1      39.239  32.163  35.613  1.00  0.00     0.023 A 
ATOM     81  C   UNL A   1      38.153  31.725  36.395  1.00  0.00     0.012 A 
ATOM     82  C   UNL A   1      39.899  33.357  35.961  1.00  0.00     0.148 A 
ATOM     83  C   UNL A   1      37.714  32.477  37.485  1.00  0.00     0.002 A 
ATOM     84  C   UNL A   1      39.490  34.075  37.079  1.00  0.00     0.091 A 
ATOM     85  F   UNL A   1      40.924  33.762  35.197  1.00  0.00    -0.205 F 
ATOM     86  C   UNL A   1      38.387  33.645  37.832  1.00  0.00     0.022 A 
BRANCH  84  87
ATOM     87  S   UNL A   1      40.361  35.530  37.673  1.00  0.00     0.127 S 
ATOM     88  O   UNL A   1      40.405  35.284  39.112  1.00  0.00    -0.237 OA
ATOM     89  O   UNL A   1      41.648  35.407  36.986  1.00  0.00    -0.237 OA
ATOM     90  O   UNL A   1      39.559  36.671  37.256  1.00  0.00    -0.744 OA
ENDBRANCH  84  87
ENDBRANCH  56  80
BRANCH  68  91
ATOM     91  C   UNL A   1      36.864  31.334  29.093  1.00  0.00     0.023 A 
ATOM     92  C   UNL A   1      36.837  32.705  28.773  1.00  0.00     0.012 A 
ATOM     93  C   UNL A   1      35.818  30.498  28.650  1.00  0.00     0.148 A 
ATOM     94  C   UNL A   1      35.768  33.244  28.056  1.00  0.00     0.002 A 
ATOM     95  C   UNL A   1      34.786  31.032  27.888  1.00  0.00     0.091 A 
ATOM     96  F   UNL A   1      35.856  29.199  28.978  1.00  0.00    -0.205 F 
ATOM     97  C   UNL A   1      34.752  32.406  27.604  1.00  0.00     0.022 A 
BRANCH  95  98
ATOM     98  S   UNL A   1      33.490  30.013  27.176  1.00  0.00     0.127 S 
ATOM     99  O   UNL A   1      32.378  30.959  27.096  1.00  0.00    -0.237 OA
ATOM    100  O   UNL A   1      34.068  29.640  25.884  1.00  0.00    -0.237 OA
ATOM    101  O   UNL A   1      33.297  28.901  28.096  1.00  0.00    -0.744 OA
ENDBRANCH  95  98
ENDBRANCH  68  91
ENDBRANCH  42  43
ENDBRANCH  35  37
ENDBRANCH  34  35
ENDBRANCH  33  34
ENDBRANCH  32  33
ENDBRANCH  31  32
ENDBRANCH  30  31
ENDBRANCH  29  30
ENDBRANCH   1  29
TORSDOF 27
ENDMDL
MODEL 2
REMARK VINA RESULT:      -7.9      2.418      3.801
REMARK SMILES C[C@H]1[NH2+]CC[C@@H]1C(=O)N[C@@H](CC(=O)OCCOCCOCCOCCOC(=O)c1ccc(-c2c3nc(c(-c4cccc(S(=O)(=O)[O-])c4F)c4ccc([nH]4)c(-c4cccc(S(=O)(=O)[O-])c4F)c4nc(c(-c5cccc(S(=O)(=O)[O-])c5F)c5ccc2[nH]5)C=C4)C=C3)cc1)c1cccs1
REMARK SMILES IDX 20 1 19 2 18 3 17 4 16 5 15 6 14 7 12 8 13 9 11 10 10 11
REMARK SMILES IDX 9 12 7 13 8 14 6 16 1 17 2 18 3 19 4 20 5 23 92 24 93 25
REMARK SMILES IDX 96 26 94 27 95 28 21 29 22 30 23 31 24 32 25 33 26 34 27 35
REMARK SMILES IDX 28 36 29 37 30 38 91 39 31 40 90 41 32 42 33 43 34 44 84 45
REMARK SMILES IDX 35 46 89 47 83 48 85 49 36 50 88 51 82 52 81 53 37 55 69 56
REMARK SMILES IDX 49 57 68 58 50 59 53 60 67 61 86 62 51 63 52 64 66 66 87 67
REMARK SMILES IDX 54 68 38 69 39 70 47 71 40 72 42 73 48 74 41 75 43 76 44 77
REMARK SMILES IDX 45 78 46 79 70 80 71 81 79 82 72 83 74 84 80 85 73 86 75 87
REMARK SMILES IDX 76 88 77 89 78 90 55 91 56 92 64 93 57 94 59 95 65 96 58 97
REMARK SMILES IDX 60 98 61 99 62 100 63 101
REMARK H PARENT 9 15 3 21 3 22 85 54 53 65
REMARK Flexibility Score: inf
ROOT
ATOM      1  O   UNL A   1      45.819  19.654  38.787  1.00  0.00    -0.377 OA
ENDROOT
BRANCH   1   2
ATOM      2  C   UNL A   1      46.040  18.317  39.162  1.00  0.00     0.188 C 
BRANCH   2   3
ATOM      3  C   UNL A   1      45.168  17.260  38.489  1.00  0.00     0.188 C 
BRANCH   3   4
ATOM      4  O   UNL A   1      44.447  16.294  39.243  1.00  0.00    -0.376 OA
BRANCH   4   5
ATOM      5  C   UNL A   1      43.029  16.300  39.217  1.00  0.00     0.202 C 
BRANCH   5   6
ATOM      6  C   UNL A   1      42.322  15.848  40.512  1.00  0.00     0.261 C 
BRANCH   6   7
ATOM      7  O   UNL A   1      42.174  14.422  40.746  1.00  0.00    -0.463 OA
BRANCH   7   8
ATOM      8  C   UNL A   1      42.269  14.014  42.033  1.00  0.00     0.308 C 
ATOM      9  O   UNL A   1      41.597  13.101  42.513  1.00  0.00    -0.252 OA
BRANCH   8  10
ATOM     10  C   UNL A   1      43.177  14.837  42.934  1.00  0.00     0.153 C 
BRANCH  10  11
ATOM     11  C   UNL A   1      43.669  14.484  44.348  1.00  0.00     0.133 C 
BRANCH  11  12
ATOM     12  N   UNL A   1      43.981  15.620  45.188  1.00  0.00    -0.347 N 
ATOM     13  C   UNL A   1      44.528  16.832  44.855  1.00  0.00     0.229 C 
ATOM     14  O   UNL A   1      44.556  17.679  45.748  1.00  0.00    -0.275 OA
ATOM     15  H   UNL A   1      43.770  15.505  46.142  1.00  0.00     0.164 HD
BRANCH  13  16
ATOM     16  C   UNL A   1      45.168  17.068  43.469  1.00  0.00     0.142 C 
ATOM     17  C   UNL A   1      47.494  17.195  42.446  1.00  0.00     0.076 C 
ATOM     18  C   UNL A   1      46.583  17.678  43.583  1.00  0.00     0.192 C 
ATOM     19  N   UNL A   1      46.419  19.144  43.464  1.00  0.00    -0.343 N 
ATOM     20  C   UNL A   1      45.043  19.419  43.073  1.00  0.00     0.261 C 
ATOM     21  H   UNL A   1      47.057  19.507  42.755  1.00  0.00     0.346 HD
ATOM     22  H   UNL A   1      46.629  19.596  44.354  1.00  0.00     0.346 HD
ATOM     23  C   UNL A   1      44.503  18.099  42.568  1.00  0.00     0.081 C 
ENDBRANCH  13  16
ENDBRANCH  11  12
BRANCH  11  24
ATOM     24  C   UNL A   1      44.734  13.377  44.477  1.00  0.00     0.027 A 
ATOM     25  C   UNL A   1      46.110  13.489  44.333  1.00  0.00     0.017 A 
ATOM     26  S   UNL A   1      44.308  11.698  44.651  1.00  0.00    -0.147 S 
ATOM     27  C   UNL A   1      46.789  12.232  44.375  1.00  0.00     0.012 A 
ATOM     28  C   UNL A   1      45.923  11.179  44.537  1.00  0.00     0.065 A 
ENDBRANCH  11  24
ENDBRANCH  10  11
ENDBRANCH   8  10
ENDBRANCH   7   8
ENDBRANCH   6   7
ENDBRANCH   5   6
ENDBRANCH   4   5
ENDBRANCH   3   4
ENDBRANCH   2   3
ENDBRANCH   1   2
BRANCH   1  29
ATOM     29  C   UNL A   1      46.686  20.149  37.787  1.00  0.00     0.188 C 
BRANCH  29  30
ATOM     30  C   UNL A   1      48.073  19.496  37.795  1.00  0.00     0.188 C 
BRANCH  30  31
ATOM     31  O   UNL A   1      49.226  20.300  37.600  1.00  0.00    -0.376 OA
BRANCH  31  32
ATOM     32  C   UNL A   1      49.824  20.532  36.335  1.00  0.00     0.202 C 
BRANCH  32  33
ATOM     33  C   UNL A   1      49.290  21.475  35.248  1.00  0.00     0.261 C 
BRANCH  33  34
ATOM     34  O   UNL A   1      49.515  22.867  35.441  1.00  0.00    -0.460 OA
BRANCH  34  35
ATOM     35  C   UNL A   1      48.575  23.490  36.186  1.00  0.00     0.338 C 
ATOM     36  O   UNL A   1      48.597  23.667  37.397  1.00  0.00    -0.246 OA
BRANCH  35  37
ATOM     37  C   UNL A   1      47.594  24.128  35.298  1.00  0.00     0.060 A 
ATOM     38  C   UNL A   1      48.057  25.143  34.451  1.00  0.00     0.016 A 
ATOM     39  C   UNL A   1      46.242  23.780  35.332  1.00  0.00     0.016 A 
ATOM     40  C   UNL A   1      47.161  25.856  33.670  1.00  0.00     0.010 A 
ATOM     41  C   UNL A   1      45.336  24.517  34.569  1.00  0.00     0.010 A 
ATOM     42  C   UNL A   1      45.792  25.587  33.777  1.00  0.00    -0.014 A 
BRANCH  42  43
ATOM     43  C   UNL A   1      44.842  26.584  33.247  1.00  0.00     0.031 A 
ATOM     44  C   UNL A   1      44.298  26.373  31.862  1.00  0.00     0.074 A 
ATOM     45  C   UNL A   1      44.436  27.614  34.006  1.00  0.00     0.049 A 
ATOM     46  N   UNL A   1      43.445  27.094  31.186  1.00  0.00    -0.248 NA
ATOM     47  C   UNL A   1      44.781  25.181  31.141  1.00  0.00     0.031 C 
ATOM     48  C   UNL A   1      44.879  27.883  35.372  1.00  0.00     0.029 A 
ATOM     49  N   UNL A   1      43.564  28.633  33.723  1.00  0.00    -0.354 N 
ATOM     50  C   UNL A   1      43.312  26.464  29.955  1.00  0.00     0.074 A 
ATOM     51  C   UNL A   1      44.181  25.309  29.969  1.00  0.00     0.031 C 
ATOM     52  C   UNL A   1      44.292  29.012  35.804  1.00  0.00     0.029 A 
ATOM     53  C   UNL A   1      43.458  29.555  34.735  1.00  0.00     0.049 A 
ATOM     54  H   UNL A   1      43.065  28.698  32.877  1.00  0.00     0.167 HD
ATOM     55  C   UNL A   1      42.525  26.811  28.910  1.00  0.00     0.034 A 
ATOM     56  C   UNL A   1      42.777  30.717  34.774  1.00  0.00     0.034 A 
ATOM     57  C   UNL A   1      41.668  27.965  28.914  1.00  0.00     0.049 A 
ATOM     58  C   UNL A   1      41.949  31.110  33.578  1.00  0.00     0.074 A 
ATOM     59  C   UNL A   1      40.810  28.405  27.924  1.00  0.00     0.029 A 
ATOM     60  N   UNL A   1      41.578  28.874  29.958  1.00  0.00    -0.354 N 
ATOM     61  N   UNL A   1      41.758  30.462  32.454  1.00  0.00    -0.248 NA
ATOM     62  C   UNL A   1      41.217  32.380  33.670  1.00  0.00     0.031 C 
ATOM     63  C   UNL A   1      40.230  29.603  28.354  1.00  0.00     0.029 A 
ATOM     64  C   UNL A   1      40.690  29.884  29.632  1.00  0.00     0.049 A 
ATOM     65  H   UNL A   1      42.072  28.811  30.807  1.00  0.00     0.167 HD
ATOM     66  C   UNL A   1      40.855  31.222  31.721  1.00  0.00     0.074 A 
ATOM     67  C   UNL A   1      40.525  32.373  32.538  1.00  0.00     0.031 C 
ATOM     68  C   UNL A   1      40.347  30.996  30.483  1.00  0.00     0.034 A 
BRANCH  55  69
ATOM     69  C   UNL A   1      42.565  25.933  27.687  1.00  0.00     0.023 A 
ATOM     70  C   UNL A   1      43.257  26.360  26.534  1.00  0.00     0.012 A 
ATOM     71  C   UNL A   1      41.930  24.675  27.682  1.00  0.00     0.148 A 
ATOM     72  C   UNL A   1      43.278  25.571  25.384  1.00  0.00     0.002 A 
ATOM     73  C   UNL A   1      41.998  23.874  26.549  1.00  0.00     0.091 A 
ATOM     74  F   UNL A   1      41.257  24.295  28.777  1.00  0.00    -0.205 F 
ATOM     75  C   UNL A   1      42.657  24.326  25.394  1.00  0.00     0.022 A 
BRANCH  73  76
ATOM     76  S   UNL A   1      41.297  22.221  26.489  1.00  0.00     0.127 S 
ATOM     77  O   UNL A   1      41.632  21.710  27.817  1.00  0.00    -0.237 OA
ATOM     78  O   UNL A   1      39.875  22.500  26.284  1.00  0.00    -0.237 OA
ATOM     79  O   UNL A   1      41.950  21.546  25.377  1.00  0.00    -0.744 OA
ENDBRANCH  73  76
ENDBRANCH  55  69
BRANCH  56  80
ATOM     80  C   UNL A   1      42.821  31.566  35.998  1.00  0.00     0.023 A 
ATOM     81  C   UNL A   1      41.885  31.348  37.027  1.00  0.00     0.012 A 
ATOM     82  C   UNL A   1      43.798  32.568  36.158  1.00  0.00     0.148 A 
ATOM     83  C   UNL A   1      41.902  32.133  38.181  1.00  0.00     0.002 A 
ATOM     84  C   UNL A   1      43.843  33.311  37.332  1.00  0.00     0.091 A 
ATOM     85  F   UNL A   1      44.674  32.765  35.162  1.00  0.00    -0.205 F 
ATOM     86  C   UNL A   1      42.886  33.106  38.337  1.00  0.00     0.022 A 
BRANCH  84  87
ATOM     87  S   UNL A   1      45.137  34.509  37.675  1.00  0.00     0.127 S 
ATOM     88  O   UNL A   1      44.888  35.518  36.649  1.00  0.00    -0.237 OA
ATOM     89  O   UNL A   1      44.805  34.922  39.040  1.00  0.00    -0.237 OA
ATOM     90  O   UNL A   1      46.393  33.784  37.551  1.00  0.00    -0.744 OA
ENDBRANCH  84  87
ENDBRANCH  56  80
BRANCH  68  91
ATOM     91  C   UNL A   1      39.341  31.985  29.952  1.00  0.00     0.023 A 
ATOM     92  C   UNL A   1      39.731  33.309  29.670  1.00  0.00     0.012 A 
ATOM     93  C   UNL A   1      38.024  31.573  29.661  1.00  0.00     0.148 A 
ATOM     94  C   UNL A   1      38.815  34.219  29.142  1.00  0.00     0.002 A 
ATOM     95  C   UNL A   1      37.134  32.469  29.083  1.00  0.00     0.091 A 
ATOM     96  F   UNL A   1      37.670  30.313  29.950  1.00  0.00    -0.205 F 
ATOM     97  C   UNL A   1      37.523  33.796  28.837  1.00  0.00     0.022 A 
BRANCH  95  98
ATOM     98  S   UNL A   1      35.486  31.987  28.560  1.00  0.00     0.127 S 
ATOM     99  O   UNL A   1      34.770  31.944  29.835  1.00  0.00    -0.237 OA
ATOM    100  O   UNL A   1      35.104  33.095  27.683  1.00  0.00    -0.237 OA
ATOM    101  O   UNL A   1      35.633  30.705  27.886  1.00  0.00    -0.744 OA
ENDBRANCH  95  98
ENDBRANCH  68  91
ENDBRANCH  42  43
ENDBRANCH  35  37
ENDBRANCH  34  35
ENDBRANCH  33  34
ENDBRANCH  32  33
ENDBRANCH  31  32
ENDBRANCH  30  31
ENDBRANCH  29  30
ENDBRANCH   1  29
TORSDOF 27
ENDMDL
MODEL 3
REMARK VINA RESULT:      -7.8      7.443     18.125
REMARK SMILES C[C@H]1[NH2+]CC[C@@H]1C(=O)N[C@@H](CC(=O)OCCOCCOCCOCCOC(=O)c1ccc(-c2c3nc(c(-c4cccc(S(=O)(=O)[O-])c4F)c4ccc([nH]4)c(-c4cccc(S(=O)(=O)[O-])c4F)c4nc(c(-c5cccc(S(=O)(=O)[O-])c5F)c5ccc2[nH]5)C=C4)C=C3)cc1)c1cccs1
REMARK SMILES IDX 20 1 19 2 18 3 17 4 16 5 15 6 14 7 12 8 13 9 11 10 10 11
REMARK SMILES IDX 9 12 7 13 8 14 6 16 1 17 2 18 3 19 4 20 5 23 92 24 93 25
REMARK SMILES IDX 96 26 94 27 95 28 21 29 22 30 23 31 24 32 25 33 26 34 27 35
REMARK SMILES IDX 28 36 29 37 30 38 91 39 31 40 90 41 32 42 33 43 34 44 84 45
REMARK SMILES IDX 35 46 89 47 83 48 85 49 36 50 88 51 82 52 81 53 37 55 69 56
REMARK SMILES IDX 49 57 68 58 50 59 53 60 67 61 86 62 51 63 52 64 66 66 87 67
REMARK SMILES IDX 54 68 38 69 39 70 47 71 40 72 42 73 48 74 41 75 43 76 44 77
REMARK SMILES IDX 45 78 46 79 70 80 71 81 79 82 72 83 74 84 80 85 73 86 75 87
REMARK SMILES IDX 76 88 77 89 78 90 55 91 56 92 64 93 57 94 59 95 65 96 58 97
REMARK SMILES IDX 60 98 61 99 62 100 63 101
REMARK H PARENT 9 15 3 21 3 22 85 54 53 65
REMARK Flexibility Score: inf
ROOT
ATOM      1  O   UNL A   1      36.705  29.715  30.953  1.00  0.00    -0.377 OA
ENDROOT
BRANCH   1   2
ATOM      2  C   UNL A   1      36.591  31.039  30.491  1.00  0.00     0.188 C 
BRANCH   2   3
ATOM      3  C   UNL A   1      37.093  31.321  29.077  1.00  0.00     0.188 C 
BRANCH   3   4
ATOM      4  O   UNL A   1      36.423  30.814  27.930  1.00  0.00    -0.376 OA
BRANCH   4   5
ATOM      5  C   UNL A   1      36.032  29.451  27.892  1.00  0.00     0.202 C 
BRANCH   5   6
ATOM      6  C   UNL A   1      34.976  29.074  26.831  1.00  0.00     0.261 C 
BRANCH   6   7
ATOM      7  O   UNL A   1      33.692  29.751  26.879  1.00  0.00    -0.463 OA
BRANCH   7   8
ATOM      8  C   UNL A   1      32.602  28.957  27.003  1.00  0.00     0.308 C 
ATOM      9  O   UNL A   1      31.519  29.345  27.440  1.00  0.00    -0.252 OA
BRANCH   8  10
ATOM     10  C   UNL A   1      32.806  27.483  26.692  1.00  0.00     0.153 C 
BRANCH  10  11
ATOM     11  C   UNL A   1      32.437  26.734  25.399  1.00  0.00     0.133 C 
BRANCH  11  12
ATOM     12  N   UNL A   1      33.544  26.083  24.732  1.00  0.00    -0.347 N 
ATOM     13  C   UNL A   1      33.852  24.751  24.643  1.00  0.00     0.229 C 
ATOM     14  O   UNL A   1      34.781  24.457  23.891  1.00  0.00    -0.275 OA
ATOM     15  H   UNL A   1      34.171  26.689  24.275  1.00  0.00     0.164 HD
BRANCH  13  16
ATOM     16  C   UNL A   1      33.141  23.703  25.528  1.00  0.00     0.142 C 
ATOM     17  C   UNL A   1      33.760  21.747  27.030  1.00  0.00     0.076 C 
ATOM     18  C   UNL A   1      33.963  22.402  25.658  1.00  0.00     0.192 C 
ATOM     19  N   UNL A   1      33.456  21.479  24.616  1.00  0.00    -0.343 N 
ATOM     20  C   UNL A   1      32.257  22.064  24.033  1.00  0.00     0.261 C 
ATOM     21  H   UNL A   1      33.230  20.577  25.035  1.00  0.00     0.346 HD
ATOM     22  H   UNL A   1      34.165  21.337  23.896  1.00  0.00     0.346 HD
ATOM     23  C   UNL A   1      31.826  23.139  25.006  1.00  0.00     0.081 C 
ENDBRANCH  13  16
ENDBRANCH  11  12
BRANCH  11  24
ATOM     24  C   UNL A   1      31.518  27.457  24.395  1.00  0.00     0.027 A 
ATOM     25  C   UNL A   1      30.182  27.202  24.118  1.00  0.00     0.017 A 
ATOM     26  S   UNL A   1      32.122  28.643  23.275  1.00  0.00    -0.147 S 
ATOM     27  C   UNL A   1      29.673  27.968  23.024  1.00  0.00     0.012 A 
ATOM     28  C   UNL A   1      30.629  28.786  22.474  1.00  0.00     0.065 A 
ENDBRANCH  11  24
ENDBRANCH  10  11
ENDBRANCH   8  10
ENDBRANCH   7   8
ENDBRANCH   6   7
ENDBRANCH   5   6
ENDBRANCH   4   5
ENDBRANCH   3   4
ENDBRANCH   2   3
ENDBRANCH   1   2
BRANCH   1  29
ATOM     29  C   UNL A   1      38.002  29.328  31.356  1.00  0.00     0.188 C 
BRANCH  29  30
ATOM     30  C   UNL A   1      38.599  28.199  30.508  1.00  0.00     0.188 C 
BRANCH  30  31
ATOM     31  O   UNL A   1      39.730  28.461  29.690  1.00  0.00    -0.376 OA
BRANCH  31  32
ATOM     32  C   UNL A   1      39.779  28.192  28.299  1.00  0.00     0.202 C 
BRANCH  32  33
ATOM     33  C   UNL A   1      39.812  26.799  27.653  1.00  0.00     0.261 C 
BRANCH  33  34
ATOM     34  O   UNL A   1      40.457  25.766  28.390  1.00  0.00    -0.460 OA
BRANCH  34  35
ATOM     35  C   UNL A   1      41.540  25.234  27.780  1.00  0.00     0.338 C 
ATOM     36  O   UNL A   1      41.652  24.959  26.592  1.00  0.00    -0.246 OA
BRANCH  35  37
ATOM     37  C   UNL A   1      42.670  25.223  28.718  1.00  0.00     0.060 A 
ATOM     38  C   UNL A   1      43.091  26.455  29.234  1.00  0.00     0.016 A 
ATOM     39  C   UNL A   1      43.339  24.041  29.041  1.00  0.00     0.016 A 
ATOM     40  C   UNL A   1      44.219  26.521  30.037  1.00  0.00     0.010 A 
ATOM     41  C   UNL A   1      44.492  24.111  29.824  1.00  0.00     0.010 A 
ATOM     42  C   UNL A   1      44.958  25.357  30.279  1.00  0.00    -0.014 A 
BRANCH  42  43
ATOM     43  C   UNL A   1      46.332  25.500  30.797  1.00  0.00     0.031 A 
ATOM     44  C   UNL A   1      46.536  25.420  32.285  1.00  0.00     0.074 A 
ATOM     45  C   UNL A   1      47.370  25.638  29.958  1.00  0.00     0.049 A 
ATOM     46  N   UNL A   1      47.640  25.498  32.976  1.00  0.00    -0.248 NA
ATOM     47  C   UNL A   1      45.326  25.218  33.104  1.00  0.00     0.031 C 
ATOM     48  C   UNL A   1      47.277  25.692  28.501  1.00  0.00     0.029 A 
ATOM     49  N   UNL A   1      48.709  25.772  30.219  1.00  0.00    -0.354 N 
ATOM     50  C   UNL A   1      47.259  25.388  34.308  1.00  0.00     0.074 A 
ATOM     51  C   UNL A   1      45.820  25.249  34.331  1.00  0.00     0.031 C 
ATOM     52  C   UNL A   1      48.508  25.870  27.994  1.00  0.00     0.029 A 
ATOM     53  C   UNL A   1      49.467  25.972  29.092  1.00  0.00     0.049 A 
ATOM     54  H   UNL A   1      49.089  25.730  31.127  1.00  0.00     0.167 HD
ATOM     55  C   UNL A   1      48.041  25.388  35.413  1.00  0.00     0.034 A 
ATOM     56  C   UNL A   1      50.784  26.229  28.973  1.00  0.00     0.034 A 
ATOM     57  C   UNL A   1      49.470  25.528  35.370  1.00  0.00     0.049 A 
ATOM     58  C   UNL A   1      51.626  26.278  30.221  1.00  0.00     0.074 A 
ATOM     59  C   UNL A   1      50.369  25.521  36.420  1.00  0.00     0.029 A 
ATOM     60  N   UNL A   1      50.208  25.721  34.211  1.00  0.00    -0.354 N 
ATOM     61  N   UNL A   1      51.270  26.081  31.468  1.00  0.00    -0.248 NA
ATOM     62  C   UNL A   1      53.058  26.552  30.041  1.00  0.00     0.031 C 
ATOM     63  C   UNL A   1      51.647  25.750  35.899  1.00  0.00     0.029 A 
ATOM     64  C   UNL A   1      51.550  25.850  34.519  1.00  0.00     0.049 A 
ATOM     65  H   UNL A   1      49.832  25.759  33.301  1.00  0.00     0.167 HD
ATOM     66  C   UNL A   1      52.438  26.168  32.218  1.00  0.00     0.074 A 
ATOM     67  C   UNL A   1      53.514  26.420  31.280  1.00  0.00     0.031 C 
ATOM     68  C   UNL A   1      52.607  26.057  33.560  1.00  0.00     0.034 A 
BRANCH  55  69
ATOM     69  C   UNL A   1      47.359  25.237  36.747  1.00  0.00     0.023 A 
ATOM     70  C   UNL A   1      46.760  26.356  37.365  1.00  0.00     0.012 A 
ATOM     71  C   UNL A   1      47.296  23.983  37.386  1.00  0.00     0.148 A 
ATOM     72  C   UNL A   1      46.152  26.238  38.614  1.00  0.00     0.002 A 
ATOM     73  C   UNL A   1      46.644  23.864  38.608  1.00  0.00     0.091 A 
ATOM     74  F   UNL A   1      47.891  22.936  36.798  1.00  0.00    -0.205 F 
ATOM     75  C   UNL A   1      46.086  24.992  39.231  1.00  0.00     0.022 A 
BRANCH  73  76
ATOM     76  S   UNL A   1      46.438  22.289  39.446  1.00  0.00     0.127 S 
ATOM     77  O   UNL A   1      45.662  22.679  40.622  1.00  0.00    -0.237 OA
ATOM     78  O   UNL A   1      45.692  21.511  38.455  1.00  0.00    -0.237 OA
ATOM     79  O   UNL A   1      47.781  21.798  39.717  1.00  0.00    -0.744 OA
ENDBRANCH  73  76
ENDBRANCH  55  69
BRANCH  56  80
ATOM     80  C   UNL A   1      51.387  26.420  27.624  1.00  0.00     0.023 A 
ATOM     81  C   UNL A   1      51.669  25.295  26.824  1.00  0.00     0.012 A 
ATOM     82  C   UNL A   1      51.658  27.707  27.120  1.00  0.00     0.148 A 
ATOM     83  C   UNL A   1      52.238  25.448  25.559  1.00  0.00     0.002 A 
ATOM     84  C   UNL A   1      52.177  27.854  25.838  1.00  0.00     0.091 A 
ATOM     85  F   UNL A   1      51.392  28.763  27.901  1.00  0.00    -0.205 F 
ATOM     86  C   UNL A   1      52.482  26.725  25.063  1.00  0.00     0.022 A 
BRANCH  84  87
ATOM     87  S   UNL A   1      52.423  29.458  25.068  1.00  0.00     0.127 S 
ATOM     88  O   UNL A   1      53.350  30.097  25.999  1.00  0.00    -0.237 OA
ATOM     89  O   UNL A   1      53.005  29.083  23.778  1.00  0.00    -0.237 OA
ATOM     90  O   UNL A   1      51.103  30.065  24.983  1.00  0.00    -0.744 OA
ENDBRANCH  84  87
ENDBRANCH  56  80
BRANCH  68  91
ATOM     91  C   UNL A   1      54.012  26.155  34.094  1.00  0.00     0.023 A 
ATOM     92  C   UNL A   1      54.577  27.415  34.373  1.00  0.00     0.012 A 
ATOM     93  C   UNL A   1      54.743  24.987  34.393  1.00  0.00     0.148 A 
ATOM     94  C   UNL A   1      55.864  27.512  34.904  1.00  0.00     0.002 A 
ATOM     95  C   UNL A   1      56.001  25.091  34.974  1.00  0.00     0.091 A 
ATOM     96  F   UNL A   1      54.193  23.799  34.107  1.00  0.00    -0.205 F 
ATOM     97  C   UNL A   1      56.568  26.352  35.216  1.00  0.00     0.022 A 
BRANCH  95  98
ATOM     98  S   UNL A   1      56.937  23.653  35.505  1.00  0.00     0.127 S 
ATOM     99  O   UNL A   1      58.023  24.270  36.265  1.00  0.00    -0.237 OA
ATOM    100  O   UNL A   1      55.957  22.931  36.318  1.00  0.00    -0.237 OA
ATOM    101  O   UNL A   1      57.342  22.962  34.289  1.00  0.00    -0.744 OA
ENDBRANCH  95  98
ENDBRANCH  68  91
ENDBRANCH  42  43
ENDBRANCH  35  37
ENDBRANCH  34  35
ENDBRANCH  33  34
ENDBRANCH  32  33
ENDBRANCH  31  32
ENDBRANCH  30  31
ENDBRANCH  29  30
ENDBRANCH   1  29
TORSDOF 27
ENDMDL
