MODEL 1
REMARK VINA RESULT:      -6.3      0.000      0.000
REMARK SMILES COc1cccc([C@H]2CC(c3ccc(S(C)(=O)=O)cc3)=NN2c2ccc(C(=O)OCCOCCOCCOCCOC(=O)c3ccc(-c4c5nc(c(-c6cccc(S(=O)(=O)[O-])c6F)c6ccc([nH]6)c(-c6cccc(S(=O)(=O)[O-])c6F)c6nc(c(-c7cccc(S(=O)(=O)[O-])c7F)c7ccc4[nH]7)C=C6)C=C5)cc3)cc2)c1
REMARK SMILES IDX 35 1 34 2 33 3 32 4 31 5 30 6 29 7 27 8 28 9 26 10 23 11
REMARK SMILES IDX 24 12 108 13 25 14 107 15 22 16 8 17 9 18 10 19 21 20 7 21
REMARK SMILES IDX 3 22 4 23 109 24 5 25 6 26 2 27 1 28 11 29 12 30 20 31 13 32
REMARK SMILES IDX 19 33 14 34 15 35 16 36 17 37 18 38 36 39 37 40 38 41 39 42
REMARK SMILES IDX 40 43 41 44 42 45 43 46 44 47 45 48 106 49 46 50 105 51
REMARK SMILES IDX 47 52 48 53 49 54 99 55 50 56 104 57 98 58 100 59 51 60
REMARK SMILES IDX 103 61 97 62 96 63 52 65 84 66 64 67 83 68 65 69 68 70 82 71
REMARK SMILES IDX 101 72 66 73 67 74 81 76 102 77 69 78 53 79 54 80 62 81
REMARK SMILES IDX 55 82 57 83 63 84 56 85 58 86 59 87 60 88 61 89 85 90 86 91
REMARK SMILES IDX 94 92 87 93 89 94 95 95 88 96 90 97 91 98 92 99 93 100
REMARK SMILES IDX 70 101 71 102 79 103 72 104 74 105 80 106 73 107 75 108
REMARK SMILES IDX 76 109 77 110 78 111
REMARK H PARENT 100 64 68 75
REMARK Flexibility Score: inf
ROOT
ATOM      1  O   UNL A   1      49.895  25.116  32.669  1.00  0.00    -0.377 OA
ENDROOT
BRANCH   1   2
ATOM      2  C   UNL A   1      50.255  25.465  31.341  1.00  0.00     0.188 C 
BRANCH   2   3
ATOM      3  C   UNL A   1      49.181  25.497  30.232  1.00  0.00     0.188 C 
BRANCH   3   4
ATOM      4  O   UNL A   1      49.693  25.654  28.922  1.00  0.00    -0.376 OA
BRANCH   4   5
ATOM      5  C   UNL A   1      49.343  26.798  28.168  1.00  0.00     0.202 C 
BRANCH   5   6
ATOM      6  C   UNL A   1      49.331  26.726  26.633  1.00  0.00     0.261 C 
BRANCH   6   7
ATOM      7  O   UNL A   1      48.103  27.077  25.993  1.00  0.00    -0.460 OA
BRANCH   7   8
ATOM      8  C   UNL A   1      47.355  26.067  25.500  1.00  0.00     0.338 C 
ATOM      9  O   UNL A   1      47.762  25.013  25.041  1.00  0.00    -0.246 OA
BRANCH   8  10
ATOM     10  C   UNL A   1      45.936  26.360  25.806  1.00  0.00     0.060 A 
ATOM     11  C   UNL A   1      43.272  26.931  26.487  1.00  0.00     0.060 A 
ATOM     12  C   UNL A   1      44.316  27.723  26.981  1.00  0.00     0.029 A 
ATOM     13  C   UNL A   1      43.578  25.915  25.568  1.00  0.00     0.029 A 
ATOM     14  C   UNL A   1      45.644  27.420  26.673  1.00  0.00     0.018 A 
ATOM     15  C   UNL A   1      44.899  25.637  25.212  1.00  0.00     0.018 A 
BRANCH  11  16
ATOM     16  N   UNL A   1      41.980  27.051  26.999  1.00  0.00    -0.257 N 
ATOM     17  C   UNL A   1      41.287  25.870  27.531  1.00  0.00     0.144 C 
ATOM     18  C   UNL A   1      40.062  26.483  28.213  1.00  0.00     0.091 C 
ATOM     19  C   UNL A   1      40.380  27.946  28.067  1.00  0.00     0.071 C 
ATOM     20  N   UNL A   1      41.467  28.239  27.423  1.00  0.00    -0.176 NA
BRANCH  17  21
ATOM     21  C   UNL A   1      42.163  25.059  28.483  1.00  0.00    -0.019 A 
ATOM     22  C   UNL A   1      43.908  24.900  30.184  1.00  0.00     0.119 A 
ATOM     23  C   UNL A   1      43.868  23.510  30.092  1.00  0.00     0.046 A 
ATOM     24  C   UNL A   1      43.072  25.671  29.369  1.00  0.00     0.052 A 
ATOM     25  C   UNL A   1      42.980  22.887  29.218  1.00  0.00     0.004 A 
ATOM     26  C   UNL A   1      42.131  23.656  28.420  1.00  0.00     0.006 A 
BRANCH  22  27
ATOM     27  O   UNL A   1      44.845  25.403  31.045  1.00  0.00    -0.497 OA
ATOM     28  C   UNL A   1      45.830  26.238  30.448  1.00  0.00     0.278 C 
ENDBRANCH  22  27
ENDBRANCH  17  21
BRANCH  19  29
ATOM     29  C   UNL A   1      39.451  28.958  28.586  1.00  0.00    -0.002 A 
ATOM     30  C   UNL A   1      39.975  30.085  29.230  1.00  0.00     0.011 A 
ATOM     31  C   UNL A   1      38.074  28.812  28.407  1.00  0.00     0.011 A 
ATOM     32  C   UNL A   1      39.113  31.084  29.688  1.00  0.00     0.021 A 
ATOM     33  C   UNL A   1      37.209  29.797  28.889  1.00  0.00     0.021 A 
ATOM     34  C   UNL A   1      37.733  30.927  29.527  1.00  0.00     0.067 A 
BRANCH  34  35
ATOM     35  S   UNL A   1      36.637  32.197  30.120  1.00  0.00     0.175 S 
ATOM     36  C   UNL A   1      37.562  33.024  31.387  1.00  0.00     0.163 C 
ATOM     37  O   UNL A   1      36.430  33.122  29.023  1.00  0.00    -0.224 OA
ATOM     38  O   UNL A   1      35.513  31.541  30.764  1.00  0.00    -0.224 OA
ENDBRANCH  34  35
ENDBRANCH  19  29
ENDBRANCH  11  16
ENDBRANCH   8  10
ENDBRANCH   7   8
ENDBRANCH   6   7
ENDBRANCH   5   6
ENDBRANCH   4   5
ENDBRANCH   3   4
ENDBRANCH   2   3
ENDBRANCH   1   2
BRANCH   1  39
ATOM     39  C   UNL A   1      50.115  23.797  33.157  1.00  0.00     0.188 C 
BRANCH  39  40
ATOM     40  C   UNL A   1      49.817  23.428  34.629  1.00  0.00     0.188 C 
BRANCH  40  41
ATOM     41  O   UNL A   1      49.711  22.038  34.882  1.00  0.00    -0.376 OA
BRANCH  41  42
ATOM     42  C   UNL A   1      48.777  21.618  35.859  1.00  0.00     0.202 C 
BRANCH  42  43
ATOM     43  C   UNL A   1      48.286  22.662  36.872  1.00  0.00     0.261 C 
BRANCH  43  44
ATOM     44  O   UNL A   1      47.067  23.343  36.547  1.00  0.00    -0.460 OA
BRANCH  44  45
ATOM     45  C   UNL A   1      46.765  24.456  37.257  1.00  0.00     0.338 C 
ATOM     46  O   UNL A   1      46.700  24.561  38.461  1.00  0.00    -0.246 OA
BRANCH  45  47
ATOM     47  C   UNL A   1      46.713  25.583  36.297  1.00  0.00     0.060 A 
ATOM     48  C   UNL A   1      47.028  26.874  36.741  1.00  0.00     0.016 A 
ATOM     49  C   UNL A   1      46.379  25.354  34.961  1.00  0.00     0.016 A 
ATOM     50  C   UNL A   1      46.981  27.948  35.850  1.00  0.00     0.010 A 
ATOM     51  C   UNL A   1      46.311  26.433  34.076  1.00  0.00     0.010 A 
ATOM     52  C   UNL A   1      46.579  27.738  34.525  1.00  0.00    -0.014 A 
BRANCH  52  53
ATOM     53  C   UNL A   1      46.255  28.895  33.657  1.00  0.00     0.031 A 
ATOM     54  C   UNL A   1      44.845  29.422  33.670  1.00  0.00     0.074 A 
ATOM     55  C   UNL A   1      47.183  29.464  32.868  1.00  0.00     0.049 A 
ATOM     56  N   UNL A   1      44.311  30.382  32.962  1.00  0.00    -0.248 NA
ATOM     57  C   UNL A   1      43.911  28.770  34.604  1.00  0.00     0.031 C 
ATOM     58  C   UNL A   1      48.583  29.054  32.775  1.00  0.00     0.029 A 
ATOM     59  N   UNL A   1      47.073  30.497  31.968  1.00  0.00    -0.354 N 
ATOM     60  C   UNL A   1      42.975  30.429  33.340  1.00  0.00     0.074 A 
ATOM     61  C   UNL A   1      42.776  29.395  34.331  1.00  0.00     0.031 C 
ATOM     62  C   UNL A   1      49.196  29.806  31.844  1.00  0.00     0.029 A 
ATOM     63  C   UNL A   1      48.226  30.728  31.255  1.00  0.00     0.049 A 
ATOM     64  H   UNL A   1      46.249  31.020  31.846  1.00  0.00     0.167 HD
ATOM     65  C   UNL A   1      42.002  31.265  32.908  1.00  0.00     0.034 A 
ATOM     66  C   UNL A   1      48.460  31.567  30.225  1.00  0.00     0.034 A 
ATOM     67  C   UNL A   1      42.204  32.297  31.928  1.00  0.00     0.049 A 
ATOM     68  C   UNL A   1      47.348  32.462  29.736  1.00  0.00     0.074 A 
ATOM     69  C   UNL A   1      41.292  33.225  31.458  1.00  0.00     0.029 A 
ATOM     70  N   UNL A   1      43.392  32.524  31.253  1.00  0.00    -0.354 N 
ATOM     71  N   UNL A   1      46.118  32.574  30.178  1.00  0.00    -0.248 NA
ATOM     72  C   UNL A   1      47.666  33.371  28.624  1.00  0.00     0.031 C 
ATOM     73  C   UNL A   1      41.917  33.986  30.466  1.00  0.00     0.029 A 
ATOM     74  C   UNL A   1      43.233  33.566  30.355  1.00  0.00     0.049 A 
ATOM     75  H   UNL A   1      44.226  32.020  31.392  1.00  0.00     0.167 HD
ATOM     76  C   UNL A   1      45.531  33.589  29.429  1.00  0.00     0.074 A 
ATOM     77  C   UNL A   1      46.546  34.073  28.516  1.00  0.00     0.031 C 
ATOM     78  C   UNL A   1      44.265  34.072  29.486  1.00  0.00     0.034 A 
BRANCH  65  79
ATOM     79  C   UNL A   1      40.626  31.098  33.498  1.00  0.00     0.023 A 
ATOM     80  C   UNL A   1      39.725  30.171  32.934  1.00  0.00     0.012 A 
ATOM     81  C   UNL A   1      40.243  31.827  34.641  1.00  0.00     0.148 A 
ATOM     82  C   UNL A   1      38.453  29.997  33.478  1.00  0.00     0.002 A 
ATOM     83  C   UNL A   1      38.993  31.612  35.207  1.00  0.00     0.091 A 
ATOM     84  F   UNL A   1      41.104  32.720  35.148  1.00  0.00    -0.205 F 
ATOM     85  C   UNL A   1      38.091  30.709  34.619  1.00  0.00     0.022 A 
BRANCH  83  86
ATOM     86  S   UNL A   1      38.464  32.418  36.722  1.00  0.00     0.127 S 
ATOM     87  O   UNL A   1      39.627  32.217  37.585  1.00  0.00    -0.237 OA
ATOM     88  O   UNL A   1      38.263  33.798  36.280  1.00  0.00    -0.237 OA
ATOM     89  O   UNL A   1      37.251  31.730  37.142  1.00  0.00    -0.744 OA
ENDBRANCH  83  86
ENDBRANCH  65  79
BRANCH  66  90
ATOM     90  C   UNL A   1      49.808  31.617  29.590  1.00  0.00     0.023 A 
ATOM     91  C   UNL A   1      50.811  32.435  30.145  1.00  0.00     0.012 A 
ATOM     92  C   UNL A   1      50.100  30.859  28.439  1.00  0.00     0.148 A 
ATOM     93  C   UNL A   1      52.069  32.525  29.546  1.00  0.00     0.002 A 
ATOM     94  C   UNL A   1      51.371  30.907  27.881  1.00  0.00     0.091 A 
ATOM     95  F   UNL A   1      49.127  30.099  27.917  1.00  0.00    -0.205 F 
ATOM     96  C   UNL A   1      52.352  31.755  28.420  1.00  0.00     0.022 A 
BRANCH  94  97
ATOM     97  S   UNL A   1      51.865  29.861  26.507  1.00  0.00     0.127 S 
ATOM     98  O   UNL A   1      53.089  30.517  26.055  1.00  0.00    -0.237 OA
ATOM     99  O   UNL A   1      52.063  28.572  27.169  1.00  0.00    -0.237 OA
ATOM    100  O   UNL A   1      50.752  29.889  25.568  1.00  0.00    -0.744 OA
ENDBRANCH  94  97
ENDBRANCH  66  90
BRANCH  78 101
ATOM    101  C   UNL A   1      43.907  35.220  28.575  1.00  0.00     0.023 A 
ATOM    102  C   UNL A   1      43.319  34.973  27.319  1.00  0.00     0.012 A 
ATOM    103  C   UNL A   1      44.084  36.551  29.004  1.00  0.00     0.148 A 
ATOM    104  C   UNL A   1      42.949  36.031  26.490  1.00  0.00     0.002 A 
ATOM    105  C   UNL A   1      43.663  37.599  28.196  1.00  0.00     0.091 A 
ATOM    106  F   UNL A   1      44.657  36.768  30.197  1.00  0.00    -0.205 F 
ATOM    107  C   UNL A   1      43.109  37.341  26.932  1.00  0.00     0.022 A 
BRANCH 105 108
ATOM    108  S   UNL A   1      43.736  39.316  28.724  1.00  0.00     0.127 S 
ATOM    109  O   UNL A   1      45.133  39.650  28.455  1.00  0.00    -0.237 OA
ATOM    110  O   UNL A   1      42.772  39.956  27.827  1.00  0.00    -0.237 OA
ATOM    111  O   UNL A   1      43.353  39.323  30.129  1.00  0.00    -0.744 OA
ENDBRANCH 105 108
ENDBRANCH  78 101
ENDBRANCH  52  53
ENDBRANCH  45  47
ENDBRANCH  44  45
ENDBRANCH  43  44
ENDBRANCH  42  43
ENDBRANCH  41  42
ENDBRANCH  40  41
ENDBRANCH  39  40
ENDBRANCH   1  39
TORSDOF 28
ENDMDL
MODEL 2
REMARK VINA RESULT:      -6.1      8.264     12.116
REMARK SMILES COc1cccc([C@H]2CC(c3ccc(S(C)(=O)=O)cc3)=NN2c2ccc(C(=O)OCCOCCOCCOCCOC(=O)c3ccc(-c4c5nc(c(-c6cccc(S(=O)(=O)[O-])c6F)c6ccc([nH]6)c(-c6cccc(S(=O)(=O)[O-])c6F)c6nc(c(-c7cccc(S(=O)(=O)[O-])c7F)c7ccc4[nH]7)C=C6)C=C5)cc3)cc2)c1
REMARK SMILES IDX 35 1 34 2 33 3 32 4 31 5 30 6 29 7 27 8 28 9 26 10 23 11
REMARK SMILES IDX 24 12 108 13 25 14 107 15 22 16 8 17 9 18 10 19 21 20 7 21
REMARK SMILES IDX 3 22 4 23 109 24 5 25 6 26 2 27 1 28 11 29 12 30 20 31 13 32
REMARK SMILES IDX 19 33 14 34 15 35 16 36 17 37 18 38 36 39 37 40 38 41 39 42
REMARK SMILES IDX 40 43 41 44 42 45 43 46 44 47 45 48 106 49 46 50 105 51
REMARK SMILES IDX 47 52 48 53 49 54 99 55 50 56 104 57 98 58 100 59 51 60
REMARK SMILES IDX 103 61 97 62 96 63 52 65 84 66 64 67 83 68 65 69 68 70 82 71
REMARK SMILES IDX 101 72 66 73 67 74 81 76 102 77 69 78 53 79 54 80 62 81
REMARK SMILES IDX 55 82 57 83 63 84 56 85 58 86 59 87 60 88 61 89 85 90 86 91
REMARK SMILES IDX 94 92 87 93 89 94 95 95 88 96 90 97 91 98 92 99 93 100
REMARK SMILES IDX 70 101 71 102 79 103 72 104 74 105 80 106 73 107 75 108
REMARK SMILES IDX 76 109 77 110 78 111
REMARK H PARENT 100 64 68 75
REMARK Flexibility Score: inf
ROOT
ATOM      1  O   UNL A   1      42.327  27.812  27.083  1.00  0.00    -0.377 OA
ENDROOT
BRANCH   1   2
ATOM      2  C   UNL A   1      42.109  26.482  27.527  1.00  0.00     0.188 C 
BRANCH   2   3
ATOM      3  C   UNL A   1      43.296  25.626  28.019  1.00  0.00     0.188 C 
BRANCH   3   4
ATOM      4  O   UNL A   1      42.982  24.267  28.262  1.00  0.00    -0.376 OA
BRANCH   4   5
ATOM      5  C   UNL A   1      41.974  23.637  27.497  1.00  0.00     0.202 C 
BRANCH   5   6
ATOM      6  C   UNL A   1      41.243  22.410  28.063  1.00  0.00     0.261 C 
BRANCH   6   7
ATOM      7  O   UNL A   1      39.943  22.146  27.529  1.00  0.00    -0.460 OA
BRANCH   7   8
ATOM      8  C   UNL A   1      39.876  21.759  26.238  1.00  0.00     0.338 C 
ATOM      9  O   UNL A   1      40.693  21.087  25.633  1.00  0.00    -0.246 OA
BRANCH   8  10
ATOM     10  C   UNL A   1      38.529  22.106  25.729  1.00  0.00     0.060 A 
ATOM     11  C   UNL A   1      35.999  22.721  24.674  1.00  0.00     0.060 A 
ATOM     12  C   UNL A   1      36.581  21.469  24.438  1.00  0.00     0.029 A 
ATOM     13  C   UNL A   1      36.660  23.617  25.529  1.00  0.00     0.029 A 
ATOM     14  C   UNL A   1      37.854  21.174  24.931  1.00  0.00     0.018 A 
ATOM     15  C   UNL A   1      37.909  23.310  26.072  1.00  0.00     0.018 A 
BRANCH  11  16
ATOM     16  N   UNL A   1      34.867  23.127  23.969  1.00  0.00    -0.257 N 
ATOM     17  C   UNL A   1      33.974  22.126  23.370  1.00  0.00     0.144 C 
ATOM     18  C   UNL A   1      32.765  22.964  22.953  1.00  0.00     0.091 C 
ATOM     19  C   UNL A   1      33.145  24.293  23.548  1.00  0.00     0.071 C 
ATOM     20  N   UNL A   1      34.298  24.352  24.139  1.00  0.00    -0.176 NA
BRANCH  17  21
ATOM     21  C   UNL A   1      33.621  21.002  24.342  1.00  0.00    -0.019 A 
ATOM     22  C   UNL A   1      32.955  18.700  24.811  1.00  0.00     0.119 A 
ATOM     23  C   UNL A   1      32.814  19.018  26.161  1.00  0.00     0.046 A 
ATOM     24  C   UNL A   1      33.339  19.692  23.904  1.00  0.00     0.052 A 
ATOM     25  C   UNL A   1      33.082  20.308  26.612  1.00  0.00     0.004 A 
ATOM     26  C   UNL A   1      33.485  21.293  25.710  1.00  0.00     0.006 A 
BRANCH  22  27
ATOM     27  O   UNL A   1      32.626  17.415  24.475  1.00  0.00    -0.497 OA
ATOM     28  C   UNL A   1      33.612  16.437  24.780  1.00  0.00     0.278 C 
ENDBRANCH  22  27
ENDBRANCH  17  21
BRANCH  19  29
ATOM     29  C   UNL A   1      32.256  25.452  23.392  1.00  0.00    -0.002 A 
ATOM     30  C   UNL A   1      32.126  26.035  22.126  1.00  0.00     0.011 A 
ATOM     31  C   UNL A   1      31.530  25.938  24.482  1.00  0.00     0.011 A 
ATOM     32  C   UNL A   1      31.249  27.107  21.944  1.00  0.00     0.021 A 
ATOM     33  C   UNL A   1      30.673  27.027  24.307  1.00  0.00     0.021 A 
ATOM     34  C   UNL A   1      30.538  27.606  23.040  1.00  0.00     0.067 A 
BRANCH  34  35
ATOM     35  S   UNL A   1      29.429  28.977  22.808  1.00  0.00     0.175 S 
ATOM     36  C   UNL A   1      30.010  30.213  23.938  1.00  0.00     0.163 C 
ATOM     37  O   UNL A   1      29.630  29.458  21.456  1.00  0.00    -0.224 OA
ATOM     38  O   UNL A   1      28.114  28.560  23.262  1.00  0.00    -0.224 OA
ENDBRANCH  34  35
ENDBRANCH  19  29
ENDBRANCH  11  16
ENDBRANCH   8  10
ENDBRANCH   7   8
ENDBRANCH   6   7
ENDBRANCH   5   6
ENDBRANCH   4   5
ENDBRANCH   3   4
ENDBRANCH   2   3
ENDBRANCH   1   2
BRANCH   1  39
ATOM     39  C   UNL A   1      41.632  28.899  27.684  1.00  0.00     0.188 C 
BRANCH  39  40
ATOM     40  C   UNL A   1      42.354  29.882  28.635  1.00  0.00     0.188 C 
BRANCH  40  41
ATOM     41  O   UNL A   1      43.684  29.520  28.965  1.00  0.00    -0.376 OA
BRANCH  41  42
ATOM     42  C   UNL A   1      44.458  30.454  29.695  1.00  0.00     0.202 C 
BRANCH  42  43
ATOM     43  C   UNL A   1      44.683  31.837  29.067  1.00  0.00     0.261 C 
BRANCH  43  44
ATOM     44  O   UNL A   1      45.221  32.849  29.928  1.00  0.00    -0.460 OA
BRANCH  44  45
ATOM     45  C   UNL A   1      44.374  33.806  30.374  1.00  0.00     0.338 C 
ATOM     46  O   UNL A   1      43.440  33.663  31.131  1.00  0.00    -0.246 OA
BRANCH  45  47
ATOM     47  C   UNL A   1      44.911  35.109  29.919  1.00  0.00     0.060 A 
ATOM     48  C   UNL A   1      46.124  35.141  29.218  1.00  0.00     0.016 A 
ATOM     49  C   UNL A   1      44.203  36.287  30.165  1.00  0.00     0.016 A 
ATOM     50  C   UNL A   1      46.647  36.361  28.785  1.00  0.00     0.010 A 
ATOM     51  C   UNL A   1      44.739  37.508  29.751  1.00  0.00     0.010 A 
ATOM     52  C   UNL A   1      45.978  37.554  29.089  1.00  0.00    -0.014 A 
BRANCH  52  53
ATOM     53  C   UNL A   1      46.657  38.856  28.886  1.00  0.00     0.031 A 
ATOM     54  C   UNL A   1      47.421  39.448  30.039  1.00  0.00     0.074 A 
ATOM     55  C   UNL A   1      46.594  39.507  27.711  1.00  0.00     0.049 A 
ATOM     56  N   UNL A   1      48.047  40.592  30.121  1.00  0.00    -0.248 NA
ATOM     57  C   UNL A   1      47.479  38.639  31.269  1.00  0.00     0.031 C 
ATOM     58  C   UNL A   1      45.896  39.033  26.517  1.00  0.00     0.029 A 
ATOM     59  N   UNL A   1      47.104  40.728  27.342  1.00  0.00    -0.354 N 
ATOM     60  C   UNL A   1      48.545  40.657  31.417  1.00  0.00     0.074 A 
ATOM     61  C   UNL A   1      48.141  39.442  32.089  1.00  0.00     0.031 C 
ATOM     62  C   UNL A   1      45.995  39.968  25.555  1.00  0.00     0.029 A 
ATOM     63  C   UNL A   1      46.735  41.118  26.076  1.00  0.00     0.049 A 
ATOM     64  H   UNL A   1      47.679  41.271  27.928  1.00  0.00     0.167 HD
ATOM     65  C   UNL A   1      49.281  41.635  31.993  1.00  0.00     0.034 A 
ATOM     66  C   UNL A   1      46.945  42.281  25.426  1.00  0.00     0.034 A 
ATOM     67  C   UNL A   1      49.689  42.838  31.320  1.00  0.00     0.049 A 
ATOM     68  C   UNL A   1      47.737  43.371  26.104  1.00  0.00     0.074 A 
ATOM     69  C   UNL A   1      50.475  43.868  31.803  1.00  0.00     0.029 A 
ATOM     70  N   UNL A   1      49.325  43.182  30.028  1.00  0.00    -0.354 N 
ATOM     71  N   UNL A   1      48.298  43.374  27.290  1.00  0.00    -0.248 NA
ATOM     72  C   UNL A   1      47.953  44.609  25.340  1.00  0.00     0.031 C 
ATOM     73  C   UNL A   1      50.551  44.857  30.818  1.00  0.00     0.029 A 
ATOM     74  C   UNL A   1      49.856  44.420  29.702  1.00  0.00     0.049 A 
ATOM     75  H   UNL A   1      48.773  42.629  29.430  1.00  0.00     0.167 HD
ATOM     76  C   UNL A   1      48.963  44.591  27.397  1.00  0.00     0.074 A 
ATOM     77  C   UNL A   1      48.752  45.293  26.148  1.00  0.00     0.031 C 
ATOM     78  C   UNL A   1      49.679  45.086  28.438  1.00  0.00     0.034 A 
BRANCH  65  79
ATOM     79  C   UNL A   1      49.699  41.442  33.427  1.00  0.00     0.023 A 
ATOM     80  C   UNL A   1      50.916  40.797  33.726  1.00  0.00     0.012 A 
ATOM     81  C   UNL A   1      48.906  41.944  34.478  1.00  0.00     0.148 A 
ATOM     82  C   UNL A   1      51.321  40.622  35.049  1.00  0.00     0.002 A 
ATOM     83  C   UNL A   1      49.339  41.811  35.791  1.00  0.00     0.091 A 
ATOM     84  F   UNL A   1      47.741  42.533  34.174  1.00  0.00    -0.205 F 
ATOM     85  C   UNL A   1      50.538  41.138  36.079  1.00  0.00     0.022 A 
BRANCH  83  86
ATOM     86  S   UNL A   1      48.446  42.512  37.181  1.00  0.00     0.127 S 
ATOM     87  O   UNL A   1      48.631  43.946  36.959  1.00  0.00    -0.237 OA
ATOM     88  O   UNL A   1      47.085  42.029  36.946  1.00  0.00    -0.237 OA
ATOM     89  O   UNL A   1      49.082  41.980  38.379  1.00  0.00    -0.744 OA
ENDBRANCH  83  86
ENDBRANCH  65  79
BRANCH  66  90
ATOM     90  C   UNL A   1      46.412  42.475  24.047  1.00  0.00     0.023 A 
ATOM     91  C   UNL A   1      47.276  42.355  22.941  1.00  0.00     0.012 A 
ATOM     92  C   UNL A   1      45.055  42.780  23.827  1.00  0.00     0.148 A 
ATOM     93  C   UNL A   1      46.805  42.570  21.645  1.00  0.00     0.002 A 
ATOM     94  C   UNL A   1      44.580  42.935  22.531  1.00  0.00     0.091 A 
ATOM     95  F   UNL A   1      44.252  42.906  24.894  1.00  0.00    -0.205 F 
ATOM     96  C   UNL A   1      45.457  42.850  21.439  1.00  0.00     0.022 A 
BRANCH  94  97
ATOM     97  S   UNL A   1      42.839  43.177  22.161  1.00  0.00     0.127 S 
ATOM     98  O   UNL A   1      42.294  41.842  22.395  1.00  0.00    -0.237 OA
ATOM     99  O   UNL A   1      42.458  44.182  23.155  1.00  0.00    -0.237 OA
ATOM    100  O   UNL A   1      42.788  43.645  20.783  1.00  0.00    -0.744 OA
ENDBRANCH  94  97
ENDBRANCH  66  90
BRANCH  78 101
ATOM    101  C   UNL A   1      50.338  46.432  28.263  1.00  0.00     0.023 A 
ATOM    102  C   UNL A   1      51.710  46.517  27.958  1.00  0.00     0.012 A 
ATOM    103  C   UNL A   1      49.571  47.614  28.325  1.00  0.00     0.148 A 
ATOM    104  C   UNL A   1      52.316  47.756  27.756  1.00  0.00     0.002 A 
ATOM    105  C   UNL A   1      50.169  48.840  28.068  1.00  0.00     0.091 A 
ATOM    106  F   UNL A   1      48.268  47.515  28.629  1.00  0.00    -0.205 F 
ATOM    107  C   UNL A   1      51.545  48.915  27.798  1.00  0.00     0.022 A 
BRANCH 105 108
ATOM    108  S   UNL A   1      49.237  50.376  28.001  1.00  0.00     0.127 S 
ATOM    109  O   UNL A   1      48.855  50.553  29.402  1.00  0.00    -0.237 OA
ATOM    110  O   UNL A   1      50.240  51.325  27.518  1.00  0.00    -0.237 OA
ATOM    111  O   UNL A   1      48.134  50.138  27.080  1.00  0.00    -0.744 OA
ENDBRANCH 105 108
ENDBRANCH  78 101
ENDBRANCH  52  53
ENDBRANCH  45  47
ENDBRANCH  44  45
ENDBRANCH  43  44
ENDBRANCH  42  43
ENDBRANCH  41  42
ENDBRANCH  40  41
ENDBRANCH  39  40
ENDBRANCH   1  39
TORSDOF 28
ENDMDL
MODEL 3
REMARK VINA RESULT:      -6.0      4.512      8.711
REMARK SMILES COc1cccc([C@H]2CC(c3ccc(S(C)(=O)=O)cc3)=NN2c2ccc(C(=O)OCCOCCOCCOCCOC(=O)c3ccc(-c4c5nc(c(-c6cccc(S(=O)(=O)[O-])c6F)c6ccc([nH]6)c(-c6cccc(S(=O)(=O)[O-])c6F)c6nc(c(-c7cccc(S(=O)(=O)[O-])c7F)c7ccc4[nH]7)C=C6)C=C5)cc3)cc2)c1
REMARK SMILES IDX 35 1 34 2 33 3 32 4 31 5 30 6 29 7 27 8 28 9 26 10 23 11
REMARK SMILES IDX 24 12 108 13 25 14 107 15 22 16 8 17 9 18 10 19 21 20 7 21
REMARK SMILES IDX 3 22 4 23 109 24 5 25 6 26 2 27 1 28 11 29 12 30 20 31 13 32
REMARK SMILES IDX 19 33 14 34 15 35 16 36 17 37 18 38 36 39 37 40 38 41 39 42
REMARK SMILES IDX 40 43 41 44 42 45 43 46 44 47 45 48 106 49 46 50 105 51
REMARK SMILES IDX 47 52 48 53 49 54 99 55 50 56 104 57 98 58 100 59 51 60
REMARK SMILES IDX 103 61 97 62 96 63 52 65 84 66 64 67 83 68 65 69 68 70 82 71
REMARK SMILES IDX 101 72 66 73 67 74 81 76 102 77 69 78 53 79 54 80 62 81
REMARK SMILES IDX 55 82 57 83 63 84 56 85 58 86 59 87 60 88 61 89 85 90 86 91
REMARK SMILES IDX 94 92 87 93 89 94 95 95 88 96 90 97 91 98 92 99 93 100
REMARK SMILES IDX 70 101 71 102 79 103 72 104 74 105 80 106 73 107 75 108
REMARK SMILES IDX 76 109 77 110 78 111
REMARK H PARENT 100 64 68 75
REMARK Flexibility Score: inf
ROOT
ATOM      1  O   UNL A   1      41.843  23.832  27.219  1.00  0.00    -0.377 OA
ENDROOT
BRANCH   1   2
ATOM      2  C   UNL A   1      41.242  25.113  27.098  1.00  0.00     0.188 C 
BRANCH   2   3
ATOM      3  C   UNL A   1      40.479  25.725  28.294  1.00  0.00     0.188 C 
BRANCH   3   4
ATOM      4  O   UNL A   1      39.914  26.997  28.042  1.00  0.00    -0.376 OA
BRANCH   4   5
ATOM      5  C   UNL A   1      39.597  27.848  29.126  1.00  0.00     0.202 C 
BRANCH   5   6
ATOM      6  C   UNL A   1      39.795  29.365  28.988  1.00  0.00     0.261 C 
BRANCH   6   7
ATOM      7  O   UNL A   1      40.551  30.000  30.022  1.00  0.00    -0.460 OA
BRANCH   7   8
ATOM      8  C   UNL A   1      39.911  30.922  30.773  1.00  0.00     0.338 C 
ATOM      9  O   UNL A   1      38.895  30.756  31.424  1.00  0.00    -0.246 OA
BRANCH   8  10
ATOM     10  C   UNL A   1      40.776  32.122  30.852  1.00  0.00     0.060 A 
ATOM     11  C   UNL A   1      42.482  34.344  31.057  1.00  0.00     0.060 A 
ATOM     12  C   UNL A   1      43.003  33.072  30.788  1.00  0.00     0.029 A 
ATOM     13  C   UNL A   1      41.088  34.498  31.119  1.00  0.00     0.029 A 
ATOM     14  C   UNL A   1      42.160  31.960  30.722  1.00  0.00     0.018 A 
ATOM     15  C   UNL A   1      40.233  33.401  31.000  1.00  0.00     0.018 A 
BRANCH  11  16
ATOM     16  N   UNL A   1      43.323  35.404  31.396  1.00  0.00    -0.257 N 
ATOM     17  C   UNL A   1      44.270  35.936  30.407  1.00  0.00     0.144 C 
ATOM     18  C   UNL A   1      44.771  37.215  31.081  1.00  0.00     0.091 C 
ATOM     19  C   UNL A   1      43.876  37.246  32.290  1.00  0.00     0.071 C 
ATOM     20  N   UNL A   1      43.054  36.252  32.426  1.00  0.00    -0.176 NA
BRANCH  17  21
ATOM     21  C   UNL A   1      43.617  36.189  29.050  1.00  0.00    -0.019 A 
ATOM     22  C   UNL A   1      43.255  35.617  26.703  1.00  0.00     0.119 A 
ATOM     23  C   UNL A   1      42.526  36.793  26.532  1.00  0.00     0.046 A 
ATOM     24  C   UNL A   1      43.813  35.326  27.952  1.00  0.00     0.052 A 
ATOM     25  C   UNL A   1      42.328  37.661  27.603  1.00  0.00     0.004 A 
ATOM     26  C   UNL A   1      42.867  37.360  28.854  1.00  0.00     0.006 A 
BRANCH  22  27
ATOM     27  O   UNL A   1      43.421  34.861  25.575  1.00  0.00    -0.497 OA
ATOM     28  C   UNL A   1      44.719  34.307  25.401  1.00  0.00     0.278 C 
ENDBRANCH  22  27
ENDBRANCH  17  21
BRANCH  19  29
ATOM     29  C   UNL A   1      44.000  38.332  33.272  1.00  0.00    -0.002 A 
ATOM     30  C   UNL A   1      44.436  38.022  34.565  1.00  0.00     0.011 A 
ATOM     31  C   UNL A   1      43.721  39.650  32.907  1.00  0.00     0.011 A 
ATOM     32  C   UNL A   1      44.609  39.045  35.501  1.00  0.00     0.021 A 
ATOM     33  C   UNL A   1      43.867  40.671  33.849  1.00  0.00     0.021 A 
ATOM     34  C   UNL A   1      44.309  40.363  35.141  1.00  0.00     0.067 A 
BRANCH  34  35
ATOM     35  S   UNL A   1      44.522  41.662  36.337  1.00  0.00     0.175 S 
ATOM     36  C   UNL A   1      46.279  41.838  36.493  1.00  0.00     0.163 C 
ATOM     37  O   UNL A   1      43.989  42.873  35.744  1.00  0.00    -0.224 OA
ATOM     38  O   UNL A   1      44.022  41.173  37.610  1.00  0.00    -0.224 OA
ENDBRANCH  34  35
ENDBRANCH  19  29
ENDBRANCH  11  16
ENDBRANCH   8  10
ENDBRANCH   7   8
ENDBRANCH   6   7
ENDBRANCH   5   6
ENDBRANCH   4   5
ENDBRANCH   3   4
ENDBRANCH   2   3
ENDBRANCH   1   2
BRANCH   1  39
ATOM     39  C   UNL A   1      41.714  22.871  26.178  1.00  0.00     0.188 C 
BRANCH  39  40
ATOM     40  C   UNL A   1      42.946  22.112  25.632  1.00  0.00     0.188 C 
BRANCH  40  41
ATOM     41  O   UNL A   1      44.185  22.774  25.826  1.00  0.00    -0.376 OA
BRANCH  41  42
ATOM     42  C   UNL A   1      44.612  23.676  24.822  1.00  0.00     0.202 C 
BRANCH  42  43
ATOM     43  C   UNL A   1      45.285  24.979  25.274  1.00  0.00     0.261 C 
BRANCH  43  44
ATOM     44  O   UNL A   1      44.532  25.810  26.169  1.00  0.00    -0.460 OA
BRANCH  44  45
ATOM     45  C   UNL A   1      44.861  25.773  27.482  1.00  0.00     0.338 C 
ATOM     46  O   UNL A   1      44.895  24.800  28.201  1.00  0.00    -0.246 OA
BRANCH  45  47
ATOM     47  C   UNL A   1      45.363  27.119  27.841  1.00  0.00     0.060 A 
ATOM     48  C   UNL A   1      46.673  27.254  28.322  1.00  0.00     0.016 A 
ATOM     49  C   UNL A   1      44.548  28.241  27.678  1.00  0.00     0.016 A 
ATOM     50  C   UNL A   1      47.161  28.516  28.668  1.00  0.00     0.010 A 
ATOM     51  C   UNL A   1      45.031  29.499  28.046  1.00  0.00     0.010 A 
ATOM     52  C   UNL A   1      46.326  29.637  28.574  1.00  0.00    -0.014 A 
BRANCH  52  53
ATOM     53  C   UNL A   1      46.734  30.918  29.199  1.00  0.00     0.031 A 
ATOM     54  C   UNL A   1      46.299  31.190  30.613  1.00  0.00     0.074 A 
ATOM     55  C   UNL A   1      47.466  31.825  28.529  1.00  0.00     0.049 A 
ATOM     56  N   UNL A   1      46.484  32.255  31.348  1.00  0.00    -0.248 NA
ATOM     57  C   UNL A   1      45.546  30.117  31.285  1.00  0.00     0.031 C 
ATOM     58  C   UNL A   1      47.958  31.674  27.161  1.00  0.00     0.029 A 
ATOM     59  N   UNL A   1      47.897  33.074  28.906  1.00  0.00    -0.354 N 
ATOM     60  C   UNL A   1      45.845  31.994  32.555  1.00  0.00     0.074 A 
ATOM     61  C   UNL A   1      45.259  30.676  32.450  1.00  0.00     0.031 C 
ATOM     62  C   UNL A   1      48.598  32.801  26.801  1.00  0.00     0.029 A 
ATOM     63  C   UNL A   1      48.533  33.763  27.901  1.00  0.00     0.049 A 
ATOM     64  H   UNL A   1      47.764  33.440  29.811  1.00  0.00     0.167 HD
ATOM     65  C   UNL A   1      45.762  32.778  33.655  1.00  0.00     0.034 A 
ATOM     66  C   UNL A   1      48.982  35.034  27.864  1.00  0.00     0.034 A 
ATOM     67  C   UNL A   1      46.353  34.084  33.760  1.00  0.00     0.049 A 
ATOM     68  C   UNL A   1      48.845  35.901  29.092  1.00  0.00     0.074 A 
ATOM     69  C   UNL A   1      46.364  34.937  34.849  1.00  0.00     0.029 A 
ATOM     70  N   UNL A   1      47.018  34.735  32.733  1.00  0.00    -0.354 N 
ATOM     71  N   UNL A   1      48.337  35.603  30.264  1.00  0.00    -0.248 NA
ATOM     72  C   UNL A   1      49.372  37.271  29.002  1.00  0.00     0.031 C 
ATOM     73  C   UNL A   1      46.998  36.122  34.467  1.00  0.00     0.029 A 
ATOM     74  C   UNL A   1      47.428  35.988  33.157  1.00  0.00     0.049 A 
ATOM     75  H   UNL A   1      47.177  34.361  31.837  1.00  0.00     0.167 HD
ATOM     76  C   UNL A   1      48.519  36.730  31.059  1.00  0.00     0.074 A 
ATOM     77  C   UNL A   1      49.201  37.711  30.241  1.00  0.00     0.031 C 
ATOM     78  C   UNL A   1      48.149  36.937  32.348  1.00  0.00     0.034 A 
BRANCH  65  79
ATOM     79  C   UNL A   1      45.005  32.238  34.840  1.00  0.00     0.023 A 
ATOM     80  C   UNL A   1      45.646  31.376  35.753  1.00  0.00     0.012 A 
ATOM     81  C   UNL A   1      43.671  32.626  35.075  1.00  0.00     0.148 A 
ATOM     82  C   UNL A   1      44.961  30.879  36.861  1.00  0.00     0.002 A 
ATOM     83  C   UNL A   1      43.011  32.167  36.208  1.00  0.00     0.091 A 
ATOM     84  F   UNL A   1      43.072  33.428  34.184  1.00  0.00    -0.205 F 
ATOM     85  C   UNL A   1      43.649  31.283  37.094  1.00  0.00     0.022 A 
BRANCH  83  86
ATOM     86  S   UNL A   1      41.350  32.693  36.641  1.00  0.00     0.127 S 
ATOM     87  O   UNL A   1      41.106  31.927  37.862  1.00  0.00    -0.237 OA
ATOM     88  O   UNL A   1      41.529  34.131  36.848  1.00  0.00    -0.237 OA
ATOM     89  O   UNL A   1      40.507  32.341  35.507  1.00  0.00    -0.744 OA
ENDBRANCH  83  86
ENDBRANCH  65  79
BRANCH  66  90
ATOM     90  C   UNL A   1      49.622  35.568  26.628  1.00  0.00     0.023 A 
ATOM     91  C   UNL A   1      48.840  36.244  25.673  1.00  0.00     0.012 A 
ATOM     92  C   UNL A   1      51.002  35.407  26.394  1.00  0.00     0.148 A 
ATOM     93  C   UNL A   1      49.412  36.719  24.491  1.00  0.00     0.002 A 
ATOM     94  C   UNL A   1      51.577  35.932  25.243  1.00  0.00     0.091 A 
ATOM     95  F   UNL A   1      51.727  34.746  27.308  1.00  0.00    -0.205 F 
ATOM     96  C   UNL A   1      50.781  36.571  24.280  1.00  0.00     0.022 A 
BRANCH  94  97
ATOM     97  S   UNL A   1      53.348  35.898  24.945  1.00  0.00     0.127 S 
ATOM     98  O   UNL A   1      53.444  36.552  23.642  1.00  0.00    -0.237 OA
ATOM     99  O   UNL A   1      53.856  36.685  26.069  1.00  0.00    -0.237 OA
ATOM    100  O   UNL A   1      53.727  34.493  24.973  1.00  0.00    -0.744 OA
ENDBRANCH  94  97
ENDBRANCH  66  90
BRANCH  78 101
ATOM    101  C   UNL A   1      48.517  38.255  32.983  1.00  0.00     0.023 A 
ATOM    102  C   UNL A   1      47.633  39.350  32.909  1.00  0.00     0.012 A 
ATOM    103  C   UNL A   1      49.710  38.381  33.723  1.00  0.00     0.148 A 
ATOM    104  C   UNL A   1      47.949  40.559  33.528  1.00  0.00     0.002 A 
ATOM    105  C   UNL A   1      49.992  39.570  34.383  1.00  0.00     0.091 A 
ATOM    106  F   UNL A   1      50.545  37.333  33.772  1.00  0.00    -0.205 F 
ATOM    107  C   UNL A   1      49.120  40.666  34.274  1.00  0.00     0.022 A 
BRANCH 105 108
ATOM    108  S   UNL A   1      51.425  39.768  35.449  1.00  0.00     0.127 S 
ATOM    109  O   UNL A   1      52.413  40.314  34.520  1.00  0.00    -0.237 OA
ATOM    110  O   UNL A   1      50.937  40.718  36.450  1.00  0.00    -0.237 OA
ATOM    111  O   UNL A   1      51.727  38.441  35.969  1.00  0.00    -0.744 OA
ENDBRANCH 105 108
ENDBRANCH  78 101
ENDBRANCH  52  53
ENDBRANCH  45  47
ENDBRANCH  44  45
ENDBRANCH  43  44
ENDBRANCH  42  43
ENDBRANCH  41  42
ENDBRANCH  40  41
ENDBRANCH  39  40
ENDBRANCH   1  39
TORSDOF 28
ENDMDL
