MODEL 1
REMARK VINA RESULT:      -9.0      0.000      0.000
REMARK SMILES C=CCN(CC(=O)OCCOCCOCCOCCOC(=O)c1ccc(-c2c3nc(c(-c4cccc(S(=O)(=O)[O-])c4F)c4ccc([nH]4)c(-c4cccc(S(=O)(=O)[O-])c4F)c4nc(c(-c5cccc(S(=O)(=O)[O-])c5F)c5ccc2[nH]5)C=C4)C=C3)cc1)C(=O)Nc1ccc(OC)cc1OC
REMARK SMILES IDX 13 1 12 2 11 3 10 4 9 5 8 6 6 7 7 8 5 9 4 10 3 11 2 12 1 13
REMARK SMILES IDX 86 14 87 15 88 16 89 18 90 19 96 20 91 21 95 22 92 23 97 24
REMARK SMILES IDX 98 25 93 26 94 27 14 28 15 29 16 30 17 31 18 32 19 33 20 34
REMARK SMILES IDX 21 35 22 36 23 37 24 38 85 39 25 40 84 41 26 42 27 43 28 44
REMARK SMILES IDX 78 45 29 46 83 47 77 48 79 49 30 50 82 51 76 52 75 53 31 55
REMARK SMILES IDX 63 56 43 57 62 58 44 59 47 60 61 61 80 62 45 63 46 64 60 66
REMARK SMILES IDX 81 67 48 68 32 69 33 70 41 71 34 72 36 73 42 74 35 75 37 76
REMARK SMILES IDX 38 77 39 78 40 79 64 80 65 81 73 82 66 83 68 84 74 85 67 86
REMARK SMILES IDX 69 87 70 88 71 89 72 90 49 91 50 92 58 93 51 94 53 95 59 96
REMARK SMILES IDX 52 97 54 98 55 99 56 100 57 101
REMARK H PARENT 88 17 79 54 47 65
REMARK Flexibility Score: inf
ROOT
ATOM      1  C   UNL A   1      28.709  31.971  21.732  1.00  0.00     0.188 C 
ENDROOT
BRANCH   1   2
ATOM      2  C   UNL A   1      27.974  30.636  21.808  1.00  0.00     0.188 C 
BRANCH   2   3
ATOM      3  O   UNL A   1      28.750  29.460  21.597  1.00  0.00    -0.376 OA
BRANCH   3   4
ATOM      4  C   UNL A   1      30.086  29.498  22.165  1.00  0.00     0.202 C 
BRANCH   4   5
ATOM      5  C   UNL A   1      30.331  28.601  23.422  1.00  0.00     0.261 C 
BRANCH   5   6
ATOM      6  O   UNL A   1      30.789  27.229  23.123  1.00  0.00    -0.462 OA
BRANCH   6   7
ATOM      7  C   UNL A   1      30.915  26.405  24.210  1.00  0.00     0.325 C 
ATOM      8  O   UNL A   1      30.386  26.683  25.291  1.00  0.00    -0.250 OA
BRANCH   7   9
ATOM      9  C   UNL A   1      31.658  24.998  24.062  1.00  0.00     0.244 C 
BRANCH   9  10
ATOM     10  N   UNL A   1      33.035  24.506  24.406  1.00  0.00    -0.310 N 
BRANCH  10  11
ATOM     11  C   UNL A   1      33.336  24.584  25.851  1.00  0.00     0.149 C 
BRANCH  11  12
ATOM     12  C   UNL A   1      32.317  23.908  26.732  1.00  0.00    -0.013 C 
ATOM     13  C   UNL A   1      32.490  22.693  27.276  1.00  0.00     0.006 C 
ENDBRANCH  11  12
ENDBRANCH  10  11
BRANCH  10  14
ATOM     14  C   UNL A   1      33.998  23.941  23.573  1.00  0.00     0.322 C 
ATOM     15  O   UNL A   1      34.542  24.555  22.644  1.00  0.00    -0.248 OA
ATOM     16  N   UNL A   1      34.496  22.685  23.659  1.00  0.00    -0.304 N 
ATOM     17  H   UNL A   1      35.389  22.611  23.252  1.00  0.00     0.172 HD
BRANCH  16  18
ATOM     18  C   UNL A   1      34.055  21.474  24.182  1.00  0.00     0.085 A 
ATOM     19  C   UNL A   1      32.746  21.058  23.920  1.00  0.00     0.034 A 
ATOM     20  C   UNL A   1      34.870  20.632  24.884  1.00  0.00     0.146 A 
ATOM     21  C   UNL A   1      32.395  19.711  24.082  1.00  0.00     0.049 A 
ATOM     22  C   UNL A   1      34.624  19.264  24.774  1.00  0.00     0.095 A 
ATOM     23  C   UNL A   1      33.379  18.784  24.399  1.00  0.00     0.122 A 
BRANCH  20  24
ATOM     24  O   UNL A   1      35.951  21.006  25.611  1.00  0.00    -0.494 OA
ATOM     25  C   UNL A   1      37.262  20.969  25.050  1.00  0.00     0.278 C 
ENDBRANCH  20  24
BRANCH  23  26
ATOM     26  O   UNL A   1      33.034  17.463  24.349  1.00  0.00    -0.497 OA
ATOM     27  C   UNL A   1      34.101  16.531  24.542  1.00  0.00     0.278 C 
ENDBRANCH  23  26
ENDBRANCH  16  18
ENDBRANCH  10  14
ENDBRANCH   9  10
ENDBRANCH   7   9
ENDBRANCH   6   7
ENDBRANCH   5   6
ENDBRANCH   4   5
ENDBRANCH   3   4
ENDBRANCH   2   3
ENDBRANCH   1   2
BRANCH   1  28
ATOM     28  O   UNL A   1      28.470  32.718  22.908  1.00  0.00    -0.377 OA
BRANCH  28  29
ATOM     29  C   UNL A   1      29.614  33.010  23.691  1.00  0.00     0.188 C 
BRANCH  29  30
ATOM     30  C   UNL A   1      29.905  31.955  24.766  1.00  0.00     0.188 C 
BRANCH  30  31
ATOM     31  O   UNL A   1      31.003  32.176  25.653  1.00  0.00    -0.376 OA
BRANCH  31  32
ATOM     32  C   UNL A   1      31.518  31.084  26.407  1.00  0.00     0.202 C 
BRANCH  32  33
ATOM     33  C   UNL A   1      32.865  30.518  25.961  1.00  0.00     0.261 C 
BRANCH  33  34
ATOM     34  O   UNL A   1      33.833  30.606  27.018  1.00  0.00    -0.460 OA
BRANCH  34  35
ATOM     35  C   UNL A   1      34.274  29.420  27.484  1.00  0.00     0.338 C 
ATOM     36  O   UNL A   1      33.775  28.318  27.302  1.00  0.00    -0.246 OA
BRANCH  35  37
ATOM     37  C   UNL A   1      35.583  29.603  28.124  1.00  0.00     0.060 A 
ATOM     38  C   UNL A   1      36.676  29.870  27.291  1.00  0.00     0.016 A 
ATOM     39  C   UNL A   1      35.752  29.387  29.493  1.00  0.00     0.016 A 
ATOM     40  C   UNL A   1      37.960  29.827  27.809  1.00  0.00     0.010 A 
ATOM     41  C   UNL A   1      37.046  29.324  30.010  1.00  0.00     0.010 A 
ATOM     42  C   UNL A   1      38.147  29.472  29.150  1.00  0.00    -0.014 A 
BRANCH  42  43
ATOM     43  C   UNL A   1      39.477  28.967  29.542  1.00  0.00     0.031 A 
ATOM     44  C   UNL A   1      40.193  29.673  30.661  1.00  0.00     0.074 A 
ATOM     45  C   UNL A   1      40.004  27.880  28.959  1.00  0.00     0.049 A 
ATOM     46  N   UNL A   1      41.327  29.379  31.236  1.00  0.00    -0.248 NA
ATOM     47  C   UNL A   1      39.536  30.875  31.208  1.00  0.00     0.031 C 
ATOM     48  C   UNL A   1      39.389  27.129  27.868  1.00  0.00     0.029 A 
ATOM     49  N   UNL A   1      41.186  27.233  29.198  1.00  0.00    -0.354 N 
ATOM     50  C   UNL A   1      41.532  30.368  32.190  1.00  0.00     0.074 A 
ATOM     51  C   UNL A   1      40.415  31.280  32.111  1.00  0.00     0.031 C 
ATOM     52  C   UNL A   1      40.221  26.138  27.504  1.00  0.00     0.029 A 
ATOM     53  C   UNL A   1      41.422  26.192  28.336  1.00  0.00     0.049 A 
ATOM     54  H   UNL A   1      41.806  27.490  29.919  1.00  0.00     0.167 HD
ATOM     55  C   UNL A   1      42.554  30.497  33.068  1.00  0.00     0.034 A 
ATOM     56  C   UNL A   1      42.497  25.387  28.229  1.00  0.00     0.034 A 
ATOM     57  C   UNL A   1      43.652  29.577  33.147  1.00  0.00     0.049 A 
ATOM     58  C   UNL A   1      43.615  25.535  29.224  1.00  0.00     0.074 A 
ATOM     59  C   UNL A   1      44.718  29.577  34.027  1.00  0.00     0.029 A 
ATOM     60  N   UNL A   1      43.830  28.495  32.297  1.00  0.00    -0.354 N 
ATOM     61  N   UNL A   1      43.733  26.391  30.213  1.00  0.00    -0.248 NA
ATOM     62  C   UNL A   1      44.726  24.578  29.126  1.00  0.00     0.031 C 
ATOM     63  C   UNL A   1      45.554  28.505  33.693  1.00  0.00     0.029 A 
ATOM     64  C   UNL A   1      44.996  27.825  32.622  1.00  0.00     0.049 A 
ATOM     65  H   UNL A   1      43.218  28.241  31.569  1.00  0.00     0.167 HD
ATOM     66  C   UNL A   1      44.911  26.059  30.871  1.00  0.00     0.074 A 
ATOM     67  C   UNL A   1      45.461  24.909  30.179  1.00  0.00     0.031 C 
ATOM     68  C   UNL A   1      45.496  26.655  31.941  1.00  0.00     0.034 A 
BRANCH  55  69
ATOM     69  C   UNL A   1      42.510  31.673  34.008  1.00  0.00     0.023 A 
ATOM     70  C   UNL A   1      43.119  32.890  33.638  1.00  0.00     0.012 A 
ATOM     71  C   UNL A   1      41.872  31.573  35.258  1.00  0.00     0.148 A 
ATOM     72  C   UNL A   1      43.129  33.976  34.514  1.00  0.00     0.002 A 
ATOM     73  C   UNL A   1      41.849  32.673  36.109  1.00  0.00     0.091 A 
ATOM     74  F   UNL A   1      41.328  30.399  35.609  1.00  0.00    -0.205 F 
ATOM     75  C   UNL A   1      42.487  33.869  35.745  1.00  0.00     0.022 A 
BRANCH  73  76
ATOM     76  S   UNL A   1      40.986  32.644  37.684  1.00  0.00     0.127 S 
ATOM     77  O   UNL A   1      41.771  31.666  38.434  1.00  0.00    -0.237 OA
ATOM     78  O   UNL A   1      41.133  34.026  38.145  1.00  0.00    -0.237 OA
ATOM     79  O   UNL A   1      39.617  32.255  37.377  1.00  0.00    -0.744 OA
ENDBRANCH  73  76
ENDBRANCH  55  69
BRANCH  56  80
ATOM     80  C   UNL A   1      42.522  24.348  27.163  1.00  0.00     0.023 A 
ATOM     81  C   UNL A   1      43.187  24.602  25.949  1.00  0.00     0.012 A 
ATOM     82  C   UNL A   1      41.953  23.078  27.384  1.00  0.00     0.148 A 
ATOM     83  C   UNL A   1      43.273  23.613  24.968  1.00  0.00     0.002 A 
ATOM     84  C   UNL A   1      42.091  22.081  26.428  1.00  0.00     0.091 A 
ATOM     85  F   UNL A   1      41.312  22.863  28.543  1.00  0.00    -0.205 F 
ATOM     86  C   UNL A   1      42.739  22.350  25.212  1.00  0.00     0.022 A 
BRANCH  84  87
ATOM     87  S   UNL A   1      41.560  20.388  26.714  1.00  0.00     0.127 S 
ATOM     88  O   UNL A   1      42.406  19.996  27.839  1.00  0.00    -0.237 OA
ATOM     89  O   UNL A   1      40.145  20.569  27.039  1.00  0.00    -0.237 OA
ATOM     90  O   UNL A   1      41.803  19.682  25.464  1.00  0.00    -0.744 OA
ENDBRANCH  84  87
ENDBRANCH  56  80
BRANCH  68  91
ATOM     91  C   UNL A   1      46.785  26.064  32.448  1.00  0.00     0.023 A 
ATOM     92  C   UNL A   1      46.757  25.125  33.498  1.00  0.00     0.012 A 
ATOM     93  C   UNL A   1      48.011  26.378  31.831  1.00  0.00     0.148 A 
ATOM     94  C   UNL A   1      47.936  24.532  33.947  1.00  0.00     0.002 A 
ATOM     95  C   UNL A   1      49.175  25.748  32.252  1.00  0.00     0.091 A 
ATOM     96  F   UNL A   1      48.020  27.290  30.847  1.00  0.00    -0.205 F 
ATOM     97  C   UNL A   1      49.141  24.833  33.317  1.00  0.00     0.022 A 
BRANCH  95  98
ATOM     98  S   UNL A   1      50.749  26.007  31.426  1.00  0.00     0.127 S 
ATOM     99  O   UNL A   1      51.212  27.246  32.049  1.00  0.00    -0.237 OA
ATOM    100  O   UNL A   1      51.506  24.814  31.806  1.00  0.00    -0.237 OA
ATOM    101  O   UNL A   1      50.438  26.091  30.006  1.00  0.00    -0.744 OA
ENDBRANCH  95  98
ENDBRANCH  68  91
ENDBRANCH  42  43
ENDBRANCH  35  37
ENDBRANCH  34  35
ENDBRANCH  33  34
ENDBRANCH  32  33
ENDBRANCH  31  32
ENDBRANCH  30  31
ENDBRANCH  29  30
ENDBRANCH  28  29
ENDBRANCH   1  28
TORSDOF 30
ENDMDL
MODEL 2
REMARK VINA RESULT:      -8.6      1.546      2.127
REMARK SMILES C=CCN(CC(=O)OCCOCCOCCOCCOC(=O)c1ccc(-c2c3nc(c(-c4cccc(S(=O)(=O)[O-])c4F)c4ccc([nH]4)c(-c4cccc(S(=O)(=O)[O-])c4F)c4nc(c(-c5cccc(S(=O)(=O)[O-])c5F)c5ccc2[nH]5)C=C4)C=C3)cc1)C(=O)Nc1ccc(OC)cc1OC
REMARK SMILES IDX 13 1 12 2 11 3 10 4 9 5 8 6 6 7 7 8 5 9 4 10 3 11 2 12 1 13
REMARK SMILES IDX 86 14 87 15 88 16 89 18 90 19 96 20 91 21 95 22 92 23 97 24
REMARK SMILES IDX 98 25 93 26 94 27 14 28 15 29 16 30 17 31 18 32 19 33 20 34
REMARK SMILES IDX 21 35 22 36 23 37 24 38 85 39 25 40 84 41 26 42 27 43 28 44
REMARK SMILES IDX 78 45 29 46 83 47 77 48 79 49 30 50 82 51 76 52 75 53 31 55
REMARK SMILES IDX 63 56 43 57 62 58 44 59 47 60 61 61 80 62 45 63 46 64 60 66
REMARK SMILES IDX 81 67 48 68 32 69 33 70 41 71 34 72 36 73 42 74 35 75 37 76
REMARK SMILES IDX 38 77 39 78 40 79 64 80 65 81 73 82 66 83 68 84 74 85 67 86
REMARK SMILES IDX 69 87 70 88 71 89 72 90 49 91 50 92 58 93 51 94 53 95 59 96
REMARK SMILES IDX 52 97 54 98 55 99 56 100 57 101
REMARK H PARENT 88 17 79 54 47 65
REMARK Flexibility Score: inf
ROOT
ATOM      1  C   UNL A   1      28.032  31.269  22.013  1.00  0.00     0.188 C 
ENDROOT
BRANCH   1   2
ATOM      2  C   UNL A   1      28.040  29.755  21.826  1.00  0.00     0.188 C 
BRANCH   2   3
ATOM      3  O   UNL A   1      29.307  29.106  21.875  1.00  0.00    -0.376 OA
BRANCH   3   4
ATOM      4  C   UNL A   1      29.501  28.223  23.012  1.00  0.00     0.202 C 
BRANCH   4   5
ATOM      5  C   UNL A   1      30.751  27.286  22.959  1.00  0.00     0.261 C 
BRANCH   5   6
ATOM      6  O   UNL A   1      31.755  27.537  24.013  1.00  0.00    -0.462 OA
BRANCH   6   7
ATOM      7  C   UNL A   1      32.719  26.571  24.144  1.00  0.00     0.325 C 
ATOM      8  O   UNL A   1      33.418  26.228  23.184  1.00  0.00    -0.250 OA
BRANCH   7   9
ATOM      9  C   UNL A   1      33.035  25.950  25.582  1.00  0.00     0.244 C 
BRANCH   9  10
ATOM     10  N   UNL A   1      32.995  24.559  26.148  1.00  0.00    -0.310 N 
BRANCH  10  11
ATOM     11  C   UNL A   1      34.335  24.031  26.485  1.00  0.00     0.149 C 
BRANCH  11  12
ATOM     12  C   UNL A   1      35.207  23.749  25.290  1.00  0.00    -0.013 C 
ATOM     13  C   UNL A   1      36.543  23.627  25.353  1.00  0.00     0.006 C 
ENDBRANCH  11  12
ENDBRANCH  10  11
BRANCH  10  14
ATOM     14  C   UNL A   1      31.890  23.767  26.450  1.00  0.00     0.322 C 
ATOM     15  O   UNL A   1      31.036  24.080  27.292  1.00  0.00    -0.248 OA
ATOM     16  N   UNL A   1      31.569  22.586  25.872  1.00  0.00    -0.304 N 
ATOM     17  H   UNL A   1      30.607  22.387  25.942  1.00  0.00     0.172 HD
BRANCH  16  18
ATOM     18  C   UNL A   1      32.264  21.583  25.204  1.00  0.00     0.085 A 
ATOM     19  C   UNL A   1      32.697  20.463  25.921  1.00  0.00     0.034 A 
ATOM     20  C   UNL A   1      32.483  21.609  23.856  1.00  0.00     0.146 A 
ATOM     21  C   UNL A   1      33.037  19.287  25.241  1.00  0.00     0.049 A 
ATOM     22  C   UNL A   1      32.536  20.383  23.193  1.00  0.00     0.095 A 
ATOM     23  C   UNL A   1      32.840  19.212  23.869  1.00  0.00     0.122 A 
BRANCH  20  24
ATOM     24  O   UNL A   1      32.569  22.725  23.092  1.00  0.00    -0.494 OA
ATOM     25  C   UNL A   1      32.668  22.637  21.672  1.00  0.00     0.278 C 
ENDBRANCH  20  24
BRANCH  23  26
ATOM     26  O   UNL A   1      32.992  17.988  23.280  1.00  0.00    -0.497 OA
ATOM     27  C   UNL A   1      33.063  16.871  24.169  1.00  0.00     0.278 C 
ENDBRANCH  23  26
ENDBRANCH  16  18
ENDBRANCH  10  14
ENDBRANCH   9  10
ENDBRANCH   7   9
ENDBRANCH   6   7
ENDBRANCH   5   6
ENDBRANCH   4   5
ENDBRANCH   3   4
ENDBRANCH   2   3
ENDBRANCH   1   2
BRANCH   1  28
ATOM     28  O   UNL A   1      28.017  31.583  23.391  1.00  0.00    -0.377 OA
BRANCH  28  29
ATOM     29  C   UNL A   1      29.178  32.230  23.884  1.00  0.00     0.188 C 
BRANCH  29  30
ATOM     30  C   UNL A   1      30.105  31.302  24.679  1.00  0.00     0.188 C 
BRANCH  30  31
ATOM     31  O   UNL A   1      30.828  31.851  25.781  1.00  0.00    -0.376 OA
BRANCH  31  32
ATOM     32  C   UNL A   1      31.566  30.978  26.631  1.00  0.00     0.202 C 
BRANCH  32  33
ATOM     33  C   UNL A   1      32.936  31.470  27.096  1.00  0.00     0.261 C 
BRANCH  33  34
ATOM     34  O   UNL A   1      33.571  30.496  27.938  1.00  0.00    -0.460 OA
BRANCH  34  35
ATOM     35  C   UNL A   1      34.488  29.724  27.321  1.00  0.00     0.338 C 
ATOM     36  O   UNL A   1      34.372  29.140  26.253  1.00  0.00    -0.246 OA
BRANCH  35  37
ATOM     37  C   UNL A   1      35.765  29.815  28.041  1.00  0.00     0.060 A 
ATOM     38  C   UNL A   1      36.913  30.088  27.286  1.00  0.00     0.016 A 
ATOM     39  C   UNL A   1      35.850  29.511  29.401  1.00  0.00     0.016 A 
ATOM     40  C   UNL A   1      38.164  29.961  27.868  1.00  0.00     0.010 A 
ATOM     41  C   UNL A   1      37.110  29.363  29.981  1.00  0.00     0.010 A 
ATOM     42  C   UNL A   1      38.262  29.518  29.192  1.00  0.00    -0.014 A 
BRANCH  42  43
ATOM     43  C   UNL A   1      39.548  28.936  29.623  1.00  0.00     0.031 A 
ATOM     44  C   UNL A   1      40.258  29.585  30.780  1.00  0.00     0.074 A 
ATOM     45  C   UNL A   1      40.038  27.832  29.039  1.00  0.00     0.049 A 
ATOM     46  N   UNL A   1      41.353  29.221  31.390  1.00  0.00    -0.248 NA
ATOM     47  C   UNL A   1      39.646  30.810  31.325  1.00  0.00     0.031 C 
ATOM     48  C   UNL A   1      39.425  27.133  27.913  1.00  0.00     0.029 A 
ATOM     49  N   UNL A   1      41.174  27.120  29.309  1.00  0.00    -0.354 N 
ATOM     50  C   UNL A   1      41.574  30.182  32.369  1.00  0.00     0.074 A 
ATOM     51  C   UNL A   1      40.510  31.153  32.266  1.00  0.00     0.031 C 
ATOM     52  C   UNL A   1      40.216  26.105  27.561  1.00  0.00     0.029 A 
ATOM     53  C   UNL A   1      41.387  26.082  28.437  1.00  0.00     0.049 A 
ATOM     54  H   UNL A   1      41.780  27.331  30.057  1.00  0.00     0.167 HD
ATOM     55  C   UNL A   1      42.568  30.242  33.285  1.00  0.00     0.034 A 
ATOM     56  C   UNL A   1      42.421  25.223  28.353  1.00  0.00     0.034 A 
ATOM     57  C   UNL A   1      43.613  29.263  33.387  1.00  0.00     0.049 A 
ATOM     58  C   UNL A   1      43.508  25.294  29.391  1.00  0.00     0.074 A 
ATOM     59  C   UNL A   1      44.644  29.192  34.304  1.00  0.00     0.029 A 
ATOM     60  N   UNL A   1      43.765  28.187  32.524  1.00  0.00    -0.354 N 
ATOM     61  N   UNL A   1      43.634  26.126  30.399  1.00  0.00    -0.248 NA
ATOM     62  C   UNL A   1      44.570  24.281  29.315  1.00  0.00     0.031 C 
ATOM     63  C   UNL A   1      45.434  28.082  33.981  1.00  0.00     0.029 A 
ATOM     64  C   UNL A   1      44.881  27.451  32.878  1.00  0.00     0.049 A 
ATOM     65  H   UNL A   1      43.168  27.979  31.770  1.00  0.00     0.167 HD
ATOM     66  C   UNL A   1      44.768  25.721  31.093  1.00  0.00     0.074 A 
ATOM     67  C   UNL A   1      45.282  24.555  30.400  1.00  0.00     0.031 C 
ATOM     68  C   UNL A   1      45.343  26.267  32.194  1.00  0.00     0.034 A 
BRANCH  55  69
ATOM     69  C   UNL A   1      42.551  31.403  34.244  1.00  0.00     0.023 A 
ATOM     70  C   UNL A   1      41.846  31.297  35.461  1.00  0.00     0.012 A 
ATOM     71  C   UNL A   1      43.227  32.599  33.940  1.00  0.00     0.148 A 
ATOM     72  C   UNL A   1      41.780  32.378  36.341  1.00  0.00     0.002 A 
ATOM     73  C   UNL A   1      43.192  33.657  34.841  1.00  0.00     0.091 A 
ATOM     74  F   UNL A   1      43.862  32.696  32.764  1.00  0.00    -0.205 F 
ATOM     75  C   UNL A   1      42.460  33.554  36.034  1.00  0.00     0.022 A 
BRANCH  73  76
ATOM     76  S   UNL A   1      44.095  35.184  34.557  1.00  0.00     0.127 S 
ATOM     77  O   UNL A   1      43.433  35.701  33.361  1.00  0.00    -0.237 OA
ATOM     78  O   UNL A   1      43.820  35.941  35.780  1.00  0.00    -0.237 OA
ATOM     79  O   UNL A   1      45.487  34.794  34.393  1.00  0.00    -0.744 OA
ENDBRANCH  73  76
ENDBRANCH  55  69
BRANCH  56  80
ATOM     80  C   UNL A   1      42.431  24.202  27.270  1.00  0.00     0.023 A 
ATOM     81  C   UNL A   1      43.214  24.406  26.119  1.00  0.00     0.012 A 
ATOM     82  C   UNL A   1      41.725  22.991  27.418  1.00  0.00     0.148 A 
ATOM     83  C   UNL A   1      43.283  23.427  25.126  1.00  0.00     0.002 A 
ATOM     84  C   UNL A   1      41.842  21.999  26.453  1.00  0.00     0.091 A 
ATOM     85  F   UNL A   1      40.974  22.824  28.517  1.00  0.00    -0.205 F 
ATOM     86  C   UNL A   1      42.609  22.220  25.299  1.00  0.00     0.022 A 
BRANCH  84  87
ATOM     87  S   UNL A   1      41.127  20.364  26.659  1.00  0.00     0.127 S 
ATOM     88  O   UNL A   1      42.166  19.509  26.090  1.00  0.00    -0.237 OA
ATOM     89  O   UNL A   1      40.985  20.280  28.113  1.00  0.00    -0.237 OA
ATOM     90  O   UNL A   1      39.864  20.390  25.933  1.00  0.00    -0.744 OA
ENDBRANCH  84  87
ENDBRANCH  56  80
BRANCH  68  91
ATOM     91  C   UNL A   1      46.580  25.600  32.737  1.00  0.00     0.023 A 
ATOM     92  C   UNL A   1      46.478  24.734  33.843  1.00  0.00     0.012 A 
ATOM     93  C   UNL A   1      47.825  25.768  32.100  1.00  0.00     0.148 A 
ATOM     94  C   UNL A   1      47.604  24.071  34.328  1.00  0.00     0.002 A 
ATOM     95  C   UNL A   1      48.933  25.067  32.559  1.00  0.00     0.091 A 
ATOM     96  F   UNL A   1      47.906  26.612  31.061  1.00  0.00    -0.205 F 
ATOM     97  C   UNL A   1      48.827  24.227  33.680  1.00  0.00     0.022 A 
BRANCH  95  98
ATOM     98  S   UNL A   1      50.518  25.138  31.717  1.00  0.00     0.127 S 
ATOM     99  O   UNL A   1      51.071  23.817  32.012  1.00  0.00    -0.237 OA
ATOM    100  O   UNL A   1      50.126  25.337  30.322  1.00  0.00    -0.237 OA
ATOM    101  O   UNL A   1      51.226  26.266  32.307  1.00  0.00    -0.744 OA
ENDBRANCH  95  98
ENDBRANCH  68  91
ENDBRANCH  42  43
ENDBRANCH  35  37
ENDBRANCH  34  35
ENDBRANCH  33  34
ENDBRANCH  32  33
ENDBRANCH  31  32
ENDBRANCH  30  31
ENDBRANCH  29  30
ENDBRANCH  28  29
ENDBRANCH   1  28
TORSDOF 30
ENDMDL
MODEL 3
REMARK VINA RESULT:      -8.3      2.518      7.694
REMARK SMILES C=CCN(CC(=O)OCCOCCOCCOCCOC(=O)c1ccc(-c2c3nc(c(-c4cccc(S(=O)(=O)[O-])c4F)c4ccc([nH]4)c(-c4cccc(S(=O)(=O)[O-])c4F)c4nc(c(-c5cccc(S(=O)(=O)[O-])c5F)c5ccc2[nH]5)C=C4)C=C3)cc1)C(=O)Nc1ccc(OC)cc1OC
REMARK SMILES IDX 13 1 12 2 11 3 10 4 9 5 8 6 6 7 7 8 5 9 4 10 3 11 2 12 1 13
REMARK SMILES IDX 86 14 87 15 88 16 89 18 90 19 96 20 91 21 95 22 92 23 97 24
REMARK SMILES IDX 98 25 93 26 94 27 14 28 15 29 16 30 17 31 18 32 19 33 20 34
REMARK SMILES IDX 21 35 22 36 23 37 24 38 85 39 25 40 84 41 26 42 27 43 28 44
REMARK SMILES IDX 78 45 29 46 83 47 77 48 79 49 30 50 82 51 76 52 75 53 31 55
REMARK SMILES IDX 63 56 43 57 62 58 44 59 47 60 61 61 80 62 45 63 46 64 60 66
REMARK SMILES IDX 81 67 48 68 32 69 33 70 41 71 34 72 36 73 42 74 35 75 37 76
REMARK SMILES IDX 38 77 39 78 40 79 64 80 65 81 73 82 66 83 68 84 74 85 67 86
REMARK SMILES IDX 69 87 70 88 71 89 72 90 49 91 50 92 58 93 51 94 53 95 59 96
REMARK SMILES IDX 52 97 54 98 55 99 56 100 57 101
REMARK H PARENT 88 17 79 54 47 65
REMARK Flexibility Score: inf
ROOT
ATOM      1  C   UNL A   1      27.932  31.766  21.614  1.00  0.00     0.188 C 
ENDROOT
BRANCH   1   2
ATOM      2  C   UNL A   1      28.041  30.251  21.467  1.00  0.00     0.188 C 
BRANCH   2   3
ATOM      3  O   UNL A   1      29.352  29.694  21.492  1.00  0.00    -0.376 OA
BRANCH   3   4
ATOM      4  C   UNL A   1      29.604  28.770  22.583  1.00  0.00     0.202 C 
BRANCH   4   5
ATOM      5  C   UNL A   1      31.027  28.126  22.634  1.00  0.00     0.261 C 
BRANCH   5   6
ATOM      6  O   UNL A   1      31.816  28.465  23.837  1.00  0.00    -0.462 OA
BRANCH   6   7
ATOM      7  C   UNL A   1      33.091  27.965  23.860  1.00  0.00     0.325 C 
ATOM      8  O   UNL A   1      34.061  28.666  23.553  1.00  0.00    -0.250 OA
BRANCH   7   9
ATOM      9  C   UNL A   1      33.358  26.485  24.401  1.00  0.00     0.244 C 
BRANCH   9  10
ATOM     10  N   UNL A   1      32.923  25.118  23.955  1.00  0.00    -0.310 N 
BRANCH  10  11
ATOM     11  C   UNL A   1      31.893  24.521  24.833  1.00  0.00     0.149 C 
BRANCH  11  12
ATOM     12  C   UNL A   1      30.541  25.179  24.736  1.00  0.00    -0.013 C 
ATOM     13  C   UNL A   1      30.027  25.972  25.690  1.00  0.00     0.006 C 
ENDBRANCH  11  12
ENDBRANCH  10  11
BRANCH  10  14
ATOM     14  C   UNL A   1      33.301  24.404  22.821  1.00  0.00     0.322 C 
ATOM     15  O   UNL A   1      33.329  24.895  21.683  1.00  0.00    -0.248 OA
ATOM     16  N   UNL A   1      33.713  23.115  22.785  1.00  0.00    -0.304 N 
ATOM     17  H   UNL A   1      34.272  22.925  21.997  1.00  0.00     0.172 HD
BRANCH  16  18
ATOM     18  C   UNL A   1      33.539  21.993  23.588  1.00  0.00     0.085 A 
ATOM     19  C   UNL A   1      32.512  21.093  23.285  1.00  0.00     0.034 A 
ATOM     20  C   UNL A   1      34.377  21.689  24.624  1.00  0.00     0.146 A 
ATOM     21  C   UNL A   1      32.548  19.792  23.803  1.00  0.00     0.049 A 
ATOM     22  C   UNL A   1      34.579  20.339  24.908  1.00  0.00     0.095 A 
ATOM     23  C   UNL A   1      33.657  19.377  24.527  1.00  0.00     0.122 A 
BRANCH  20  24
ATOM     24  O   UNL A   1      35.094  22.584  25.345  1.00  0.00    -0.494 OA
ATOM     25  C   UNL A   1      36.507  22.449  25.486  1.00  0.00     0.278 C 
ENDBRANCH  20  24
BRANCH  23  26
ATOM     26  O   UNL A   1      33.741  18.049  24.839  1.00  0.00    -0.497 OA
ATOM     27  C   UNL A   1      32.662  17.521  25.615  1.00  0.00     0.278 C 
ENDBRANCH  23  26
ENDBRANCH  16  18
ENDBRANCH  10  14
ENDBRANCH   9  10
ENDBRANCH   7   9
ENDBRANCH   6   7
ENDBRANCH   5   6
ENDBRANCH   4   5
ENDBRANCH   3   4
ENDBRANCH   2   3
ENDBRANCH   1   2
BRANCH   1  28
ATOM     28  O   UNL A   1      27.926  32.115  22.984  1.00  0.00    -0.377 OA
BRANCH  28  29
ATOM     29  C   UNL A   1      29.113  32.723  23.466  1.00  0.00     0.188 C 
BRANCH  29  30
ATOM     30  C   UNL A   1      29.834  31.894  24.536  1.00  0.00     0.188 C 
BRANCH  30  31
ATOM     31  O   UNL A   1      30.497  32.586  25.595  1.00  0.00    -0.376 OA
BRANCH  31  32
ATOM     32  C   UNL A   1      31.325  31.853  26.492  1.00  0.00     0.202 C 
BRANCH  32  33
ATOM     33  C   UNL A   1      32.684  32.465  26.827  1.00  0.00     0.261 C 
BRANCH  33  34
ATOM     34  O   UNL A   1      33.311  31.758  27.908  1.00  0.00    -0.460 OA
BRANCH  34  35
ATOM     35  C   UNL A   1      33.798  30.543  27.585  1.00  0.00     0.338 C 
ATOM     36  O   UNL A   1      33.192  29.611  27.078  1.00  0.00    -0.246 OA
BRANCH  35  37
ATOM     37  C   UNL A   1      35.255  30.536  27.771  1.00  0.00     0.060 A 
ATOM     38  C   UNL A   1      35.890  29.290  27.834  1.00  0.00     0.016 A 
ATOM     39  C   UNL A   1      35.957  31.719  28.007  1.00  0.00     0.016 A 
ATOM     40  C   UNL A   1      37.216  29.215  28.232  1.00  0.00     0.010 A 
ATOM     41  C   UNL A   1      37.286  31.642  28.426  1.00  0.00     0.010 A 
ATOM     42  C   UNL A   1      37.886  30.385  28.607  1.00  0.00    -0.014 A 
BRANCH  42  43
ATOM     43  C   UNL A   1      39.081  30.241  29.462  1.00  0.00     0.031 A 
ATOM     44  C   UNL A   1      40.258  29.491  28.901  1.00  0.00     0.074 A 
ATOM     45  C   UNL A   1      39.135  30.810  30.676  1.00  0.00     0.049 A 
ATOM     46  N   UNL A   1      41.440  29.295  29.419  1.00  0.00    -0.248 NA
ATOM     47  C   UNL A   1      40.077  28.881  27.571  1.00  0.00     0.031 C 
ATOM     48  C   UNL A   1      38.048  31.554  31.306  1.00  0.00     0.029 A 
ATOM     49  N   UNL A   1      40.147  30.832  31.596  1.00  0.00    -0.354 N 
ATOM     50  C   UNL A   1      42.131  28.521  28.495  1.00  0.00     0.074 A 
ATOM     51  C   UNL A   1      41.236  28.270  27.389  1.00  0.00     0.031 C 
ATOM     52  C   UNL A   1      38.440  31.933  32.534  1.00  0.00     0.029 A 
ATOM     53  C   UNL A   1      39.801  31.452  32.771  1.00  0.00     0.049 A 
ATOM     54  H   UNL A   1      41.036  30.441  31.433  1.00  0.00     0.167 HD
ATOM     55  C   UNL A   1      43.407  28.073  28.554  1.00  0.00     0.034 A 
ATOM     56  C   UNL A   1      40.505  31.600  33.910  1.00  0.00     0.034 A 
ATOM     57  C   UNL A   1      44.291  28.341  29.652  1.00  0.00     0.049 A 
ATOM     58  C   UNL A   1      41.927  31.109  33.950  1.00  0.00     0.074 A 
ATOM     59  C   UNL A   1      45.617  27.982  29.800  1.00  0.00     0.029 A 
ATOM     60  N   UNL A   1      43.927  29.026  30.802  1.00  0.00    -0.354 N 
ATOM     61  N   UNL A   1      42.617  30.498  33.015  1.00  0.00    -0.248 NA
ATOM     62  C   UNL A   1      42.687  31.370  35.180  1.00  0.00     0.031 C 
ATOM     63  C   UNL A   1      46.049  28.432  31.053  1.00  0.00     0.029 A 
ATOM     64  C   UNL A   1      44.999  29.092  31.673  1.00  0.00     0.049 A 
ATOM     65  H   UNL A   1      43.037  29.410  30.974  1.00  0.00     0.167 HD
ATOM     66  C   UNL A   1      43.897  30.328  33.529  1.00  0.00     0.074 A 
ATOM     67  C   UNL A   1      43.891  30.920  34.854  1.00  0.00     0.031 C 
ATOM     68  C   UNL A   1      44.977  29.727  32.968  1.00  0.00     0.034 A 
BRANCH  55  69
ATOM     69  C   UNL A   1      43.904  27.258  27.390  1.00  0.00     0.023 A 
ATOM     70  C   UNL A   1      44.534  27.899  26.303  1.00  0.00     0.012 A 
ATOM     71  C   UNL A   1      43.744  25.860  27.367  1.00  0.00     0.148 A 
ATOM     72  C   UNL A   1      44.959  27.167  25.194  1.00  0.00     0.002 A 
ATOM     73  C   UNL A   1      44.209  25.132  26.278  1.00  0.00     0.091 A 
ATOM     74  F   UNL A   1      43.112  25.270  28.391  1.00  0.00    -0.205 F 
ATOM     75  C   UNL A   1      44.804  25.783  25.186  1.00  0.00     0.022 A 
BRANCH  73  76
ATOM     76  S   UNL A   1      44.111  23.339  26.215  1.00  0.00     0.127 S 
ATOM     77  O   UNL A   1      44.725  23.054  24.919  1.00  0.00    -0.237 OA
ATOM     78  O   UNL A   1      44.916  22.942  27.371  1.00  0.00    -0.237 OA
ATOM     79  O   UNL A   1      42.696  23.017  26.330  1.00  0.00    -0.744 OA
ENDBRANCH  73  76
ENDBRANCH  55  69
BRANCH  56  80
ATOM     80  C   UNL A   1      39.874  32.284  35.071  1.00  0.00     0.023 A 
ATOM     81  C   UNL A   1      39.066  31.554  35.962  1.00  0.00     0.012 A 
ATOM     82  C   UNL A   1      40.139  33.642  35.335  1.00  0.00     0.148 A 
ATOM     83  C   UNL A   1      38.521  32.169  37.090  1.00  0.00     0.002 A 
ATOM     84  C   UNL A   1      39.640  34.234  36.489  1.00  0.00     0.091 A 
ATOM     85  F   UNL A   1      40.901  34.322  34.465  1.00  0.00    -0.205 F 
ATOM     86  C   UNL A   1      38.819  33.503  37.361  1.00  0.00     0.022 A 
BRANCH  84  87
ATOM     87  S   UNL A   1      40.087  35.900  36.990  1.00  0.00     0.127 S 
ATOM     88  O   UNL A   1      39.295  36.070  38.205  1.00  0.00    -0.237 OA
ATOM     89  O   UNL A   1      41.529  35.771  37.206  1.00  0.00    -0.237 OA
ATOM     90  O   UNL A   1      39.723  36.760  35.872  1.00  0.00    -0.744 OA
ENDBRANCH  84  87
ENDBRANCH  56  80
BRANCH  68  91
ATOM     91  C   UNL A   1      46.251  29.698  33.770  1.00  0.00     0.023 A 
ATOM     92  C   UNL A   1      46.527  28.596  34.603  1.00  0.00     0.012 A 
ATOM     93  C   UNL A   1      47.208  30.722  33.635  1.00  0.00     0.148 A 
ATOM     94  C   UNL A   1      47.724  28.530  35.315  1.00  0.00     0.002 A 
ATOM     95  C   UNL A   1      48.419  30.627  34.310  1.00  0.00     0.091 A 
ATOM     96  F   UNL A   1      46.919  31.773  32.853  1.00  0.00    -0.205 F 
ATOM     97  C   UNL A   1      48.673  29.538  35.160  1.00  0.00     0.022 A 
BRANCH  95  98
ATOM     98  S   UNL A   1      49.732  31.832  34.084  1.00  0.00     0.127 S 
ATOM     99  O   UNL A   1      49.877  31.844  32.630  1.00  0.00    -0.237 OA
ATOM    100  O   UNL A   1      49.145  33.048  34.648  1.00  0.00    -0.237 OA
ATOM    101  O   UNL A   1      50.872  31.316  34.830  1.00  0.00    -0.744 OA
ENDBRANCH  95  98
ENDBRANCH  68  91
ENDBRANCH  42  43
ENDBRANCH  35  37
ENDBRANCH  34  35
ENDBRANCH  33  34
ENDBRANCH  32  33
ENDBRANCH  31  32
ENDBRANCH  30  31
ENDBRANCH  29  30
ENDBRANCH  28  29
ENDBRANCH   1  28
TORSDOF 30
ENDMDL
