MODEL 1
REMARK VINA RESULT:      -9.2      0.000      0.000
REMARK SMILES Cc1cc(C(=O)Nc2c(Cl)cc(Cl)cc2C(=O)OCCOCCOCCOCCOC(=O)c2ccc(-c3c4nc(c(-c5cccc(S(=O)(=O)[O-])c5F)c5ccc([nH]5)c(-c5cccc(S(=O)(=O)[O-])c5F)c5nc(c(-c6cccc(S(=O)(=O)[O-])c6F)c6ccc3[nH]6)C=C5)C=C4)cc2)c(C)s1
REMARK SMILES IDX 25 1 24 2 23 3 22 4 21 5 20 6 19 7 18 8 16 9 17 10 15 11
REMARK SMILES IDX 8 12 9 13 10 14 11 15 14 16 12 17 13 18 7 19 5 20 6 21 4 23
REMARK SMILES IDX 1 24 2 25 3 26 98 27 96 28 97 29 26 30 27 31 28 32 29 33
REMARK SMILES IDX 30 34 31 35 32 36 33 37 34 38 95 39 35 40 94 41 36 42 37 43
REMARK SMILES IDX 38 44 88 45 39 46 93 47 87 48 89 49 40 50 92 51 86 52 85 53
REMARK SMILES IDX 41 55 73 56 53 57 72 58 54 59 57 60 71 61 90 62 55 63 56 64
REMARK SMILES IDX 70 66 91 67 58 68 42 69 43 70 51 71 44 72 46 73 52 74 45 75
REMARK SMILES IDX 47 76 48 77 49 78 50 79 74 80 75 81 83 82 76 83 78 84 84 85
REMARK SMILES IDX 77 86 79 87 80 88 81 89 82 90 59 91 60 92 68 93 61 94 63 95
REMARK SMILES IDX 69 96 62 97 64 98 65 99 66 100 67 101
REMARK H PARENT 7 22 89 54 57 65
REMARK Flexibility Score: inf
ROOT
ATOM      1  C   UNL A   1      40.272  21.893  26.753  1.00  0.00     0.188 C 
ENDROOT
BRANCH   1   2
ATOM      2  O   UNL A   1      39.260  21.518  25.819  1.00  0.00    -0.377 OA
BRANCH   2   3
ATOM      3  C   UNL A   1      38.109  22.328  25.699  1.00  0.00     0.188 C 
BRANCH   3   4
ATOM      4  C   UNL A   1      37.098  21.830  24.651  1.00  0.00     0.188 C 
BRANCH   4   5
ATOM      5  O   UNL A   1      35.958  21.177  25.168  1.00  0.00    -0.376 OA
BRANCH   5   6
ATOM      6  C   UNL A   1      34.939  21.858  25.882  1.00  0.00     0.202 C 
BRANCH   6   7
ATOM      7  C   UNL A   1      35.013  23.281  26.471  1.00  0.00     0.261 C 
BRANCH   7   8
ATOM      8  O   UNL A   1      34.522  24.367  25.689  1.00  0.00    -0.460 OA
BRANCH   8   9
ATOM      9  C   UNL A   1      33.205  24.622  25.756  1.00  0.00     0.340 C 
ATOM     10  O   UNL A   1      32.452  24.304  26.663  1.00  0.00    -0.246 OA
BRANCH   9  11
ATOM     11  C   UNL A   1      32.800  25.526  24.646  1.00  0.00     0.086 A 
ATOM     12  C   UNL A   1      32.155  26.773  24.792  1.00  0.00     0.075 A 
ATOM     13  C   UNL A   1      32.148  27.616  23.667  1.00  0.00     0.067 A 
ATOM     14  Cl  UNL A   1      31.968  29.332  23.799  1.00  0.00    -0.082 Cl
ATOM     15  C   UNL A   1      32.399  27.105  22.388  1.00  0.00     0.043 A 
ATOM     16  C   UNL A   1      33.045  25.010  23.360  1.00  0.00     0.038 A 
ATOM     17  C   UNL A   1      32.765  25.776  22.238  1.00  0.00     0.043 A 
ATOM     18  Cl  UNL A   1      32.906  25.085  20.672  1.00  0.00    -0.084 Cl
BRANCH  12  19
ATOM     19  N   UNL A   1      31.479  27.066  26.000  1.00  0.00    -0.320 N 
ATOM     20  C   UNL A   1      31.773  27.889  27.082  1.00  0.00     0.256 C 
ATOM     21  O   UNL A   1      30.948  27.892  27.997  1.00  0.00    -0.269 OA
ATOM     22  H   UNL A   1      30.624  26.588  26.095  1.00  0.00     0.170 HD
BRANCH  20  23
ATOM     23  C   UNL A   1      32.946  28.785  27.109  1.00  0.00     0.054 A 
ATOM     24  C   UNL A   1      36.623  29.360  27.806  1.00  0.00     0.056 C 
ATOM     25  C   UNL A   1      35.187  29.430  27.423  1.00  0.00     0.003 A 
ATOM     26  C   UNL A   1      34.337  28.402  27.078  1.00  0.00     0.029 A 
ATOM     27  S   UNL A   1      34.382  30.925  27.373  1.00  0.00    -0.145 S 
ATOM     28  C   UNL A   1      32.862  30.178  27.075  1.00  0.00     0.014 A 
ATOM     29  C   UNL A   1      31.688  31.087  26.868  1.00  0.00     0.057 C 
ENDBRANCH  20  23
ENDBRANCH  12  19
ENDBRANCH   9  11
ENDBRANCH   8   9
ENDBRANCH   7   8
ENDBRANCH   6   7
ENDBRANCH   5   6
ENDBRANCH   4   5
ENDBRANCH   3   4
ENDBRANCH   2   3
ENDBRANCH   1   2
BRANCH   1  30
ATOM     30  C   UNL A   1      41.778  21.688  26.454  1.00  0.00     0.188 C 
BRANCH  30  31
ATOM     31  O   UNL A   1      42.650  22.568  27.150  1.00  0.00    -0.376 OA
BRANCH  31  32
ATOM     32  C   UNL A   1      43.614  23.293  26.406  1.00  0.00     0.202 C 
BRANCH  32  33
ATOM     33  C   UNL A   1      43.149  23.904  25.077  1.00  0.00     0.261 C 
BRANCH  33  34
ATOM     34  O   UNL A   1      43.159  25.335  25.010  1.00  0.00    -0.460 OA
BRANCH  34  35
ATOM     35  C   UNL A   1      42.061  25.985  25.451  1.00  0.00     0.338 C 
ATOM     36  O   UNL A   1      40.904  25.597  25.385  1.00  0.00    -0.246 OA
BRANCH  35  37
ATOM     37  C   UNL A   1      42.514  27.167  26.209  1.00  0.00     0.060 A 
ATOM     38  C   UNL A   1      43.261  26.980  27.380  1.00  0.00     0.016 A 
ATOM     39  C   UNL A   1      42.215  28.454  25.755  1.00  0.00     0.016 A 
ATOM     40  C   UNL A   1      43.677  28.086  28.123  1.00  0.00     0.010 A 
ATOM     41  C   UNL A   1      42.616  29.557  26.510  1.00  0.00     0.010 A 
ATOM     42  C   UNL A   1      43.317  29.377  27.716  1.00  0.00    -0.014 A 
BRANCH  42  43
ATOM     43  C   UNL A   1      43.502  30.522  28.640  1.00  0.00     0.031 A 
ATOM     44  C   UNL A   1      42.361  30.900  29.545  1.00  0.00     0.074 A 
ATOM     45  C   UNL A   1      44.652  31.217  28.673  1.00  0.00     0.049 A 
ATOM     46  N   UNL A   1      42.265  31.891  30.391  1.00  0.00    -0.248 NA
ATOM     47  C   UNL A   1      41.163  30.045  29.479  1.00  0.00     0.031 C 
ATOM     48  C   UNL A   1      45.828  30.946  27.850  1.00  0.00     0.029 A 
ATOM     49  N   UNL A   1      45.001  32.319  29.414  1.00  0.00    -0.354 N 
ATOM     50  C   UNL A   1      40.990  31.799  30.936  1.00  0.00     0.074 A 
ATOM     51  C   UNL A   1      40.343  30.665  30.314  1.00  0.00     0.031 C 
ATOM     52  C   UNL A   1      46.760  31.881  28.105  1.00  0.00     0.029 A 
ATOM     53  C   UNL A   1      46.235  32.831  29.083  1.00  0.00     0.049 A 
ATOM     54  H   UNL A   1      44.425  32.706  30.112  1.00  0.00     0.167 HD
ATOM     55  C   UNL A   1      40.412  32.579  31.881  1.00  0.00     0.034 A 
ATOM     56  C   UNL A   1      46.850  33.956  29.500  1.00  0.00     0.034 A 
ATOM     57  C   UNL A   1      41.058  33.705  32.497  1.00  0.00     0.049 A 
ATOM     58  C   UNL A   1      46.174  34.833  30.524  1.00  0.00     0.074 A 
ATOM     59  C   UNL A   1      40.572  34.537  33.490  1.00  0.00     0.029 A 
ATOM     60  N   UNL A   1      42.323  34.169  32.169  1.00  0.00    -0.354 N 
ATOM     61  N   UNL A   1      45.012  34.675  31.110  1.00  0.00    -0.248 NA
ATOM     62  C   UNL A   1      46.909  36.026  30.968  1.00  0.00     0.031 C 
ATOM     63  C   UNL A   1      41.528  35.530  33.732  1.00  0.00     0.029 A 
ATOM     64  C   UNL A   1      42.630  35.286  32.928  1.00  0.00     0.049 A 
ATOM     65  H   UNL A   1      42.915  33.765  31.495  1.00  0.00     0.167 HD
ATOM     66  C   UNL A   1      44.892  35.724  32.016  1.00  0.00     0.074 A 
ATOM     67  C   UNL A   1      46.110  36.501  31.915  1.00  0.00     0.031 C 
ATOM     68  C   UNL A   1      43.865  36.023  32.850  1.00  0.00     0.034 A 
BRANCH  55  69
ATOM     69  C   UNL A   1      39.009  32.231  32.306  1.00  0.00     0.023 A 
ATOM     70  C   UNL A   1      38.801  31.288  33.333  1.00  0.00     0.012 A 
ATOM     71  C   UNL A   1      37.899  32.863  31.714  1.00  0.00     0.148 A 
ATOM     72  C   UNL A   1      37.509  30.947  33.735  1.00  0.00     0.002 A 
ATOM     73  C   UNL A   1      36.617  32.556  32.154  1.00  0.00     0.091 A 
ATOM     74  F   UNL A   1      38.114  33.741  30.724  1.00  0.00    -0.205 F 
ATOM     75  C   UNL A   1      36.420  31.589  33.154  1.00  0.00     0.022 A 
BRANCH  73  76
ATOM     76  S   UNL A   1      35.152  33.385  31.527  1.00  0.00     0.127 S 
ATOM     77  O   UNL A   1      35.368  34.755  31.992  1.00  0.00    -0.237 OA
ATOM     78  O   UNL A   1      35.291  33.203  30.082  1.00  0.00    -0.237 OA
ATOM     79  O   UNL A   1      34.015  32.698  32.121  1.00  0.00    -0.744 OA
ENDBRANCH  73  76
ENDBRANCH  55  69
BRANCH  56  80
ATOM     80  C   UNL A   1      48.191  34.316  28.957  1.00  0.00     0.023 A 
ATOM     81  C   UNL A   1      49.352  33.969  29.674  1.00  0.00     0.012 A 
ATOM     82  C   UNL A   1      48.319  34.991  27.727  1.00  0.00     0.148 A 
ATOM     83  C   UNL A   1      50.616  34.315  29.193  1.00  0.00     0.002 A 
ATOM     84  C   UNL A   1      49.582  35.282  27.226  1.00  0.00     0.091 A 
ATOM     85  F   UNL A   1      47.201  35.324  27.068  1.00  0.00    -0.205 F 
ATOM     86  C   UNL A   1      50.731  34.963  27.965  1.00  0.00     0.022 A 
BRANCH  84  87
ATOM     87  S   UNL A   1      49.836  36.009  25.603  1.00  0.00     0.127 S 
ATOM     88  O   UNL A   1      49.306  37.357  25.794  1.00  0.00    -0.237 OA
ATOM     89  O   UNL A   1      51.291  35.932  25.468  1.00  0.00    -0.237 OA
ATOM     90  O   UNL A   1      49.095  35.170  24.672  1.00  0.00    -0.744 OA
ENDBRANCH  84  87
ENDBRANCH  56  80
BRANCH  68  91
ATOM     91  C   UNL A   1      44.023  37.213  33.765  1.00  0.00     0.023 A 
ATOM     92  C   UNL A   1      44.584  37.054  35.046  1.00  0.00     0.012 A 
ATOM     93  C   UNL A   1      43.681  38.506  33.317  1.00  0.00     0.148 A 
ATOM     94  C   UNL A   1      44.768  38.156  35.882  1.00  0.00     0.002 A 
ATOM     95  C   UNL A   1      43.918  39.605  34.133  1.00  0.00     0.091 A 
ATOM     96  F   UNL A   1      43.134  38.637  32.098  1.00  0.00    -0.205 F 
ATOM     97  C   UNL A   1      44.448  39.431  35.421  1.00  0.00     0.022 A 
BRANCH  95  98
ATOM     98  S   UNL A   1      43.630  41.293  33.587  1.00  0.00     0.127 S 
ATOM     99  O   UNL A   1      42.209  41.255  33.240  1.00  0.00    -0.237 OA
ATOM    100  O   UNL A   1      43.943  42.064  34.790  1.00  0.00    -0.237 OA
ATOM    101  O   UNL A   1      44.536  41.517  32.470  1.00  0.00    -0.744 OA
ENDBRANCH  95  98
ENDBRANCH  68  91
ENDBRANCH  42  43
ENDBRANCH  35  37
ENDBRANCH  34  35
ENDBRANCH  33  34
ENDBRANCH  32  33
ENDBRANCH  31  32
ENDBRANCH  30  31
ENDBRANCH   1  30
TORSDOF 25
ENDMDL
MODEL 2
REMARK VINA RESULT:      -9.1      3.678      9.059
REMARK SMILES Cc1cc(C(=O)Nc2c(Cl)cc(Cl)cc2C(=O)OCCOCCOCCOCCOC(=O)c2ccc(-c3c4nc(c(-c5cccc(S(=O)(=O)[O-])c5F)c5ccc([nH]5)c(-c5cccc(S(=O)(=O)[O-])c5F)c5nc(c(-c6cccc(S(=O)(=O)[O-])c6F)c6ccc3[nH]6)C=C5)C=C4)cc2)c(C)s1
REMARK SMILES IDX 25 1 24 2 23 3 22 4 21 5 20 6 19 7 18 8 16 9 17 10 15 11
REMARK SMILES IDX 8 12 9 13 10 14 11 15 14 16 12 17 13 18 7 19 5 20 6 21 4 23
REMARK SMILES IDX 1 24 2 25 3 26 98 27 96 28 97 29 26 30 27 31 28 32 29 33
REMARK SMILES IDX 30 34 31 35 32 36 33 37 34 38 95 39 35 40 94 41 36 42 37 43
REMARK SMILES IDX 38 44 88 45 39 46 93 47 87 48 89 49 40 50 92 51 86 52 85 53
REMARK SMILES IDX 41 55 73 56 53 57 72 58 54 59 57 60 71 61 90 62 55 63 56 64
REMARK SMILES IDX 70 66 91 67 58 68 42 69 43 70 51 71 44 72 46 73 52 74 45 75
REMARK SMILES IDX 47 76 48 77 49 78 50 79 74 80 75 81 83 82 76 83 78 84 84 85
REMARK SMILES IDX 77 86 79 87 80 88 81 89 82 90 59 91 60 92 68 93 61 94 63 95
REMARK SMILES IDX 69 96 62 97 64 98 65 99 66 100 67 101
REMARK H PARENT 7 22 89 54 57 65
REMARK Flexibility Score: inf
ROOT
ATOM      1  C   UNL A   1      36.391  23.348  23.595  1.00  0.00     0.188 C 
ENDROOT
BRANCH   1   2
ATOM      2  O   UNL A   1      35.274  23.575  22.737  1.00  0.00    -0.377 OA
BRANCH   2   3
ATOM      3  C   UNL A   1      34.271  24.481  23.147  1.00  0.00     0.188 C 
BRANCH   3   4
ATOM      4  C   UNL A   1      33.346  24.949  22.010  1.00  0.00     0.188 C 
BRANCH   4   5
ATOM      5  O   UNL A   1      32.410  25.948  22.359  1.00  0.00    -0.376 OA
BRANCH   5   6
ATOM      6  C   UNL A   1      31.016  25.804  22.145  1.00  0.00     0.202 C 
BRANCH   6   7
ATOM      7  C   UNL A   1      29.977  25.258  23.146  1.00  0.00     0.261 C 
BRANCH   7   8
ATOM      8  O   UNL A   1      29.388  26.164  24.076  1.00  0.00    -0.460 OA
BRANCH   8   9
ATOM      9  C   UNL A   1      29.688  25.989  25.373  1.00  0.00     0.340 C 
ATOM     10  O   UNL A   1      28.979  25.458  26.214  1.00  0.00    -0.246 OA
BRANCH   9  11
ATOM     11  C   UNL A   1      31.104  26.365  25.629  1.00  0.00     0.086 A 
ATOM     12  C   UNL A   1      32.065  25.566  26.285  1.00  0.00     0.075 A 
ATOM     13  C   UNL A   1      33.409  25.950  26.142  1.00  0.00     0.067 A 
ATOM     14  Cl  UNL A   1      34.716  24.830  26.336  1.00  0.00    -0.082 Cl
ATOM     15  C   UNL A   1      33.745  27.244  25.728  1.00  0.00     0.043 A 
ATOM     16  C   UNL A   1      31.441  27.669  25.218  1.00  0.00     0.038 A 
ATOM     17  C   UNL A   1      32.744  28.125  25.348  1.00  0.00     0.043 A 
ATOM     18  Cl  UNL A   1      33.115  29.766  25.004  1.00  0.00    -0.084 Cl
BRANCH  12  19
ATOM     19  N   UNL A   1      31.632  24.503  27.112  1.00  0.00    -0.320 N 
ATOM     20  C   UNL A   1      31.606  23.121  26.955  1.00  0.00     0.256 C 
ATOM     21  O   UNL A   1      31.133  22.480  27.894  1.00  0.00    -0.269 OA
ATOM     22  H   UNL A   1      31.274  24.804  27.978  1.00  0.00     0.170 HD
BRANCH  20  23
ATOM     23  C   UNL A   1      32.193  22.439  25.784  1.00  0.00     0.054 A 
ATOM     24  C   UNL A   1      31.876  21.139  22.241  1.00  0.00     0.056 C 
ATOM     25  C   UNL A   1      32.301  21.560  23.604  1.00  0.00     0.003 A 
ATOM     26  C   UNL A   1      31.762  22.539  24.410  1.00  0.00     0.029 A 
ATOM     27  S   UNL A   1      33.614  20.801  24.368  1.00  0.00    -0.145 S 
ATOM     28  C   UNL A   1      33.342  21.649  25.839  1.00  0.00     0.014 A 
ATOM     29  C   UNL A   1      34.313  21.402  26.954  1.00  0.00     0.057 C 
ENDBRANCH  20  23
ENDBRANCH  12  19
ENDBRANCH   9  11
ENDBRANCH   8   9
ENDBRANCH   7   8
ENDBRANCH   6   7
ENDBRANCH   5   6
ENDBRANCH   4   5
ENDBRANCH   3   4
ENDBRANCH   2   3
ENDBRANCH   1   2
BRANCH   1  30
ATOM     30  C   UNL A   1      37.036  21.949  23.747  1.00  0.00     0.188 C 
BRANCH  30  31
ATOM     31  O   UNL A   1      37.164  21.493  25.087  1.00  0.00    -0.376 OA
BRANCH  31  32
ATOM     32  C   UNL A   1      38.161  20.529  25.383  1.00  0.00     0.202 C 
BRANCH  32  33
ATOM     33  C   UNL A   1      39.491  21.056  25.939  1.00  0.00     0.261 C 
BRANCH  33  34
ATOM     34  O   UNL A   1      40.387  20.064  26.457  1.00  0.00    -0.460 OA
BRANCH  34  35
ATOM     35  C   UNL A   1      41.679  20.135  26.072  1.00  0.00     0.338 C 
ATOM     36  O   UNL A   1      42.285  19.325  25.386  1.00  0.00    -0.246 OA
BRANCH  35  37
ATOM     37  C   UNL A   1      42.190  21.463  26.461  1.00  0.00     0.060 A 
ATOM     38  C   UNL A   1      42.352  21.760  27.821  1.00  0.00     0.016 A 
ATOM     39  C   UNL A   1      42.521  22.406  25.485  1.00  0.00     0.016 A 
ATOM     40  C   UNL A   1      42.810  23.020  28.208  1.00  0.00     0.010 A 
ATOM     41  C   UNL A   1      42.961  23.671  25.875  1.00  0.00     0.010 A 
ATOM     42  C   UNL A   1      43.073  23.996  27.240  1.00  0.00    -0.014 A 
BRANCH  42  43
ATOM     43  C   UNL A   1      43.277  25.407  27.647  1.00  0.00     0.031 A 
ATOM     44  C   UNL A   1      44.677  25.957  27.638  1.00  0.00     0.074 A 
ATOM     45  C   UNL A   1      42.247  26.184  28.025  1.00  0.00     0.049 A 
ATOM     46  N   UNL A   1      45.110  27.134  28.004  1.00  0.00    -0.248 NA
ATOM     47  C   UNL A   1      45.733  25.050  27.155  1.00  0.00     0.031 C 
ATOM     48  C   UNL A   1      40.847  25.768  28.073  1.00  0.00     0.029 A 
ATOM     49  N   UNL A   1      42.232  27.482  28.472  1.00  0.00    -0.354 N 
ATOM     50  C   UNL A   1      46.488  27.102  27.825  1.00  0.00     0.074 A 
ATOM     51  C   UNL A   1      46.821  25.783  27.332  1.00  0.00     0.031 C 
ATOM     52  C   UNL A   1      40.110  26.782  28.559  1.00  0.00     0.029 A 
ATOM     53  C   UNL A   1      40.989  27.903  28.885  1.00  0.00     0.049 A 
ATOM     54  H   UNL A   1      43.032  28.055  28.496  1.00  0.00     0.167 HD
ATOM     55  C   UNL A   1      47.396  28.084  28.038  1.00  0.00     0.034 A 
ATOM     56  C   UNL A   1      40.614  29.050  29.488  1.00  0.00     0.034 A 
ATOM     57  C   UNL A   1      47.061  29.393  28.527  1.00  0.00     0.049 A 
ATOM     58  C   UNL A   1      41.647  30.117  29.752  1.00  0.00     0.074 A 
ATOM     59  C   UNL A   1      47.901  30.471  28.743  1.00  0.00     0.029 A 
ATOM     60  N   UNL A   1      45.787  29.799  28.895  1.00  0.00    -0.354 N 
ATOM     61  N   UNL A   1      42.929  30.114  29.479  1.00  0.00    -0.248 NA
ATOM     62  C   UNL A   1      41.173  31.361  30.378  1.00  0.00     0.031 C 
ATOM     63  C   UNL A   1      47.140  31.515  29.280  1.00  0.00     0.029 A 
ATOM     64  C   UNL A   1      45.819  31.106  29.351  1.00  0.00     0.049 A 
ATOM     65  H   UNL A   1      44.978  29.240  28.841  1.00  0.00     0.167 HD
ATOM     66  C   UNL A   1      43.408  31.362  29.864  1.00  0.00     0.074 A 
ATOM     67  C   UNL A   1      42.272  32.104  30.372  1.00  0.00     0.031 C 
ATOM     68  C   UNL A   1      44.673  31.849  29.811  1.00  0.00     0.034 A 
BRANCH  55  69
ATOM     69  C   UNL A   1      48.838  27.776  27.734  1.00  0.00     0.023 A 
ATOM     70  C   UNL A   1      49.684  27.296  28.755  1.00  0.00     0.012 A 
ATOM     71  C   UNL A   1      49.349  27.929  26.431  1.00  0.00     0.148 A 
ATOM     72  C   UNL A   1      51.025  27.013  28.493  1.00  0.00     0.002 A 
ATOM     73  C   UNL A   1      50.672  27.597  26.166  1.00  0.00     0.091 A 
ATOM     74  F   UNL A   1      48.536  28.408  25.477  1.00  0.00    -0.205 F 
ATOM     75  C   UNL A   1      51.515  27.153  27.198  1.00  0.00     0.022 A 
BRANCH  73  76
ATOM     76  S   UNL A   1      51.377  27.665  24.515  1.00  0.00     0.127 S 
ATOM     77  O   UNL A   1      51.355  29.103  24.245  1.00  0.00    -0.237 OA
ATOM     78  O   UNL A   1      52.712  27.106  24.729  1.00  0.00    -0.237 OA
ATOM     79  O   UNL A   1      50.506  26.859  23.672  1.00  0.00    -0.744 OA
ENDBRANCH  73  76
ENDBRANCH  55  69
BRANCH  56  80
ATOM     80  C   UNL A   1      39.190  29.256  29.876  1.00  0.00     0.023 A 
ATOM     81  C   UNL A   1      38.743  28.836  31.143  1.00  0.00     0.012 A 
ATOM     82  C   UNL A   1      38.280  29.874  28.996  1.00  0.00     0.148 A 
ATOM     83  C   UNL A   1      37.408  29.000  31.517  1.00  0.00     0.002 A 
ATOM     84  C   UNL A   1      36.966  30.086  29.395  1.00  0.00     0.091 A 
ATOM     85  F   UNL A   1      38.724  30.252  27.789  1.00  0.00    -0.205 F 
ATOM     86  C   UNL A   1      36.523  29.633  30.647  1.00  0.00     0.022 A 
BRANCH  84  87
ATOM     87  S   UNL A   1      35.783  30.994  28.394  1.00  0.00     0.127 S 
ATOM     88  O   UNL A   1      36.572  32.153  27.981  1.00  0.00    -0.237 OA
ATOM     89  O   UNL A   1      35.497  30.033  27.328  1.00  0.00    -0.237 OA
ATOM     90  O   UNL A   1      34.658  31.281  29.271  1.00  0.00    -0.744 OA
ENDBRANCH  84  87
ENDBRANCH  56  80
BRANCH  68  91
ATOM     91  C   UNL A   1      44.901  33.269  30.264  1.00  0.00     0.023 A 
ATOM     92  C   UNL A   1      44.784  34.335  29.350  1.00  0.00     0.012 A 
ATOM     93  C   UNL A   1      45.159  33.551  31.622  1.00  0.00     0.148 A 
ATOM     94  C   UNL A   1      44.957  35.654  29.771  1.00  0.00     0.002 A 
ATOM     95  C   UNL A   1      45.275  34.869  32.044  1.00  0.00     0.091 A 
ATOM     96  F   UNL A   1      45.281  32.523  32.476  1.00  0.00    -0.205 F 
ATOM     97  C   UNL A   1      45.189  35.921  31.118  1.00  0.00     0.022 A 
BRANCH  95  98
ATOM     98  S   UNL A   1      45.475  35.316  33.773  1.00  0.00     0.127 S 
ATOM     99  O   UNL A   1      44.323  34.655  34.387  1.00  0.00    -0.237 OA
ATOM    100  O   UNL A   1      46.768  34.714  34.100  1.00  0.00    -0.237 OA
ATOM    101  O   UNL A   1      45.454  36.771  33.820  1.00  0.00    -0.744 OA
ENDBRANCH  95  98
ENDBRANCH  68  91
ENDBRANCH  42  43
ENDBRANCH  35  37
ENDBRANCH  34  35
ENDBRANCH  33  34
ENDBRANCH  32  33
ENDBRANCH  31  32
ENDBRANCH  30  31
ENDBRANCH   1  30
TORSDOF 25
ENDMDL
MODEL 3
REMARK VINA RESULT:      -8.6      3.720      6.195
REMARK SMILES Cc1cc(C(=O)Nc2c(Cl)cc(Cl)cc2C(=O)OCCOCCOCCOCCOC(=O)c2ccc(-c3c4nc(c(-c5cccc(S(=O)(=O)[O-])c5F)c5ccc([nH]5)c(-c5cccc(S(=O)(=O)[O-])c5F)c5nc(c(-c6cccc(S(=O)(=O)[O-])c6F)c6ccc3[nH]6)C=C5)C=C4)cc2)c(C)s1
REMARK SMILES IDX 25 1 24 2 23 3 22 4 21 5 20 6 19 7 18 8 16 9 17 10 15 11
REMARK SMILES IDX 8 12 9 13 10 14 11 15 14 16 12 17 13 18 7 19 5 20 6 21 4 23
REMARK SMILES IDX 1 24 2 25 3 26 98 27 96 28 97 29 26 30 27 31 28 32 29 33
REMARK SMILES IDX 30 34 31 35 32 36 33 37 34 38 95 39 35 40 94 41 36 42 37 43
REMARK SMILES IDX 38 44 88 45 39 46 93 47 87 48 89 49 40 50 92 51 86 52 85 53
REMARK SMILES IDX 41 55 73 56 53 57 72 58 54 59 57 60 71 61 90 62 55 63 56 64
REMARK SMILES IDX 70 66 91 67 58 68 42 69 43 70 51 71 44 72 46 73 52 74 45 75
REMARK SMILES IDX 47 76 48 77 49 78 50 79 74 80 75 81 83 82 76 83 78 84 84 85
REMARK SMILES IDX 77 86 79 87 80 88 81 89 82 90 59 91 60 92 68 93 61 94 63 95
REMARK SMILES IDX 69 96 62 97 64 98 65 99 66 100 67 101
REMARK H PARENT 7 22 89 54 57 65
REMARK Flexibility Score: inf
ROOT
ATOM      1  C   UNL A   1      36.064  23.595  23.651  1.00  0.00     0.188 C 
ENDROOT
BRANCH   1   2
ATOM      2  O   UNL A   1      35.037  23.957  22.729  1.00  0.00    -0.377 OA
BRANCH   2   3
ATOM      3  C   UNL A   1      33.980  24.782  23.175  1.00  0.00     0.188 C 
BRANCH   3   4
ATOM      4  C   UNL A   1      33.731  26.016  22.289  1.00  0.00     0.188 C 
BRANCH   4   5
ATOM      5  O   UNL A   1      32.421  26.540  22.330  1.00  0.00    -0.376 OA
BRANCH   5   6
ATOM      6  C   UNL A   1      31.279  25.786  21.954  1.00  0.00     0.202 C 
BRANCH   6   7
ATOM      7  C   UNL A   1      30.129  25.327  22.873  1.00  0.00     0.261 C 
BRANCH   7   8
ATOM      8  O   UNL A   1      29.497  26.295  23.707  1.00  0.00    -0.460 OA
BRANCH   8   9
ATOM      9  C   UNL A   1      29.608  26.126  25.034  1.00  0.00     0.340 C 
ATOM     10  O   UNL A   1      28.759  25.657  25.776  1.00  0.00    -0.246 OA
BRANCH   9  11
ATOM     11  C   UNL A   1      30.999  26.414  25.474  1.00  0.00     0.086 A 
ATOM     12  C   UNL A   1      31.819  25.552  26.235  1.00  0.00     0.075 A 
ATOM     13  C   UNL A   1      33.191  25.855  26.271  1.00  0.00     0.067 A 
ATOM     14  Cl  UNL A   1      34.394  24.658  26.612  1.00  0.00    -0.082 Cl
ATOM     15  C   UNL A   1      33.652  27.131  25.924  1.00  0.00     0.043 A 
ATOM     16  C   UNL A   1      31.461  27.698  25.131  1.00  0.00     0.038 A 
ATOM     17  C   UNL A   1      32.761  28.074  25.434  1.00  0.00     0.043 A 
ATOM     18  Cl  UNL A   1      33.269  29.692  25.167  1.00  0.00    -0.084 Cl
BRANCH  12  19
ATOM     19  N   UNL A   1      31.222  24.510  26.982  1.00  0.00    -0.320 N 
ATOM     20  C   UNL A   1      31.144  23.132  26.805  1.00  0.00     0.256 C 
ATOM     21  O   UNL A   1      30.515  22.513  27.664  1.00  0.00    -0.269 OA
ATOM     22  H   UNL A   1      30.767  24.824  27.796  1.00  0.00     0.170 HD
BRANCH  20  23
ATOM     23  C   UNL A   1      31.846  22.426  25.715  1.00  0.00     0.054 A 
ATOM     24  C   UNL A   1      31.928  21.136  22.155  1.00  0.00     0.056 C 
ATOM     25  C   UNL A   1      32.194  21.541  23.563  1.00  0.00     0.003 A 
ATOM     26  C   UNL A   1      31.598  22.542  24.298  1.00  0.00     0.029 A 
ATOM     27  S   UNL A   1      33.368  20.729  24.483  1.00  0.00    -0.145 S 
ATOM     28  C   UNL A   1      32.946  21.589  25.911  1.00  0.00     0.014 A 
ATOM     29  C   UNL A   1      33.757  21.304  27.140  1.00  0.00     0.057 C 
ENDBRANCH  20  23
ENDBRANCH  12  19
ENDBRANCH   9  11
ENDBRANCH   8   9
ENDBRANCH   7   8
ENDBRANCH   6   7
ENDBRANCH   5   6
ENDBRANCH   4   5
ENDBRANCH   3   4
ENDBRANCH   2   3
ENDBRANCH   1   2
BRANCH   1  30
ATOM     30  C   UNL A   1      36.659  22.166  23.694  1.00  0.00     0.188 C 
BRANCH  30  31
ATOM     31  O   UNL A   1      36.686  21.569  24.983  1.00  0.00    -0.376 OA
BRANCH  31  32
ATOM     32  C   UNL A   1      37.754  20.694  25.302  1.00  0.00     0.202 C 
BRANCH  32  33
ATOM     33  C   UNL A   1      39.078  21.341  25.732  1.00  0.00     0.261 C 
BRANCH  33  34
ATOM     34  O   UNL A   1      39.701  20.776  26.891  1.00  0.00    -0.460 OA
BRANCH  34  35
ATOM     35  C   UNL A   1      41.049  20.810  26.950  1.00  0.00     0.338 C 
ATOM     36  O   UNL A   1      41.820  19.912  26.645  1.00  0.00    -0.246 OA
BRANCH  35  37
ATOM     37  C   UNL A   1      41.448  22.196  27.262  1.00  0.00     0.060 A 
ATOM     38  C   UNL A   1      41.261  23.193  26.296  1.00  0.00     0.016 A 
ATOM     39  C   UNL A   1      41.991  22.510  28.510  1.00  0.00     0.016 A 
ATOM     40  C   UNL A   1      41.656  24.505  26.564  1.00  0.00     0.010 A 
ATOM     41  C   UNL A   1      42.402  23.819  28.769  1.00  0.00     0.010 A 
ATOM     42  C   UNL A   1      42.270  24.814  27.784  1.00  0.00    -0.014 A 
BRANCH  42  43
ATOM     43  C   UNL A   1      42.946  26.122  27.962  1.00  0.00     0.031 A 
ATOM     44  C   UNL A   1      42.171  27.246  28.592  1.00  0.00     0.074 A 
ATOM     45  C   UNL A   1      44.217  26.313  27.567  1.00  0.00     0.049 A 
ATOM     46  N   UNL A   1      42.526  28.487  28.799  1.00  0.00    -0.248 NA
ATOM     47  C   UNL A   1      40.805  26.926  29.045  1.00  0.00     0.031 C 
ATOM     48  C   UNL A   1      45.071  25.303  26.947  1.00  0.00     0.029 A 
ATOM     49  N   UNL A   1      44.996  27.443  27.603  1.00  0.00    -0.354 N 
ATOM     50  C   UNL A   1      41.422  29.103  29.377  1.00  0.00     0.074 A 
ATOM     51  C   UNL A   1      40.380  28.105  29.474  1.00  0.00     0.031 C 
ATOM     52  C   UNL A   1      46.248  25.868  26.628  1.00  0.00     0.029 A 
ATOM     53  C   UNL A   1      46.218  27.284  26.991  1.00  0.00     0.049 A 
ATOM     54  H   UNL A   1      44.709  28.285  28.025  1.00  0.00     0.167 HD
ATOM     55  C   UNL A   1      41.290  30.382  29.803  1.00  0.00     0.034 A 
ATOM     56  C   UNL A   1      47.183  28.187  26.725  1.00  0.00     0.034 A 
ATOM     57  C   UNL A   1      42.328  31.372  29.705  1.00  0.00     0.049 A 
ATOM     58  C   UNL A   1      47.001  29.616  27.173  1.00  0.00     0.074 A 
ATOM     59  C   UNL A   1      42.307  32.685  30.140  1.00  0.00     0.029 A 
ATOM     60  N   UNL A   1      43.567  31.164  29.118  1.00  0.00    -0.354 N 
ATOM     61  N   UNL A   1      45.995  30.160  27.814  1.00  0.00    -0.248 NA
ATOM     62  C   UNL A   1      48.102  30.547  26.889  1.00  0.00     0.031 C 
ATOM     63  C   UNL A   1      43.519  33.283  29.778  1.00  0.00     0.029 A 
ATOM     64  C   UNL A   1      44.314  32.329  29.164  1.00  0.00     0.049 A 
ATOM     65  H   UNL A   1      43.870  30.314  28.725  1.00  0.00     0.167 HD
ATOM     66  C   UNL A   1      46.357  31.484  28.043  1.00  0.00     0.074 A 
ATOM     67  C   UNL A   1      47.683  31.655  27.488  1.00  0.00     0.031 C 
ATOM     68  C   UNL A   1      45.652  32.472  28.649  1.00  0.00     0.034 A 
BRANCH  55  69
ATOM     69  C   UNL A   1      39.973  30.777  30.419  1.00  0.00     0.023 A 
ATOM     70  C   UNL A   1      38.853  31.007  29.595  1.00  0.00     0.012 A 
ATOM     71  C   UNL A   1      39.836  30.889  31.816  1.00  0.00     0.148 A 
ATOM     72  C   UNL A   1      37.628  31.380  30.147  1.00  0.00     0.002 A 
ATOM     73  C   UNL A   1      38.601  31.213  32.363  1.00  0.00     0.091 A 
ATOM     74  F   UNL A   1      40.918  30.689  32.583  1.00  0.00    -0.205 F 
ATOM     75  C   UNL A   1      37.500  31.473  31.530  1.00  0.00     0.022 A 
BRANCH  73  76
ATOM     76  S   UNL A   1      38.311  31.277  34.134  1.00  0.00     0.127 S 
ATOM     77  O   UNL A   1      38.519  29.881  34.517  1.00  0.00    -0.237 OA
ATOM     78  O   UNL A   1      39.358  32.195  34.583  1.00  0.00    -0.237 OA
ATOM     79  O   UNL A   1      36.953  31.773  34.303  1.00  0.00    -0.744 OA
ENDBRANCH  73  76
ENDBRANCH  55  69
BRANCH  56  80
ATOM     80  C   UNL A   1      48.419  27.766  26.006  1.00  0.00     0.023 A 
ATOM     81  C   UNL A   1      49.543  27.339  26.739  1.00  0.00     0.012 A 
ATOM     82  C   UNL A   1      48.480  27.779  24.599  1.00  0.00     0.148 A 
ATOM     83  C   UNL A   1      50.716  26.961  26.085  1.00  0.00     0.002 A 
ATOM     84  C   UNL A   1      49.632  27.347  23.952  1.00  0.00     0.091 A 
ATOM     85  F   UNL A   1      47.404  28.203  23.922  1.00  0.00    -0.205 F 
ATOM     86  C   UNL A   1      50.758  26.956  24.692  1.00  0.00     0.022 A 
BRANCH  84  87
ATOM     87  S   UNL A   1      49.740  27.194  22.165  1.00  0.00     0.127 S 
ATOM     88  O   UNL A   1      49.475  28.565  21.733  1.00  0.00    -0.237 OA
ATOM     89  O   UNL A   1      51.124  26.750  21.989  1.00  0.00    -0.237 OA
ATOM     90  O   UNL A   1      48.734  26.213  21.789  1.00  0.00    -0.744 OA
ENDBRANCH  84  87
ENDBRANCH  56  80
BRANCH  68  91
ATOM     91  C   UNL A   1      46.313  33.820  28.797  1.00  0.00     0.023 A 
ATOM     92  C   UNL A   1      46.131  34.813  27.814  1.00  0.00     0.012 A 
ATOM     93  C   UNL A   1      47.055  34.127  29.957  1.00  0.00     0.148 A 
ATOM     94  C   UNL A   1      46.707  36.074  27.964  1.00  0.00     0.002 A 
ATOM     95  C   UNL A   1      47.579  35.402  30.125  1.00  0.00     0.091 A 
ATOM     96  F   UNL A   1      47.230  33.165  30.876  1.00  0.00    -0.205 F 
ATOM     97  C   UNL A   1      47.419  36.373  29.123  1.00  0.00     0.022 A 
BRANCH  95  98
ATOM     98  S   UNL A   1      48.426  35.908  31.627  1.00  0.00     0.127 S 
ATOM     99  O   UNL A   1      49.586  35.017  31.630  1.00  0.00    -0.237 OA
ATOM    100  O   UNL A   1      48.735  37.311  31.350  1.00  0.00    -0.237 OA
ATOM    101  O   UNL A   1      47.480  35.699  32.714  1.00  0.00    -0.744 OA
ENDBRANCH  95  98
ENDBRANCH  68  91
ENDBRANCH  42  43
ENDBRANCH  35  37
ENDBRANCH  34  35
ENDBRANCH  33  34
ENDBRANCH  32  33
ENDBRANCH  31  32
ENDBRANCH  30  31
ENDBRANCH   1  30
TORSDOF 25
ENDMDL
