MODEL 1
REMARK VINA RESULT:      -7.2      0.000      0.000
REMARK SMILES O=C(OCCOCCOCCOCCOC(=O)c1csc(C[NH2+][C@H]2CCSc3ccc(F)cc32)c1)c1ccc(-c2c3nc(c(-c4cccc(S(=O)(=O)[O-])c4F)c4ccc([nH]4)c(-c4cccc(S(=O)(=O)[O-])c4F)c4nc(c(-c5cccc(S(=O)(=O)[O-])c5F)c5ccc2[nH]5)C=C4)C=C3)cc1
REMARK SMILES IDX 9 1 8 2 7 3 6 4 5 5 4 6 3 7 2 8 1 9 36 10 37 11 98 12 38 13
REMARK SMILES IDX 97 14 39 15 40 16 41 17 91 18 42 19 96 20 90 21 92 22 43 23
REMARK SMILES IDX 95 24 89 25 88 26 44 28 76 29 56 30 75 31 57 32 60 33 74 34
REMARK SMILES IDX 93 35 58 36 59 37 73 39 94 40 61 41 45 42 46 43 54 44 47 45
REMARK SMILES IDX 49 46 55 47 48 48 50 49 51 50 52 51 53 52 77 53 78 54 86 55
REMARK SMILES IDX 79 56 81 57 87 58 80 59 82 60 83 61 84 62 85 63 62 64 63 65
REMARK SMILES IDX 71 66 64 67 66 68 72 69 65 70 67 71 68 72 69 73 70 74 10 75
REMARK SMILES IDX 11 76 12 77 13 78 14 79 15 80 16 81 17 82 18 83 19 84 35 85
REMARK SMILES IDX 20 86 21 87 22 88 23 89 24 92 25 93 34 94 26 95 28 96 33 97
REMARK SMILES IDX 27 98 29 99 31 100 30 101 32 102
REMARK H PARENT 92 27 60 38 23 90 23 91
REMARK Flexibility Score: inf
ROOT
ATOM      1  O   UNL A   1      47.122  26.170  24.173  1.00  0.00    -0.377 OA
ENDROOT
BRANCH   1   2
ATOM      2  C   UNL A   1      48.260  26.858  23.699  1.00  0.00     0.188 C 
BRANCH   2   3
ATOM      3  C   UNL A   1      49.577  26.472  24.376  1.00  0.00     0.188 C 
BRANCH   3   4
ATOM      4  O   UNL A   1      50.806  26.841  23.756  1.00  0.00    -0.376 OA
BRANCH   4   5
ATOM      5  C   UNL A   1      51.978  26.983  24.543  1.00  0.00     0.202 C 
BRANCH   5   6
ATOM      6  C   UNL A   1      52.730  25.709  24.921  1.00  0.00     0.261 C 
BRANCH   6   7
ATOM      7  O   UNL A   1      52.366  25.180  26.198  1.00  0.00    -0.460 OA
BRANCH   7   8
ATOM      8  C   UNL A   1      52.460  25.972  27.299  1.00  0.00     0.338 C 
ATOM      9  O   UNL A   1      53.537  26.182  27.842  1.00  0.00    -0.246 OA
BRANCH   8  10
ATOM     10  C   UNL A   1      51.186  26.254  28.019  1.00  0.00     0.060 A 
ATOM     11  C   UNL A   1      51.253  27.134  29.109  1.00  0.00     0.016 A 
ATOM     12  C   UNL A   1      49.951  25.716  27.644  1.00  0.00     0.016 A 
ATOM     13  C   UNL A   1      50.096  27.471  29.816  1.00  0.00     0.010 A 
ATOM     14  C   UNL A   1      48.802  26.015  28.375  1.00  0.00     0.010 A 
ATOM     15  C   UNL A   1      48.862  26.925  29.438  1.00  0.00    -0.014 A 
BRANCH  15  16
ATOM     16  C   UNL A   1      47.601  27.529  29.915  1.00  0.00     0.031 A 
ATOM     17  C   UNL A   1      47.076  28.824  29.391  1.00  0.00     0.074 A 
ATOM     18  C   UNL A   1      46.979  26.885  30.921  1.00  0.00     0.049 A 
ATOM     19  N   UNL A   1      45.927  29.392  29.651  1.00  0.00    -0.248 NA
ATOM     20  C   UNL A   1      47.934  29.588  28.474  1.00  0.00     0.031 C 
ATOM     21  C   UNL A   1      47.471  25.655  31.552  1.00  0.00     0.029 A 
ATOM     22  N   UNL A   1      45.832  27.175  31.607  1.00  0.00    -0.354 N 
ATOM     23  C   UNL A   1      45.914  30.578  28.931  1.00  0.00     0.074 A 
ATOM     24  C   UNL A   1      47.182  30.658  28.233  1.00  0.00     0.031 C 
ATOM     25  C   UNL A   1      46.641  25.309  32.545  1.00  0.00     0.029 A 
ATOM     26  C   UNL A   1      45.549  26.271  32.602  1.00  0.00     0.049 A 
ATOM     27  H   UNL A   1      45.265  27.955  31.407  1.00  0.00     0.167 HD
ATOM     28  C   UNL A   1      44.918  31.491  28.853  1.00  0.00     0.034 A 
ATOM     29  C   UNL A   1      44.506  26.201  33.450  1.00  0.00     0.034 A 
ATOM     30  C   UNL A   1      43.665  31.373  29.553  1.00  0.00     0.049 A 
ATOM     31  C   UNL A   1      43.401  27.201  33.311  1.00  0.00     0.074 A 
ATOM     32  C   UNL A   1      42.537  32.166  29.439  1.00  0.00     0.029 A 
ATOM     33  N   UNL A   1      43.384  30.417  30.520  1.00  0.00    -0.354 N 
ATOM     34  N   UNL A   1      43.303  28.191  32.458  1.00  0.00    -0.248 NA
ATOM     35  C   UNL A   1      42.249  27.055  34.207  1.00  0.00     0.031 C 
ATOM     36  C   UNL A   1      41.582  31.703  30.348  1.00  0.00     0.029 A 
ATOM     37  C   UNL A   1      42.112  30.616  31.027  1.00  0.00     0.049 A 
ATOM     38  H   UNL A   1      44.000  29.702  30.803  1.00  0.00     0.167 HD
ATOM     39  C   UNL A   1      42.067  28.775  32.695  1.00  0.00     0.074 A 
ATOM     40  C   UNL A   1      41.451  28.023  33.771  1.00  0.00     0.031 C 
ATOM     41  C   UNL A   1      41.503  29.841  32.078  1.00  0.00     0.034 A 
BRANCH  28  42
ATOM     42  C   UNL A   1      45.084  32.660  27.921  1.00  0.00     0.023 A 
ATOM     43  C   UNL A   1      44.626  32.538  26.594  1.00  0.00     0.012 A 
ATOM     44  C   UNL A   1      45.551  33.907  28.381  1.00  0.00     0.148 A 
ATOM     45  C   UNL A   1      44.635  33.637  25.735  1.00  0.00     0.002 A 
ATOM     46  C   UNL A   1      45.536  35.004  27.525  1.00  0.00     0.091 A 
ATOM     47  F   UNL A   1      45.986  33.999  29.646  1.00  0.00    -0.205 F 
ATOM     48  C   UNL A   1      45.080  34.870  26.203  1.00  0.00     0.022 A 
BRANCH  46  49
ATOM     49  S   UNL A   1      46.035  36.653  28.039  1.00  0.00     0.127 S 
ATOM     50  O   UNL A   1      47.493  36.553  27.965  1.00  0.00    -0.237 OA
ATOM     51  O   UNL A   1      45.430  37.494  27.006  1.00  0.00    -0.237 OA
ATOM     52  O   UNL A   1      45.494  36.841  29.377  1.00  0.00    -0.744 OA
ENDBRANCH  46  49
ENDBRANCH  28  42
BRANCH  29  53
ATOM     53  C   UNL A   1      44.432  25.043  34.377  1.00  0.00     0.023 A 
ATOM     54  C   UNL A   1      43.951  23.815  33.884  1.00  0.00     0.012 A 
ATOM     55  C   UNL A   1      44.991  25.103  35.669  1.00  0.00     0.148 A 
ATOM     56  C   UNL A   1      44.032  22.661  34.661  1.00  0.00     0.002 A 
ATOM     57  C   UNL A   1      45.098  23.942  36.425  1.00  0.00     0.091 A 
ATOM     58  F   UNL A   1      45.451  26.284  36.105  1.00  0.00    -0.205 F 
ATOM     59  C   UNL A   1      44.615  22.721  35.924  1.00  0.00     0.022 A 
BRANCH  57  60
ATOM     60  S   UNL A   1      45.940  23.891  38.012  1.00  0.00     0.127 S 
ATOM     61  O   UNL A   1      45.093  24.760  38.826  1.00  0.00    -0.237 OA
ATOM     62  O   UNL A   1      45.864  22.469  38.347  1.00  0.00    -0.237 OA
ATOM     63  O   UNL A   1      47.288  24.383  37.763  1.00  0.00    -0.744 OA
ENDBRANCH  57  60
ENDBRANCH  29  53
BRANCH  41  64
ATOM     64  C   UNL A   1      40.150  30.287  32.552  1.00  0.00     0.023 A 
ATOM     65  C   UNL A   1      39.003  29.740  31.947  1.00  0.00     0.012 A 
ATOM     66  C   UNL A   1      40.019  31.125  33.675  1.00  0.00     0.148 A 
ATOM     67  C   UNL A   1      37.737  30.022  32.456  1.00  0.00     0.002 A 
ATOM     68  C   UNL A   1      38.756  31.376  34.196  1.00  0.00     0.091 A 
ATOM     69  F   UNL A   1      41.131  31.630  34.227  1.00  0.00    -0.205 F 
ATOM     70  C   UNL A   1      37.614  30.828  33.586  1.00  0.00     0.022 A 
BRANCH  68  71
ATOM     71  S   UNL A   1      38.493  32.342  35.687  1.00  0.00     0.127 S 
ATOM     72  O   UNL A   1      39.113  33.618  35.329  1.00  0.00    -0.237 OA
ATOM     73  O   UNL A   1      37.034  32.376  35.777  1.00  0.00    -0.237 OA
ATOM     74  O   UNL A   1      39.158  31.618  36.762  1.00  0.00    -0.744 OA
ENDBRANCH  68  71
ENDBRANCH  41  64
ENDBRANCH  15  16
ENDBRANCH   8  10
ENDBRANCH   7   8
ENDBRANCH   6   7
ENDBRANCH   5   6
ENDBRANCH   4   5
ENDBRANCH   3   4
ENDBRANCH   2   3
ENDBRANCH   1   2
BRANCH   1  75
ATOM     75  C   UNL A   1      47.281  24.783  24.414  1.00  0.00     0.188 C 
BRANCH  75  76
ATOM     76  C   UNL A   1      46.333  24.113  25.423  1.00  0.00     0.188 C 
BRANCH  76  77
ATOM     77  O   UNL A   1      44.979  23.955  25.011  1.00  0.00    -0.376 OA
BRANCH  77  78
ATOM     78  C   UNL A   1      44.605  22.763  24.322  1.00  0.00     0.202 C 
BRANCH  78  79
ATOM     79  C   UNL A   1      44.354  21.509  25.174  1.00  0.00     0.261 C 
BRANCH  79  80
ATOM     80  O   UNL A   1      42.941  21.215  25.224  1.00  0.00    -0.460 OA
BRANCH  80  81
ATOM     81  C   UNL A   1      42.444  20.875  26.452  1.00  0.00     0.339 C 
ATOM     82  O   UNL A   1      42.410  19.746  26.902  1.00  0.00    -0.246 OA
BRANCH  81  83
ATOM     83  C   UNL A   1      42.179  22.060  27.269  1.00  0.00     0.071 A 
ATOM     84  C   UNL A   1      41.058  22.864  27.203  1.00  0.00     0.081 A 
ATOM     85  C   UNL A   1      43.135  22.610  28.187  1.00  0.00     0.037 A 
ATOM     86  S   UNL A   1      41.189  24.257  28.198  1.00  0.00    -0.142 S 
ATOM     87  C   UNL A   1      42.765  23.836  28.713  1.00  0.00     0.060 A 
BRANCH  87  88
ATOM     88  C   UNL A   1      43.619  24.663  29.651  1.00  0.00     0.308 C 
BRANCH  88  89
ATOM     89  N   UNL A   1      43.220  26.061  29.788  1.00  0.00    -0.336 N 
ATOM     90  H   UNL A   1      43.620  26.410  30.659  1.00  0.00     0.347 HD
ATOM     91  H   UNL A   1      42.201  26.049  29.756  1.00  0.00     0.347 HD
BRANCH  89  92
ATOM     92  C   UNL A   1      43.627  26.988  28.706  1.00  0.00     0.215 C 
ATOM     93  C   UNL A   1      44.749  26.391  27.831  1.00  0.00     0.081 C 
ATOM     94  C   UNL A   1      42.489  27.656  27.930  1.00  0.00     0.026 A 
ATOM     95  C   UNL A   1      45.223  27.346  26.759  1.00  0.00     0.081 C 
ATOM     96  C   UNL A   1      42.550  27.904  26.540  1.00  0.00     0.017 A 
ATOM     97  C   UNL A   1      41.402  28.219  28.635  1.00  0.00     0.050 A 
ATOM     98  S   UNL A   1      43.934  27.465  25.498  1.00  0.00    -0.125 SA
ATOM     99  C   UNL A   1      41.516  28.604  25.887  1.00  0.00     0.018 A 
ATOM    100  C   UNL A   1      40.407  28.942  27.976  1.00  0.00     0.123 A 
ATOM    101  C   UNL A   1      40.447  29.127  26.605  1.00  0.00     0.040 A 
ATOM    102  F   UNL A   1      39.414  29.495  28.684  1.00  0.00    -0.207 F 
ENDBRANCH  89  92
ENDBRANCH  88  89
ENDBRANCH  87  88
ENDBRANCH  81  83
ENDBRANCH  80  81
ENDBRANCH  79  80
ENDBRANCH  78  79
ENDBRANCH  77  78
ENDBRANCH  76  77
ENDBRANCH  75  76
ENDBRANCH   1  75
TORSDOF 26
ENDMDL
MODEL 2
REMARK VINA RESULT:      -7.1      5.651     10.282
REMARK SMILES O=C(OCCOCCOCCOCCOC(=O)c1csc(C[NH2+][C@H]2CCSc3ccc(F)cc32)c1)c1ccc(-c2c3nc(c(-c4cccc(S(=O)(=O)[O-])c4F)c4ccc([nH]4)c(-c4cccc(S(=O)(=O)[O-])c4F)c4nc(c(-c5cccc(S(=O)(=O)[O-])c5F)c5ccc2[nH]5)C=C4)C=C3)cc1
REMARK SMILES IDX 9 1 8 2 7 3 6 4 5 5 4 6 3 7 2 8 1 9 36 10 37 11 98 12 38 13
REMARK SMILES IDX 97 14 39 15 40 16 41 17 91 18 42 19 96 20 90 21 92 22 43 23
REMARK SMILES IDX 95 24 89 25 88 26 44 28 76 29 56 30 75 31 57 32 60 33 74 34
REMARK SMILES IDX 93 35 58 36 59 37 73 39 94 40 61 41 45 42 46 43 54 44 47 45
REMARK SMILES IDX 49 46 55 47 48 48 50 49 51 50 52 51 53 52 77 53 78 54 86 55
REMARK SMILES IDX 79 56 81 57 87 58 80 59 82 60 83 61 84 62 85 63 62 64 63 65
REMARK SMILES IDX 71 66 64 67 66 68 72 69 65 70 67 71 68 72 69 73 70 74 10 75
REMARK SMILES IDX 11 76 12 77 13 78 14 79 15 80 16 81 17 82 18 83 19 84 35 85
REMARK SMILES IDX 20 86 21 87 22 88 23 89 24 92 25 93 34 94 26 95 28 96 33 97
REMARK SMILES IDX 27 98 29 99 31 100 30 101 32 102
REMARK H PARENT 92 27 60 38 23 90 23 91
REMARK Flexibility Score: inf
ROOT
ATOM      1  O   UNL A   1      36.015  22.454  25.656  1.00  0.00    -0.377 OA
ENDROOT
BRANCH   1   2
ATOM      2  C   UNL A   1      36.772  23.627  25.447  1.00  0.00     0.188 C 
BRANCH   2   3
ATOM      3  C   UNL A   1      38.130  23.654  26.153  1.00  0.00     0.188 C 
BRANCH   3   4
ATOM      4  O   UNL A   1      39.127  22.712  25.765  1.00  0.00    -0.376 OA
BRANCH   4   5
ATOM      5  C   UNL A   1      39.213  21.462  26.433  1.00  0.00     0.202 C 
BRANCH   5   6
ATOM      6  C   UNL A   1      39.524  20.232  25.584  1.00  0.00     0.261 C 
BRANCH   6   7
ATOM      7  O   UNL A   1      40.394  19.294  26.223  1.00  0.00    -0.460 OA
BRANCH   7   8
ATOM      8  C   UNL A   1      41.738  19.404  26.044  1.00  0.00     0.338 C 
ATOM      9  O   UNL A   1      42.443  18.415  25.894  1.00  0.00    -0.246 OA
BRANCH   8  10
ATOM     10  C   UNL A   1      42.346  20.714  26.410  1.00  0.00     0.060 A 
ATOM     11  C   UNL A   1      42.820  21.512  25.357  1.00  0.00     0.016 A 
ATOM     12  C   UNL A   1      42.434  21.187  27.724  1.00  0.00     0.016 A 
ATOM     13  C   UNL A   1      43.377  22.766  25.618  1.00  0.00     0.010 A 
ATOM     14  C   UNL A   1      43.029  22.418  27.991  1.00  0.00     0.010 A 
ATOM     15  C   UNL A   1      43.465  23.231  26.937  1.00  0.00    -0.014 A 
BRANCH  15  16
ATOM     16  C   UNL A   1      43.701  24.664  27.209  1.00  0.00     0.031 A 
ATOM     17  C   UNL A   1      42.645  25.569  27.754  1.00  0.00     0.074 A 
ATOM     18  C   UNL A   1      44.911  25.143  26.860  1.00  0.00     0.049 A 
ATOM     19  N   UNL A   1      42.770  26.812  28.139  1.00  0.00    -0.248 NA
ATOM     20  C   UNL A   1      41.284  25.030  27.877  1.00  0.00     0.031 C 
ATOM     21  C   UNL A   1      45.975  24.344  26.240  1.00  0.00     0.029 A 
ATOM     22  N   UNL A   1      45.443  26.400  26.943  1.00  0.00    -0.354 N 
ATOM     23  C   UNL A   1      41.508  27.212  28.555  1.00  0.00     0.074 A 
ATOM     24  C   UNL A   1      40.624  26.080  28.360  1.00  0.00     0.031 C 
ATOM     25  C   UNL A   1      47.023  25.136  25.981  1.00  0.00     0.029 A 
ATOM     26  C   UNL A   1      46.719  26.485  26.440  1.00  0.00     0.049 A 
ATOM     27  H   UNL A   1      44.960  27.168  27.325  1.00  0.00     0.167 HD
ATOM     28  C   UNL A   1      41.145  28.409  29.072  1.00  0.00     0.034 A 
ATOM     29  C   UNL A   1      47.569  27.526  26.382  1.00  0.00     0.034 A 
ATOM     30  C   UNL A   1      42.055  29.509  29.263  1.00  0.00     0.049 A 
ATOM     31  C   UNL A   1      47.154  28.825  27.000  1.00  0.00     0.074 A 
ATOM     32  C   UNL A   1      41.825  30.714  29.903  1.00  0.00     0.029 A 
ATOM     33  N   UNL A   1      43.359  29.551  28.789  1.00  0.00    -0.354 N 
ATOM     34  N   UNL A   1      46.026  29.117  27.600  1.00  0.00    -0.248 NA
ATOM     35  C   UNL A   1      48.131  29.919  26.979  1.00  0.00     0.031 C 
ATOM     36  C   UNL A   1      42.983  31.491  29.800  1.00  0.00     0.029 A 
ATOM     37  C   UNL A   1      43.937  30.769  29.100  1.00  0.00     0.049 A 
ATOM     38  H   UNL A   1      43.806  28.820  28.303  1.00  0.00     0.167 HD
ATOM     39  C   UNL A   1      46.162  30.421  28.052  1.00  0.00     0.074 A 
ATOM     40  C   UNL A   1      47.488  30.861  27.658  1.00  0.00     0.031 C 
ATOM     41  C   UNL A   1      45.266  31.180  28.726  1.00  0.00     0.034 A 
BRANCH  28  42
ATOM     42  C   UNL A   1      39.732  28.585  29.556  1.00  0.00     0.023 A 
ATOM     43  C   UNL A   1      39.409  28.180  30.866  1.00  0.00     0.012 A 
ATOM     44  C   UNL A   1      38.771  29.272  28.786  1.00  0.00     0.148 A 
ATOM     45  C   UNL A   1      38.150  28.447  31.403  1.00  0.00     0.002 A 
ATOM     46  C   UNL A   1      37.525  29.555  29.337  1.00  0.00     0.091 A 
ATOM     47  F   UNL A   1      39.099  29.644  27.541  1.00  0.00    -0.205 F 
ATOM     48  C   UNL A   1      37.213  29.142  30.643  1.00  0.00     0.022 A 
BRANCH  46  49
ATOM     49  S   UNL A   1      36.262  30.492  28.468  1.00  0.00     0.127 S 
ATOM     50  O   UNL A   1      35.384  30.891  29.568  1.00  0.00    -0.237 OA
ATOM     51  O   UNL A   1      37.037  31.585  27.881  1.00  0.00    -0.237 OA
ATOM     52  O   UNL A   1      35.669  29.575  27.504  1.00  0.00    -0.744 OA
ENDBRANCH  46  49
ENDBRANCH  28  42
BRANCH  29  53
ATOM     53  C   UNL A   1      48.934  27.289  25.847  1.00  0.00     0.023 A 
ATOM     54  C   UNL A   1      49.143  27.403  24.460  1.00  0.00     0.012 A 
ATOM     55  C   UNL A   1      50.039  27.128  26.706  1.00  0.00     0.148 A 
ATOM     56  C   UNL A   1      50.434  27.368  23.934  1.00  0.00     0.002 A 
ATOM     57  C   UNL A   1      51.325  27.126  26.178  1.00  0.00     0.091 A 
ATOM     58  F   UNL A   1      49.808  27.033  28.023  1.00  0.00    -0.205 F 
ATOM     59  C   UNL A   1      51.523  27.242  24.792  1.00  0.00     0.022 A 
BRANCH  57  60
ATOM     60  S   UNL A   1      52.797  27.089  27.207  1.00  0.00     0.127 S 
ATOM     61  O   UNL A   1      53.099  28.512  27.344  1.00  0.00    -0.237 OA
ATOM     62  O   UNL A   1      52.298  26.447  28.423  1.00  0.00    -0.237 OA
ATOM     63  O   UNL A   1      53.779  26.308  26.469  1.00  0.00    -0.744 OA
ENDBRANCH  57  60
ENDBRANCH  29  53
BRANCH  41  64
ATOM     64  C   UNL A   1      45.665  32.585  29.076  1.00  0.00     0.023 A 
ATOM     65  C   UNL A   1      46.437  32.805  30.232  1.00  0.00     0.012 A 
ATOM     66  C   UNL A   1      45.399  33.651  28.197  1.00  0.00     0.148 A 
ATOM     67  C   UNL A   1      46.944  34.073  30.508  1.00  0.00     0.002 A 
ATOM     68  C   UNL A   1      45.933  34.905  28.464  1.00  0.00     0.091 A 
ATOM     69  F   UNL A   1      44.659  33.409  27.106  1.00  0.00    -0.205 F 
ATOM     70  C   UNL A   1      46.703  35.118  29.620  1.00  0.00     0.022 A 
BRANCH  68  71
ATOM     71  S   UNL A   1      45.742  36.301  27.349  1.00  0.00     0.127 S 
ATOM     72  O   UNL A   1      46.223  37.409  28.173  1.00  0.00    -0.237 OA
ATOM     73  O   UNL A   1      46.626  35.933  26.244  1.00  0.00    -0.237 OA
ATOM     74  O   UNL A   1      44.327  36.358  27.009  1.00  0.00    -0.744 OA
ENDBRANCH  68  71
ENDBRANCH  41  64
ENDBRANCH  15  16
ENDBRANCH   8  10
ENDBRANCH   7   8
ENDBRANCH   6   7
ENDBRANCH   5   6
ENDBRANCH   4   5
ENDBRANCH   3   4
ENDBRANCH   2   3
ENDBRANCH   1   2
BRANCH   1  75
ATOM     75  C   UNL A   1      36.054  21.488  24.620  1.00  0.00     0.188 C 
BRANCH  75  76
ATOM     76  C   UNL A   1      35.936  20.006  25.011  1.00  0.00     0.188 C 
BRANCH  76  77
ATOM     77  O   UNL A   1      34.756  19.331  24.583  1.00  0.00    -0.376 OA
BRANCH  77  78
ATOM     78  C   UNL A   1      33.612  19.339  25.435  1.00  0.00     0.202 C 
BRANCH  78  79
ATOM     79  C   UNL A   1      32.764  20.620  25.461  1.00  0.00     0.261 C 
BRANCH  79  80
ATOM     80  O   UNL A   1      31.767  20.578  24.416  1.00  0.00    -0.460 OA
BRANCH  80  81
ATOM     81  C   UNL A   1      32.128  21.141  23.223  1.00  0.00     0.339 C 
ATOM     82  O   UNL A   1      32.120  20.567  22.151  1.00  0.00    -0.246 OA
BRANCH  81  83
ATOM     83  C   UNL A   1      32.292  22.590  23.343  1.00  0.00     0.071 A 
ATOM     84  C   UNL A   1      33.416  23.316  23.002  1.00  0.00     0.081 A 
ATOM     85  C   UNL A   1      31.314  23.443  23.954  1.00  0.00     0.037 A 
ATOM     86  S   UNL A   1      33.291  24.970  23.448  1.00  0.00    -0.142 S 
ATOM     87  C   UNL A   1      31.743  24.745  24.141  1.00  0.00     0.060 A 
BRANCH  87  88
ATOM     88  C   UNL A   1      30.936  25.829  24.822  1.00  0.00     0.308 C 
BRANCH  88  89
ATOM     89  N   UNL A   1      31.675  27.044  25.155  1.00  0.00    -0.336 N 
ATOM     90  H   UNL A   1      32.669  26.821  25.104  1.00  0.00     0.347 HD
ATOM     91  H   UNL A   1      31.340  27.311  26.080  1.00  0.00     0.347 HD
BRANCH  89  92
ATOM     92  C   UNL A   1      31.439  28.232  24.303  1.00  0.00     0.215 C 
ATOM     93  C   UNL A   1      30.372  27.960  23.222  1.00  0.00     0.081 C 
ATOM     94  C   UNL A   1      31.286  29.566  25.038  1.00  0.00     0.026 A 
ATOM     95  C   UNL A   1      30.160  29.140  22.301  1.00  0.00     0.081 C 
ATOM     96  C   UNL A   1      30.381  30.571  24.627  1.00  0.00     0.017 A 
ATOM     97  C   UNL A   1      32.201  29.906  26.060  1.00  0.00     0.050 A 
ATOM     98  S   UNL A   1      29.287  30.426  23.222  1.00  0.00    -0.125 SA
ATOM     99  C   UNL A   1      30.343  31.818  25.280  1.00  0.00     0.018 A 
ATOM    100  C   UNL A   1      32.172  31.161  26.670  1.00  0.00     0.123 A 
ATOM    101  C   UNL A   1      31.241  32.115  26.300  1.00  0.00     0.040 A 
ATOM    102  F   UNL A   1      33.082  31.460  27.607  1.00  0.00    -0.207 F 
ENDBRANCH  89  92
ENDBRANCH  88  89
ENDBRANCH  87  88
ENDBRANCH  81  83
ENDBRANCH  80  81
ENDBRANCH  79  80
ENDBRANCH  78  79
ENDBRANCH  77  78
ENDBRANCH  76  77
ENDBRANCH  75  76
ENDBRANCH   1  75
TORSDOF 26
ENDMDL
MODEL 3
REMARK VINA RESULT:      -7.1      5.197     10.414
REMARK SMILES O=C(OCCOCCOCCOCCOC(=O)c1csc(C[NH2+][C@H]2CCSc3ccc(F)cc32)c1)c1ccc(-c2c3nc(c(-c4cccc(S(=O)(=O)[O-])c4F)c4ccc([nH]4)c(-c4cccc(S(=O)(=O)[O-])c4F)c4nc(c(-c5cccc(S(=O)(=O)[O-])c5F)c5ccc2[nH]5)C=C4)C=C3)cc1
REMARK SMILES IDX 9 1 8 2 7 3 6 4 5 5 4 6 3 7 2 8 1 9 36 10 37 11 98 12 38 13
REMARK SMILES IDX 97 14 39 15 40 16 41 17 91 18 42 19 96 20 90 21 92 22 43 23
REMARK SMILES IDX 95 24 89 25 88 26 44 28 76 29 56 30 75 31 57 32 60 33 74 34
REMARK SMILES IDX 93 35 58 36 59 37 73 39 94 40 61 41 45 42 46 43 54 44 47 45
REMARK SMILES IDX 49 46 55 47 48 48 50 49 51 50 52 51 53 52 77 53 78 54 86 55
REMARK SMILES IDX 79 56 81 57 87 58 80 59 82 60 83 61 84 62 85 63 62 64 63 65
REMARK SMILES IDX 71 66 64 67 66 68 72 69 65 70 67 71 68 72 69 73 70 74 10 75
REMARK SMILES IDX 11 76 12 77 13 78 14 79 15 80 16 81 17 82 18 83 19 84 35 85
REMARK SMILES IDX 20 86 21 87 22 88 23 89 24 92 25 93 34 94 26 95 28 96 33 97
REMARK SMILES IDX 27 98 29 99 31 100 30 101 32 102
REMARK H PARENT 92 27 60 38 23 90 23 91
REMARK Flexibility Score: inf
ROOT
ATOM      1  O   UNL A   1      36.397  22.663  25.606  1.00  0.00    -0.377 OA
ENDROOT
BRANCH   1   2
ATOM      2  C   UNL A   1      37.192  23.819  25.450  1.00  0.00     0.188 C 
BRANCH   2   3
ATOM      3  C   UNL A   1      38.368  23.931  26.423  1.00  0.00     0.188 C 
BRANCH   3   4
ATOM      4  O   UNL A   1      39.514  23.109  26.217  1.00  0.00    -0.376 OA
BRANCH   4   5
ATOM      5  C   UNL A   1      39.597  21.843  26.852  1.00  0.00     0.202 C 
BRANCH   5   6
ATOM      6  C   UNL A   1      39.745  20.615  25.957  1.00  0.00     0.261 C 
BRANCH   6   7
ATOM      7  O   UNL A   1      40.723  19.679  26.416  1.00  0.00    -0.460 OA
BRANCH   7   8
ATOM      8  C   UNL A   1      42.008  19.794  25.985  1.00  0.00     0.338 C 
ATOM      9  O   UNL A   1      42.655  18.811  25.644  1.00  0.00    -0.246 OA
BRANCH   8  10
ATOM     10  C   UNL A   1      42.697  21.077  26.299  1.00  0.00     0.060 A 
ATOM     11  C   UNL A   1      43.033  21.900  25.213  1.00  0.00     0.016 A 
ATOM     12  C   UNL A   1      42.987  21.501  27.599  1.00  0.00     0.016 A 
ATOM     13  C   UNL A   1      43.653  23.133  25.428  1.00  0.00     0.010 A 
ATOM     14  C   UNL A   1      43.646  22.710  27.814  1.00  0.00     0.010 A 
ATOM     15  C   UNL A   1      43.945  23.550  26.734  1.00  0.00    -0.014 A 
BRANCH  15  16
ATOM     16  C   UNL A   1      44.255  24.968  27.013  1.00  0.00     0.031 A 
ATOM     17  C   UNL A   1      43.238  25.931  27.530  1.00  0.00     0.074 A 
ATOM     18  C   UNL A   1      45.499  25.376  26.697  1.00  0.00     0.049 A 
ATOM     19  N   UNL A   1      43.423  27.165  27.919  1.00  0.00    -0.248 NA
ATOM     20  C   UNL A   1      41.845  25.471  27.616  1.00  0.00     0.031 C 
ATOM     21  C   UNL A   1      46.532  24.518  26.106  1.00  0.00     0.029 A 
ATOM     22  N   UNL A   1      46.100  26.601  26.795  1.00  0.00    -0.354 N 
ATOM     23  C   UNL A   1      42.175  27.637  28.302  1.00  0.00     0.074 A 
ATOM     24  C   UNL A   1      41.233  26.557  28.081  1.00  0.00     0.031 C 
ATOM     25  C   UNL A   1      47.631  25.248  25.876  1.00  0.00     0.029 A 
ATOM     26  C   UNL A   1      47.392  26.612  26.327  1.00  0.00     0.049 A 
ATOM     27  H   UNL A   1      45.651  27.395  27.165  1.00  0.00     0.167 HD
ATOM     28  C   UNL A   1      41.867  28.854  28.809  1.00  0.00     0.034 A 
ATOM     29  C   UNL A   1      48.301  27.604  26.293  1.00  0.00     0.034 A 
ATOM     30  C   UNL A   1      42.833  29.900  29.025  1.00  0.00     0.049 A 
ATOM     31  C   UNL A   1      47.944  28.924  26.901  1.00  0.00     0.074 A 
ATOM     32  C   UNL A   1      42.655  31.117  29.660  1.00  0.00     0.029 A 
ATOM     33  N   UNL A   1      44.149  29.867  28.587  1.00  0.00    -0.354 N 
ATOM     34  N   UNL A   1      46.819  29.280  27.470  1.00  0.00    -0.248 NA
ATOM     35  C   UNL A   1      48.982  29.961  26.907  1.00  0.00     0.031 C 
ATOM     36  C   UNL A   1      43.857  31.826  29.589  1.00  0.00     0.029 A 
ATOM     37  C   UNL A   1      44.787  31.050  28.914  1.00  0.00     0.049 A 
ATOM     38  H   UNL A   1      44.568  29.112  28.112  1.00  0.00     0.167 HD
ATOM     39  C   UNL A   1      47.017  30.575  27.926  1.00  0.00     0.074 A 
ATOM     40  C   UNL A   1      48.375  30.939  27.569  1.00  0.00     0.031 C 
ATOM     41  C   UNL A   1      46.148  31.385  28.576  1.00  0.00     0.034 A 
BRANCH  28  42
ATOM     42  C   UNL A   1      40.454  29.111  29.255  1.00  0.00     0.023 A 
ATOM     43  C   UNL A   1      39.478  29.401  28.281  1.00  0.00     0.012 A 
ATOM     44  C   UNL A   1      40.061  28.928  30.596  1.00  0.00     0.148 A 
ATOM     45  C   UNL A   1      38.133  29.511  28.632  1.00  0.00     0.002 A 
ATOM     46  C   UNL A   1      38.715  29.018  30.936  1.00  0.00     0.091 A 
ATOM     47  F   UNL A   1      41.007  28.658  31.507  1.00  0.00    -0.205 F 
ATOM     48  C   UNL A   1      37.751  29.311  29.956  1.00  0.00     0.022 A 
BRANCH  46  49
ATOM     49  S   UNL A   1      38.103  28.724  32.600  1.00  0.00     0.127 S 
ATOM     50  O   UNL A   1      36.716  29.174  32.486  1.00  0.00    -0.237 OA
ATOM     51  O   UNL A   1      38.265  27.276  32.736  1.00  0.00    -0.237 OA
ATOM     52  O   UNL A   1      38.942  29.520  33.485  1.00  0.00    -0.744 OA
ENDBRANCH  46  49
ENDBRANCH  28  42
BRANCH  29  53
ATOM     53  C   UNL A   1      49.664  27.288  25.795  1.00  0.00     0.023 A 
ATOM     54  C   UNL A   1      50.550  26.600  26.646  1.00  0.00     0.012 A 
ATOM     55  C   UNL A   1      50.020  27.505  24.450  1.00  0.00     0.148 A 
ATOM     56  C   UNL A   1      51.768  26.125  26.164  1.00  0.00     0.002 A 
ATOM     57  C   UNL A   1      51.222  27.001  23.967  1.00  0.00     0.091 A 
ATOM     58  F   UNL A   1      49.151  28.154  23.662  1.00  0.00    -0.205 F 
ATOM     59  C   UNL A   1      52.099  26.315  24.824  1.00  0.00     0.022 A 
BRANCH  57  60
ATOM     60  S   UNL A   1      51.685  27.087  22.234  1.00  0.00     0.127 S 
ATOM     61  O   UNL A   1      50.449  26.670  21.575  1.00  0.00    -0.237 OA
ATOM     62  O   UNL A   1      52.016  28.503  22.080  1.00  0.00    -0.237 OA
ATOM     63  O   UNL A   1      52.815  26.181  22.078  1.00  0.00    -0.744 OA
ENDBRANCH  57  60
ENDBRANCH  29  53
BRANCH  41  64
ATOM     64  C   UNL A   1      46.616  32.765  28.938  1.00  0.00     0.023 A 
ATOM     65  C   UNL A   1      47.330  32.948  30.137  1.00  0.00     0.012 A 
ATOM     66  C   UNL A   1      46.476  33.835  28.035  1.00  0.00     0.148 A 
ATOM     67  C   UNL A   1      47.901  34.184  30.434  1.00  0.00     0.002 A 
ATOM     68  C   UNL A   1      47.075  35.055  28.323  1.00  0.00     0.091 A 
ATOM     69  F   UNL A   1      45.789  33.628  26.903  1.00  0.00    -0.205 F 
ATOM     70  C   UNL A   1      47.785  35.232  29.523  1.00  0.00     0.022 A 
BRANCH  68  71
ATOM     71  S   UNL A   1      47.044  36.445  27.187  1.00  0.00     0.127 S 
ATOM     72  O   UNL A   1      47.594  35.848  25.970  1.00  0.00    -0.237 OA
ATOM     73  O   UNL A   1      45.617  36.757  27.123  1.00  0.00    -0.237 OA
ATOM     74  O   UNL A   1      47.872  37.481  27.790  1.00  0.00    -0.744 OA
ENDBRANCH  68  71
ENDBRANCH  41  64
ENDBRANCH  15  16
ENDBRANCH   8  10
ENDBRANCH   7   8
ENDBRANCH   6   7
ENDBRANCH   5   6
ENDBRANCH   4   5
ENDBRANCH   3   4
ENDBRANCH   2   3
ENDBRANCH   1   2
BRANCH   1  75
ATOM     75  C   UNL A   1      36.541  21.662  24.614  1.00  0.00     0.188 C 
BRANCH  75  76
ATOM     76  C   UNL A   1      36.269  20.203  25.016  1.00  0.00     0.188 C 
BRANCH  76  77
ATOM     77  O   UNL A   1      34.996  19.674  24.654  1.00  0.00    -0.376 OA
BRANCH  77  78
ATOM     78  C   UNL A   1      34.040  19.421  25.682  1.00  0.00     0.202 C 
BRANCH  78  79
ATOM     79  C   UNL A   1      32.992  20.512  25.951  1.00  0.00     0.261 C 
BRANCH  79  80
ATOM     80  O   UNL A   1      31.908  20.406  25.002  1.00  0.00    -0.460 OA
BRANCH  80  81
ATOM     81  C   UNL A   1      32.272  20.316  23.687  1.00  0.00     0.339 C 
ATOM     82  O   UNL A   1      32.193  19.310  23.009  1.00  0.00    -0.246 OA
BRANCH  81  83
ATOM     83  C   UNL A   1      32.537  21.637  23.115  1.00  0.00     0.071 A 
ATOM     84  C   UNL A   1      32.386  21.999  21.791  1.00  0.00     0.081 A 
ATOM     85  C   UNL A   1      33.112  22.716  23.865  1.00  0.00     0.037 A 
ATOM     86  S   UNL A   1      32.961  23.586  21.474  1.00  0.00    -0.142 S 
ATOM     87  C   UNL A   1      33.460  23.812  23.095  1.00  0.00     0.060 A 
BRANCH  87  88
ATOM     88  C   UNL A   1      34.143  25.055  23.624  1.00  0.00     0.308 C 
BRANCH  88  89
ATOM     89  N   UNL A   1      33.983  26.253  22.804  1.00  0.00    -0.336 N 
ATOM     90  H   UNL A   1      33.856  25.949  21.839  1.00  0.00     0.347 HD
ATOM     91  H   UNL A   1      34.824  26.803  22.975  1.00  0.00     0.347 HD
BRANCH  89  92
ATOM     92  C   UNL A   1      32.858  27.155  23.141  1.00  0.00     0.215 C 
ATOM     93  C   UNL A   1      31.560  26.750  22.413  1.00  0.00     0.081 C 
ATOM     94  C   UNL A   1      32.688  27.492  24.625  1.00  0.00     0.026 A 
ATOM     95  C   UNL A   1      30.414  27.695  22.694  1.00  0.00     0.081 C 
ATOM     96  C   UNL A   1      31.423  27.635  25.240  1.00  0.00     0.017 A 
ATOM     97  C   UNL A   1      33.818  27.860  25.389  1.00  0.00     0.050 A 
ATOM     98  S   UNL A   1      29.863  27.427  24.394  1.00  0.00    -0.125 SA
ATOM     99  C   UNL A   1      31.318  28.037  26.586  1.00  0.00     0.018 A 
ATOM    100  C   UNL A   1      33.690  28.291  26.710  1.00  0.00     0.123 A 
ATOM    101  C   UNL A   1      32.451  28.369  27.320  1.00  0.00     0.040 A 
ATOM    102  F   UNL A   1      34.781  28.669  27.389  1.00  0.00    -0.207 F 
ENDBRANCH  89  92
ENDBRANCH  88  89
ENDBRANCH  87  88
ENDBRANCH  81  83
ENDBRANCH  80  81
ENDBRANCH  79  80
ENDBRANCH  78  79
ENDBRANCH  77  78
ENDBRANCH  76  77
ENDBRANCH  75  76
ENDBRANCH   1  75
TORSDOF 26
ENDMDL
