MODEL 1
REMARK VINA RESULT:     -10.8      0.000      0.000
REMARK SMILES Cc1ccc2c(c1)C=C(C(=O)OCCOCCOCCOCCOC(=O)c1ccc(-c3c4nc(c(-c5cccc(S(=O)(=O)[O-])c5F)c5ccc([nH]5)c(-c5cccc(S(=O)(=O)[O-])c5F)c5nc(c(-c6cccc(S(=O)(=O)[O-])c6F)c6ccc3[nH]6)C=C5)C=C4)cc1)[C@@H](C(F)(F)F)O2
REMARK SMILES IDX 19 1 18 2 17 3 16 4 15 5 14 6 13 7 12 8 10 9 11 10 9 11 1 12
REMARK SMILES IDX 2 13 3 14 7 15 4 16 6 17 5 18 8 19 95 20 90 21 91 22 92 23
REMARK SMILES IDX 93 24 94 25 20 26 21 27 22 28 23 29 24 30 25 31 26 32 27 33
REMARK SMILES IDX 28 34 89 35 29 36 88 37 30 38 31 39 32 40 82 41 33 42 87 43
REMARK SMILES IDX 81 44 83 45 34 46 86 47 80 48 79 49 35 51 67 52 47 53 66 54
REMARK SMILES IDX 48 55 51 56 65 57 84 58 49 59 50 60 64 62 85 63 52 64 36 65
REMARK SMILES IDX 37 66 45 67 38 68 40 69 46 70 39 71 41 72 42 73 43 74 44 75
REMARK SMILES IDX 68 76 69 77 77 78 70 79 72 80 78 81 71 82 73 83 74 84 75 85
REMARK SMILES IDX 76 86 53 87 54 88 62 89 55 90 57 91 63 92 56 93 58 94 59 95
REMARK SMILES IDX 60 96 61 97
REMARK H PARENT 83 50 51 61
REMARK Flexibility Score: inf
ROOT
ATOM      1  C   UNL A   1      33.635  28.004  24.827  1.00  0.00     0.188 C 
ENDROOT
BRANCH   1   2
ATOM      2  O   UNL A   1      33.033  28.834  23.833  1.00  0.00    -0.377 OA
BRANCH   2   3
ATOM      3  C   UNL A   1      31.630  28.732  23.662  1.00  0.00     0.188 C 
BRANCH   3   4
ATOM      4  C   UNL A   1      31.241  27.687  22.599  1.00  0.00     0.188 C 
BRANCH   4   5
ATOM      5  O   UNL A   1      30.167  26.846  23.011  1.00  0.00    -0.376 OA
BRANCH   5   6
ATOM      6  C   UNL A   1      30.404  25.942  24.084  1.00  0.00     0.202 C 
BRANCH   6   7
ATOM      7  C   UNL A   1      31.404  24.791  23.877  1.00  0.00     0.261 C 
BRANCH   7   8
ATOM      8  O   UNL A   1      30.965  23.497  24.317  1.00  0.00    -0.460 OA
BRANCH   8   9
ATOM      9  C   UNL A   1      31.372  23.064  25.524  1.00  0.00     0.338 C 
ATOM     10  O   UNL A   1      30.876  23.328  26.604  1.00  0.00    -0.246 OA
BRANCH   9  11
ATOM     11  C   UNL A   1      32.432  22.051  25.304  1.00  0.00     0.087 C 
ATOM     12  C   UNL A   1      33.283  16.017  24.400  1.00  0.00     0.044 C 
ATOM     13  C   UNL A   1      33.683  17.457  24.529  1.00  0.00    -0.050 A 
ATOM     14  C   UNL A   1      35.029  17.834  24.548  1.00  0.00     0.007 A 
ATOM     15  C   UNL A   1      32.697  18.443  24.675  1.00  0.00     0.015 A 
ATOM     16  C   UNL A   1      35.382  19.177  24.691  1.00  0.00     0.047 A 
ATOM     17  C   UNL A   1      33.050  19.786  24.858  1.00  0.00     0.017 A 
ATOM     18  C   UNL A   1      34.396  20.151  24.844  1.00  0.00     0.128 A 
ATOM     19  C   UNL A   1      32.030  20.790  25.100  1.00  0.00     0.027 C 
ATOM     20  O   UNL A   1      34.837  21.435  24.983  1.00  0.00    -0.475 OA
ATOM     21  C   UNL A   1      33.874  22.495  25.242  1.00  0.00     0.316 C 
BRANCH  21  22
ATOM     22  C   UNL A   1      34.305  23.229  26.519  1.00  0.00     0.430 C 
ATOM     23  F   UNL A   1      35.654  23.307  26.612  1.00  0.00    -0.167 F 
ATOM     24  F   UNL A   1      33.834  24.496  26.562  1.00  0.00    -0.167 F 
ATOM     25  F   UNL A   1      33.859  22.597  27.631  1.00  0.00    -0.167 F 
ENDBRANCH  21  22
ENDBRANCH   9  11
ENDBRANCH   8   9
ENDBRANCH   7   8
ENDBRANCH   6   7
ENDBRANCH   5   6
ENDBRANCH   4   5
ENDBRANCH   3   4
ENDBRANCH   2   3
ENDBRANCH   1   2
BRANCH   1  26
ATOM     26  C   UNL A   1      32.813  27.437  26.007  1.00  0.00     0.188 C 
BRANCH  26  27
ATOM     27  O   UNL A   1      32.792  28.284  27.157  1.00  0.00    -0.376 OA
BRANCH  27  28
ATOM     28  C   UNL A   1      31.685  29.169  27.274  1.00  0.00     0.202 C 
BRANCH  28  29
ATOM     29  C   UNL A   1      32.015  30.624  26.924  1.00  0.00     0.261 C 
BRANCH  29  30
ATOM     30  O   UNL A   1      33.413  30.913  26.774  1.00  0.00    -0.460 OA
BRANCH  30  31
ATOM     31  C   UNL A   1      33.946  31.876  27.561  1.00  0.00     0.338 C 
ATOM     32  O   UNL A   1      33.404  32.902  27.931  1.00  0.00    -0.246 OA
BRANCH  31  33
ATOM     33  C   UNL A   1      35.239  31.364  28.060  1.00  0.00     0.060 A 
ATOM     34  C   UNL A   1      36.323  32.232  28.224  1.00  0.00     0.016 A 
ATOM     35  C   UNL A   1      35.379  29.995  28.321  1.00  0.00     0.016 A 
ATOM     36  C   UNL A   1      37.542  31.732  28.680  1.00  0.00     0.010 A 
ATOM     37  C   UNL A   1      36.605  29.496  28.768  1.00  0.00     0.010 A 
ATOM     38  C   UNL A   1      37.686  30.366  28.973  1.00  0.00    -0.014 A 
BRANCH  38  39
ATOM     39  C   UNL A   1      38.899  29.900  29.686  1.00  0.00     0.031 A 
ATOM     40  C   UNL A   1      39.279  30.408  31.044  1.00  0.00     0.074 A 
ATOM     41  C   UNL A   1      39.674  28.994  29.061  1.00  0.00     0.049 A 
ATOM     42  N   UNL A   1      40.260  30.012  31.812  1.00  0.00    -0.248 NA
ATOM     43  C   UNL A   1      38.466  31.492  31.612  1.00  0.00     0.031 C 
ATOM     44  C   UNL A   1      39.428  28.471  27.714  1.00  0.00     0.029 A 
ATOM     45  N   UNL A   1      40.817  28.356  29.464  1.00  0.00    -0.354 N 
ATOM     46  C   UNL A   1      40.193  30.796  32.955  1.00  0.00     0.074 A 
ATOM     47  C   UNL A   1      39.079  31.705  32.773  1.00  0.00     0.031 C 
ATOM     48  C   UNL A   1      40.387  27.586  27.407  1.00  0.00     0.029 A 
ATOM     49  C   UNL A   1      41.318  27.486  28.527  1.00  0.00     0.049 A 
ATOM     50  H   UNL A   1      41.240  28.507  30.341  1.00  0.00     0.167 HD
ATOM     51  C   UNL A   1      40.976  30.742  34.059  1.00  0.00     0.034 A 
ATOM     52  C   UNL A   1      42.399  26.685  28.563  1.00  0.00     0.034 A 
ATOM     53  C   UNL A   1      42.073  29.826  34.238  1.00  0.00     0.049 A 
ATOM     54  C   UNL A   1      43.238  26.636  29.804  1.00  0.00     0.074 A 
ATOM     55  C   UNL A   1      42.874  29.656  35.355  1.00  0.00     0.029 A 
ATOM     56  N   UNL A   1      42.535  28.938  33.279  1.00  0.00    -0.354 N 
ATOM     57  N   UNL A   1      43.069  27.279  30.933  1.00  0.00    -0.248 NA
ATOM     58  C   UNL A   1      44.396  25.731  29.793  1.00  0.00     0.031 C 
ATOM     59  C   UNL A   1      43.829  28.676  35.067  1.00  0.00     0.029 A 
ATOM     60  C   UNL A   1      43.614  28.226  33.774  1.00  0.00     0.049 A 
ATOM     61  H   UNL A   1      42.151  28.829  32.379  1.00  0.00     0.167 HD
ATOM     62  C   UNL A   1      44.085  26.845  31.773  1.00  0.00     0.074 A 
ATOM     63  C   UNL A   1      44.858  25.871  31.029  1.00  0.00     0.031 C 
ATOM     64  C   UNL A   1      44.357  27.232  33.042  1.00  0.00     0.034 A 
BRANCH  51  65
ATOM     65  C   UNL A   1      40.648  31.652  35.212  1.00  0.00     0.023 A 
ATOM     66  C   UNL A   1      41.368  32.855  35.353  1.00  0.00     0.012 A 
ATOM     67  C   UNL A   1      39.553  31.393  36.058  1.00  0.00     0.148 A 
ATOM     68  C   UNL A   1      41.004  33.788  36.324  1.00  0.00     0.002 A 
ATOM     69  C   UNL A   1      39.180  32.340  37.007  1.00  0.00     0.091 A 
ATOM     70  F   UNL A   1      38.889  30.239  35.906  1.00  0.00    -0.205 F 
ATOM     71  C   UNL A   1      39.906  33.535  37.142  1.00  0.00     0.022 A 
BRANCH  69  72
ATOM     72  S   UNL A   1      37.749  32.140  38.073  1.00  0.00     0.127 S 
ATOM     73  O   UNL A   1      36.802  33.079  37.474  1.00  0.00    -0.237 OA
ATOM     74  O   UNL A   1      37.414  30.729  37.878  1.00  0.00    -0.237 OA
ATOM     75  O   UNL A   1      38.193  32.483  39.416  1.00  0.00    -0.744 OA
ENDBRANCH  69  72
ENDBRANCH  51  65
BRANCH  52  76
ATOM     76  C   UNL A   1      42.681  25.806  27.399  1.00  0.00     0.023 A 
ATOM     77  C   UNL A   1      43.519  26.277  26.371  1.00  0.00     0.012 A 
ATOM     78  C   UNL A   1      42.203  24.483  27.354  1.00  0.00     0.148 A 
ATOM     79  C   UNL A   1      43.872  25.443  25.311  1.00  0.00     0.002 A 
ATOM     80  C   UNL A   1      42.590  23.646  26.316  1.00  0.00     0.091 A 
ATOM     81  F   UNL A   1      41.409  24.063  28.350  1.00  0.00    -0.205 F 
ATOM     82  C   UNL A   1      43.418  24.127  25.288  1.00  0.00     0.022 A 
BRANCH  80  83
ATOM     83  S   UNL A   1      42.146  21.907  26.254  1.00  0.00     0.127 S 
ATOM     84  O   UNL A   1      40.716  21.975  25.964  1.00  0.00    -0.237 OA
ATOM     85  O   UNL A   1      42.978  21.426  25.151  1.00  0.00    -0.237 OA
ATOM     86  O   UNL A   1      42.493  21.362  27.559  1.00  0.00    -0.744 OA
ENDBRANCH  80  83
ENDBRANCH  52  76
BRANCH  64  87
ATOM     87  C   UNL A   1      45.541  26.611  33.729  1.00  0.00     0.023 A 
ATOM     88  C   UNL A   1      46.781  27.278  33.701  1.00  0.00     0.012 A 
ATOM     89  C   UNL A   1      45.400  25.435  34.492  1.00  0.00     0.148 A 
ATOM     90  C   UNL A   1      47.868  26.779  34.416  1.00  0.00     0.002 A 
ATOM     91  C   UNL A   1      46.480  24.962  35.229  1.00  0.00     0.091 A 
ATOM     92  F   UNL A   1      44.212  24.814  34.494  1.00  0.00    -0.205 F 
ATOM     93  C   UNL A   1      47.715  25.629  35.188  1.00  0.00     0.022 A 
BRANCH  91  94
ATOM     94  S   UNL A   1      46.364  23.531  36.310  1.00  0.00     0.127 S 
ATOM     95  O   UNL A   1      45.244  23.900  37.175  1.00  0.00    -0.237 OA
ATOM     96  O   UNL A   1      46.076  22.453  35.364  1.00  0.00    -0.237 OA
ATOM     97  O   UNL A   1      47.653  23.424  36.980  1.00  0.00    -0.744 OA
ENDBRANCH  91  94
ENDBRANCH  64  87
ENDBRANCH  38  39
ENDBRANCH  31  33
ENDBRANCH  30  31
ENDBRANCH  29  30
ENDBRANCH  28  29
ENDBRANCH  27  28
ENDBRANCH  26  27
ENDBRANCH   1  26
TORSDOF 24
ENDMDL
MODEL 2
REMARK VINA RESULT:     -10.3      1.754      2.567
REMARK SMILES Cc1ccc2c(c1)C=C(C(=O)OCCOCCOCCOCCOC(=O)c1ccc(-c3c4nc(c(-c5cccc(S(=O)(=O)[O-])c5F)c5ccc([nH]5)c(-c5cccc(S(=O)(=O)[O-])c5F)c5nc(c(-c6cccc(S(=O)(=O)[O-])c6F)c6ccc3[nH]6)C=C5)C=C4)cc1)[C@@H](C(F)(F)F)O2
REMARK SMILES IDX 19 1 18 2 17 3 16 4 15 5 14 6 13 7 12 8 10 9 11 10 9 11 1 12
REMARK SMILES IDX 2 13 3 14 7 15 4 16 6 17 5 18 8 19 95 20 90 21 91 22 92 23
REMARK SMILES IDX 93 24 94 25 20 26 21 27 22 28 23 29 24 30 25 31 26 32 27 33
REMARK SMILES IDX 28 34 89 35 29 36 88 37 30 38 31 39 32 40 82 41 33 42 87 43
REMARK SMILES IDX 81 44 83 45 34 46 86 47 80 48 79 49 35 51 67 52 47 53 66 54
REMARK SMILES IDX 48 55 51 56 65 57 84 58 49 59 50 60 64 62 85 63 52 64 36 65
REMARK SMILES IDX 37 66 45 67 38 68 40 69 46 70 39 71 41 72 42 73 43 74 44 75
REMARK SMILES IDX 68 76 69 77 77 78 70 79 72 80 78 81 71 82 73 83 74 84 75 85
REMARK SMILES IDX 76 86 53 87 54 88 62 89 55 90 57 91 63 92 56 93 58 94 59 95
REMARK SMILES IDX 60 96 61 97
REMARK H PARENT 83 50 51 61
REMARK Flexibility Score: inf
ROOT
ATOM      1  C   UNL A   1      31.541  27.164  24.975  1.00  0.00     0.188 C 
ENDROOT
BRANCH   1   2
ATOM      2  O   UNL A   1      31.394  25.747  25.067  1.00  0.00    -0.377 OA
BRANCH   2   3
ATOM      3  C   UNL A   1      31.072  25.205  26.337  1.00  0.00     0.188 C 
BRANCH   3   4
ATOM      4  C   UNL A   1      31.197  23.671  26.371  1.00  0.00     0.188 C 
BRANCH   4   5
ATOM      5  O   UNL A   1      31.558  23.170  27.655  1.00  0.00    -0.376 OA
BRANCH   5   6
ATOM      6  C   UNL A   1      32.806  22.497  27.780  1.00  0.00     0.202 C 
BRANCH   6   7
ATOM      7  C   UNL A   1      34.095  23.250  27.407  1.00  0.00     0.261 C 
BRANCH   7   8
ATOM      8  O   UNL A   1      34.210  23.643  26.030  1.00  0.00    -0.460 OA
BRANCH   8   9
ATOM      9  C   UNL A   1      35.086  22.981  25.252  1.00  0.00     0.338 C 
ATOM     10  O   UNL A   1      36.267  23.235  25.097  1.00  0.00    -0.246 OA
BRANCH   9  11
ATOM     11  C   UNL A   1      34.409  21.764  24.746  1.00  0.00     0.087 C 
ATOM     12  C   UNL A   1      34.878  15.623  24.637  1.00  0.00     0.044 C 
ATOM     13  C   UNL A   1      34.245  16.957  24.376  1.00  0.00    -0.050 A 
ATOM     14  C   UNL A   1      33.099  17.070  23.584  1.00  0.00     0.007 A 
ATOM     15  C   UNL A   1      34.831  18.119  24.897  1.00  0.00     0.015 A 
ATOM     16  C   UNL A   1      32.536  18.323  23.334  1.00  0.00     0.047 A 
ATOM     17  C   UNL A   1      34.291  19.381  24.614  1.00  0.00     0.017 A 
ATOM     18  C   UNL A   1      33.130  19.476  23.848  1.00  0.00     0.128 A 
ATOM     19  C   UNL A   1      34.953  20.587  25.078  1.00  0.00     0.027 C 
ATOM     20  O   UNL A   1      32.512  20.655  23.546  1.00  0.00    -0.475 OA
ATOM     21  C   UNL A   1      33.124  21.907  23.966  1.00  0.00     0.316 C 
BRANCH  21  22
ATOM     22  C   UNL A   1      33.300  22.792  22.724  1.00  0.00     0.430 C 
ATOM     23  F   UNL A   1      32.525  22.363  21.700  1.00  0.00    -0.167 F 
ATOM     24  F   UNL A   1      32.959  24.078  22.964  1.00  0.00    -0.167 F 
ATOM     25  F   UNL A   1      34.582  22.790  22.289  1.00  0.00    -0.167 F 
ENDBRANCH  21  22
ENDBRANCH   9  11
ENDBRANCH   8   9
ENDBRANCH   7   8
ENDBRANCH   6   7
ENDBRANCH   5   6
ENDBRANCH   4   5
ENDBRANCH   3   4
ENDBRANCH   2   3
ENDBRANCH   1   2
BRANCH   1  26
ATOM     26  C   UNL A   1      31.738  27.865  23.612  1.00  0.00     0.188 C 
BRANCH  26  27
ATOM     27  O   UNL A   1      31.026  29.097  23.488  1.00  0.00    -0.376 OA
BRANCH  27  28
ATOM     28  C   UNL A   1      31.007  29.938  24.635  1.00  0.00     0.202 C 
BRANCH  28  29
ATOM     29  C   UNL A   1      32.376  30.107  25.302  1.00  0.00     0.261 C 
BRANCH  29  30
ATOM     30  O   UNL A   1      32.340  30.358  26.714  1.00  0.00    -0.460 OA
BRANCH  30  31
ATOM     31  C   UNL A   1      32.921  31.492  27.169  1.00  0.00     0.338 C 
ATOM     32  O   UNL A   1      32.411  32.595  27.247  1.00  0.00    -0.246 OA
BRANCH  31  33
ATOM     33  C   UNL A   1      34.226  31.111  27.748  1.00  0.00     0.060 A 
ATOM     34  C   UNL A   1      35.198  32.086  27.992  1.00  0.00     0.016 A 
ATOM     35  C   UNL A   1      34.495  29.761  28.002  1.00  0.00     0.016 A 
ATOM     36  C   UNL A   1      36.432  31.710  28.522  1.00  0.00     0.010 A 
ATOM     37  C   UNL A   1      35.736  29.386  28.524  1.00  0.00     0.010 A 
ATOM     38  C   UNL A   1      36.702  30.362  28.810  1.00  0.00    -0.014 A 
BRANCH  38  39
ATOM     39  C   UNL A   1      37.909  30.015  29.597  1.00  0.00     0.031 A 
ATOM     40  C   UNL A   1      38.150  30.546  30.977  1.00  0.00     0.074 A 
ATOM     41  C   UNL A   1      38.809  29.197  29.019  1.00  0.00     0.049 A 
ATOM     42  N   UNL A   1      39.116  30.245  31.805  1.00  0.00    -0.248 NA
ATOM     43  C   UNL A   1      37.197  31.538  31.496  1.00  0.00     0.031 C 
ATOM     44  C   UNL A   1      38.702  28.664  27.659  1.00  0.00     0.029 A 
ATOM     45  N   UNL A   1      39.984  28.675  29.492  1.00  0.00    -0.354 N 
ATOM     46  C   UNL A   1      38.899  31.008  32.943  1.00  0.00     0.074 A 
ATOM     47  C   UNL A   1      37.712  31.801  32.694  1.00  0.00     0.031 C 
ATOM     48  C   UNL A   1      39.764  27.884  27.410  1.00  0.00     0.029 A 
ATOM     49  C   UNL A   1      40.628  27.868  28.586  1.00  0.00     0.049 A 
ATOM     50  H   UNL A   1      40.334  28.860  30.394  1.00  0.00     0.167 HD
ATOM     51  C   UNL A   1      39.613  31.024  34.094  1.00  0.00     0.034 A 
ATOM     52  C   UNL A   1      41.781  27.180  28.689  1.00  0.00     0.034 A 
ATOM     53  C   UNL A   1      40.784  30.221  34.339  1.00  0.00     0.049 A 
ATOM     54  C   UNL A   1      42.541  27.206  29.979  1.00  0.00     0.074 A 
ATOM     55  C   UNL A   1      41.526  30.123  35.504  1.00  0.00     0.029 A 
ATOM     56  N   UNL A   1      41.392  29.393  33.410  1.00  0.00    -0.354 N 
ATOM     57  N   UNL A   1      42.237  27.818  31.098  1.00  0.00    -0.248 NA
ATOM     58  C   UNL A   1      43.783  26.423  30.039  1.00  0.00     0.031 C 
ATOM     59  C   UNL A   1      42.592  29.248  35.274  1.00  0.00     0.029 A 
ATOM     60  C   UNL A   1      42.505  28.789  33.970  1.00  0.00     0.049 A 
ATOM     61  H   UNL A   1      41.078  29.254  32.487  1.00  0.00     0.167 HD
ATOM     62  C   UNL A   1      43.237  27.481  31.999  1.00  0.00     0.074 A 
ATOM     63  C   UNL A   1      44.151  26.597  31.302  1.00  0.00     0.031 C 
ATOM     64  C   UNL A   1      43.389  27.882  33.283  1.00  0.00     0.034 A 
BRANCH  51  65
ATOM     65  C   UNL A   1      39.122  31.886  35.226  1.00  0.00     0.023 A 
ATOM     66  C   UNL A   1      38.230  31.331  36.163  1.00  0.00     0.012 A 
ATOM     67  C   UNL A   1      39.645  33.176  35.441  1.00  0.00     0.148 A 
ATOM     68  C   UNL A   1      37.859  32.050  37.300  1.00  0.00     0.002 A 
ATOM     69  C   UNL A   1      39.291  33.875  36.590  1.00  0.00     0.091 A 
ATOM     70  F   UNL A   1      40.488  33.682  34.531  1.00  0.00    -0.205 F 
ATOM     71  C   UNL A   1      38.397  33.315  37.518  1.00  0.00     0.022 A 
BRANCH  69  72
ATOM     72  S   UNL A   1      39.969  35.489  36.997  1.00  0.00     0.127 S 
ATOM     73  O   UNL A   1      39.497  36.298  35.873  1.00  0.00    -0.237 OA
ATOM     74  O   UNL A   1      39.319  35.782  38.274  1.00  0.00    -0.237 OA
ATOM     75  O   UNL A   1      41.412  35.315  37.070  1.00  0.00    -0.744 OA
ENDBRANCH  69  72
ENDBRANCH  51  65
BRANCH  52  76
ATOM     76  C   UNL A   1      42.222  26.345  27.542  1.00  0.00     0.023 A 
ATOM     77  C   UNL A   1      43.122  26.887  26.606  1.00  0.00     0.012 A 
ATOM     78  C   UNL A   1      41.831  24.997  27.431  1.00  0.00     0.148 A 
ATOM     79  C   UNL A   1      43.623  26.098  25.571  1.00  0.00     0.002 A 
ATOM     80  C   UNL A   1      42.363  24.207  26.421  1.00  0.00     0.091 A 
ATOM     81  F   UNL A   1      40.975  24.510  28.341  1.00  0.00    -0.205 F 
ATOM     82  C   UNL A   1      43.253  24.758  25.484  1.00  0.00     0.022 A 
BRANCH  80  83
ATOM     83  S   UNL A   1      42.033  22.447  26.289  1.00  0.00     0.127 S 
ATOM     84  O   UNL A   1      42.737  22.104  25.056  1.00  0.00    -0.237 OA
ATOM     85  O   UNL A   1      42.649  21.935  27.514  1.00  0.00    -0.237 OA
ATOM     86  O   UNL A   1      40.584  22.318  26.239  1.00  0.00    -0.744 OA
ENDBRANCH  80  83
ENDBRANCH  52  76
BRANCH  64  87
ATOM     87  C   UNL A   1      44.585  27.379  34.042  1.00  0.00     0.023 A 
ATOM     88  C   UNL A   1      45.779  28.124  34.019  1.00  0.00     0.012 A 
ATOM     89  C   UNL A   1      44.492  26.237  34.863  1.00  0.00     0.148 A 
ATOM     90  C   UNL A   1      46.870  27.736  34.796  1.00  0.00     0.002 A 
ATOM     91  C   UNL A   1      45.572  25.876  35.661  1.00  0.00     0.091 A 
ATOM     92  F   UNL A   1      43.347  25.540  34.859  1.00  0.00    -0.205 F 
ATOM     93  C   UNL A   1      46.763  26.621  35.624  1.00  0.00     0.022 A 
BRANCH  91  94
ATOM     94  S   UNL A   1      45.510  24.499  36.813  1.00  0.00     0.127 S 
ATOM     95  O   UNL A   1      44.441  24.917  37.720  1.00  0.00    -0.237 OA
ATOM     96  O   UNL A   1      45.164  23.380  35.938  1.00  0.00    -0.237 OA
ATOM     97  O   UNL A   1      46.834  24.414  37.415  1.00  0.00    -0.744 OA
ENDBRANCH  91  94
ENDBRANCH  64  87
ENDBRANCH  38  39
ENDBRANCH  31  33
ENDBRANCH  30  31
ENDBRANCH  29  30
ENDBRANCH  28  29
ENDBRANCH  27  28
ENDBRANCH  26  27
ENDBRANCH   1  26
TORSDOF 24
ENDMDL
MODEL 3
REMARK VINA RESULT:     -10.2      1.854      2.659
REMARK SMILES Cc1ccc2c(c1)C=C(C(=O)OCCOCCOCCOCCOC(=O)c1ccc(-c3c4nc(c(-c5cccc(S(=O)(=O)[O-])c5F)c5ccc([nH]5)c(-c5cccc(S(=O)(=O)[O-])c5F)c5nc(c(-c6cccc(S(=O)(=O)[O-])c6F)c6ccc3[nH]6)C=C5)C=C4)cc1)[C@@H](C(F)(F)F)O2
REMARK SMILES IDX 19 1 18 2 17 3 16 4 15 5 14 6 13 7 12 8 10 9 11 10 9 11 1 12
REMARK SMILES IDX 2 13 3 14 7 15 4 16 6 17 5 18 8 19 95 20 90 21 91 22 92 23
REMARK SMILES IDX 93 24 94 25 20 26 21 27 22 28 23 29 24 30 25 31 26 32 27 33
REMARK SMILES IDX 28 34 89 35 29 36 88 37 30 38 31 39 32 40 82 41 33 42 87 43
REMARK SMILES IDX 81 44 83 45 34 46 86 47 80 48 79 49 35 51 67 52 47 53 66 54
REMARK SMILES IDX 48 55 51 56 65 57 84 58 49 59 50 60 64 62 85 63 52 64 36 65
REMARK SMILES IDX 37 66 45 67 38 68 40 69 46 70 39 71 41 72 42 73 43 74 44 75
REMARK SMILES IDX 68 76 69 77 77 78 70 79 72 80 78 81 71 82 73 83 74 84 75 85
REMARK SMILES IDX 76 86 53 87 54 88 62 89 55 90 57 91 63 92 56 93 58 94 59 95
REMARK SMILES IDX 60 96 61 97
REMARK H PARENT 83 50 51 61
REMARK Flexibility Score: inf
ROOT
ATOM      1  C   UNL A   1      30.647  26.924  25.379  1.00  0.00     0.188 C 
ENDROOT
BRANCH   1   2
ATOM      2  O   UNL A   1      30.900  25.772  26.183  1.00  0.00    -0.377 OA
BRANCH   2   3
ATOM      3  C   UNL A   1      30.457  24.520  25.687  1.00  0.00     0.188 C 
BRANCH   3   4
ATOM      4  C   UNL A   1      30.644  23.383  26.708  1.00  0.00     0.188 C 
BRANCH   4   5
ATOM      5  O   UNL A   1      31.714  23.621  27.618  1.00  0.00    -0.376 OA
BRANCH   5   6
ATOM      6  C   UNL A   1      32.845  22.759  27.556  1.00  0.00     0.202 C 
BRANCH   6   7
ATOM      7  C   UNL A   1      34.119  23.258  26.853  1.00  0.00     0.261 C 
BRANCH   7   8
ATOM      8  O   UNL A   1      33.962  23.644  25.479  1.00  0.00    -0.460 OA
BRANCH   8   9
ATOM      9  C   UNL A   1      34.652  22.964  24.545  1.00  0.00     0.338 C 
ATOM     10  O   UNL A   1      35.680  23.312  23.994  1.00  0.00    -0.246 OA
BRANCH   9  11
ATOM     11  C   UNL A   1      34.043  21.618  24.427  1.00  0.00     0.087 C 
ATOM     12  C   UNL A   1      35.346  15.621  24.968  1.00  0.00     0.044 C 
ATOM     13  C   UNL A   1      34.479  16.824  24.741  1.00  0.00    -0.050 A 
ATOM     14  C   UNL A   1      33.151  16.688  24.324  1.00  0.00     0.007 A 
ATOM     15  C   UNL A   1      35.014  18.109  24.908  1.00  0.00     0.015 A 
ATOM     16  C   UNL A   1      32.366  17.820  24.098  1.00  0.00     0.047 A 
ATOM     17  C   UNL A   1      34.239  19.246  24.643  1.00  0.00     0.017 A 
ATOM     18  C   UNL A   1      32.907  19.096  24.257  1.00  0.00     0.128 A 
ATOM     19  C   UNL A   1      34.823  20.572  24.727  1.00  0.00     0.027 C 
ATOM     20  O   UNL A   1      32.066  20.140  24.007  1.00  0.00    -0.475 OA
ATOM     21  C   UNL A   1      32.583  21.500  24.059  1.00  0.00     0.316 C 
BRANCH  21  22
ATOM     22  C   UNL A   1      32.270  22.182  22.720  1.00  0.00     0.430 C 
ATOM     23  F   UNL A   1      33.393  22.362  21.985  1.00  0.00    -0.167 F 
ATOM     24  F   UNL A   1      31.417  21.454  21.965  1.00  0.00    -0.167 F 
ATOM     25  F   UNL A   1      31.707  23.399  22.902  1.00  0.00    -0.167 F 
ENDBRANCH  21  22
ENDBRANCH   9  11
ENDBRANCH   8   9
ENDBRANCH   7   8
ENDBRANCH   6   7
ENDBRANCH   5   6
ENDBRANCH   4   5
ENDBRANCH   3   4
ENDBRANCH   2   3
ENDBRANCH   1   2
BRANCH   1  26
ATOM     26  C   UNL A   1      31.760  27.954  25.075  1.00  0.00     0.188 C 
BRANCH  26  27
ATOM     27  O   UNL A   1      31.274  29.274  24.830  1.00  0.00    -0.376 OA
BRANCH  27  28
ATOM     28  C   UNL A   1      31.721  30.291  25.718  1.00  0.00     0.202 C 
BRANCH  28  29
ATOM     29  C   UNL A   1      33.180  30.131  26.158  1.00  0.00     0.261 C 
BRANCH  29  30
ATOM     30  O   UNL A   1      33.465  30.565  27.497  1.00  0.00    -0.460 OA
BRANCH  30  31
ATOM     31  C   UNL A   1      34.288  31.628  27.654  1.00  0.00     0.338 C 
ATOM     32  O   UNL A   1      34.010  32.800  27.482  1.00  0.00    -0.246 OA
BRANCH  31  33
ATOM     33  C   UNL A   1      35.533  31.126  28.271  1.00  0.00     0.060 A 
ATOM     34  C   UNL A   1      36.697  31.901  28.236  1.00  0.00     0.016 A 
ATOM     35  C   UNL A   1      35.547  29.850  28.847  1.00  0.00     0.016 A 
ATOM     36  C   UNL A   1      37.869  31.407  28.806  1.00  0.00     0.010 A 
ATOM     37  C   UNL A   1      36.726  29.354  29.410  1.00  0.00     0.010 A 
ATOM     38  C   UNL A   1      37.888  30.141  29.413  1.00  0.00    -0.014 A 
BRANCH  38  39
ATOM     39  C   UNL A   1      39.060  29.742  30.227  1.00  0.00     0.031 A 
ATOM     40  C   UNL A   1      39.348  30.337  31.571  1.00  0.00     0.074 A 
ATOM     41  C   UNL A   1      39.886  28.815  29.706  1.00  0.00     0.049 A 
ATOM     42  N   UNL A   1      40.285  30.007  32.421  1.00  0.00    -0.248 NA
ATOM     43  C   UNL A   1      38.485  31.438  32.022  1.00  0.00     0.031 C 
ATOM     44  C   UNL A   1      39.733  28.208  28.381  1.00  0.00     0.029 A 
ATOM     45  N   UNL A   1      41.013  28.224  30.217  1.00  0.00    -0.354 N 
ATOM     46  C   UNL A   1      40.136  30.857  33.507  1.00  0.00     0.074 A 
ATOM     47  C   UNL A   1      39.021  31.732  33.203  1.00  0.00     0.031 C 
ATOM     48  C   UNL A   1      40.723  27.324  28.188  1.00  0.00     0.029 A 
ATOM     49  C   UNL A   1      41.584  27.310  29.367  1.00  0.00     0.049 A 
ATOM     50  H   UNL A   1      41.378  28.436  31.107  1.00  0.00     0.167 HD
ATOM     51  C   UNL A   1      40.849  30.884  34.658  1.00  0.00     0.034 A 
ATOM     52  C   UNL A   1      42.673  26.533  29.518  1.00  0.00     0.034 A 
ATOM     53  C   UNL A   1      41.947  30.001  34.959  1.00  0.00     0.049 A 
ATOM     54  C   UNL A   1      43.434  26.575  30.808  1.00  0.00     0.074 A 
ATOM     55  C   UNL A   1      42.679  29.914  36.131  1.00  0.00     0.029 A 
ATOM     56  N   UNL A   1      42.480  29.067  34.087  1.00  0.00    -0.354 N 
ATOM     57  N   UNL A   1      43.185  27.280  31.884  1.00  0.00    -0.248 NA
ATOM     58  C   UNL A   1      44.604  25.693  30.922  1.00  0.00     0.031 C 
ATOM     59  C   UNL A   1      43.665  28.938  35.962  1.00  0.00     0.029 A 
ATOM     60  C   UNL A   1      43.538  28.406  34.689  1.00  0.00     0.049 A 
ATOM     61  H   UNL A   1      42.155  28.897  33.173  1.00  0.00     0.167 HD
ATOM     62  C   UNL A   1      44.153  26.917  32.809  1.00  0.00     0.074 A 
ATOM     63  C   UNL A   1      44.987  25.916  32.174  1.00  0.00     0.031 C 
ATOM     64  C   UNL A   1      44.340  27.385  34.066  1.00  0.00     0.034 A 
BRANCH  51  65
ATOM     65  C   UNL A   1      40.436  31.856  35.731  1.00  0.00     0.023 A 
ATOM     66  C   UNL A   1      41.157  33.057  35.873  1.00  0.00     0.012 A 
ATOM     67  C   UNL A   1      39.268  31.650  36.491  1.00  0.00     0.148 A 
ATOM     68  C   UNL A   1      40.725  34.041  36.762  1.00  0.00     0.002 A 
ATOM     69  C   UNL A   1      38.829  32.648  37.356  1.00  0.00     0.091 A 
ATOM     70  F   UNL A   1      38.604  30.496  36.341  1.00  0.00    -0.205 F 
ATOM     71  C   UNL A   1      39.557  33.841  37.493  1.00  0.00     0.022 A 
BRANCH  69  72
ATOM     72  S   UNL A   1      37.308  32.517  38.303  1.00  0.00     0.127 S 
ATOM     73  O   UNL A   1      37.631  33.310  39.489  1.00  0.00    -0.237 OA
ATOM     74  O   UNL A   1      36.333  33.133  37.404  1.00  0.00    -0.237 OA
ATOM     75  O   UNL A   1      37.104  31.096  38.547  1.00  0.00    -0.744 OA
ENDBRANCH  69  72
ENDBRANCH  51  65
BRANCH  52  76
ATOM     76  C   UNL A   1      43.040  25.591  28.428  1.00  0.00     0.023 A 
ATOM     77  C   UNL A   1      42.217  24.478  28.179  1.00  0.00     0.012 A 
ATOM     78  C   UNL A   1      44.137  25.847  27.585  1.00  0.00     0.148 A 
ATOM     79  C   UNL A   1      42.486  23.627  27.107  1.00  0.00     0.002 A 
ATOM     80  C   UNL A   1      44.376  25.019  26.497  1.00  0.00     0.091 A 
ATOM     81  F   UNL A   1      44.900  26.919  27.847  1.00  0.00    -0.205 F 
ATOM     82  C   UNL A   1      43.557  23.903  26.261  1.00  0.00     0.022 A 
BRANCH  80  83
ATOM     83  S   UNL A   1      45.663  25.350  25.289  1.00  0.00     0.127 S 
ATOM     84  O   UNL A   1      46.870  25.265  26.108  1.00  0.00    -0.237 OA
ATOM     85  O   UNL A   1      45.478  24.247  24.346  1.00  0.00    -0.237 OA
ATOM     86  O   UNL A   1      45.368  26.669  24.746  1.00  0.00    -0.744 OA
ENDBRANCH  80  83
ENDBRANCH  52  76
BRANCH  64  87
ATOM     87  C   UNL A   1      45.489  26.829  34.861  1.00  0.00     0.023 A 
ATOM     88  C   UNL A   1      46.745  27.462  34.790  1.00  0.00     0.012 A 
ATOM     89  C   UNL A   1      45.297  25.759  35.757  1.00  0.00     0.148 A 
ATOM     90  C   UNL A   1      47.799  27.032  35.594  1.00  0.00     0.002 A 
ATOM     91  C   UNL A   1      46.344  25.359  36.580  1.00  0.00     0.091 A 
ATOM     92  F   UNL A   1      44.094  25.168  35.797  1.00  0.00    -0.205 F 
ATOM     93  C   UNL A   1      47.595  25.990  36.497  1.00  0.00     0.022 A 
BRANCH  91  94
ATOM     94  S   UNL A   1      46.162  24.074  37.824  1.00  0.00     0.127 S 
ATOM     95  O   UNL A   1      47.510  24.014  38.389  1.00  0.00    -0.237 OA
ATOM     96  O   UNL A   1      45.153  24.646  38.713  1.00  0.00    -0.237 OA
ATOM     97  O   UNL A   1      45.737  22.877  37.111  1.00  0.00    -0.744 OA
ENDBRANCH  91  94
ENDBRANCH  64  87
ENDBRANCH  38  39
ENDBRANCH  31  33
ENDBRANCH  30  31
ENDBRANCH  29  30
ENDBRANCH  28  29
ENDBRANCH  27  28
ENDBRANCH  26  27
ENDBRANCH   1  26
TORSDOF 24
ENDMDL
