MODEL 1
REMARK VINA RESULT:     -10.3      0.000      0.000
REMARK SMILES Cc1ccc(-c2cc(Cl)cc3c2O[C@H](C(F)(F)F)C(C(=O)OCCOCCOCCOCCOC(=O)c2ccc(-c4c5nc(c(-c6cccc(S(=O)(=O)[O-])c6F)c6ccc([nH]6)c(-c6cccc(S(=O)(=O)[O-])c6F)c6nc(c(-c7cccc(S(=O)(=O)[O-])c7F)c7ccc4[nH]7)C=C6)C=C5)cc2)=C3)cc1F
REMARK SMILES IDX 29 1 28 2 27 3 26 4 25 5 24 6 23 7 22 8 20 9 21 10 19 11
REMARK SMILES IDX 6 12 7 13 12 14 8 15 11 16 13 17 9 18 10 19 100 20 14 21
REMARK SMILES IDX 5 22 1 23 2 24 3 25 102 26 4 27 101 28 103 29 15 30 16 31
REMARK SMILES IDX 17 32 18 33 30 34 31 35 32 36 33 37 34 38 35 39 36 40 37 41
REMARK SMILES IDX 38 42 99 43 39 44 98 45 40 46 41 47 42 48 92 49 43 50 97 51
REMARK SMILES IDX 91 52 93 53 44 54 96 55 90 56 89 57 45 59 77 60 57 61 76 62
REMARK SMILES IDX 58 63 61 64 75 65 94 66 59 67 60 68 74 70 95 71 62 72 46 73
REMARK SMILES IDX 47 74 55 75 48 76 50 77 56 78 49 79 51 80 52 81 53 82 54 83
REMARK SMILES IDX 78 84 79 85 87 86 80 87 82 88 88 89 81 90 83 91 84 92 85 93
REMARK SMILES IDX 86 94 63 95 64 96 72 97 65 98 67 99 73 100 66 101 68 102
REMARK SMILES IDX 69 103 70 104 71 105
REMARK H PARENT 93 58 61 69
REMARK Flexibility Score: inf
ROOT
ATOM      1  C   UNL A   1      50.975  30.810  27.778  1.00  0.00     0.188 C 
ENDROOT
BRANCH   1   2
ATOM      2  O   UNL A   1      52.164  29.891  27.067  1.00  0.00    -0.377 OA
BRANCH   2   3
ATOM      3  C   UNL A   1      52.319  28.852  25.322  1.00  0.00     0.188 C 
BRANCH   3   4
ATOM      4  C   UNL A   1      50.785  27.948  24.611  1.00  0.00     0.188 C 
BRANCH   4   5
ATOM      5  O   UNL A   1      49.308  28.065  24.855  1.00  0.00    -0.376 OA
BRANCH   5   6
ATOM      6  C   UNL A   1      48.339  27.146  25.468  1.00  0.00     0.202 C 
BRANCH   6   7
ATOM      7  C   UNL A   1      47.985  25.776  24.763  1.00  0.00     0.261 C 
BRANCH   7   8
ATOM      8  O   UNL A   1      46.562  25.526  24.661  1.00  0.00    -0.460 OA
BRANCH   8   9
ATOM      9  C   UNL A   1      46.075  24.690  25.608  1.00  0.00     0.338 C 
ATOM     10  O   UNL A   1      46.751  23.885  26.237  1.00  0.00    -0.246 OA
BRANCH   9  11
ATOM     11  C   UNL A   1      44.670  25.039  25.993  1.00  0.00     0.087 C 
ATOM     12  C   UNL A   1      40.698  25.381  27.406  1.00  0.00     0.026 A 
ATOM     13  C   UNL A   1      39.854  24.278  27.145  1.00  0.00     0.033 A 
ATOM     14  C   UNL A   1      42.075  25.226  27.108  1.00  0.00     0.135 A 
ATOM     15  C   UNL A   1      40.360  23.064  26.684  1.00  0.00     0.042 A 
ATOM     16  C   UNL A   1      42.544  24.035  26.537  1.00  0.00     0.019 A 
ATOM     17  O   UNL A   1      42.958  26.221  27.438  1.00  0.00    -0.475 OA
ATOM     18  Cl  UNL A   1      39.294  21.749  26.371  1.00  0.00    -0.084 Cl
ATOM     19  C   UNL A   1      41.707  22.930  26.402  1.00  0.00     0.032 A 
ATOM     20  C   UNL A   1      43.894  23.943  26.016  1.00  0.00     0.027 C 
ATOM     21  C   UNL A   1      44.222  26.316  26.691  1.00  0.00     0.316 C 
BRANCH  12  22
ATOM     22  C   UNL A   1      40.069  26.649  27.860  1.00  0.00    -0.012 A 
ATOM     23  C   UNL A   1      38.477  30.413  29.353  1.00  0.00     0.047 C 
ATOM     24  C   UNL A   1      39.048  29.133  28.825  1.00  0.00    -0.015 A 
ATOM     25  C   UNL A   1      39.687  29.065  27.586  1.00  0.00     0.007 A 
ATOM     26  C   UNL A   1      38.935  27.959  29.571  1.00  0.00     0.126 A 
ATOM     27  C   UNL A   1      40.187  27.840  27.113  1.00  0.00     0.009 A 
ATOM     28  C   UNL A   1      39.434  26.740  29.107  1.00  0.00     0.048 A 
ATOM     29  F   UNL A   1      38.356  28.002  30.780  1.00  0.00    -0.207 F 
ENDBRANCH  12  22
BRANCH  21  30
ATOM     30  C   UNL A   1      44.108  27.537  25.801  1.00  0.00     0.430 C 
ATOM     31  F   UNL A   1      43.525  28.558  26.479  1.00  0.00    -0.167 F 
ATOM     32  F   UNL A   1      45.316  27.966  25.387  1.00  0.00    -0.167 F 
ATOM     33  F   UNL A   1      43.340  27.295  24.717  1.00  0.00    -0.167 F 
ENDBRANCH  21  30
ENDBRANCH   9  11
ENDBRANCH   8   9
ENDBRANCH   7   8
ENDBRANCH   6   7
ENDBRANCH   5   6
ENDBRANCH   4   5
ENDBRANCH   3   4
ENDBRANCH   2   3
ENDBRANCH   1   2
BRANCH   1  34
ATOM     34  C   UNL A   1      50.700  32.290  28.131  1.00  0.00     0.188 C 
BRANCH  34  35
ATOM     35  O   UNL A   1      49.397  32.767  28.118  1.00  0.00    -0.376 OA
BRANCH  35  36
ATOM     36  C   UNL A   1      48.697  32.524  26.905  1.00  0.00     0.202 C 
BRANCH  36  37
ATOM     37  C   UNL A   1      47.532  33.472  26.479  1.00  0.00     0.261 C 
BRANCH  37  38
ATOM     38  O   UNL A   1      46.524  33.831  27.469  1.00  0.00    -0.460 OA
BRANCH  38  39
ATOM     39  C   UNL A   1      45.203  33.666  27.189  1.00  0.00     0.338 C 
ATOM     40  O   UNL A   1      44.664  33.857  26.112  1.00  0.00    -0.246 OA
BRANCH  39  41
ATOM     41  C   UNL A   1      44.619  32.786  28.265  1.00  0.00     0.060 A 
ATOM     42  C   UNL A   1      43.862  31.631  27.992  1.00  0.00     0.016 A 
ATOM     43  C   UNL A   1      44.504  33.420  29.516  1.00  0.00     0.016 A 
ATOM     44  C   UNL A   1      42.892  31.192  28.918  1.00  0.00     0.010 A 
ATOM     45  C   UNL A   1      43.469  33.066  30.367  1.00  0.00     0.010 A 
ATOM     46  C   UNL A   1      42.628  31.988  30.050  1.00  0.00    -0.014 A 
BRANCH  46  47
ATOM     47  C   UNL A   1      41.545  31.765  31.015  1.00  0.00     0.031 A 
ATOM     48  C   UNL A   1      40.560  32.844  30.971  1.00  0.00     0.074 A 
ATOM     49  C   UNL A   1      41.380  30.604  31.706  1.00  0.00     0.049 A 
ATOM     50  N   UNL A   1      39.843  33.269  31.941  1.00  0.00    -0.248 NA
ATOM     51  C   UNL A   1      40.353  33.626  29.741  1.00  0.00     0.031 C 
ATOM     52  C   UNL A   1      40.325  30.034  32.536  1.00  0.00     0.029 A 
ATOM     53  N   UNL A   1      42.375  29.694  31.984  1.00  0.00    -0.354 N 
ATOM     54  C   UNL A   1      38.754  33.825  31.307  1.00  0.00     0.074 A 
ATOM     55  C   UNL A   1      39.243  34.298  30.042  1.00  0.00     0.031 C 
ATOM     56  C   UNL A   1      40.879  29.306  33.539  1.00  0.00     0.029 A 
ATOM     57  C   UNL A   1      42.312  29.407  33.353  1.00  0.00     0.049 A 
ATOM     58  H   UNL A   1      43.013  29.313  31.339  1.00  0.00     0.167 HD
ATOM     59  C   UNL A   1      37.511  33.468  31.736  1.00  0.00     0.034 A 
ATOM     60  C   UNL A   1      43.286  29.895  34.160  1.00  0.00     0.034 A 
ATOM     61  C   UNL A   1      37.607  32.548  32.867  1.00  0.00     0.049 A 
ATOM     62  C   UNL A   1      42.584  30.861  35.130  1.00  0.00     0.074 A 
ATOM     63  C   UNL A   1      37.300  31.212  33.061  1.00  0.00     0.029 A 
ATOM     64  N   UNL A   1      38.392  32.913  33.940  1.00  0.00    -0.354 N 
ATOM     65  N   UNL A   1      41.498  31.523  34.780  1.00  0.00    -0.248 NA
ATOM     66  C   UNL A   1      42.839  31.013  36.566  1.00  0.00     0.031 C 
ATOM     67  C   UNL A   1      37.878  30.800  34.298  1.00  0.00     0.029 A 
ATOM     68  C   UNL A   1      38.634  31.855  34.774  1.00  0.00     0.049 A 
ATOM     69  H   UNL A   1      38.737  33.824  34.089  1.00  0.00     0.167 HD
ATOM     70  C   UNL A   1      40.790  31.859  35.911  1.00  0.00     0.074 A 
ATOM     71  C   UNL A   1      41.761  31.711  36.978  1.00  0.00     0.031 C 
ATOM     72  C   UNL A   1      39.440  32.098  35.944  1.00  0.00     0.034 A 
BRANCH  59  73
ATOM     73  C   UNL A   1      36.226  33.722  30.993  1.00  0.00     0.023 A 
ATOM     74  C   UNL A   1      35.933  33.181  29.725  1.00  0.00     0.012 A 
ATOM     75  C   UNL A   1      35.254  34.591  31.532  1.00  0.00     0.148 A 
ATOM     76  C   UNL A   1      34.734  33.455  29.051  1.00  0.00     0.002 A 
ATOM     77  C   UNL A   1      34.075  34.879  30.858  1.00  0.00     0.091 A 
ATOM     78  F   UNL A   1      35.449  35.190  32.710  1.00  0.00    -0.205 F 
ATOM     79  C   UNL A   1      33.803  34.313  29.616  1.00  0.00     0.022 A 
BRANCH  77  80
ATOM     80  S   UNL A   1      32.939  36.034  31.621  1.00  0.00     0.127 S 
ATOM     81  O   UNL A   1      32.285  35.216  32.639  1.00  0.00    -0.237 OA
ATOM     82  O   UNL A   1      33.817  37.098  32.095  1.00  0.00    -0.237 OA
ATOM     83  O   UNL A   1      32.071  36.425  30.510  1.00  0.00    -0.744 OA
ENDBRANCH  77  80
ENDBRANCH  59  73
BRANCH  60  84
ATOM     84  C   UNL A   1      44.648  29.838  33.438  1.00  0.00     0.023 A 
ATOM     85  C   UNL A   1      45.385  31.188  32.643  1.00  0.00     0.012 A 
ATOM     86  C   UNL A   1      45.398  28.187  33.186  1.00  0.00     0.148 A 
ATOM     87  C   UNL A   1      46.769  31.017  31.582  1.00  0.00     0.002 A 
ATOM     88  C   UNL A   1      46.945  27.959  32.051  1.00  0.00     0.091 A 
ATOM     89  F   UNL A   1      44.563  27.293  33.632  1.00  0.00    -0.205 F 
ATOM     90  C   UNL A   1      47.528  29.468  31.235  1.00  0.00     0.022 A 
BRANCH  88  91
ATOM     91  S   UNL A   1      48.683  27.015  32.204  1.00  0.00     0.127 S 
ATOM     92  O   UNL A   1      48.301  25.628  32.482  1.00  0.00    -0.237 OA
ATOM     93  O   UNL A   1      49.441  27.274  30.993  1.00  0.00    -0.237 OA
ATOM     94  O   UNL A   1      49.260  27.626  33.410  1.00  0.00    -0.744 OA
ENDBRANCH  88  91
ENDBRANCH  60  84
BRANCH  72  95
ATOM     95  C   UNL A   1      38.733  32.727  37.101  1.00  0.00     0.023 A 
ATOM     96  C   UNL A   1      39.150  34.013  37.531  1.00  0.00     0.012 A 
ATOM     97  C   UNL A   1      37.749  32.089  37.839  1.00  0.00     0.148 A 
ATOM     98  C   UNL A   1      38.749  34.552  38.746  1.00  0.00     0.002 A 
ATOM     99  C   UNL A   1      37.447  32.564  39.106  1.00  0.00     0.091 A 
ATOM    100  F   UNL A   1      37.131  31.010  37.334  1.00  0.00    -0.205 F 
ATOM    101  C   UNL A   1      37.944  33.788  39.572  1.00  0.00     0.022 A 
BRANCH  99 102
ATOM    102  S   UNL A   1      36.655  31.427  40.232  1.00  0.00     0.127 S 
ATOM    103  O   UNL A   1      37.403  30.188  40.053  1.00  0.00    -0.237 OA
ATOM    104  O   UNL A   1      36.824  32.109  41.514  1.00  0.00    -0.237 OA
ATOM    105  O   UNL A   1      35.274  31.381  39.749  1.00  0.00    -0.744 OA
ENDBRANCH  99 102
ENDBRANCH  72  95
ENDBRANCH  46  47
ENDBRANCH  39  41
ENDBRANCH  38  39
ENDBRANCH  37  38
ENDBRANCH  36  37
ENDBRANCH  35  36
ENDBRANCH  34  35
ENDBRANCH   1  34
TORSDOF 25
ENDMDL
MODEL 2
REMARK VINA RESULT:      -9.1      5.505     12.254
REMARK SMILES Cc1ccc(-c2cc(Cl)cc3c2O[C@H](C(F)(F)F)C(C(=O)OCCOCCOCCOCCOC(=O)c2ccc(-c4c5nc(c(-c6cccc(S(=O)(=O)[O-])c6F)c6ccc([nH]6)c(-c6cccc(S(=O)(=O)[O-])c6F)c6nc(c(-c7cccc(S(=O)(=O)[O-])c7F)c7ccc4[nH]7)C=C6)C=C5)cc2)=C3)cc1F
REMARK SMILES IDX 29 1 28 2 27 3 26 4 25 5 24 6 23 7 22 8 20 9 21 10 19 11
REMARK SMILES IDX 6 12 7 13 12 14 8 15 11 16 13 17 9 18 10 19 100 20 14 21
REMARK SMILES IDX 5 22 1 23 2 24 3 25 102 26 4 27 101 28 103 29 15 30 16 31
REMARK SMILES IDX 17 32 18 33 30 34 31 35 32 36 33 37 34 38 35 39 36 40 37 41
REMARK SMILES IDX 38 42 99 43 39 44 98 45 40 46 41 47 42 48 92 49 43 50 97 51
REMARK SMILES IDX 91 52 93 53 44 54 96 55 90 56 89 57 45 59 77 60 57 61 76 62
REMARK SMILES IDX 58 63 61 64 75 65 94 66 59 67 60 68 74 70 95 71 62 72 46 73
REMARK SMILES IDX 47 74 55 75 48 76 50 77 56 78 49 79 51 80 52 81 53 82 54 83
REMARK SMILES IDX 78 84 79 85 87 86 80 87 82 88 88 89 81 90 83 91 84 92 85 93
REMARK SMILES IDX 86 94 63 95 64 96 72 97 65 98 67 99 73 100 66 101 68 102
REMARK SMILES IDX 69 103 70 104 71 105
REMARK H PARENT 93 58 61 69
REMARK Flexibility Score: inf
ROOT
ATOM      1  C   UNL A   1      35.507  33.137  32.089  1.00  0.00     0.188 C 
ENDROOT
BRANCH   1   2
ATOM      2  O   UNL A   1      35.014  32.026  30.956  1.00  0.00    -0.377 OA
BRANCH   2   3
ATOM      3  C   UNL A   1      35.069  31.933  28.921  1.00  0.00     0.188 C 
BRANCH   3   4
ATOM      4  C   UNL A   1      34.182  30.500  28.009  1.00  0.00     0.188 C 
BRANCH   4   5
ATOM      5  O   UNL A   1      33.839  30.242  26.569  1.00  0.00    -0.376 OA
BRANCH   5   6
ATOM      6  C   UNL A   1      32.582  29.854  25.916  1.00  0.00     0.202 C 
BRANCH   6   7
ATOM      7  C   UNL A   1      32.554  28.646  24.896  1.00  0.00     0.261 C 
BRANCH   7   8
ATOM      8  O   UNL A   1      32.239  27.373  25.512  1.00  0.00    -0.460 OA
BRANCH   8   9
ATOM      9  C   UNL A   1      31.741  26.450  24.655  1.00  0.00     0.338 C 
ATOM     10  O   UNL A   1      30.883  26.677  23.812  1.00  0.00    -0.246 OA
BRANCH   9  11
ATOM     11  C   UNL A   1      32.542  25.183  24.671  1.00  0.00     0.087 C 
ATOM     12  C   UNL A   1      35.072  21.861  25.338  1.00  0.00     0.026 A 
ATOM     13  C   UNL A   1      36.418  22.163  25.647  1.00  0.00     0.033 A 
ATOM     14  C   UNL A   1      34.162  22.945  25.288  1.00  0.00     0.135 A 
ATOM     15  C   UNL A   1      36.822  23.460  25.960  1.00  0.00     0.042 A 
ATOM     16  C   UNL A   1      34.612  24.256  25.493  1.00  0.00     0.019 A 
ATOM     17  O   UNL A   1      32.826  22.704  25.099  1.00  0.00    -0.475 OA
ATOM     18  Cl  UNL A   1      38.474  23.784  26.320  1.00  0.00    -0.084 Cl
ATOM     19  C   UNL A   1      35.918  24.505  25.908  1.00  0.00     0.032 A 
ATOM     20  C   UNL A   1      33.751  25.390  25.219  1.00  0.00     0.027 C 
ATOM     21  C   UNL A   1      31.991  23.772  24.527  1.00  0.00     0.316 C 
BRANCH  12  22
ATOM     22  C   UNL A   1      34.736  20.458  24.980  1.00  0.00    -0.012 A 
ATOM     23  C   UNL A   1      33.784  16.428  23.642  1.00  0.00     0.047 C 
ATOM     24  C   UNL A   1      34.140  17.813  24.091  1.00  0.00    -0.015 A 
ATOM     25  C   UNL A   1      35.438  18.153  24.476  1.00  0.00     0.007 A 
ATOM     26  C   UNL A   1      33.158  18.801  24.147  1.00  0.00     0.126 A 
ATOM     27  C   UNL A   1      35.728  19.456  24.915  1.00  0.00     0.009 A 
ATOM     28  C   UNL A   1      33.441  20.099  24.579  1.00  0.00     0.048 A 
ATOM     29  F   UNL A   1      31.910  18.511  23.751  1.00  0.00    -0.207 F 
ENDBRANCH  12  22
BRANCH  21  30
ATOM     30  C   UNL A   1      31.654  23.347  23.112  1.00  0.00     0.430 C 
ATOM     31  F   UNL A   1      32.171  24.231  22.222  1.00  0.00    -0.167 F 
ATOM     32  F   UNL A   1      32.167  22.135  22.821  1.00  0.00    -0.167 F 
ATOM     33  F   UNL A   1      30.320  23.313  22.905  1.00  0.00    -0.167 F 
ENDBRANCH  21  30
ENDBRANCH   9  11
ENDBRANCH   8   9
ENDBRANCH   7   8
ENDBRANCH   6   7
ENDBRANCH   5   6
ENDBRANCH   4   5
ENDBRANCH   3   4
ENDBRANCH   2   3
ENDBRANCH   1   2
BRANCH   1  34
ATOM     34  C   UNL A   1      36.436  34.369  32.186  1.00  0.00     0.188 C 
BRANCH  34  35
ATOM     35  O   UNL A   1      37.729  34.293  31.687  1.00  0.00    -0.376 OA
BRANCH  35  36
ATOM     36  C   UNL A   1      38.317  33.002  31.777  1.00  0.00     0.202 C 
BRANCH  36  37
ATOM     37  C   UNL A   1      38.764  32.261  30.478  1.00  0.00     0.261 C 
BRANCH  37  38
ATOM     38  O   UNL A   1      39.474  30.994  30.604  1.00  0.00    -0.460 OA
BRANCH  38  39
ATOM     39  C   UNL A   1      39.400  30.067  29.612  1.00  0.00     0.338 C 
ATOM     40  O   UNL A   1      38.606  30.064  28.685  1.00  0.00    -0.246 OA
BRANCH  39  41
ATOM     41  C   UNL A   1      40.714  29.330  29.581  1.00  0.00     0.060 A 
ATOM     42  C   UNL A   1      40.844  27.968  29.917  1.00  0.00     0.016 A 
ATOM     43  C   UNL A   1      41.839  30.173  29.627  1.00  0.00     0.016 A 
ATOM     44  C   UNL A   1      42.067  27.485  30.427  1.00  0.00     0.010 A 
ATOM     45  C   UNL A   1      42.998  29.731  30.245  1.00  0.00     0.010 A 
ATOM     46  C   UNL A   1      43.100  28.405  30.693  1.00  0.00    -0.014 A 
BRANCH  46  47
ATOM     47  C   UNL A   1      44.363  28.095  31.375  1.00  0.00     0.031 A 
ATOM     48  C   UNL A   1      45.159  27.135  30.614  1.00  0.00     0.074 A 
ATOM     49  C   UNL A   1      44.815  28.774  32.465  1.00  0.00     0.049 A 
ATOM     50  N   UNL A   1      45.974  26.268  31.086  1.00  0.00    -0.248 NA
ATOM     51  C   UNL A   1      45.023  27.033  29.152  1.00  0.00     0.031 C 
ATOM     52  C   UNL A   1      46.075  28.835  33.197  1.00  0.00     0.029 A 
ATOM     53  N   UNL A   1      44.029  29.475  33.351  1.00  0.00    -0.354 N 
ATOM     54  C   UNL A   1      46.837  26.045  30.035  1.00  0.00     0.074 A 
ATOM     55  C   UNL A   1      46.062  26.258  28.845  1.00  0.00     0.031 C 
ATOM     56  C   UNL A   1      45.824  29.011  34.519  1.00  0.00     0.029 A 
ATOM     57  C   UNL A   1      44.382  29.066  34.642  1.00  0.00     0.049 A 
ATOM     58  H   UNL A   1      43.344  30.143  33.119  1.00  0.00     0.167 HD
ATOM     59  C   UNL A   1      48.176  26.106  30.283  1.00  0.00     0.034 A 
ATOM     60  C   UNL A   1      43.514  28.287  35.332  1.00  0.00     0.034 A 
ATOM     61  C   UNL A   1      48.422  26.371  31.698  1.00  0.00     0.049 A 
ATOM     62  C   UNL A   1      44.237  26.948  35.559  1.00  0.00     0.074 A 
ATOM     63  C   UNL A   1      48.946  27.437  32.410  1.00  0.00     0.029 A 
ATOM     64  N   UNL A   1      47.803  25.565  32.631  1.00  0.00    -0.354 N 
ATOM     65  N   UNL A   1      45.135  26.496  34.704  1.00  0.00    -0.248 NA
ATOM     66  C   UNL A   1      44.231  26.134  36.778  1.00  0.00     0.031 C 
ATOM     67  C   UNL A   1      48.669  27.225  33.793  1.00  0.00     0.029 A 
ATOM     68  C   UNL A   1      47.872  26.100  33.889  1.00  0.00     0.049 A 
ATOM     69  H   UNL A   1      47.365  24.709  32.417  1.00  0.00     0.167 HD
ATOM     70  C   UNL A   1      45.983  25.631  35.356  1.00  0.00     0.074 A 
ATOM     71  C   UNL A   1      45.255  25.284  36.562  1.00  0.00     0.031 C 
ATOM     72  C   UNL A   1      47.268  25.355  34.964  1.00  0.00     0.034 A 
BRANCH  59  73
ATOM     73  C   UNL A   1      49.253  26.192  29.234  1.00  0.00     0.023 A 
ATOM     74  C   UNL A   1      49.915  25.069  28.696  1.00  0.00     0.012 A 
ATOM     75  C   UNL A   1      49.698  27.449  28.774  1.00  0.00     0.148 A 
ATOM     76  C   UNL A   1      50.928  25.185  27.735  1.00  0.00     0.002 A 
ATOM     77  C   UNL A   1      50.716  27.567  27.836  1.00  0.00     0.091 A 
ATOM     78  F   UNL A   1      49.167  28.579  29.248  1.00  0.00    -0.205 F 
ATOM     79  C   UNL A   1      51.337  26.440  27.307  1.00  0.00     0.022 A 
BRANCH  77  80
ATOM     80  S   UNL A   1      51.228  29.217  27.365  1.00  0.00     0.127 S 
ATOM     81  O   UNL A   1      49.980  29.820  26.905  1.00  0.00    -0.237 OA
ATOM     82  O   UNL A   1      51.802  29.750  28.596  1.00  0.00    -0.237 OA
ATOM     83  O   UNL A   1      52.206  28.968  26.307  1.00  0.00    -0.744 OA
ENDBRANCH  77  80
ENDBRANCH  59  73
BRANCH  60  84
ATOM     84  C   UNL A   1      42.065  28.735  35.052  1.00  0.00     0.023 A 
ATOM     85  C   UNL A   1      41.095  28.136  33.748  1.00  0.00     0.012 A 
ATOM     86  C   UNL A   1      41.430  30.171  35.996  1.00  0.00     0.148 A 
ATOM     87  C   UNL A   1      39.581  28.882  33.279  1.00  0.00     0.002 A 
ATOM     88  C   UNL A   1      39.749  31.002  35.532  1.00  0.00     0.091 A 
ATOM     89  F   UNL A   1      42.401  30.627  36.735  1.00  0.00    -0.205 F 
ATOM     90  C   UNL A   1      38.914  30.295  34.088  1.00  0.00     0.022 A 
BRANCH  88  91
ATOM     91  S   UNL A   1      38.146  31.601  36.536  1.00  0.00     0.127 S 
ATOM     92  O   UNL A   1      37.353  32.313  35.530  1.00  0.00    -0.237 OA
ATOM     93  O   UNL A   1      37.547  30.435  37.162  1.00  0.00    -0.237 OA
ATOM     94  O   UNL A   1      38.720  32.560  37.490  1.00  0.00    -0.744 OA
ENDBRANCH  88  91
ENDBRANCH  60  84
BRANCH  72  95
ATOM     95  C   UNL A   1      48.079  24.221  35.505  1.00  0.00     0.023 A 
ATOM     96  C   UNL A   1      48.988  24.482  36.562  1.00  0.00     0.012 A 
ATOM     97  C   UNL A   1      48.061  22.943  34.972  1.00  0.00     0.148 A 
ATOM     98  C   UNL A   1      49.966  23.572  36.939  1.00  0.00     0.002 A 
ATOM     99  C   UNL A   1      49.112  22.083  35.255  1.00  0.00     0.091 A 
ATOM    100  F   UNL A   1      47.052  22.568  34.171  1.00  0.00    -0.205 F 
ATOM    101  C   UNL A   1      50.072  22.388  36.229  1.00  0.00     0.022 A 
BRANCH  99 102
ATOM    102  S   UNL A   1      49.374  20.722  34.129  1.00  0.00     0.127 S 
ATOM    103  O   UNL A   1      48.028  20.225  33.872  1.00  0.00    -0.237 OA
ATOM    104  O   UNL A   1      50.048  21.382  33.013  1.00  0.00    -0.237 OA
ATOM    105  O   UNL A   1      50.225  19.811  34.896  1.00  0.00    -0.744 OA
ENDBRANCH  99 102
ENDBRANCH  72  95
ENDBRANCH  46  47
ENDBRANCH  39  41
ENDBRANCH  38  39
ENDBRANCH  37  38
ENDBRANCH  36  37
ENDBRANCH  35  36
ENDBRANCH  34  35
ENDBRANCH   1  34
TORSDOF 25
ENDMDL
MODEL 3
REMARK VINA RESULT:      -8.5      4.873     10.706
REMARK SMILES Cc1ccc(-c2cc(Cl)cc3c2O[C@H](C(F)(F)F)C(C(=O)OCCOCCOCCOCCOC(=O)c2ccc(-c4c5nc(c(-c6cccc(S(=O)(=O)[O-])c6F)c6ccc([nH]6)c(-c6cccc(S(=O)(=O)[O-])c6F)c6nc(c(-c7cccc(S(=O)(=O)[O-])c7F)c7ccc4[nH]7)C=C6)C=C5)cc2)=C3)cc1F
REMARK SMILES IDX 29 1 28 2 27 3 26 4 25 5 24 6 23 7 22 8 20 9 21 10 19 11
REMARK SMILES IDX 6 12 7 13 12 14 8 15 11 16 13 17 9 18 10 19 100 20 14 21
REMARK SMILES IDX 5 22 1 23 2 24 3 25 102 26 4 27 101 28 103 29 15 30 16 31
REMARK SMILES IDX 17 32 18 33 30 34 31 35 32 36 33 37 34 38 35 39 36 40 37 41
REMARK SMILES IDX 38 42 99 43 39 44 98 45 40 46 41 47 42 48 92 49 43 50 97 51
REMARK SMILES IDX 91 52 93 53 44 54 96 55 90 56 89 57 45 59 77 60 57 61 76 62
REMARK SMILES IDX 58 63 61 64 75 65 94 66 59 67 60 68 74 70 95 71 62 72 46 73
REMARK SMILES IDX 47 74 55 75 48 76 50 77 56 78 49 79 51 80 52 81 53 82 54 83
REMARK SMILES IDX 78 84 79 85 87 86 80 87 82 88 88 89 81 90 83 91 84 92 85 93
REMARK SMILES IDX 86 94 63 95 64 96 72 97 65 98 67 99 73 100 66 101 68 102
REMARK SMILES IDX 69 103 70 104 71 105
REMARK H PARENT 93 58 61 69
REMARK Flexibility Score: inf
ROOT
ATOM      1  C   UNL A   1      52.453  30.802  28.728  1.00  0.00     0.188 C 
ENDROOT
BRANCH   1   2
ATOM      2  O   UNL A   1      53.299  29.461  29.225  1.00  0.00    -0.377 OA
BRANCH   2   3
ATOM      3  C   UNL A   1      53.230  27.476  28.775  1.00  0.00     0.188 C 
BRANCH   3   4
ATOM      4  C   UNL A   1      51.662  26.457  29.196  1.00  0.00     0.188 C 
BRANCH   4   5
ATOM      5  O   UNL A   1      50.725  25.612  28.382  1.00  0.00    -0.376 OA
BRANCH   5   6
ATOM      6  C   UNL A   1      49.567  25.959  27.547  1.00  0.00     0.202 C 
BRANCH   6   7
ATOM      7  C   UNL A   1      48.441  24.886  27.261  1.00  0.00     0.261 C 
BRANCH   7   8
ATOM      8  O   UNL A   1      47.105  25.442  27.220  1.00  0.00    -0.460 OA
BRANCH   8   9
ATOM      9  C   UNL A   1      46.259  24.795  26.383  1.00  0.00     0.338 C 
ATOM     10  O   UNL A   1      46.592  23.903  25.613  1.00  0.00    -0.246 OA
BRANCH   9  11
ATOM     11  C   UNL A   1      44.825  25.104  26.690  1.00  0.00     0.087 C 
ATOM     12  C   UNL A   1      40.760  25.310  27.837  1.00  0.00     0.026 A 
ATOM     13  C   UNL A   1      39.953  24.218  27.446  1.00  0.00     0.033 A 
ATOM     14  C   UNL A   1      42.156  25.190  27.629  1.00  0.00     0.135 A 
ATOM     15  C   UNL A   1      40.508  23.043  26.944  1.00  0.00     0.042 A 
ATOM     16  C   UNL A   1      42.682  24.045  27.015  1.00  0.00     0.019 A 
ATOM     17  O   UNL A   1      43.000  26.170  28.084  1.00  0.00    -0.475 OA
ATOM     18  Cl  UNL A   1      39.486  21.741  26.470  1.00  0.00    -0.084 Cl
ATOM     19  C   UNL A   1      41.873  22.943  26.749  1.00  0.00     0.032 A 
ATOM     20  C   UNL A   1      44.067  24.001  26.586  1.00  0.00     0.027 C 
ATOM     21  C   UNL A   1      44.311  26.327  27.436  1.00  0.00     0.316 C 
BRANCH  12  22
ATOM     22  C   UNL A   1      40.082  26.538  28.329  1.00  0.00    -0.012 A 
ATOM     23  C   UNL A   1      37.839  30.024  29.653  1.00  0.00     0.047 C 
ATOM     24  C   UNL A   1      38.595  28.806  29.216  1.00  0.00    -0.015 A 
ATOM     25  C   UNL A   1      38.844  27.742  30.083  1.00  0.00     0.007 A 
ATOM     26  C   UNL A   1      39.085  28.721  27.913  1.00  0.00     0.126 A 
ATOM     27  C   UNL A   1      39.578  26.627  29.644  1.00  0.00     0.009 A 
ATOM     28  C   UNL A   1      39.812  27.614  27.470  1.00  0.00     0.048 A 
ATOM     29  F   UNL A   1      38.831  29.715  27.049  1.00  0.00    -0.207 F 
ENDBRANCH  12  22
BRANCH  21  30
ATOM     30  C   UNL A   1      44.240  27.603  26.623  1.00  0.00     0.430 C 
ATOM     31  F   UNL A   1      44.195  27.312  25.298  1.00  0.00    -0.167 F 
ATOM     32  F   UNL A   1      43.138  28.320  26.916  1.00  0.00    -0.167 F 
ATOM     33  F   UNL A   1      45.327  28.381  26.818  1.00  0.00    -0.167 F 
ENDBRANCH  21  30
ENDBRANCH   9  11
ENDBRANCH   8   9
ENDBRANCH   7   8
ENDBRANCH   6   7
ENDBRANCH   5   6
ENDBRANCH   4   5
ENDBRANCH   3   4
ENDBRANCH   2   3
ENDBRANCH   1   2
BRANCH   1  34
ATOM     34  C   UNL A   1      50.988  31.229  28.474  1.00  0.00     0.188 C 
BRANCH  34  35
ATOM     35  O   UNL A   1      50.488  31.227  27.179  1.00  0.00    -0.376 OA
BRANCH  35  36
ATOM     36  C   UNL A   1      49.485  30.249  26.941  1.00  0.00     0.202 C 
BRANCH  36  37
ATOM     37  C   UNL A   1      47.983  30.606  27.171  1.00  0.00     0.261 C 
BRANCH  37  38
ATOM     38  O   UNL A   1      47.456  30.573  28.530  1.00  0.00    -0.460 OA
BRANCH  38  39
ATOM     39  C   UNL A   1      46.152  30.880  28.765  1.00  0.00     0.338 C 
ATOM     40  O   UNL A   1      45.337  31.250  27.936  1.00  0.00    -0.246 OA
BRANCH  39  41
ATOM     41  C   UNL A   1      45.771  30.257  30.083  1.00  0.00     0.060 A 
ATOM     42  C   UNL A   1      46.073  30.841  31.329  1.00  0.00     0.016 A 
ATOM     43  C   UNL A   1      45.497  28.880  30.003  1.00  0.00     0.016 A 
ATOM     44  C   UNL A   1      46.235  30.022  32.467  1.00  0.00     0.010 A 
ATOM     45  C   UNL A   1      45.778  28.064  31.087  1.00  0.00     0.010 A 
ATOM     46  C   UNL A   1      46.197  28.623  32.305  1.00  0.00    -0.014 A 
BRANCH  46  47
ATOM     47  C   UNL A   1      46.509  27.636  33.346  1.00  0.00     0.031 A 
ATOM     48  C   UNL A   1      47.654  26.808  32.969  1.00  0.00     0.074 A 
ATOM     49  C   UNL A   1      45.936  27.637  34.580  1.00  0.00     0.049 A 
ATOM     50  N   UNL A   1      47.867  25.593  33.307  1.00  0.00    -0.248 NA
ATOM     51  C   UNL A   1      48.684  27.320  32.051  1.00  0.00     0.031 C 
ATOM     52  C   UNL A   1      46.190  26.947  35.840  1.00  0.00     0.029 A 
ATOM     53  N   UNL A   1      44.717  28.194  34.893  1.00  0.00    -0.354 N 
ATOM     54  C   UNL A   1      49.236  25.475  33.210  1.00  0.00     0.074 A 
ATOM     55  C   UNL A   1      49.630  26.389  32.174  1.00  0.00     0.031 C 
ATOM     56  C   UNL A   1      45.011  26.695  36.465  1.00  0.00     0.029 A 
ATOM     57  C   UNL A   1      43.983  27.232  35.597  1.00  0.00     0.049 A 
ATOM     58  H   UNL A   1      44.416  29.103  34.664  1.00  0.00     0.167 HD
ATOM     59  C   UNL A   1      49.909  24.936  34.265  1.00  0.00     0.034 A 
ATOM     60  C   UNL A   1      42.938  26.635  34.975  1.00  0.00     0.034 A 
ATOM     61  C   UNL A   1      48.976  24.541  35.317  1.00  0.00     0.049 A 
ATOM     62  C   UNL A   1      43.302  25.144  34.874  1.00  0.00     0.074 A 
ATOM     63  C   UNL A   1      48.716  24.985  36.603  1.00  0.00     0.029 A 
ATOM     64  N   UNL A   1      47.909  23.737  34.975  1.00  0.00    -0.354 N 
ATOM     65  N   UNL A   1      44.557  24.745  34.783  1.00  0.00    -0.248 NA
ATOM     66  C   UNL A   1      42.413  23.998  35.089  1.00  0.00     0.031 C 
ATOM     67  C   UNL A   1      47.496  24.391  37.039  1.00  0.00     0.029 A 
ATOM     68  C   UNL A   1      46.967  23.696  35.968  1.00  0.00     0.049 A 
ATOM     69  H   UNL A   1      47.833  23.252  34.122  1.00  0.00     0.167 HD
ATOM     70  C   UNL A   1      44.654  23.451  35.240  1.00  0.00     0.074 A 
ATOM     71  C   UNL A   1      43.284  22.976  35.211  1.00  0.00     0.031 C 
ATOM     72  C   UNL A   1      45.797  22.885  35.744  1.00  0.00     0.034 A 
BRANCH  59  73
ATOM     73  C   UNL A   1      51.399  25.001  34.472  1.00  0.00     0.023 A 
ATOM     74  C   UNL A   1      52.076  26.144  34.944  1.00  0.00     0.012 A 
ATOM     75  C   UNL A   1      52.211  23.898  34.136  1.00  0.00     0.148 A 
ATOM     76  C   UNL A   1      53.468  26.177  35.107  1.00  0.00     0.002 A 
ATOM     77  C   UNL A   1      53.592  23.936  34.278  1.00  0.00     0.091 A 
ATOM     78  F   UNL A   1      51.676  22.779  33.641  1.00  0.00    -0.205 F 
ATOM     79  C   UNL A   1      54.232  25.071  34.766  1.00  0.00     0.022 A 
BRANCH  77  80
ATOM     80  S   UNL A   1      54.523  22.492  33.772  1.00  0.00     0.127 S 
ATOM     81  O   UNL A   1      54.089  21.479  34.732  1.00  0.00    -0.237 OA
ATOM     82  O   UNL A   1      54.112  22.302  32.385  1.00  0.00    -0.237 OA
ATOM     83  O   UNL A   1      55.911  22.922  33.932  1.00  0.00    -0.744 OA
ENDBRANCH  77  80
ENDBRANCH  59  73
BRANCH  60  84
ATOM     84  C   UNL A   1      42.191  27.659  34.096  1.00  0.00     0.023 A 
ATOM     85  C   UNL A   1      42.426  27.831  32.389  1.00  0.00     0.012 A 
ATOM     86  C   UNL A   1      41.196  28.936  34.952  1.00  0.00     0.148 A 
ATOM     87  C   UNL A   1      41.798  29.193  31.483  1.00  0.00     0.002 A 
ATOM     88  C   UNL A   1      40.457  30.436  33.984  1.00  0.00     0.091 A 
ATOM     89  F   UNL A   1      41.360  28.781  36.234  1.00  0.00    -0.205 F 
ATOM     90  C   UNL A   1      40.876  30.496  32.223  1.00  0.00     0.022 A 
BRANCH  88  91
ATOM     91  S   UNL A   1      38.686  31.326  33.897  1.00  0.00     0.127 S 
ATOM     92  O   UNL A   1      39.016  32.733  33.653  1.00  0.00    -0.237 OA
ATOM     93  O   UNL A   1      37.889  30.640  32.896  1.00  0.00    -0.237 OA
ATOM     94  O   UNL A   1      38.190  31.160  35.270  1.00  0.00    -0.744 OA
ENDBRANCH  88  91
ENDBRANCH  60  84
BRANCH  72  95
ATOM     95  C   UNL A   1      45.969  21.418  35.976  1.00  0.00     0.023 A 
ATOM     96  C   UNL A   1      45.581  20.521  34.948  1.00  0.00     0.012 A 
ATOM     97  C   UNL A   1      46.403  20.876  37.174  1.00  0.00     0.148 A 
ATOM     98  C   UNL A   1      45.445  19.157  35.169  1.00  0.00     0.002 A 
ATOM     99  C   UNL A   1      46.148  19.538  37.436  1.00  0.00     0.091 A 
ATOM    100  F   UNL A   1      47.030  21.653  38.070  1.00  0.00    -0.205 F 
ATOM    101  C   UNL A   1      45.665  18.672  36.446  1.00  0.00     0.022 A 
BRANCH  99 102
ATOM    102  S   UNL A   1      46.167  19.027  39.147  1.00  0.00     0.127 S 
ATOM    103  O   UNL A   1      45.284  17.866  39.169  1.00  0.00    -0.237 OA
ATOM    104  O   UNL A   1      47.589  18.766  39.366  1.00  0.00    -0.237 OA
ATOM    105  O   UNL A   1      45.652  20.200  39.854  1.00  0.00    -0.744 OA
ENDBRANCH  99 102
ENDBRANCH  72  95
ENDBRANCH  46  47
ENDBRANCH  39  41
ENDBRANCH  38  39
ENDBRANCH  37  38
ENDBRANCH  36  37
ENDBRANCH  35  36
ENDBRANCH  34  35
ENDBRANCH   1  34
TORSDOF 25
ENDMDL
