MODEL 1
REMARK VINA RESULT:      -8.1      0.000      0.000
REMARK SMILES O=C(CCn1ccnc1)N[C@H]1C=C[C@H](C(=O)OCCOCCOCCOCCOC(=O)c2ccc(-c3c4nc(c(-c5cccc(S(=O)(=O)[O-])c5F)c5ccc([nH]5)c(-c5cccc(S(=O)(=O)[O-])c5F)c5nc(c(-c6cccc(S(=O)(=O)[O-])c6F)c6ccc3[nH]6)C=C5)C=C4)cc2)C1
REMARK SMILES IDX 22 1 21 2 20 3 19 4 18 5 17 6 15 7 16 8 14 9 11 10 12 11
REMARK SMILES IDX 95 12 13 13 10 14 1 15 2 16 3 18 4 19 5 20 6 21 9 22 7 23
REMARK SMILES IDX 8 24 23 25 24 26 25 27 26 28 27 29 28 30 29 31 30 32 31 33
REMARK SMILES IDX 32 34 33 35 94 36 34 37 93 38 35 39 36 40 37 41 87 42 38 43
REMARK SMILES IDX 92 44 86 45 88 46 39 47 91 48 85 49 84 50 40 52 72 53 52 54
REMARK SMILES IDX 71 55 53 56 56 57 70 58 89 59 54 60 55 61 69 63 90 64 57 65
REMARK SMILES IDX 41 66 42 67 50 68 43 69 45 70 51 71 44 72 46 73 47 74 48 75
REMARK SMILES IDX 49 76 73 77 74 78 82 79 75 80 77 81 83 82 76 83 78 84 79 85
REMARK SMILES IDX 80 86 81 87 58 88 59 89 67 90 60 91 62 92 68 93 61 94 63 95
REMARK SMILES IDX 64 96 65 97 66 98
REMARK H PARENT 10 17 88 51 56 62
REMARK Flexibility Score: inf
ROOT
ATOM      1  C   UNL A   1      44.818  40.752  27.821  1.00  0.00     0.188 C 
ENDROOT
BRANCH   1   2
ATOM      2  C   UNL A   1      44.716  41.319  26.387  1.00  0.00     0.188 C 
BRANCH   2   3
ATOM      3  O   UNL A   1      44.526  42.707  26.123  1.00  0.00    -0.376 OA
BRANCH   3   4
ATOM      4  C   UNL A   1      43.993  43.195  24.901  1.00  0.00     0.202 C 
BRANCH   4   5
ATOM      5  C   UNL A   1      42.750  42.586  24.241  1.00  0.00     0.261 C 
BRANCH   5   6
ATOM      6  O   UNL A   1      42.966  42.061  22.936  1.00  0.00    -0.463 OA
BRANCH   6   7
ATOM      7  C   UNL A   1      42.070  42.423  21.988  1.00  0.00     0.312 C 
ATOM      8  O   UNL A   1      40.958  42.886  22.219  1.00  0.00    -0.252 OA
BRANCH   7   9
ATOM      9  C   UNL A   1      42.673  42.317  20.589  1.00  0.00     0.124 C 
ATOM     10  C   UNL A   1      43.917  44.310  20.153  1.00  0.00     0.106 C 
ATOM     11  C   UNL A   1      42.703  44.287  19.304  1.00  0.00    -0.006 C 
ATOM     12  C   UNL A   1      44.094  42.860  20.592  1.00  0.00     0.048 C 
ATOM     13  C   UNL A   1      42.001  43.177  19.549  1.00  0.00    -0.014 C 
BRANCH  10  14
ATOM     14  N   UNL A   1      45.075  44.827  19.488  1.00  0.00    -0.350 N 
ATOM     15  O   UNL A   1      45.510  46.622  20.845  1.00  0.00    -0.275 OA
ATOM     16  C   UNL A   1      45.705  46.003  19.802  1.00  0.00     0.222 C 
ATOM     17  H   UNL A   1      45.447  44.296  18.746  1.00  0.00     0.164 HD
BRANCH  16  18
ATOM     18  C   UNL A   1      46.589  46.618  18.731  1.00  0.00     0.122 C 
BRANCH  18  19
ATOM     19  C   UNL A   1      46.130  46.514  17.283  1.00  0.00     0.133 C 
BRANCH  19  20
ATOM     20  N   UNL A   1      45.010  47.358  16.902  1.00  0.00    -0.337 N 
ATOM     21  C   UNL A   1      44.971  48.723  16.825  1.00  0.00     0.107 A 
ATOM     22  C   UNL A   1      43.723  46.908  16.764  1.00  0.00     0.199 A 
ATOM     23  C   UNL A   1      43.636  49.040  16.726  1.00  0.00     0.130 A 
ATOM     24  N   UNL A   1      42.872  47.904  16.681  1.00  0.00    -0.245 NA
ENDBRANCH  19  20
ENDBRANCH  18  19
ENDBRANCH  16  18
ENDBRANCH  10  14
ENDBRANCH   7   9
ENDBRANCH   6   7
ENDBRANCH   5   6
ENDBRANCH   4   5
ENDBRANCH   3   4
ENDBRANCH   2   3
ENDBRANCH   1   2
BRANCH   1  25
ATOM     25  O   UNL A   1      43.630  40.890  28.571  1.00  0.00    -0.377 OA
BRANCH  25  26
ATOM     26  C   UNL A   1      42.426  40.581  27.878  1.00  0.00     0.188 C 
BRANCH  26  27
ATOM     27  C   UNL A   1      41.853  39.136  27.970  1.00  0.00     0.188 C 
BRANCH  27  28
ATOM     28  O   UNL A   1      41.866  38.389  26.757  1.00  0.00    -0.376 OA
BRANCH  28  29
ATOM     29  C   UNL A   1      42.330  37.046  26.694  1.00  0.00     0.202 C 
BRANCH  29  30
ATOM     30  C   UNL A   1      43.840  36.807  26.742  1.00  0.00     0.261 C 
BRANCH  30  31
ATOM     31  O   UNL A   1      44.324  36.690  28.062  1.00  0.00    -0.460 OA
BRANCH  31  32
ATOM     32  C   UNL A   1      44.436  35.428  28.503  1.00  0.00     0.338 C 
ATOM     33  O   UNL A   1      44.534  34.410  27.823  1.00  0.00    -0.246 OA
BRANCH  32  34
ATOM     34  C   UNL A   1      44.388  35.448  29.966  1.00  0.00     0.060 A 
ATOM     35  C   UNL A   1      44.788  34.253  30.557  1.00  0.00     0.016 A 
ATOM     36  C   UNL A   1      43.447  36.317  30.538  1.00  0.00     0.016 A 
ATOM     37  C   UNL A   1      43.914  33.706  31.449  1.00  0.00     0.010 A 
ATOM     38  C   UNL A   1      42.552  35.758  31.394  1.00  0.00     0.010 A 
ATOM     39  C   UNL A   1      42.745  34.421  31.722  1.00  0.00    -0.014 A 
BRANCH  39  40
ATOM     40  C   UNL A   1      41.688  33.720  32.386  1.00  0.00     0.031 A 
ATOM     41  C   UNL A   1      42.026  33.451  33.789  1.00  0.00     0.074 A 
ATOM     42  C   UNL A   1      40.532  33.454  31.755  1.00  0.00     0.049 A 
ATOM     43  N   UNL A   1      42.347  32.314  34.305  1.00  0.00    -0.248 NA
ATOM     44  C   UNL A   1      42.300  34.613  34.648  1.00  0.00     0.031 C 
ATOM     45  C   UNL A   1      40.046  33.977  30.474  1.00  0.00     0.029 A 
ATOM     46  N   UNL A   1      39.461  32.785  32.241  1.00  0.00    -0.354 N 
ATOM     47  C   UNL A   1      42.622  32.605  35.635  1.00  0.00     0.074 A 
ATOM     48  C   UNL A   1      42.863  34.019  35.699  1.00  0.00     0.031 C 
ATOM     49  C   UNL A   1      38.700  33.855  30.445  1.00  0.00     0.029 A 
ATOM     50  C   UNL A   1      38.267  33.163  31.648  1.00  0.00     0.049 A 
ATOM     51  H   UNL A   1      39.523  32.100  32.945  1.00  0.00     0.167 HD
ATOM     52  C   UNL A   1      42.310  31.723  36.619  1.00  0.00     0.034 A 
ATOM     53  C   UNL A   1      37.043  33.053  32.224  1.00  0.00     0.034 A 
ATOM     54  C   UNL A   1      42.049  30.411  36.078  1.00  0.00     0.049 A 
ATOM     55  C   UNL A   1      37.164  32.068  33.335  1.00  0.00     0.074 A 
ATOM     56  C   UNL A   1      42.774  29.520  35.309  1.00  0.00     0.029 A 
ATOM     57  N   UNL A   1      40.731  30.033  35.958  1.00  0.00    -0.354 N 
ATOM     58  N   UNL A   1      37.441  30.804  33.148  1.00  0.00    -0.248 NA
ATOM     59  C   UNL A   1      37.478  32.580  34.664  1.00  0.00     0.031 C 
ATOM     60  C   UNL A   1      41.826  28.958  34.407  1.00  0.00     0.029 A 
ATOM     61  C   UNL A   1      40.569  29.484  34.712  1.00  0.00     0.049 A 
ATOM     62  H   UNL A   1      40.032  30.139  36.643  1.00  0.00     0.167 HD
ATOM     63  C   UNL A   1      38.360  30.492  34.147  1.00  0.00     0.074 A 
ATOM     64  C   UNL A   1      38.265  31.594  35.106  1.00  0.00     0.031 C 
ATOM     65  C   UNL A   1      39.336  29.553  33.954  1.00  0.00     0.034 A 
BRANCH  52  66
ATOM     66  C   UNL A   1      41.851  32.120  38.000  1.00  0.00     0.023 A 
ATOM     67  C   UNL A   1      40.544  32.640  38.102  1.00  0.00     0.012 A 
ATOM     68  C   UNL A   1      42.688  32.265  39.134  1.00  0.00     0.148 A 
ATOM     69  C   UNL A   1      40.118  33.330  39.241  1.00  0.00     0.002 A 
ATOM     70  C   UNL A   1      42.233  32.879  40.293  1.00  0.00     0.091 A 
ATOM     71  F   UNL A   1      43.980  31.942  39.074  1.00  0.00    -0.205 F 
ATOM     72  C   UNL A   1      40.961  33.446  40.339  1.00  0.00     0.022 A 
BRANCH  70  73
ATOM     73  S   UNL A   1      43.275  33.010  41.753  1.00  0.00     0.127 S 
ATOM     74  O   UNL A   1      44.553  33.398  41.165  1.00  0.00    -0.237 OA
ATOM     75  O   UNL A   1      42.594  34.059  42.512  1.00  0.00    -0.237 OA
ATOM     76  O   UNL A   1      43.232  31.697  42.386  1.00  0.00    -0.744 OA
ENDBRANCH  70  73
ENDBRANCH  52  66
BRANCH  53  77
ATOM     77  C   UNL A   1      35.911  34.005  32.100  1.00  0.00     0.023 A 
ATOM     78  C   UNL A   1      35.647  34.929  33.127  1.00  0.00     0.012 A 
ATOM     79  C   UNL A   1      35.209  34.159  30.880  1.00  0.00     0.148 A 
ATOM     80  C   UNL A   1      34.716  35.963  32.948  1.00  0.00     0.002 A 
ATOM     81  C   UNL A   1      34.259  35.163  30.718  1.00  0.00     0.091 A 
ATOM     82  F   UNL A   1      35.541  33.389  29.836  1.00  0.00    -0.205 F 
ATOM     83  C   UNL A   1      34.015  36.075  31.748  1.00  0.00     0.022 A 
BRANCH  81  84
ATOM     84  S   UNL A   1      33.313  35.324  29.197  1.00  0.00     0.127 S 
ATOM     85  O   UNL A   1      32.689  34.006  29.081  1.00  0.00    -0.237 OA
ATOM     86  O   UNL A   1      32.395  36.411  29.523  1.00  0.00    -0.237 OA
ATOM     87  O   UNL A   1      34.294  35.610  28.156  1.00  0.00    -0.744 OA
ENDBRANCH  81  84
ENDBRANCH  53  77
BRANCH  65  88
ATOM     88  C   UNL A   1      39.288  28.702  32.706  1.00  0.00     0.023 A 
ATOM     89  C   UNL A   1      38.473  27.553  32.613  1.00  0.00     0.012 A 
ATOM     90  C   UNL A   1      39.894  29.194  31.538  1.00  0.00     0.148 A 
ATOM     91  C   UNL A   1      38.280  26.904  31.390  1.00  0.00     0.002 A 
ATOM     92  C   UNL A   1      39.661  28.575  30.315  1.00  0.00     0.091 A 
ATOM     93  F   UNL A   1      40.659  30.292  31.636  1.00  0.00    -0.205 F 
ATOM     94  C   UNL A   1      38.862  27.424  30.238  1.00  0.00     0.022 A 
BRANCH  92  95
ATOM     95  S   UNL A   1      40.264  29.278  28.778  1.00  0.00     0.127 S 
ATOM     96  O   UNL A   1      41.705  29.337  29.015  1.00  0.00    -0.237 OA
ATOM     97  O   UNL A   1      39.847  28.281  27.790  1.00  0.00    -0.237 OA
ATOM     98  O   UNL A   1      39.596  30.567  28.638  1.00  0.00    -0.744 OA
ENDBRANCH  92  95
ENDBRANCH  65  88
ENDBRANCH  39  40
ENDBRANCH  32  34
ENDBRANCH  31  32
ENDBRANCH  30  31
ENDBRANCH  29  30
ENDBRANCH  28  29
ENDBRANCH  27  28
ENDBRANCH  26  27
ENDBRANCH  25  26
ENDBRANCH   1  25
TORSDOF 27
ENDMDL
MODEL 2
REMARK VINA RESULT:      -7.6      5.770      8.298
REMARK SMILES O=C(CCn1ccnc1)N[C@H]1C=C[C@H](C(=O)OCCOCCOCCOCCOC(=O)c2ccc(-c3c4nc(c(-c5cccc(S(=O)(=O)[O-])c5F)c5ccc([nH]5)c(-c5cccc(S(=O)(=O)[O-])c5F)c5nc(c(-c6cccc(S(=O)(=O)[O-])c6F)c6ccc3[nH]6)C=C5)C=C4)cc2)C1
REMARK SMILES IDX 22 1 21 2 20 3 19 4 18 5 17 6 15 7 16 8 14 9 11 10 12 11
REMARK SMILES IDX 95 12 13 13 10 14 1 15 2 16 3 18 4 19 5 20 6 21 9 22 7 23
REMARK SMILES IDX 8 24 23 25 24 26 25 27 26 28 27 29 28 30 29 31 30 32 31 33
REMARK SMILES IDX 32 34 33 35 94 36 34 37 93 38 35 39 36 40 37 41 87 42 38 43
REMARK SMILES IDX 92 44 86 45 88 46 39 47 91 48 85 49 84 50 40 52 72 53 52 54
REMARK SMILES IDX 71 55 53 56 56 57 70 58 89 59 54 60 55 61 69 63 90 64 57 65
REMARK SMILES IDX 41 66 42 67 50 68 43 69 45 70 51 71 44 72 46 73 47 74 48 75
REMARK SMILES IDX 49 76 73 77 74 78 82 79 75 80 77 81 83 82 76 83 78 84 79 85
REMARK SMILES IDX 80 86 81 87 58 88 59 89 67 90 60 91 62 92 68 93 61 94 63 95
REMARK SMILES IDX 64 96 65 97 66 98
REMARK H PARENT 10 17 88 51 56 62
REMARK Flexibility Score: inf
ROOT
ATOM      1  C   UNL A   1      43.601  41.263  25.202  1.00  0.00     0.188 C 
ENDROOT
BRANCH   1   2
ATOM      2  C   UNL A   1      43.350  42.589  24.449  1.00  0.00     0.188 C 
BRANCH   2   3
ATOM      3  O   UNL A   1      43.302  42.666  23.027  1.00  0.00    -0.376 OA
BRANCH   3   4
ATOM      4  C   UNL A   1      42.085  42.737  22.298  1.00  0.00     0.202 C 
BRANCH   4   5
ATOM      5  C   UNL A   1      42.041  42.854  20.770  1.00  0.00     0.261 C 
BRANCH   5   6
ATOM      6  O   UNL A   1      41.477  44.066  20.283  1.00  0.00    -0.463 OA
BRANCH   6   7
ATOM      7  C   UNL A   1      41.196  44.107  18.960  1.00  0.00     0.312 C 
ATOM      8  O   UNL A   1      40.096  43.871  18.472  1.00  0.00    -0.252 OA
BRANCH   7   9
ATOM      9  C   UNL A   1      42.388  44.625  18.158  1.00  0.00     0.124 C 
ATOM     10  C   UNL A   1      41.924  46.871  17.487  1.00  0.00     0.106 C 
ATOM     11  C   UNL A   1      41.896  45.983  16.301  1.00  0.00    -0.006 C 
ATOM     12  C   UNL A   1      42.683  46.068  18.538  1.00  0.00     0.048 C 
ATOM     13  C   UNL A   1      42.149  44.725  16.672  1.00  0.00    -0.014 C 
BRANCH  10  14
ATOM     14  N   UNL A   1      42.521  48.148  17.235  1.00  0.00    -0.350 N 
ATOM     15  O   UNL A   1      44.571  47.454  16.478  1.00  0.00    -0.275 OA
ATOM     16  C   UNL A   1      43.828  48.350  16.875  1.00  0.00     0.222 C 
ATOM     17  H   UNL A   1      41.948  48.944  17.329  1.00  0.00     0.164 HD
BRANCH  16  18
ATOM     18  C   UNL A   1      44.402  49.736  17.109  1.00  0.00     0.122 C 
BRANCH  18  19
ATOM     19  C   UNL A   1      45.834  49.997  16.663  1.00  0.00     0.133 C 
BRANCH  19  20
ATOM     20  N   UNL A   1      46.858  49.876  17.688  1.00  0.00    -0.337 N 
ATOM     21  C   UNL A   1      46.774  50.223  19.009  1.00  0.00     0.107 A 
ATOM     22  C   UNL A   1      48.172  49.587  17.428  1.00  0.00     0.199 A 
ATOM     23  C   UNL A   1      48.070  50.206  19.469  1.00  0.00     0.130 A 
ATOM     24  N   UNL A   1      48.928  49.801  18.480  1.00  0.00    -0.245 NA
ENDBRANCH  19  20
ENDBRANCH  18  19
ENDBRANCH  16  18
ENDBRANCH  10  14
ENDBRANCH   7   9
ENDBRANCH   6   7
ENDBRANCH   5   6
ENDBRANCH   4   5
ENDBRANCH   3   4
ENDBRANCH   2   3
ENDBRANCH   1   2
BRANCH   1  25
ATOM     25  O   UNL A   1      42.881  41.152  26.412  1.00  0.00    -0.377 OA
BRANCH  25  26
ATOM     26  C   UNL A   1      42.708  39.829  26.904  1.00  0.00     0.188 C 
BRANCH  26  27
ATOM     27  C   UNL A   1      42.210  39.628  28.366  1.00  0.00     0.188 C 
BRANCH  27  28
ATOM     28  O   UNL A   1      42.990  38.746  29.169  1.00  0.00    -0.376 OA
BRANCH  28  29
ATOM     29  C   UNL A   1      43.367  37.448  28.729  1.00  0.00     0.202 C 
BRANCH  29  30
ATOM     30  C   UNL A   1      42.602  36.250  29.296  1.00  0.00     0.261 C 
BRANCH  30  31
ATOM     31  O   UNL A   1      42.328  35.275  28.314  1.00  0.00    -0.460 OA
BRANCH  31  32
ATOM     32  C   UNL A   1      43.292  34.353  28.161  1.00  0.00     0.338 C 
ATOM     33  O   UNL A   1      43.919  34.098  27.137  1.00  0.00    -0.246 OA
BRANCH  32  34
ATOM     34  C   UNL A   1      43.462  33.654  29.437  1.00  0.00     0.060 A 
ATOM     35  C   UNL A   1      44.791  33.423  29.776  1.00  0.00     0.016 A 
ATOM     36  C   UNL A   1      42.407  32.813  29.821  1.00  0.00     0.016 A 
ATOM     37  C   UNL A   1      45.116  32.133  30.073  1.00  0.00     0.010 A 
ATOM     38  C   UNL A   1      42.731  31.517  30.075  1.00  0.00     0.010 A 
ATOM     39  C   UNL A   1      44.082  31.193  30.064  1.00  0.00    -0.014 A 
BRANCH  39  40
ATOM     40  C   UNL A   1      44.454  29.810  30.047  1.00  0.00     0.031 A 
ATOM     41  C   UNL A   1      45.149  29.430  31.283  1.00  0.00     0.074 A 
ATOM     42  C   UNL A   1      44.099  29.012  29.026  1.00  0.00     0.049 A 
ATOM     43  N   UNL A   1      46.407  29.188  31.422  1.00  0.00    -0.248 NA
ATOM     44  C   UNL A   1      44.416  29.603  32.546  1.00  0.00     0.031 C 
ATOM     45  C   UNL A   1      43.148  29.279  27.943  1.00  0.00     0.029 A 
ATOM     46  N   UNL A   1      44.395  27.702  28.861  1.00  0.00    -0.354 N 
ATOM     47  C   UNL A   1      46.562  28.932  32.778  1.00  0.00     0.074 A 
ATOM     48  C   UNL A   1      45.407  29.483  33.428  1.00  0.00     0.031 C 
ATOM     49  C   UNL A   1      42.731  28.096  27.439  1.00  0.00     0.029 A 
ATOM     50  C   UNL A   1      43.460  27.024  28.097  1.00  0.00     0.049 A 
ATOM     51  H   UNL A   1      45.194  27.274  29.245  1.00  0.00     0.167 HD
ATOM     52  C   UNL A   1      47.456  28.008  33.214  1.00  0.00     0.034 A 
ATOM     53  C   UNL A   1      43.218  25.690  28.164  1.00  0.00     0.034 A 
ATOM     54  C   UNL A   1      48.402  27.670  32.178  1.00  0.00     0.049 A 
ATOM     55  C   UNL A   1      44.401  25.059  28.814  1.00  0.00     0.074 A 
ATOM     56  C   UNL A   1      49.299  28.392  31.415  1.00  0.00     0.029 A 
ATOM     57  N   UNL A   1      48.202  26.483  31.510  1.00  0.00    -0.354 N 
ATOM     58  N   UNL A   1      45.594  25.047  28.278  1.00  0.00    -0.248 NA
ATOM     59  C   UNL A   1      44.373  24.895  30.263  1.00  0.00     0.031 C 
ATOM     60  C   UNL A   1      49.227  27.812  30.116  1.00  0.00     0.029 A 
ATOM     61  C   UNL A   1      48.342  26.732  30.170  1.00  0.00     0.049 A 
ATOM     62  H   UNL A   1      47.996  25.612  31.921  1.00  0.00     0.167 HD
ATOM     63  C   UNL A   1      46.458  25.331  29.332  1.00  0.00     0.074 A 
ATOM     64  C   UNL A   1      45.660  25.127  30.542  1.00  0.00     0.031 C 
ATOM     65  C   UNL A   1      47.629  26.010  29.135  1.00  0.00     0.034 A 
BRANCH  52  66
ATOM     66  C   UNL A   1      47.243  27.123  34.417  1.00  0.00     0.023 A 
ATOM     67  C   UNL A   1      48.237  27.172  35.416  1.00  0.00     0.012 A 
ATOM     68  C   UNL A   1      46.295  26.074  34.510  1.00  0.00     0.148 A 
ATOM     69  C   UNL A   1      48.328  26.191  36.408  1.00  0.00     0.002 A 
ATOM     70  C   UNL A   1      46.340  25.150  35.544  1.00  0.00     0.091 A 
ATOM     71  F   UNL A   1      45.416  25.860  33.530  1.00  0.00    -0.205 F 
ATOM     72  C   UNL A   1      47.377  25.182  36.475  1.00  0.00     0.022 A 
BRANCH  70  73
ATOM     73  S   UNL A   1      45.102  23.854  35.695  1.00  0.00     0.127 S 
ATOM     74  O   UNL A   1      45.222  23.498  37.106  1.00  0.00    -0.237 OA
ATOM     75  O   UNL A   1      43.878  24.568  35.335  1.00  0.00    -0.237 OA
ATOM     76  O   UNL A   1      45.493  22.824  34.739  1.00  0.00    -0.744 OA
ENDBRANCH  70  73
ENDBRANCH  52  66
BRANCH  53  77
ATOM     77  C   UNL A   1      41.902  25.015  28.039  1.00  0.00     0.023 A 
ATOM     78  C   UNL A   1      40.714  25.731  28.277  1.00  0.00     0.012 A 
ATOM     79  C   UNL A   1      41.789  23.719  27.481  1.00  0.00     0.148 A 
ATOM     80  C   UNL A   1      39.462  25.174  27.973  1.00  0.00     0.002 A 
ATOM     81  C   UNL A   1      40.546  23.156  27.216  1.00  0.00     0.091 A 
ATOM     82  F   UNL A   1      42.901  23.072  27.109  1.00  0.00    -0.205 F 
ATOM     83  C   UNL A   1      39.377  23.884  27.452  1.00  0.00     0.022 A 
BRANCH  81  84
ATOM     84  S   UNL A   1      40.390  21.484  26.570  1.00  0.00     0.127 S 
ATOM     85  O   UNL A   1      39.034  21.491  26.021  1.00  0.00    -0.237 OA
ATOM     86  O   UNL A   1      41.455  21.444  25.573  1.00  0.00    -0.237 OA
ATOM     87  O   UNL A   1      40.560  20.603  27.719  1.00  0.00    -0.744 OA
ENDBRANCH  81  84
ENDBRANCH  53  77
BRANCH  65  88
ATOM     88  C   UNL A   1      48.082  26.280  27.719  1.00  0.00     0.023 A 
ATOM     89  C   UNL A   1      49.063  25.491  27.082  1.00  0.00     0.012 A 
ATOM     90  C   UNL A   1      47.347  27.195  26.946  1.00  0.00     0.148 A 
ATOM     91  C   UNL A   1      49.315  25.620  25.713  1.00  0.00     0.002 A 
ATOM     92  C   UNL A   1      47.567  27.287  25.576  1.00  0.00     0.091 A 
ATOM     93  F   UNL A   1      46.410  27.934  27.559  1.00  0.00    -0.205 F 
ATOM     94  C   UNL A   1      48.556  26.508  24.957  1.00  0.00     0.022 A 
BRANCH  92  95
ATOM     95  S   UNL A   1      46.527  28.305  24.526  1.00  0.00     0.127 S 
ATOM     96  O   UNL A   1      47.142  28.118  23.214  1.00  0.00    -0.237 OA
ATOM     97  O   UNL A   1      45.212  27.679  24.681  1.00  0.00    -0.237 OA
ATOM     98  O   UNL A   1      46.607  29.656  25.072  1.00  0.00    -0.744 OA
ENDBRANCH  92  95
ENDBRANCH  65  88
ENDBRANCH  39  40
ENDBRANCH  32  34
ENDBRANCH  31  32
ENDBRANCH  30  31
ENDBRANCH  29  30
ENDBRANCH  28  29
ENDBRANCH  27  28
ENDBRANCH  26  27
ENDBRANCH  25  26
ENDBRANCH   1  25
TORSDOF 27
ENDMDL
MODEL 3
REMARK VINA RESULT:      -7.4      6.415     15.543
REMARK SMILES O=C(CCn1ccnc1)N[C@H]1C=C[C@H](C(=O)OCCOCCOCCOCCOC(=O)c2ccc(-c3c4nc(c(-c5cccc(S(=O)(=O)[O-])c5F)c5ccc([nH]5)c(-c5cccc(S(=O)(=O)[O-])c5F)c5nc(c(-c6cccc(S(=O)(=O)[O-])c6F)c6ccc3[nH]6)C=C5)C=C4)cc2)C1
REMARK SMILES IDX 22 1 21 2 20 3 19 4 18 5 17 6 15 7 16 8 14 9 11 10 12 11
REMARK SMILES IDX 95 12 13 13 10 14 1 15 2 16 3 18 4 19 5 20 6 21 9 22 7 23
REMARK SMILES IDX 8 24 23 25 24 26 25 27 26 28 27 29 28 30 29 31 30 32 31 33
REMARK SMILES IDX 32 34 33 35 94 36 34 37 93 38 35 39 36 40 37 41 87 42 38 43
REMARK SMILES IDX 92 44 86 45 88 46 39 47 91 48 85 49 84 50 40 52 72 53 52 54
REMARK SMILES IDX 71 55 53 56 56 57 70 58 89 59 54 60 55 61 69 63 90 64 57 65
REMARK SMILES IDX 41 66 42 67 50 68 43 69 45 70 51 71 44 72 46 73 47 74 48 75
REMARK SMILES IDX 49 76 73 77 74 78 82 79 75 80 77 81 83 82 76 83 78 84 79 85
REMARK SMILES IDX 80 86 81 87 58 88 59 89 67 90 60 91 62 92 68 93 61 94 63 95
REMARK SMILES IDX 64 96 65 97 66 98
REMARK H PARENT 10 17 88 51 56 62
REMARK Flexibility Score: inf
ROOT
ATOM      1  C   UNL A   1      38.103  29.656  28.753  1.00  0.00     0.188 C 
ENDROOT
BRANCH   1   2
ATOM      2  C   UNL A   1      36.989  29.784  27.690  1.00  0.00     0.188 C 
BRANCH   2   3
ATOM      3  O   UNL A   1      35.609  29.886  28.033  1.00  0.00    -0.376 OA
BRANCH   3   4
ATOM      4  C   UNL A   1      34.581  29.231  27.304  1.00  0.00     0.202 C 
BRANCH   4   5
ATOM      5  C   UNL A   1      33.237  29.897  26.990  1.00  0.00     0.261 C 
BRANCH   5   6
ATOM      6  O   UNL A   1      32.140  28.999  26.875  1.00  0.00    -0.463 OA
BRANCH   6   7
ATOM      7  C   UNL A   1      31.877  28.528  25.633  1.00  0.00     0.312 C 
ATOM      8  O   UNL A   1      32.194  29.092  24.592  1.00  0.00    -0.252 OA
BRANCH   7   9
ATOM      9  C   UNL A   1      31.259  27.133  25.691  1.00  0.00     0.124 C 
ATOM     10  C   UNL A   1      33.028  25.528  25.757  1.00  0.00     0.106 C 
ATOM     11  C   UNL A   1      32.338  25.452  24.448  1.00  0.00    -0.006 C 
ATOM     12  C   UNL A   1      32.039  26.258  26.660  1.00  0.00     0.048 C 
ATOM     13  C   UNL A   1      31.352  26.352  24.404  1.00  0.00    -0.014 C 
BRANCH  10  14
ATOM     14  N   UNL A   1      33.411  24.252  26.280  1.00  0.00    -0.350 N 
ATOM     15  O   UNL A   1      35.672  24.366  25.914  1.00  0.00    -0.275 OA
ATOM     16  C   UNL A   1      34.670  23.716  26.207  1.00  0.00     0.222 C 
ATOM     17  H   UNL A   1      32.715  23.717  26.728  1.00  0.00     0.164 HD
BRANCH  16  18
ATOM     18  C   UNL A   1      34.790  22.211  26.374  1.00  0.00     0.122 C 
BRANCH  18  19
ATOM     19  C   UNL A   1      35.206  21.392  25.159  1.00  0.00     0.133 C 
BRANCH  19  20
ATOM     20  N   UNL A   1      34.150  20.644  24.497  1.00  0.00    -0.337 N 
ATOM     21  C   UNL A   1      33.143  21.126  23.706  1.00  0.00     0.107 A 
ATOM     22  C   UNL A   1      33.871  19.326  24.749  1.00  0.00     0.199 A 
ATOM     23  C   UNL A   1      32.251  20.086  23.585  1.00  0.00     0.130 A 
ATOM     24  N   UNL A   1      32.719  18.971  24.229  1.00  0.00    -0.245 NA
ENDBRANCH  19  20
ENDBRANCH  18  19
ENDBRANCH  16  18
ENDBRANCH  10  14
ENDBRANCH   7   9
ENDBRANCH   6   7
ENDBRANCH   5   6
ENDBRANCH   4   5
ENDBRANCH   3   4
ENDBRANCH   2   3
ENDBRANCH   1   2
BRANCH   1  25
ATOM     25  O   UNL A   1      37.672  29.057  29.957  1.00  0.00    -0.377 OA
BRANCH  25  26
ATOM     26  C   UNL A   1      38.175  29.645  31.150  1.00  0.00     0.188 C 
BRANCH  26  27
ATOM     27  C   UNL A   1      37.621  29.159  32.522  1.00  0.00     0.188 C 
BRANCH  27  28
ATOM     28  O   UNL A   1      38.497  29.320  33.634  1.00  0.00    -0.376 OA
BRANCH  28  29
ATOM     29  C   UNL A   1      39.795  29.886  33.507  1.00  0.00     0.202 C 
BRANCH  29  30
ATOM     30  C   UNL A   1      39.964  31.370  33.838  1.00  0.00     0.261 C 
BRANCH  30  31
ATOM     31  O   UNL A   1      39.740  32.199  32.719  1.00  0.00    -0.460 OA
BRANCH  31  32
ATOM     32  C   UNL A   1      40.601  33.222  32.604  1.00  0.00     0.338 C 
ATOM     33  O   UNL A   1      40.859  34.073  33.450  1.00  0.00    -0.246 OA
BRANCH  32  34
ATOM     34  C   UNL A   1      41.179  33.185  31.259  1.00  0.00     0.060 A 
ATOM     35  C   UNL A   1      42.523  32.823  31.236  1.00  0.00     0.016 A 
ATOM     36  C   UNL A   1      40.590  34.039  30.314  1.00  0.00     0.016 A 
ATOM     37  C   UNL A   1      43.358  33.676  30.578  1.00  0.00     0.010 A 
ATOM     38  C   UNL A   1      41.422  34.915  29.693  1.00  0.00     0.010 A 
ATOM     39  C   UNL A   1      42.782  34.783  29.950  1.00  0.00    -0.014 A 
BRANCH  39  40
ATOM     40  C   UNL A   1      43.660  35.841  29.548  1.00  0.00     0.031 A 
ATOM     41  C   UNL A   1      44.022  36.694  30.687  1.00  0.00     0.074 A 
ATOM     42  C   UNL A   1      44.113  35.920  28.286  1.00  0.00     0.049 A 
ATOM     43  N   UNL A   1      43.602  37.889  30.924  1.00  0.00    -0.248 NA
ATOM     44  C   UNL A   1      44.707  36.049  31.817  1.00  0.00     0.031 C 
ATOM     45  C   UNL A   1      44.025  34.921  27.217  1.00  0.00     0.029 A 
ATOM     46  N   UNL A   1      44.923  36.867  27.758  1.00  0.00    -0.354 N 
ATOM     47  C   UNL A   1      44.192  38.227  32.136  1.00  0.00     0.074 A 
ATOM     48  C   UNL A   1      44.590  36.992  32.751  1.00  0.00     0.031 C 
ATOM     49  C   UNL A   1      44.991  35.183  26.307  1.00  0.00     0.029 A 
ATOM     50  C   UNL A   1      45.675  36.407  26.689  1.00  0.00     0.049 A 
ATOM     51  H   UNL A   1      44.973  37.789  28.099  1.00  0.00     0.167 HD
ATOM     52  C   UNL A   1      44.597  39.499  32.381  1.00  0.00     0.034 A 
ATOM     53  C   UNL A   1      46.864  36.927  26.292  1.00  0.00     0.034 A 
ATOM     54  C   UNL A   1      44.007  40.423  31.442  1.00  0.00     0.049 A 
ATOM     55  C   UNL A   1      46.963  38.295  26.874  1.00  0.00     0.074 A 
ATOM     56  C   UNL A   1      42.712  40.748  31.089  1.00  0.00     0.029 A 
ATOM     57  N   UNL A   1      44.806  40.861  30.410  1.00  0.00    -0.354 N 
ATOM     58  N   UNL A   1      46.165  39.277  26.543  1.00  0.00    -0.248 NA
ATOM     59  C   UNL A   1      47.608  38.435  28.174  1.00  0.00     0.031 C 
ATOM     60  C   UNL A   1      42.752  40.933  29.677  1.00  0.00     0.029 A 
ATOM     61  C   UNL A   1      44.073  40.775  29.254  1.00  0.00     0.049 A 
ATOM     62  H   UNL A   1      45.734  41.179  30.488  1.00  0.00     0.167 HD
ATOM     63  C   UNL A   1      45.858  39.904  27.747  1.00  0.00     0.074 A 
ATOM     64  C   UNL A   1      46.854  39.406  28.699  1.00  0.00     0.031 C 
ATOM     65  C   UNL A   1      44.650  40.512  27.951  1.00  0.00     0.034 A 
BRANCH  52  66
ATOM     66  C   UNL A   1      45.815  39.860  33.196  1.00  0.00     0.023 A 
ATOM     67  C   UNL A   1      45.627  40.814  34.216  1.00  0.00     0.012 A 
ATOM     68  C   UNL A   1      47.152  39.534  32.863  1.00  0.00     0.148 A 
ATOM     69  C   UNL A   1      46.708  41.463  34.820  1.00  0.00     0.002 A 
ATOM     70  C   UNL A   1      48.224  40.121  33.522  1.00  0.00     0.091 A 
ATOM     71  F   UNL A   1      47.425  38.761  31.811  1.00  0.00    -0.205 F 
ATOM     72  C   UNL A   1      48.008  41.114  34.476  1.00  0.00     0.022 A 
BRANCH  70  73
ATOM     73  S   UNL A   1      49.921  39.665  33.140  1.00  0.00     0.127 S 
ATOM     74  O   UNL A   1      50.067  40.189  31.786  1.00  0.00    -0.237 OA
ATOM     75  O   UNL A   1      50.664  40.389  34.171  1.00  0.00    -0.237 OA
ATOM     76  O   UNL A   1      49.978  38.214  33.276  1.00  0.00    -0.744 OA
ENDBRANCH  70  73
ENDBRANCH  52  66
BRANCH  53  77
ATOM     77  C   UNL A   1      48.033  36.179  25.768  1.00  0.00     0.023 A 
ATOM     78  C   UNL A   1      48.848  36.747  24.772  1.00  0.00     0.012 A 
ATOM     79  C   UNL A   1      48.484  34.988  26.388  1.00  0.00     0.148 A 
ATOM     80  C   UNL A   1      50.064  36.148  24.405  1.00  0.00     0.002 A 
ATOM     81  C   UNL A   1      49.671  34.378  25.996  1.00  0.00     0.091 A 
ATOM     82  F   UNL A   1      47.806  34.503  27.436  1.00  0.00    -0.205 F 
ATOM     83  C   UNL A   1      50.471  34.960  25.010  1.00  0.00     0.022 A 
BRANCH  81  84
ATOM     84  S   UNL A   1      50.218  32.830  26.731  1.00  0.00     0.127 S 
ATOM     85  O   UNL A   1      50.844  32.154  25.594  1.00  0.00    -0.237 OA
ATOM     86  O   UNL A   1      51.147  33.292  27.757  1.00  0.00    -0.237 OA
ATOM     87  O   UNL A   1      49.007  32.178  27.215  1.00  0.00    -0.744 OA
ENDBRANCH  81  84
ENDBRANCH  53  77
BRANCH  65  88
ATOM     88  C   UNL A   1      43.712  40.674  26.777  1.00  0.00     0.023 A 
ATOM     89  C   UNL A   1      42.438  40.067  26.746  1.00  0.00     0.012 A 
ATOM     90  C   UNL A   1      44.025  41.633  25.800  1.00  0.00     0.148 A 
ATOM     91  C   UNL A   1      41.507  40.397  25.757  1.00  0.00     0.002 A 
ATOM     92  C   UNL A   1      43.079  41.994  24.846  1.00  0.00     0.091 A 
ATOM     93  F   UNL A   1      45.235  42.211  25.843  1.00  0.00    -0.205 F 
ATOM     94  C   UNL A   1      41.822  41.372  24.816  1.00  0.00     0.022 A 
BRANCH  92  95
ATOM     95  S   UNL A   1      43.372  43.342  23.698  1.00  0.00     0.127 S 
ATOM     96  O   UNL A   1      44.226  42.708  22.695  1.00  0.00    -0.237 OA
ATOM     97  O   UNL A   1      42.021  43.663  23.236  1.00  0.00    -0.237 OA
ATOM     98  O   UNL A   1      44.000  44.403  24.478  1.00  0.00    -0.744 OA
ENDBRANCH  92  95
ENDBRANCH  65  88
ENDBRANCH  39  40
ENDBRANCH  32  34
ENDBRANCH  31  32
ENDBRANCH  30  31
ENDBRANCH  29  30
ENDBRANCH  28  29
ENDBRANCH  27  28
ENDBRANCH  26  27
ENDBRANCH  25  26
ENDBRANCH   1  25
TORSDOF 27
ENDMDL
