MODEL 1
REMARK VINA RESULT:      -9.5      0.000      0.000
REMARK SMILES O=C(OCCOCCOCCOCCOC(=O)c1cccc(F)c1N1CCN2C(=O)NC[C@@H]2C1)c1ccc(-c2c3nc(c(-c4cccc(S(=O)(=O)[O-])c4F)c4ccc([nH]4)c(-c4cccc(S(=O)(=O)[O-])c4F)c4nc(c(-c5cccc(S(=O)(=O)[O-])c5F)c5ccc2[nH]5)C=C4)C=C3)cc1
REMARK SMILES IDX 8 1 7 2 6 3 5 4 4 5 3 6 2 7 1 8 35 9 36 10 97 11 37 12 96 13
REMARK SMILES IDX 38 14 39 15 40 16 90 17 41 18 95 19 89 20 91 21 42 22 94 23
REMARK SMILES IDX 88 24 87 25 43 27 75 28 55 29 74 30 56 31 59 32 73 33 92 34
REMARK SMILES IDX 57 35 58 36 72 38 93 39 60 40 44 41 45 42 53 43 46 44 48 45
REMARK SMILES IDX 54 46 47 47 49 48 50 49 51 50 52 51 76 52 77 53 85 54 78 55
REMARK SMILES IDX 80 56 86 57 79 58 81 59 82 60 83 61 84 62 61 63 62 64 70 65
REMARK SMILES IDX 63 66 65 67 71 68 64 69 66 70 67 71 68 72 69 73 9 74 10 75
REMARK SMILES IDX 11 76 12 77 13 78 14 79 15 80 16 81 17 82 18 83 19 84 24 85
REMARK SMILES IDX 20 86 22 87 21 88 23 89 25 90 26 91 34 92 27 93 33 94 28 95
REMARK SMILES IDX 32 96 29 97 31 98 30 99
REMARK H PARENT 91 26 59 37 31 100
REMARK Flexibility Score: inf
ROOT
ATOM      1  C   UNL A   1      41.850  21.408  27.590  1.00  0.00     0.188 C 
ENDROOT
BRANCH   1   2
ATOM      2  C   UNL A   1      41.535  19.913  27.629  1.00  0.00     0.188 C 
BRANCH   2   3
ATOM      3  O   UNL A   1      42.041  19.120  26.547  1.00  0.00    -0.376 OA
BRANCH   3   4
ATOM      4  C   UNL A   1      43.034  18.165  26.922  1.00  0.00     0.202 C 
BRANCH   4   5
ATOM      5  C   UNL A   1      44.131  17.967  25.869  1.00  0.00     0.261 C 
BRANCH   5   6
ATOM      6  O   UNL A   1      44.114  18.981  24.850  1.00  0.00    -0.460 OA
BRANCH   6   7
ATOM      7  C   UNL A   1      45.080  19.854  24.467  1.00  0.00     0.338 C 
ATOM      8  O   UNL A   1      45.981  19.417  23.751  1.00  0.00    -0.246 OA
BRANCH   7   9
ATOM      9  C   UNL A   1      45.135  21.308  24.848  1.00  0.00     0.060 A 
ATOM     10  C   UNL A   1      44.974  22.387  23.982  1.00  0.00     0.016 A 
ATOM     11  C   UNL A   1      45.332  21.601  26.214  1.00  0.00     0.016 A 
ATOM     12  C   UNL A   1      45.079  23.698  24.427  1.00  0.00     0.010 A 
ATOM     13  C   UNL A   1      45.414  22.921  26.678  1.00  0.00     0.010 A 
ATOM     14  C   UNL A   1      45.313  23.974  25.769  1.00  0.00    -0.014 A 
BRANCH  14  15
ATOM     15  C   UNL A   1      45.626  25.372  26.104  1.00  0.00     0.031 A 
ATOM     16  C   UNL A   1      44.509  26.235  26.604  1.00  0.00     0.074 A 
ATOM     17  C   UNL A   1      46.902  25.790  26.157  1.00  0.00     0.049 A 
ATOM     18  N   UNL A   1      44.554  27.456  27.059  1.00  0.00    -0.248 NA
ATOM     19  C   UNL A   1      43.171  25.619  26.644  1.00  0.00     0.031 C 
ATOM     20  C   UNL A   1      48.071  24.969  25.842  1.00  0.00     0.029 A 
ATOM     21  N   UNL A   1      47.429  27.001  26.525  1.00  0.00    -0.354 N 
ATOM     22  C   UNL A   1      43.249  27.766  27.411  1.00  0.00     0.074 A 
ATOM     23  C   UNL A   1      42.438  26.601  27.141  1.00  0.00     0.031 C 
ATOM     24  C   UNL A   1      49.179  25.706  26.015  1.00  0.00     0.029 A 
ATOM     25  C   UNL A   1      48.796  27.062  26.404  1.00  0.00     0.049 A 
ATOM     26  H   UNL A   1      46.880  27.754  26.843  1.00  0.00     0.167 HD
ATOM     27  C   UNL A   1      42.769  28.928  27.906  1.00  0.00     0.034 A 
ATOM     28  C   UNL A   1      49.632  28.108  26.556  1.00  0.00     0.034 A 
ATOM     29  C   UNL A   1      43.584  30.085  28.142  1.00  0.00     0.049 A 
ATOM     30  C   UNL A   1      49.057  29.435  26.980  1.00  0.00     0.074 A 
ATOM     31  C   UNL A   1      43.189  31.332  28.583  1.00  0.00     0.029 A 
ATOM     32  N   UNL A   1      44.953  30.141  27.931  1.00  0.00    -0.354 N 
ATOM     33  N   UNL A   1      47.821  29.726  27.312  1.00  0.00    -0.248 NA
ATOM     34  C   UNL A   1      49.981  30.575  27.061  1.00  0.00     0.031 C 
ATOM     35  C   UNL A   1      44.314  32.161  28.583  1.00  0.00     0.029 A 
ATOM     36  C   UNL A   1      45.419  31.413  28.200  1.00  0.00     0.049 A 
ATOM     37  H   UNL A   1      45.511  29.386  27.633  1.00  0.00     0.167 HD
ATOM     38  C   UNL A   1      47.823  31.068  27.674  1.00  0.00     0.074 A 
ATOM     39  C   UNL A   1      49.187  31.534  27.522  1.00  0.00     0.031 C 
ATOM     40  C   UNL A   1      46.791  31.843  28.087  1.00  0.00     0.034 A 
BRANCH  27  41
ATOM     41  C   UNL A   1      41.290  29.014  28.143  1.00  0.00     0.023 A 
ATOM     42  C   UNL A   1      40.403  29.210  27.066  1.00  0.00     0.012 A 
ATOM     43  C   UNL A   1      40.784  28.899  29.451  1.00  0.00     0.148 A 
ATOM     44  C   UNL A   1      39.032  29.325  27.296  1.00  0.00     0.002 A 
ATOM     45  C   UNL A   1      39.414  28.964  29.665  1.00  0.00     0.091 A 
ATOM     46  F   UNL A   1      41.652  28.749  30.462  1.00  0.00    -0.205 F 
ATOM     47  C   UNL A   1      38.538  29.191  28.592  1.00  0.00     0.022 A 
BRANCH  45  48
ATOM     48  S   UNL A   1      38.682  28.734  31.287  1.00  0.00     0.127 S 
ATOM     49  O   UNL A   1      39.525  29.594  32.116  1.00  0.00    -0.237 OA
ATOM     50  O   UNL A   1      37.321  29.229  31.080  1.00  0.00    -0.237 OA
ATOM     51  O   UNL A   1      38.775  27.309  31.574  1.00  0.00    -0.744 OA
ENDBRANCH  45  48
ENDBRANCH  27  41
BRANCH  28  52
ATOM     52  C   UNL A   1      51.088  27.934  26.291  1.00  0.00     0.023 A 
ATOM     53  C   UNL A   1      51.985  27.759  27.361  1.00  0.00     0.012 A 
ATOM     54  C   UNL A   1      51.581  27.891  24.969  1.00  0.00     0.148 A 
ATOM     55  C   UNL A   1      53.346  27.554  27.120  1.00  0.00     0.002 A 
ATOM     56  C   UNL A   1      52.926  27.631  24.736  1.00  0.00     0.091 A 
ATOM     57  F   UNL A   1      50.713  28.075  23.965  1.00  0.00    -0.205 F 
ATOM     58  C   UNL A   1      53.813  27.478  25.810  1.00  0.00     0.022 A 
BRANCH  56  59
ATOM     59  S   UNL A   1      53.593  27.389  23.084  1.00  0.00     0.127 S 
ATOM     60  O   UNL A   1      52.672  26.399  22.531  1.00  0.00    -0.237 OA
ATOM     61  O   UNL A   1      53.469  28.732  22.515  1.00  0.00    -0.237 OA
ATOM     62  O   UNL A   1      54.963  26.932  23.269  1.00  0.00    -0.744 OA
ENDBRANCH  56  59
ENDBRANCH  28  52
BRANCH  40  63
ATOM     63  C   UNL A   1      47.066  33.280  28.444  1.00  0.00     0.023 A 
ATOM     64  C   UNL A   1      47.446  33.615  29.757  1.00  0.00     0.012 A 
ATOM     65  C   UNL A   1      47.130  34.257  27.429  1.00  0.00     0.148 A 
ATOM     66  C   UNL A   1      47.888  34.903  30.055  1.00  0.00     0.002 A 
ATOM     67  C   UNL A   1      47.626  35.520  27.722  1.00  0.00     0.091 A 
ATOM     68  F   UNL A   1      46.750  33.914  26.190  1.00  0.00    -0.205 F 
ATOM     69  C   UNL A   1      47.998  35.848  29.036  1.00  0.00     0.022 A 
BRANCH  67  70
ATOM     70  S   UNL A   1      47.925  36.758  26.453  1.00  0.00     0.127 S 
ATOM     71  O   UNL A   1      48.561  37.825  27.224  1.00  0.00    -0.237 OA
ATOM     72  O   UNL A   1      48.819  36.050  25.538  1.00  0.00    -0.237 OA
ATOM     73  O   UNL A   1      46.621  37.090  25.896  1.00  0.00    -0.744 OA
ENDBRANCH  67  70
ENDBRANCH  40  63
ENDBRANCH  14  15
ENDBRANCH   7   9
ENDBRANCH   6   7
ENDBRANCH   5   6
ENDBRANCH   4   5
ENDBRANCH   3   4
ENDBRANCH   2   3
ENDBRANCH   1   2
BRANCH   1  74
ATOM     74  O   UNL A   1      41.207  22.163  26.583  1.00  0.00    -0.377 OA
BRANCH  74  75
ATOM     75  C   UNL A   1      39.810  21.944  26.430  1.00  0.00     0.188 C 
BRANCH  75  76
ATOM     76  C   UNL A   1      38.836  23.150  26.401  1.00  0.00     0.188 C 
BRANCH  76  77
ATOM     77  O   UNL A   1      37.707  22.953  25.568  1.00  0.00    -0.376 OA
BRANCH  77  78
ATOM     78  C   UNL A   1      36.725  23.979  25.652  1.00  0.00     0.202 C 
BRANCH  78  79
ATOM     79  C   UNL A   1      35.308  23.416  25.745  1.00  0.00     0.261 C 
BRANCH  79  80
ATOM     80  O   UNL A   1      35.186  21.975  25.666  1.00  0.00    -0.460 OA
BRANCH  80  81
ATOM     81  C   UNL A   1      34.138  21.283  26.195  1.00  0.00     0.340 C 
ATOM     82  O   UNL A   1      33.810  21.259  27.362  1.00  0.00    -0.246 OA
BRANCH  81  83
ATOM     83  C   UNL A   1      33.458  20.605  25.034  1.00  0.00     0.086 A 
ATOM     84  C   UNL A   1      33.723  19.216  24.923  1.00  0.00     0.018 A 
ATOM     85  C   UNL A   1      32.660  21.261  24.053  1.00  0.00     0.088 A 
ATOM     86  C   UNL A   1      33.246  18.465  23.854  1.00  0.00     0.004 A 
ATOM     87  C   UNL A   1      32.207  20.454  22.982  1.00  0.00     0.147 A 
ATOM     88  C   UNL A   1      32.487  19.090  22.879  1.00  0.00     0.041 A 
ATOM     89  F   UNL A   1      31.510  21.006  21.976  1.00  0.00    -0.205 F 
BRANCH  85  90
ATOM     90  N   UNL A   1      32.370  22.631  24.065  1.00  0.00    -0.365 N 
ATOM     91  C   UNL A   1      31.054  23.087  24.607  1.00  0.00     0.138 C 
ATOM     92  C   UNL A   1      32.741  23.416  22.870  1.00  0.00     0.143 C 
ATOM     93  C   UNL A   1      30.938  24.641  24.746  1.00  0.00     0.143 C 
ATOM     94  C   UNL A   1      33.031  24.821  23.375  1.00  0.00     0.125 C 
ATOM     95  N   UNL A   1      31.796  25.402  23.852  1.00  0.00    -0.317 N 
ATOM     96  C   UNL A   1      33.540  25.858  22.393  1.00  0.00     0.144 C 
ATOM     97  C   UNL A   1      31.812  26.773  23.671  1.00  0.00     0.317 C 
ATOM     98  N   UNL A   1      32.896  27.064  22.850  1.00  0.00    -0.336 N 
ATOM     99  O   UNL A   1      31.033  27.585  24.138  1.00  0.00    -0.249 OA
ATOM    100  H   UNL A   1      33.187  27.974  22.614  1.00  0.00     0.165 HD
ENDBRANCH  85  90
ENDBRANCH  81  83
ENDBRANCH  80  81
ENDBRANCH  79  80
ENDBRANCH  78  79
ENDBRANCH  77  78
ENDBRANCH  76  77
ENDBRANCH  75  76
ENDBRANCH  74  75
ENDBRANCH   1  74
TORSDOF 24
ENDMDL
MODEL 2
REMARK VINA RESULT:      -8.9      1.470      7.603
REMARK SMILES O=C(OCCOCCOCCOCCOC(=O)c1cccc(F)c1N1CCN2C(=O)NC[C@@H]2C1)c1ccc(-c2c3nc(c(-c4cccc(S(=O)(=O)[O-])c4F)c4ccc([nH]4)c(-c4cccc(S(=O)(=O)[O-])c4F)c4nc(c(-c5cccc(S(=O)(=O)[O-])c5F)c5ccc2[nH]5)C=C4)C=C3)cc1
REMARK SMILES IDX 8 1 7 2 6 3 5 4 4 5 3 6 2 7 1 8 35 9 36 10 97 11 37 12 96 13
REMARK SMILES IDX 38 14 39 15 40 16 90 17 41 18 95 19 89 20 91 21 42 22 94 23
REMARK SMILES IDX 88 24 87 25 43 27 75 28 55 29 74 30 56 31 59 32 73 33 92 34
REMARK SMILES IDX 57 35 58 36 72 38 93 39 60 40 44 41 45 42 53 43 46 44 48 45
REMARK SMILES IDX 54 46 47 47 49 48 50 49 51 50 52 51 76 52 77 53 85 54 78 55
REMARK SMILES IDX 80 56 86 57 79 58 81 59 82 60 83 61 84 62 61 63 62 64 70 65
REMARK SMILES IDX 63 66 65 67 71 68 64 69 66 70 67 71 68 72 69 73 9 74 10 75
REMARK SMILES IDX 11 76 12 77 13 78 14 79 15 80 16 81 17 82 18 83 19 84 24 85
REMARK SMILES IDX 20 86 22 87 21 88 23 89 25 90 26 91 34 92 27 93 33 94 28 95
REMARK SMILES IDX 32 96 29 97 31 98 30 99
REMARK H PARENT 91 26 59 37 31 100
REMARK Flexibility Score: inf
ROOT
ATOM      1  C   UNL A   1      41.920  22.045  27.343  1.00  0.00     0.188 C 
ENDROOT
BRANCH   1   2
ATOM      2  C   UNL A   1      41.685  20.535  27.310  1.00  0.00     0.188 C 
BRANCH   2   3
ATOM      3  O   UNL A   1      42.161  19.835  26.152  1.00  0.00    -0.376 OA
BRANCH   3   4
ATOM      4  C   UNL A   1      42.791  18.584  26.431  1.00  0.00     0.202 C 
BRANCH   4   5
ATOM      5  C   UNL A   1      43.803  18.150  25.363  1.00  0.00     0.261 C 
BRANCH   5   6
ATOM      6  O   UNL A   1      44.063  19.178  24.392  1.00  0.00    -0.460 OA
BRANCH   6   7
ATOM      7  C   UNL A   1      45.072  20.082  24.323  1.00  0.00     0.338 C 
ATOM      8  O   UNL A   1      46.111  19.725  23.768  1.00  0.00    -0.246 OA
BRANCH   7   9
ATOM      9  C   UNL A   1      45.020  21.482  24.871  1.00  0.00     0.060 A 
ATOM     10  C   UNL A   1      44.632  22.621  24.169  1.00  0.00     0.016 A 
ATOM     11  C   UNL A   1      45.364  21.647  26.229  1.00  0.00     0.016 A 
ATOM     12  C   UNL A   1      44.652  23.879  24.757  1.00  0.00     0.010 A 
ATOM     13  C   UNL A   1      45.364  22.909  26.839  1.00  0.00     0.010 A 
ATOM     14  C   UNL A   1      45.031  24.034  26.085  1.00  0.00    -0.014 A 
BRANCH  14  15
ATOM     15  C   UNL A   1      45.234  25.415  26.550  1.00  0.00     0.031 A 
ATOM     16  C   UNL A   1      46.598  26.010  26.391  1.00  0.00     0.074 A 
ATOM     17  C   UNL A   1      44.184  26.175  26.906  1.00  0.00     0.049 A 
ATOM     18  N   UNL A   1      46.996  27.230  26.626  1.00  0.00    -0.248 NA
ATOM     19  C   UNL A   1      47.641  25.123  25.847  1.00  0.00     0.031 C 
ATOM     20  C   UNL A   1      42.791  25.726  26.936  1.00  0.00     0.029 A 
ATOM     21  N   UNL A   1      44.123  27.492  27.281  1.00  0.00    -0.354 N 
ATOM     22  C   UNL A   1      48.341  27.250  26.286  1.00  0.00     0.074 A 
ATOM     23  C   UNL A   1      48.688  25.931  25.808  1.00  0.00     0.031 C 
ATOM     24  C   UNL A   1      42.014  26.750  27.325  1.00  0.00     0.029 A 
ATOM     25  C   UNL A   1      42.857  27.907  27.619  1.00  0.00     0.049 A 
ATOM     26  H   UNL A   1      44.910  28.083  27.307  1.00  0.00     0.167 HD
ATOM     27  C   UNL A   1      49.211  28.279  26.378  1.00  0.00     0.034 A 
ATOM     28  C   UNL A   1      42.441  29.077  28.141  1.00  0.00     0.034 A 
ATOM     29  C   UNL A   1      48.857  29.574  26.881  1.00  0.00     0.049 A 
ATOM     30  C   UNL A   1      43.456  30.170  28.362  1.00  0.00     0.074 A 
ATOM     31  C   UNL A   1      49.675  30.669  27.075  1.00  0.00     0.029 A 
ATOM     32  N   UNL A   1      47.584  29.938  27.294  1.00  0.00    -0.354 N 
ATOM     33  N   UNL A   1      44.728  30.185  28.041  1.00  0.00    -0.248 NA
ATOM     34  C   UNL A   1      42.986  31.405  29.005  1.00  0.00     0.031 C 
ATOM     35  C   UNL A   1      48.907  31.679  27.660  1.00  0.00     0.029 A 
ATOM     36  C   UNL A   1      47.598  31.233  27.774  1.00  0.00     0.049 A 
ATOM     37  H   UNL A   1      46.788  29.359  27.252  1.00  0.00     0.167 HD
ATOM     38  C   UNL A   1      45.203  31.439  28.408  1.00  0.00     0.074 A 
ATOM     39  C   UNL A   1      44.080  32.157  28.976  1.00  0.00     0.031 C 
ATOM     40  C   UNL A   1      46.455  31.944  28.292  1.00  0.00     0.034 A 
BRANCH  27  41
ATOM     41  C   UNL A   1      50.637  28.007  25.998  1.00  0.00     0.023 A 
ATOM     42  C   UNL A   1      51.613  27.788  26.991  1.00  0.00     0.012 A 
ATOM     43  C   UNL A   1      51.005  27.970  24.640  1.00  0.00     0.148 A 
ATOM     44  C   UNL A   1      52.944  27.570  26.634  1.00  0.00     0.002 A 
ATOM     45  C   UNL A   1      52.322  27.704  24.291  1.00  0.00     0.091 A 
ATOM     46  F   UNL A   1      50.064  28.218  23.717  1.00  0.00    -0.205 F 
ATOM     47  C   UNL A   1      53.295  27.518  25.287  1.00  0.00     0.022 A 
BRANCH  45  48
ATOM     48  S   UNL A   1      52.852  27.548  22.585  1.00  0.00     0.127 S 
ATOM     49  O   UNL A   1      51.714  28.123  21.869  1.00  0.00    -0.237 OA
ATOM     50  O   UNL A   1      54.062  28.370  22.566  1.00  0.00    -0.237 OA
ATOM     51  O   UNL A   1      53.077  26.127  22.358  1.00  0.00    -0.744 OA
ENDBRANCH  45  48
ENDBRANCH  27  41
BRANCH  28  52
ATOM     52  C   UNL A   1      41.005  29.258  28.497  1.00  0.00     0.023 A 
ATOM     53  C   UNL A   1      40.048  29.474  27.488  1.00  0.00     0.012 A 
ATOM     54  C   UNL A   1      40.577  29.165  29.839  1.00  0.00     0.148 A 
ATOM     55  C   UNL A   1      38.695  29.603  27.809  1.00  0.00     0.002 A 
ATOM     56  C   UNL A   1      39.223  29.238  30.145  1.00  0.00     0.091 A 
ATOM     57  F   UNL A   1      41.505  28.974  30.786  1.00  0.00    -0.205 F 
ATOM     58  C   UNL A   1      38.282  29.473  29.133  1.00  0.00     0.022 A 
BRANCH  56  59
ATOM     59  S   UNL A   1      38.588  28.956  31.802  1.00  0.00     0.127 S 
ATOM     60  O   UNL A   1      39.336  27.769  32.212  1.00  0.00    -0.237 OA
ATOM     61  O   UNL A   1      38.974  30.192  32.482  1.00  0.00    -0.237 OA
ATOM     62  O   UNL A   1      37.152  28.768  31.654  1.00  0.00    -0.744 OA
ENDBRANCH  56  59
ENDBRANCH  28  52
BRANCH  40  63
ATOM     63  C   UNL A   1      46.708  33.356  28.753  1.00  0.00     0.023 A 
ATOM     64  C   UNL A   1      46.492  34.430  27.870  1.00  0.00     0.012 A 
ATOM     65  C   UNL A   1      46.974  33.615  30.114  1.00  0.00     0.148 A 
ATOM     66  C   UNL A   1      46.535  35.744  28.335  1.00  0.00     0.002 A 
ATOM     67  C   UNL A   1      46.958  34.923  30.579  1.00  0.00     0.091 A 
ATOM     68  F   UNL A   1      47.189  32.574  30.930  1.00  0.00    -0.205 F 
ATOM     69  C   UNL A   1      46.747  35.989  29.690  1.00  0.00     0.022 A 
BRANCH  67  70
ATOM     70  S   UNL A   1      47.091  35.327  32.326  1.00  0.00     0.127 S 
ATOM     71  O   UNL A   1      47.157  36.788  32.288  1.00  0.00    -0.237 OA
ATOM     72  O   UNL A   1      45.843  34.786  32.862  1.00  0.00    -0.237 OA
ATOM     73  O   UNL A   1      48.297  34.666  32.804  1.00  0.00    -0.744 OA
ENDBRANCH  67  70
ENDBRANCH  40  63
ENDBRANCH  14  15
ENDBRANCH   7   9
ENDBRANCH   6   7
ENDBRANCH   5   6
ENDBRANCH   4   5
ENDBRANCH   3   4
ENDBRANCH   2   3
ENDBRANCH   1   2
BRANCH   1  74
ATOM     74  O   UNL A   1      41.123  22.828  26.477  1.00  0.00    -0.377 OA
BRANCH  74  75
ATOM     75  C   UNL A   1      39.757  22.448  26.367  1.00  0.00     0.188 C 
BRANCH  75  76
ATOM     76  C   UNL A   1      38.645  23.526  26.440  1.00  0.00     0.188 C 
BRANCH  76  77
ATOM     77  O   UNL A   1      37.414  23.117  25.872  1.00  0.00    -0.376 OA
BRANCH  77  78
ATOM     78  C   UNL A   1      36.396  24.111  25.888  1.00  0.00     0.202 C 
BRANCH  78  79
ATOM     79  C   UNL A   1      34.996  23.507  25.793  1.00  0.00     0.261 C 
BRANCH  79  80
ATOM     80  O   UNL A   1      34.930  22.073  25.602  1.00  0.00    -0.460 OA
BRANCH  80  81
ATOM     81  C   UNL A   1      33.952  21.291  26.138  1.00  0.00     0.340 C 
ATOM     82  O   UNL A   1      33.667  21.204  27.314  1.00  0.00    -0.246 OA
BRANCH  81  83
ATOM     83  C   UNL A   1      33.281  20.607  24.976  1.00  0.00     0.086 A 
ATOM     84  C   UNL A   1      33.516  19.210  24.897  1.00  0.00     0.018 A 
ATOM     85  C   UNL A   1      32.519  21.262  23.966  1.00  0.00     0.088 A 
ATOM     86  C   UNL A   1      33.044  18.449  23.832  1.00  0.00     0.004 A 
ATOM     87  C   UNL A   1      32.070  20.445  22.901  1.00  0.00     0.147 A 
ATOM     88  C   UNL A   1      32.320  19.073  22.829  1.00  0.00     0.041 A 
ATOM     89  F   UNL A   1      31.408  20.993  21.870  1.00  0.00    -0.205 F 
BRANCH  85  90
ATOM     90  N   UNL A   1      32.260  22.638  23.946  1.00  0.00    -0.365 N 
ATOM     91  C   UNL A   1      30.942  23.133  24.446  1.00  0.00     0.138 C 
ATOM     92  C   UNL A   1      32.680  23.392  22.747  1.00  0.00     0.143 C 
ATOM     93  C   UNL A   1      30.859  24.692  24.554  1.00  0.00     0.143 C 
ATOM     94  C   UNL A   1      32.989  24.799  23.235  1.00  0.00     0.125 C 
ATOM     95  N   UNL A   1      31.757  25.417  23.670  1.00  0.00    -0.317 N 
ATOM     96  C   UNL A   1      33.547  25.806  22.249  1.00  0.00     0.144 C 
ATOM     97  C   UNL A   1      31.809  26.784  23.465  1.00  0.00     0.317 C 
ATOM     98  N   UNL A   1      32.920  27.035  22.667  1.00  0.00    -0.336 N 
ATOM     99  O   UNL A   1      31.037  27.622  23.897  1.00  0.00    -0.249 OA
ATOM    100  H   UNL A   1      33.237  27.934  22.422  1.00  0.00     0.165 HD
ENDBRANCH  85  90
ENDBRANCH  81  83
ENDBRANCH  80  81
ENDBRANCH  79  80
ENDBRANCH  78  79
ENDBRANCH  77  78
ENDBRANCH  76  77
ENDBRANCH  75  76
ENDBRANCH  74  75
ENDBRANCH   1  74
TORSDOF 24
ENDMDL
MODEL 3
REMARK VINA RESULT:      -8.8      4.732      9.856
REMARK SMILES O=C(OCCOCCOCCOCCOC(=O)c1cccc(F)c1N1CCN2C(=O)NC[C@@H]2C1)c1ccc(-c2c3nc(c(-c4cccc(S(=O)(=O)[O-])c4F)c4ccc([nH]4)c(-c4cccc(S(=O)(=O)[O-])c4F)c4nc(c(-c5cccc(S(=O)(=O)[O-])c5F)c5ccc2[nH]5)C=C4)C=C3)cc1
REMARK SMILES IDX 8 1 7 2 6 3 5 4 4 5 3 6 2 7 1 8 35 9 36 10 97 11 37 12 96 13
REMARK SMILES IDX 38 14 39 15 40 16 90 17 41 18 95 19 89 20 91 21 42 22 94 23
REMARK SMILES IDX 88 24 87 25 43 27 75 28 55 29 74 30 56 31 59 32 73 33 92 34
REMARK SMILES IDX 57 35 58 36 72 38 93 39 60 40 44 41 45 42 53 43 46 44 48 45
REMARK SMILES IDX 54 46 47 47 49 48 50 49 51 50 52 51 76 52 77 53 85 54 78 55
REMARK SMILES IDX 80 56 86 57 79 58 81 59 82 60 83 61 84 62 61 63 62 64 70 65
REMARK SMILES IDX 63 66 65 67 71 68 64 69 66 70 67 71 68 72 69 73 9 74 10 75
REMARK SMILES IDX 11 76 12 77 13 78 14 79 15 80 16 81 17 82 18 83 19 84 24 85
REMARK SMILES IDX 20 86 22 87 21 88 23 89 25 90 26 91 34 92 27 93 33 94 28 95
REMARK SMILES IDX 32 96 29 97 31 98 30 99
REMARK H PARENT 91 26 59 37 31 100
REMARK Flexibility Score: inf
ROOT
ATOM      1  C   UNL A   1      35.309  34.180  28.967  1.00  0.00     0.188 C 
ENDROOT
BRANCH   1   2
ATOM      2  C   UNL A   1      36.746  33.937  29.428  1.00  0.00     0.188 C 
BRANCH   2   3
ATOM      3  O   UNL A   1      36.919  33.116  30.591  1.00  0.00    -0.376 OA
BRANCH   3   4
ATOM      4  C   UNL A   1      36.754  31.717  30.361  1.00  0.00     0.202 C 
BRANCH   4   5
ATOM      5  C   UNL A   1      36.198  30.953  31.569  1.00  0.00     0.261 C 
BRANCH   5   6
ATOM      6  O   UNL A   1      37.107  29.953  32.062  1.00  0.00    -0.460 OA
BRANCH   6   7
ATOM      7  C   UNL A   1      38.266  30.088  32.752  1.00  0.00     0.338 C 
ATOM      8  O   UNL A   1      38.241  29.817  33.953  1.00  0.00    -0.246 OA
BRANCH   7   9
ATOM      9  C   UNL A   1      39.576  30.541  32.168  1.00  0.00     0.060 A 
ATOM     10  C   UNL A   1      40.613  31.159  32.865  1.00  0.00     0.016 A 
ATOM     11  C   UNL A   1      39.783  30.286  30.796  1.00  0.00     0.016 A 
ATOM     12  C   UNL A   1      41.772  31.574  32.225  1.00  0.00     0.010 A 
ATOM     13  C   UNL A   1      40.962  30.678  30.146  1.00  0.00     0.010 A 
ATOM     14  C   UNL A   1      41.949  31.351  30.865  1.00  0.00    -0.014 A 
BRANCH  14  15
ATOM     15  C   UNL A   1      43.101  32.018  30.237  1.00  0.00     0.031 A 
ATOM     16  C   UNL A   1      44.319  31.191  29.963  1.00  0.00     0.074 A 
ATOM     17  C   UNL A   1      42.982  33.262  29.742  1.00  0.00     0.049 A 
ATOM     18  N   UNL A   1      45.411  31.520  29.330  1.00  0.00    -0.248 NA
ATOM     19  C   UNL A   1      44.277  29.791  30.419  1.00  0.00     0.031 C 
ATOM     20  C   UNL A   1      41.776  34.087  29.821  1.00  0.00     0.029 A 
ATOM     21  N   UNL A   1      43.877  34.035  29.050  1.00  0.00    -0.354 N 
ATOM     22  C   UNL A   1      46.199  30.379  29.338  1.00  0.00     0.074 A 
ATOM     23  C   UNL A   1      45.454  29.341  30.015  1.00  0.00     0.031 C 
ATOM     24  C   UNL A   1      42.013  35.260  29.212  1.00  0.00     0.029 A 
ATOM     25  C   UNL A   1      43.399  35.287  28.748  1.00  0.00     0.049 A 
ATOM     26  H   UNL A   1      44.776  33.724  28.796  1.00  0.00     0.167 HD
ATOM     27  C   UNL A   1      47.441  30.217  28.833  1.00  0.00     0.034 A 
ATOM     28  C   UNL A   1      44.027  36.342  28.193  1.00  0.00     0.034 A 
ATOM     29  C   UNL A   1      48.177  31.265  28.187  1.00  0.00     0.049 A 
ATOM     30  C   UNL A   1      45.461  36.181  27.757  1.00  0.00     0.074 A 
ATOM     31  C   UNL A   1      49.466  31.226  27.695  1.00  0.00     0.029 A 
ATOM     32  N   UNL A   1      47.696  32.547  27.971  1.00  0.00    -0.354 N 
ATOM     33  N   UNL A   1      46.204  35.099  27.766  1.00  0.00    -0.248 NA
ATOM     34  C   UNL A   1      46.143  37.370  27.228  1.00  0.00     0.031 C 
ATOM     35  C   UNL A   1      49.786  32.505  27.231  1.00  0.00     0.029 A 
ATOM     36  C   UNL A   1      48.675  33.323  27.380  1.00  0.00     0.049 A 
ATOM     37  H   UNL A   1      46.792  32.860  28.204  1.00  0.00     0.167 HD
ATOM     38  C   UNL A   1      47.427  35.466  27.215  1.00  0.00     0.074 A 
ATOM     39  C   UNL A   1      47.323  36.872  26.879  1.00  0.00     0.031 C 
ATOM     40  C   UNL A   1      48.533  34.710  27.012  1.00  0.00     0.034 A 
BRANCH  27  41
ATOM     41  C   UNL A   1      48.095  28.882  29.035  1.00  0.00     0.023 A 
ATOM     42  C   UNL A   1      48.889  28.639  30.173  1.00  0.00     0.012 A 
ATOM     43  C   UNL A   1      47.915  27.862  28.082  1.00  0.00     0.148 A 
ATOM     44  C   UNL A   1      49.524  27.408  30.340  1.00  0.00     0.002 A 
ATOM     45  C   UNL A   1      48.509  26.623  28.279  1.00  0.00     0.091 A 
ATOM     46  F   UNL A   1      47.184  28.131  26.990  1.00  0.00    -0.205 F 
ATOM     47  C   UNL A   1      49.325  26.399  29.400  1.00  0.00     0.022 A 
BRANCH  45  48
ATOM     48  S   UNL A   1      48.254  25.245  27.160  1.00  0.00     0.127 S 
ATOM     49  O   UNL A   1      49.423  24.414  27.444  1.00  0.00    -0.237 OA
ATOM     50  O   UNL A   1      46.984  24.696  27.639  1.00  0.00    -0.237 OA
ATOM     51  O   UNL A   1      48.204  25.814  25.821  1.00  0.00    -0.744 OA
ENDBRANCH  45  48
ENDBRANCH  27  41
BRANCH  28  52
ATOM     52  C   UNL A   1      43.302  37.635  28.037  1.00  0.00     0.023 A 
ATOM     53  C   UNL A   1      42.522  37.874  26.891  1.00  0.00     0.012 A 
ATOM     54  C   UNL A   1      43.345  38.614  29.053  1.00  0.00     0.148 A 
ATOM     55  C   UNL A   1      41.806  39.066  26.755  1.00  0.00     0.002 A 
ATOM     56  C   UNL A   1      42.586  39.772  28.937  1.00  0.00     0.091 A 
ATOM     57  F   UNL A   1      44.106  38.374  30.130  1.00  0.00    -0.205 F 
ATOM     58  C   UNL A   1      41.828  40.008  27.782  1.00  0.00     0.022 A 
BRANCH  56  59
ATOM     59  S   UNL A   1      42.454  40.979  30.261  1.00  0.00     0.127 S 
ATOM     60  O   UNL A   1      43.273  42.076  29.751  1.00  0.00    -0.237 OA
ATOM     61  O   UNL A   1      41.014  41.242  30.280  1.00  0.00    -0.237 OA
ATOM     62  O   UNL A   1      42.966  40.322  31.455  1.00  0.00    -0.744 OA
ENDBRANCH  56  59
ENDBRANCH  28  52
BRANCH  40  63
ATOM     63  C   UNL A   1      49.736  35.350  26.369  1.00  0.00     0.023 A 
ATOM     64  C   UNL A   1      49.853  35.370  24.966  1.00  0.00     0.012 A 
ATOM     65  C   UNL A   1      50.641  36.093  27.155  1.00  0.00     0.148 A 
ATOM     66  C   UNL A   1      50.855  36.121  24.354  1.00  0.00     0.002 A 
ATOM     67  C   UNL A   1      51.599  36.885  26.535  1.00  0.00     0.091 A 
ATOM     68  F   UNL A   1      50.514  36.047  28.488  1.00  0.00    -0.205 F 
ATOM     69  C   UNL A   1      51.713  36.893  25.136  1.00  0.00     0.022 A 
BRANCH  67  70
ATOM     70  S   UNL A   1      52.660  38.010  27.450  1.00  0.00     0.127 S 
ATOM     71  O   UNL A   1      51.816  39.199  27.551  1.00  0.00    -0.237 OA
ATOM     72  O   UNL A   1      52.855  37.292  28.709  1.00  0.00    -0.237 OA
ATOM     73  O   UNL A   1      53.866  38.173  26.649  1.00  0.00    -0.744 OA
ENDBRANCH  67  70
ENDBRANCH  40  63
ENDBRANCH  14  15
ENDBRANCH   7   9
ENDBRANCH   6   7
ENDBRANCH   5   6
ENDBRANCH   4   5
ENDBRANCH   3   4
ENDBRANCH   2   3
ENDBRANCH   1   2
BRANCH   1  74
ATOM     74  O   UNL A   1      34.886  33.473  27.819  1.00  0.00    -0.377 OA
BRANCH  74  75
ATOM     75  C   UNL A   1      33.668  32.749  27.940  1.00  0.00     0.188 C 
BRANCH  75  76
ATOM     76  C   UNL A   1      33.628  31.236  27.600  1.00  0.00     0.188 C 
BRANCH  76  77
ATOM     77  O   UNL A   1      32.572  30.875  26.728  1.00  0.00    -0.376 OA
BRANCH  77  78
ATOM     78  C   UNL A   1      32.589  29.514  26.314  1.00  0.00     0.202 C 
BRANCH  78  79
ATOM     79  C   UNL A   1      33.910  28.823  26.649  1.00  0.00     0.261 C 
BRANCH  79  80
ATOM     80  O   UNL A   1      33.924  27.379  26.528  1.00  0.00    -0.460 OA
BRANCH  80  81
ATOM     81  C   UNL A   1      32.803  26.636  26.310  1.00  0.00     0.340 C 
ATOM     82  O   UNL A   1      31.778  26.677  26.957  1.00  0.00    -0.246 OA
BRANCH  81  83
ATOM     83  C   UNL A   1      33.087  25.804  25.086  1.00  0.00     0.086 A 
ATOM     84  C   UNL A   1      34.288  25.051  25.150  1.00  0.00     0.018 A 
ATOM     85  C   UNL A   1      32.292  25.784  23.905  1.00  0.00     0.088 A 
ATOM     86  C   UNL A   1      34.739  24.304  24.067  1.00  0.00     0.004 A 
ATOM     87  C   UNL A   1      32.800  25.016  22.829  1.00  0.00     0.147 A 
ATOM     88  C   UNL A   1      33.991  24.291  22.901  1.00  0.00     0.041 A 
ATOM     89  F   UNL A   1      32.153  25.000  21.653  1.00  0.00    -0.205 F 
BRANCH  85  90
ATOM     90  N   UNL A   1      31.109  26.515  23.741  1.00  0.00    -0.365 N 
ATOM     91  C   UNL A   1      29.798  25.818  23.914  1.00  0.00     0.138 C 
ATOM     92  C   UNL A   1      31.048  27.469  22.614  1.00  0.00     0.143 C 
ATOM     93  C   UNL A   1      28.569  26.785  23.901  1.00  0.00     0.143 C 
ATOM     94  C   UNL A   1      30.111  28.578  23.065  1.00  0.00     0.125 C 
ATOM     95  N   UNL A   1      28.778  28.034  23.186  1.00  0.00    -0.317 N 
ATOM     96  C   UNL A   1      29.911  29.777  22.159  1.00  0.00     0.144 C 
ATOM     97  C   UNL A   1      27.836  29.009  22.909  1.00  0.00     0.317 C 
ATOM     98  N   UNL A   1      28.517  30.087  22.354  1.00  0.00    -0.336 N 
ATOM     99  O   UNL A   1      26.636  28.951  23.111  1.00  0.00    -0.249 OA
ATOM    100  H   UNL A   1      28.101  30.950  22.125  1.00  0.00     0.165 HD
ENDBRANCH  85  90
ENDBRANCH  81  83
ENDBRANCH  80  81
ENDBRANCH  79  80
ENDBRANCH  78  79
ENDBRANCH  77  78
ENDBRANCH  76  77
ENDBRANCH  75  76
ENDBRANCH  74  75
ENDBRANCH   1  74
TORSDOF 24
ENDMDL
