MODEL 1
REMARK VINA RESULT:      -9.7      0.000      0.000
REMARK SMILES COc1ccc(-c2ccc(/C=C3\SC(=S)N([C@H](Cc4ccccc4)C(=O)OCCOCCOCCOCCOC(=O)c4ccc(-c5c6nc(c(-c7cccc(S(=O)(=O)[O-])c7F)c7ccc([nH]7)c(-c7cccc(S(=O)(=O)[O-])c7F)c7nc(c(-c8cccc(S(=O)(=O)[O-])c8F)c8ccc5[nH]8)C=C7)C=C6)cc4)C3=O)o2)cc1
REMARK SMILES IDX 32 1 31 2 30 3 29 4 28 5 27 6 25 7 26 8 17 9 16 10 11 11
REMARK SMILES IDX 12 12 13 13 105 14 14 15 106 16 15 17 10 18 7 19 8 20 107 21
REMARK SMILES IDX 9 22 6 23 3 24 4 25 109 26 5 27 108 28 2 29 1 30 18 31 19 32
REMARK SMILES IDX 20 33 24 34 21 35 23 36 22 37 33 38 34 39 35 40 36 41 37 42
REMARK SMILES IDX 38 43 39 44 40 45 41 46 42 47 43 48 104 49 44 50 103 51
REMARK SMILES IDX 45 52 46 53 47 54 97 55 48 56 102 57 96 58 98 59 49 60
REMARK SMILES IDX 101 61 95 62 94 63 50 65 82 66 62 67 81 68 63 69 66 70 80 71
REMARK SMILES IDX 99 72 64 73 65 74 79 76 100 77 67 78 51 79 52 80 60 81 53 82
REMARK SMILES IDX 55 83 61 84 54 85 56 86 57 87 58 88 59 89 83 90 84 91 92 92
REMARK SMILES IDX 85 93 87 94 93 95 86 96 88 97 89 98 90 99 91 100 68 101
REMARK SMILES IDX 69 102 77 103 70 104 72 105 78 106 71 107 73 108 74 109
REMARK SMILES IDX 75 110 76 111
REMARK H PARENT 98 64 66 75
REMARK Flexibility Score: inf
ROOT
ATOM      1  C   UNL A   1      32.940  30.133  26.911  1.00  0.00     0.188 C 
ENDROOT
BRANCH   1   2
ATOM      2  C   UNL A   1      31.784  28.359  26.402  1.00  0.00     0.188 C 
BRANCH   2   3
ATOM      3  O   UNL A   1      30.857  27.973  25.226  1.00  0.00    -0.376 OA
BRANCH   3   4
ATOM      4  C   UNL A   1      31.065  28.650  23.975  1.00  0.00     0.202 C 
BRANCH   4   5
ATOM      5  C   UNL A   1      32.358  28.484  23.112  1.00  0.00     0.261 C 
BRANCH   5   6
ATOM      6  O   UNL A   1      32.893  27.165  22.873  1.00  0.00    -0.462 OA
BRANCH   6   7
ATOM      7  C   UNL A   1      32.024  26.152  22.606  1.00  0.00     0.329 C 
ATOM      8  O   UNL A   1      31.265  26.166  21.643  1.00  0.00    -0.250 OA
BRANCH   7   9
ATOM      9  C   UNL A   1      31.984  25.029  23.716  1.00  0.00     0.206 C 
BRANCH   9  10
ATOM     10  N   UNL A   1      33.363  24.571  23.693  1.00  0.00    -0.278 N 
ATOM     11  C   UNL A   1      36.015  23.885  25.954  1.00  0.00     0.068 C 
ATOM     12  C   UNL A   1      35.293  23.995  24.837  1.00  0.00     0.084 C 
ATOM     13  S   UNL A   1      35.459  23.167  23.333  1.00  0.00    -0.054 SA
ATOM     14  C   UNL A   1      34.133  24.877  24.804  1.00  0.00     0.267 C 
ATOM     15  C   UNL A   1      33.911  23.735  22.751  1.00  0.00     0.149 C 
ATOM     16  O   UNL A   1      33.911  25.738  25.642  1.00  0.00    -0.268 OA
ATOM     17  S   UNL A   1      33.291  23.303  21.267  1.00  0.00    -0.052 S 
BRANCH  11  18
ATOM     18  C   UNL A   1      37.189  23.117  25.916  1.00  0.00     0.128 A 
ATOM     19  C   UNL A   1      39.246  22.486  26.289  1.00  0.00     0.134 A 
ATOM     20  C   UNL A   1      38.595  21.373  25.809  1.00  0.00     0.051 A 
ATOM     21  O   UNL A   1      38.404  23.544  26.371  1.00  0.00    -0.457 OA
ATOM     22  C   UNL A   1      37.293  21.793  25.516  1.00  0.00     0.051 A 
BRANCH  19  23
ATOM     23  C   UNL A   1      40.629  22.728  26.598  1.00  0.00     0.017 A 
ATOM     24  C   UNL A   1      43.294  23.044  27.350  1.00  0.00     0.118 A 
ATOM     25  C   UNL A   1      42.497  24.166  27.106  1.00  0.00     0.047 A 
ATOM     26  C   UNL A   1      42.757  21.765  27.220  1.00  0.00     0.047 A 
ATOM     27  C   UNL A   1      41.165  24.012  26.713  1.00  0.00     0.016 A 
ATOM     28  C   UNL A   1      41.431  21.611  26.841  1.00  0.00     0.016 A 
BRANCH  24  29
ATOM     29  O   UNL A   1      44.578  23.290  27.757  1.00  0.00    -0.497 OA
ATOM     30  C   UNL A   1      45.560  23.058  26.750  1.00  0.00     0.278 C 
ENDBRANCH  24  29
ENDBRANCH  19  23
ENDBRANCH  11  18
ENDBRANCH   9  10
BRANCH   9  31
ATOM     31  C   UNL A   1      30.986  23.830  23.876  1.00  0.00     0.073 C 
BRANCH  31  32
ATOM     32  C   UNL A   1      31.356  22.794  24.912  1.00  0.00    -0.045 A 
ATOM     33  C   UNL A   1      31.497  23.450  26.579  1.00  0.00     0.004 A 
ATOM     34  C   UNL A   1      32.271  21.324  24.406  1.00  0.00     0.004 A 
ATOM     35  C   UNL A   1      32.759  22.780  27.668  1.00  0.00     0.000 A 
ATOM     36  C   UNL A   1      33.514  20.618  25.508  1.00  0.00     0.000 A 
ATOM     37  C   UNL A   1      33.729  21.314  27.167  1.00  0.00     0.000 A 
ENDBRANCH  31  32
ENDBRANCH   9  31
ENDBRANCH   7   9
ENDBRANCH   6   7
ENDBRANCH   5   6
ENDBRANCH   4   5
ENDBRANCH   3   4
ENDBRANCH   2   3
ENDBRANCH   1   2
BRANCH   1  38
ATOM     38  O   UNL A   1      32.504  31.586  27.237  1.00  0.00    -0.377 OA
BRANCH  38  39
ATOM     39  C   UNL A   1      33.457  32.583  27.619  1.00  0.00     0.188 C 
BRANCH  39  40
ATOM     40  C   UNL A   1      33.006  34.010  27.937  1.00  0.00     0.188 C 
BRANCH  40  41
ATOM     41  O   UNL A   1      33.966  34.804  28.588  1.00  0.00    -0.376 OA
BRANCH  41  42
ATOM     42  C   UNL A   1      34.357  34.458  29.904  1.00  0.00     0.202 C 
BRANCH  42  43
ATOM     43  C   UNL A   1      34.839  33.059  30.352  1.00  0.00     0.261 C 
BRANCH  43  44
ATOM     44  O   UNL A   1      34.246  32.405  31.480  1.00  0.00    -0.460 OA
BRANCH  44  45
ATOM     45  C   UNL A   1      34.255  33.015  32.684  1.00  0.00     0.338 C 
ATOM     46  O   UNL A   1      33.302  33.190  33.420  1.00  0.00    -0.246 OA
BRANCH  45  47
ATOM     47  C   UNL A   1      35.679  33.242  33.052  1.00  0.00     0.060 A 
ATOM     48  C   UNL A   1      36.113  34.555  33.308  1.00  0.00     0.016 A 
ATOM     49  C   UNL A   1      36.552  32.167  33.239  1.00  0.00     0.016 A 
ATOM     50  C   UNL A   1      37.420  34.795  33.731  1.00  0.00     0.010 A 
ATOM     51  C   UNL A   1      37.882  32.413  33.596  1.00  0.00     0.010 A 
ATOM     52  C   UNL A   1      38.328  33.732  33.797  1.00  0.00    -0.014 A 
BRANCH  52  53
ATOM     53  C   UNL A   1      39.772  34.053  33.707  1.00  0.00     0.031 A 
ATOM     54  C   UNL A   1      40.522  34.157  35.010  1.00  0.00     0.074 A 
ATOM     55  C   UNL A   1      40.417  34.194  32.537  1.00  0.00     0.049 A 
ATOM     56  N   UNL A   1      41.789  34.383  35.228  1.00  0.00    -0.248 NA
ATOM     57  C   UNL A   1      39.723  33.976  36.236  1.00  0.00     0.031 C 
ATOM     58  C   UNL A   1      39.809  34.084  31.213  1.00  0.00     0.029 A 
ATOM     59  N   UNL A   1      41.737  34.472  32.283  1.00  0.00    -0.354 N 
ATOM     60  C   UNL A   1      41.932  34.395  36.611  1.00  0.00     0.074 A 
ATOM     61  C   UNL A   1      40.625  34.175  37.182  1.00  0.00     0.031 C 
ATOM     62  C   UNL A   1      40.753  34.314  30.282  1.00  0.00     0.029 A 
ATOM     63  C   UNL A   1      42.023  34.608  30.945  1.00  0.00     0.049 A 
ATOM     64  H   UNL A   1      42.414  34.564  32.991  1.00  0.00     0.167 HD
ATOM     65  C   UNL A   1      43.055  34.564  37.346  1.00  0.00     0.034 A 
ATOM     66  C   UNL A   1      43.177  34.950  30.336  1.00  0.00     0.034 A 
ATOM     67  C   UNL A   1      44.349  34.802  36.775  1.00  0.00     0.049 A 
ATOM     68  C   UNL A   1      44.406  35.197  31.174  1.00  0.00     0.074 A 
ATOM     69  C   UNL A   1      45.559  34.966  37.423  1.00  0.00     0.029 A 
ATOM     70  N   UNL A   1      44.597  34.942  35.417  1.00  0.00    -0.354 N 
ATOM     71  N   UNL A   1      44.550  35.118  32.476  1.00  0.00    -0.248 NA
ATOM     72  C   UNL A   1      45.641  35.548  30.458  1.00  0.00     0.031 C 
ATOM     73  C   UNL A   1      46.528  35.264  36.461  1.00  0.00     0.029 A 
ATOM     74  C   UNL A   1      45.937  35.213  35.207  1.00  0.00     0.049 A 
ATOM     75  H   UNL A   1      43.919  34.860  34.708  1.00  0.00     0.167 HD
ATOM     76  C   UNL A   1      45.897  35.361  32.730  1.00  0.00     0.074 A 
ATOM     77  C   UNL A   1      46.527  35.582  31.445  1.00  0.00     0.031 C 
ATOM     78  C   UNL A   1      46.553  35.395  33.917  1.00  0.00     0.034 A 
BRANCH  65  79
ATOM     79  C   UNL A   1      42.911  34.524  38.845  1.00  0.00     0.023 A 
ATOM     80  C   UNL A   1      42.833  35.723  39.586  1.00  0.00     0.012 A 
ATOM     81  C   UNL A   1      42.854  33.291  39.523  1.00  0.00     0.148 A 
ATOM     82  C   UNL A   1      42.753  35.695  40.977  1.00  0.00     0.002 A 
ATOM     83  C   UNL A   1      42.717  33.271  40.905  1.00  0.00     0.091 A 
ATOM     84  F   UNL A   1      42.956  32.163  38.807  1.00  0.00    -0.205 F 
ATOM     85  C   UNL A   1      42.686  34.470  41.635  1.00  0.00     0.022 A 
BRANCH  83  86
ATOM     86  S   UNL A   1      42.538  31.747  41.835  1.00  0.00     0.127 S 
ATOM     87  O   UNL A   1      43.645  30.948  41.309  1.00  0.00    -0.237 OA
ATOM     88  O   UNL A   1      42.719  32.207  43.212  1.00  0.00    -0.237 OA
ATOM     89  O   UNL A   1      41.207  31.242  41.531  1.00  0.00    -0.744 OA
ENDBRANCH  83  86
ENDBRANCH  65  79
BRANCH  66  90
ATOM     90  C   UNL A   1      43.234  35.050  28.849  1.00  0.00     0.023 A 
ATOM     91  C   UNL A   1      42.797  36.225  28.207  1.00  0.00     0.012 A 
ATOM     92  C   UNL A   1      43.733  33.988  28.071  1.00  0.00     0.148 A 
ATOM     93  C   UNL A   1      42.833  36.331  26.816  1.00  0.00     0.002 A 
ATOM     94  C   UNL A   1      43.817  34.120  26.690  1.00  0.00     0.091 A 
ATOM     95  F   UNL A   1      44.131  32.874  28.701  1.00  0.00    -0.205 F 
ATOM     96  C   UNL A   1      43.352  35.284  26.059  1.00  0.00     0.022 A 
BRANCH  94  97
ATOM     97  S   UNL A   1      44.579  32.875  25.643  1.00  0.00     0.127 S 
ATOM     98  O   UNL A   1      45.998  33.077  25.920  1.00  0.00    -0.237 OA
ATOM     99  O   UNL A   1      44.012  31.643  26.190  1.00  0.00    -0.237 OA
ATOM    100  O   UNL A   1      44.156  33.186  24.284  1.00  0.00    -0.744 OA
ENDBRANCH  94  97
ENDBRANCH  66  90
BRANCH  78 101
ATOM    101  C   UNL A   1      48.045  35.615  33.891  1.00  0.00     0.023 A 
ATOM    102  C   UNL A   1      48.929  34.524  33.774  1.00  0.00     0.012 A 
ATOM    103  C   UNL A   1      48.563  36.927  33.904  1.00  0.00     0.148 A 
ATOM    104  C   UNL A   1      50.307  34.734  33.715  1.00  0.00     0.002 A 
ATOM    105  C   UNL A   1      49.931  37.130  33.784  1.00  0.00     0.091 A 
ATOM    106  F   UNL A   1      47.706  37.951  34.026  1.00  0.00    -0.205 F 
ATOM    107  C   UNL A   1      50.805  36.035  33.707  1.00  0.00     0.022 A 
BRANCH 105 108
ATOM    108  S   UNL A   1      50.653  38.770  33.659  1.00  0.00     0.127 S 
ATOM    109  O   UNL A   1      52.070  38.457  33.481  1.00  0.00    -0.237 OA
ATOM    110  O   UNL A   1      49.994  39.306  32.469  1.00  0.00    -0.237 OA
ATOM    111  O   UNL A   1      50.319  39.455  34.899  1.00  0.00    -0.744 OA
ENDBRANCH 105 108
ENDBRANCH  78 101
ENDBRANCH  52  53
ENDBRANCH  45  47
ENDBRANCH  44  45
ENDBRANCH  43  44
ENDBRANCH  42  43
ENDBRANCH  41  42
ENDBRANCH  40  41
ENDBRANCH  39  40
ENDBRANCH  38  39
ENDBRANCH   1  38
TORSDOF 29
ENDMDL
MODEL 2
REMARK VINA RESULT:      -9.5      3.461      8.197
REMARK SMILES COc1ccc(-c2ccc(/C=C3\SC(=S)N([C@H](Cc4ccccc4)C(=O)OCCOCCOCCOCCOC(=O)c4ccc(-c5c6nc(c(-c7cccc(S(=O)(=O)[O-])c7F)c7ccc([nH]7)c(-c7cccc(S(=O)(=O)[O-])c7F)c7nc(c(-c8cccc(S(=O)(=O)[O-])c8F)c8ccc5[nH]8)C=C7)C=C6)cc4)C3=O)o2)cc1
REMARK SMILES IDX 32 1 31 2 30 3 29 4 28 5 27 6 25 7 26 8 17 9 16 10 11 11
REMARK SMILES IDX 12 12 13 13 105 14 14 15 106 16 15 17 10 18 7 19 8 20 107 21
REMARK SMILES IDX 9 22 6 23 3 24 4 25 109 26 5 27 108 28 2 29 1 30 18 31 19 32
REMARK SMILES IDX 20 33 24 34 21 35 23 36 22 37 33 38 34 39 35 40 36 41 37 42
REMARK SMILES IDX 38 43 39 44 40 45 41 46 42 47 43 48 104 49 44 50 103 51
REMARK SMILES IDX 45 52 46 53 47 54 97 55 48 56 102 57 96 58 98 59 49 60
REMARK SMILES IDX 101 61 95 62 94 63 50 65 82 66 62 67 81 68 63 69 66 70 80 71
REMARK SMILES IDX 99 72 64 73 65 74 79 76 100 77 67 78 51 79 52 80 60 81 53 82
REMARK SMILES IDX 55 83 61 84 54 85 56 86 57 87 58 88 59 89 83 90 84 91 92 92
REMARK SMILES IDX 85 93 87 94 93 95 86 96 88 97 89 98 90 99 91 100 68 101
REMARK SMILES IDX 69 102 77 103 70 104 72 105 78 106 71 107 73 108 74 109
REMARK SMILES IDX 75 110 76 111
REMARK H PARENT 98 64 66 75
REMARK Flexibility Score: inf
ROOT
ATOM      1  C   UNL A   1      32.053  29.072  26.306  1.00  0.00     0.188 C 
ENDROOT
BRANCH   1   2
ATOM      2  C   UNL A   1      30.729  28.775  24.604  1.00  0.00     0.188 C 
BRANCH   2   3
ATOM      3  O   UNL A   1      30.820  29.099  23.094  1.00  0.00    -0.376 OA
BRANCH   3   4
ATOM      4  C   UNL A   1      32.125  29.070  22.493  1.00  0.00     0.202 C 
BRANCH   4   5
ATOM      5  C   UNL A   1      33.272  28.124  22.973  1.00  0.00     0.261 C 
BRANCH   5   6
ATOM      6  O   UNL A   1      33.330  26.766  22.487  1.00  0.00    -0.462 OA
BRANCH   6   7
ATOM      7  C   UNL A   1      32.202  26.007  22.551  1.00  0.00     0.329 C 
ATOM      8  O   UNL A   1      31.250  26.168  21.794  1.00  0.00    -0.250 OA
BRANCH   7   9
ATOM      9  C   UNL A   1      32.172  25.000  23.769  1.00  0.00     0.206 C 
BRANCH   9  10
ATOM     10  N   UNL A   1      33.525  24.475  23.723  1.00  0.00    -0.278 N 
ATOM     11  C   UNL A   1      36.268  23.897  25.905  1.00  0.00     0.068 C 
ATOM     12  C   UNL A   1      35.490  23.926  24.821  1.00  0.00     0.084 C 
ATOM     13  S   UNL A   1      35.534  22.939  23.407  1.00  0.00    -0.054 SA
ATOM     14  C   UNL A   1      34.370  24.857  24.754  1.00  0.00     0.267 C 
ATOM     15  C   UNL A   1      33.982  23.520  22.849  1.00  0.00     0.149 C 
ATOM     16  O   UNL A   1      34.233  25.810  25.505  1.00  0.00    -0.268 OA
ATOM     17  S   UNL A   1      33.261  22.967  21.453  1.00  0.00    -0.052 S 
BRANCH  11  18
ATOM     18  C   UNL A   1      37.404  23.072  25.888  1.00  0.00     0.128 A 
ATOM     19  C   UNL A   1      39.402  22.314  26.337  1.00  0.00     0.134 A 
ATOM     20  C   UNL A   1      38.726  21.265  25.759  1.00  0.00     0.051 A 
ATOM     21  O   UNL A   1      38.610  23.409  26.433  1.00  0.00    -0.457 OA
ATOM     22  C   UNL A   1      37.466  21.768  25.418  1.00  0.00     0.051 A 
BRANCH  19  23
ATOM     23  C   UNL A   1      40.775  22.466  26.737  1.00  0.00     0.017 A 
ATOM     24  C   UNL A   1      43.388  22.963  27.568  1.00  0.00     0.118 A 
ATOM     25  C   UNL A   1      43.151  22.275  26.373  1.00  0.00     0.047 A 
ATOM     26  C   UNL A   1      42.318  23.404  28.343  1.00  0.00     0.047 A 
ATOM     27  C   UNL A   1      41.843  22.009  25.962  1.00  0.00     0.016 A 
ATOM     28  C   UNL A   1      41.018  23.150  27.929  1.00  0.00     0.016 A 
BRANCH  24  29
ATOM     29  O   UNL A   1      44.700  23.202  27.877  1.00  0.00    -0.497 OA
ATOM     30  C   UNL A   1      45.590  23.073  26.771  1.00  0.00     0.278 C 
ENDBRANCH  24  29
ENDBRANCH  19  23
ENDBRANCH  11  18
ENDBRANCH   9  10
BRANCH   9  31
ATOM     31  C   UNL A   1      31.131  23.874  24.096  1.00  0.00     0.073 C 
BRANCH  31  32
ATOM     32  C   UNL A   1      31.515  22.920  25.203  1.00  0.00    -0.045 A 
ATOM     33  C   UNL A   1      31.886  23.728  26.765  1.00  0.00     0.004 A 
ATOM     34  C   UNL A   1      32.242  21.323  24.782  1.00  0.00     0.004 A 
ATOM     35  C   UNL A   1      33.190  23.054  27.799  1.00  0.00     0.000 A 
ATOM     36  C   UNL A   1      33.525  20.616  25.836  1.00  0.00     0.000 A 
ATOM     37  C   UNL A   1      33.972  21.456  27.377  1.00  0.00     0.000 A 
ENDBRANCH  31  32
ENDBRANCH   9  31
ENDBRANCH   7   9
ENDBRANCH   6   7
ENDBRANCH   5   6
ENDBRANCH   4   5
ENDBRANCH   3   4
ENDBRANCH   2   3
ENDBRANCH   1   2
BRANCH   1  38
ATOM     38  O   UNL A   1      32.414  30.343  27.119  1.00  0.00    -0.377 OA
BRANCH  38  39
ATOM     39  C   UNL A   1      33.769  30.782  27.254  1.00  0.00     0.188 C 
BRANCH  39  40
ATOM     40  C   UNL A   1      34.135  31.888  28.248  1.00  0.00     0.188 C 
BRANCH  40  41
ATOM     41  O   UNL A   1      35.442  32.388  28.123  1.00  0.00    -0.376 OA
BRANCH  41  42
ATOM     42  C   UNL A   1      36.420  31.986  29.064  1.00  0.00     0.202 C 
BRANCH  42  43
ATOM     43  C   UNL A   1      36.298  30.770  30.011  1.00  0.00     0.261 C 
BRANCH  43  44
ATOM     44  O   UNL A   1      35.730  30.910  31.317  1.00  0.00    -0.460 OA
BRANCH  44  45
ATOM     45  C   UNL A   1      35.332  32.128  31.743  1.00  0.00     0.338 C 
ATOM     46  O   UNL A   1      34.235  32.631  31.590  1.00  0.00    -0.246 OA
BRANCH  45  47
ATOM     47  C   UNL A   1      36.406  32.659  32.626  1.00  0.00     0.060 A 
ATOM     48  C   UNL A   1      37.437  31.795  33.037  1.00  0.00     0.016 A 
ATOM     49  C   UNL A   1      36.451  34.014  32.965  1.00  0.00     0.016 A 
ATOM     50  C   UNL A   1      38.499  32.280  33.799  1.00  0.00     0.010 A 
ATOM     51  C   UNL A   1      37.479  34.485  33.788  1.00  0.00     0.010 A 
ATOM     52  C   UNL A   1      38.479  33.606  34.243  1.00  0.00    -0.014 A 
BRANCH  52  53
ATOM     53  C   UNL A   1      39.276  33.942  35.448  1.00  0.00     0.031 A 
ATOM     54  C   UNL A   1      40.555  34.704  35.220  1.00  0.00     0.074 A 
ATOM     55  C   UNL A   1      38.873  33.644  36.694  1.00  0.00     0.049 A 
ATOM     56  N   UNL A   1      41.420  35.161  36.084  1.00  0.00    -0.248 NA
ATOM     57  C   UNL A   1      40.900  34.989  33.814  1.00  0.00     0.031 C 
ATOM     58  C   UNL A   1      37.641  32.940  37.045  1.00  0.00     0.029 A 
ATOM     59  N   UNL A   1      39.476  33.895  37.902  1.00  0.00    -0.354 N 
ATOM     60  C   UNL A   1      42.419  35.764  35.328  1.00  0.00     0.074 A 
ATOM     61  C   UNL A   1      42.066  35.598  33.938  1.00  0.00     0.031 C 
ATOM     62  C   UNL A   1      37.590  32.797  38.382  1.00  0.00     0.029 A 
ATOM     63  C   UNL A   1      38.793  33.377  38.977  1.00  0.00     0.049 A 
ATOM     64  H   UNL A   1      40.318  34.397  37.990  1.00  0.00     0.167 HD
ATOM     65  C   UNL A   1      43.530  36.410  35.750  1.00  0.00     0.034 A 
ATOM     66  C   UNL A   1      39.119  33.362  40.285  1.00  0.00     0.034 A 
ATOM     67  C   UNL A   1      43.885  36.555  37.133  1.00  0.00     0.049 A 
ATOM     68  C   UNL A   1      40.393  34.033  40.734  1.00  0.00     0.074 A 
ATOM     69  C   UNL A   1      44.975  37.209  37.676  1.00  0.00     0.029 A 
ATOM     70  N   UNL A   1      43.172  36.011  38.191  1.00  0.00    -0.354 N 
ATOM     71  N   UNL A   1      41.285  34.678  40.019  1.00  0.00    -0.248 NA
ATOM     72  C   UNL A   1      40.691  34.004  42.173  1.00  0.00     0.031 C 
ATOM     73  C   UNL A   1      44.953  37.009  39.059  1.00  0.00     0.029 A 
ATOM     74  C   UNL A   1      43.810  36.293  39.385  1.00  0.00     0.049 A 
ATOM     75  H   UNL A   1      42.336  35.499  38.105  1.00  0.00     0.167 HD
ATOM     76  C   UNL A   1      42.220  35.171  40.924  1.00  0.00     0.074 A 
ATOM     77  C   UNL A   1      41.781  34.755  42.240  1.00  0.00     0.031 C 
ATOM     78  C   UNL A   1      43.338  35.902  40.689  1.00  0.00     0.034 A 
BRANCH  65  79
ATOM     79  C   UNL A   1      44.442  36.976  34.694  1.00  0.00     0.023 A 
ATOM     80  C   UNL A   1      45.545  36.227  34.230  1.00  0.00     0.012 A 
ATOM     81  C   UNL A   1      44.206  38.257  34.161  1.00  0.00     0.148 A 
ATOM     82  C   UNL A   1      46.425  36.765  33.292  1.00  0.00     0.002 A 
ATOM     83  C   UNL A   1      45.055  38.764  33.184  1.00  0.00     0.091 A 
ATOM     84  F   UNL A   1      43.171  38.965  34.632  1.00  0.00    -0.205 F 
ATOM     85  C   UNL A   1      46.174  38.028  32.763  1.00  0.00     0.022 A 
BRANCH  83  86
ATOM     86  S   UNL A   1      44.770  40.343  32.383  1.00  0.00     0.127 S 
ATOM     87  O   UNL A   1      43.434  40.152  31.820  1.00  0.00    -0.237 OA
ATOM     88  O   UNL A   1      44.829  41.273  33.511  1.00  0.00    -0.237 OA
ATOM     89  O   UNL A   1      45.839  40.501  31.408  1.00  0.00    -0.744 OA
ENDBRANCH  83  86
ENDBRANCH  65  79
BRANCH  66  90
ATOM     90  C   UNL A   1      38.209  32.715  41.273  1.00  0.00     0.023 A 
ATOM     91  C   UNL A   1      38.391  31.361  41.613  1.00  0.00     0.012 A 
ATOM     92  C   UNL A   1      37.171  33.443  41.886  1.00  0.00     0.148 A 
ATOM     93  C   UNL A   1      37.540  30.735  42.527  1.00  0.00     0.002 A 
ATOM     94  C   UNL A   1      36.362  32.830  42.837  1.00  0.00     0.091 A 
ATOM     95  F   UNL A   1      37.006  34.727  41.539  1.00  0.00    -0.205 F 
ATOM     96  C   UNL A   1      36.534  31.472  43.146  1.00  0.00     0.022 A 
BRANCH  94  97
ATOM     97  S   UNL A   1      35.117  33.727  43.771  1.00  0.00     0.127 S 
ATOM     98  O   UNL A   1      35.886  34.856  44.288  1.00  0.00    -0.237 OA
ATOM     99  O   UNL A   1      34.151  34.064  42.727  1.00  0.00    -0.237 OA
ATOM    100  O   UNL A   1      34.625  32.794  44.775  1.00  0.00    -0.744 OA
ENDBRANCH  94  97
ENDBRANCH  66  90
BRANCH  78 101
ATOM    101  C   UNL A   1      44.141  36.365  41.880  1.00  0.00     0.023 A 
ATOM    102  C   UNL A   1      43.839  37.584  42.517  1.00  0.00     0.012 A 
ATOM    103  C   UNL A   1      45.151  35.538  42.412  1.00  0.00     0.148 A 
ATOM    104  C   UNL A   1      44.560  37.992  43.640  1.00  0.00     0.002 A 
ATOM    105  C   UNL A   1      45.823  35.923  43.564  1.00  0.00     0.091 A 
ATOM    106  F   UNL A   1      45.431  34.386  41.784  1.00  0.00    -0.205 F 
ATOM    107  C   UNL A   1      45.542  37.157  44.169  1.00  0.00     0.022 A 
BRANCH 105 108
ATOM    108  S   UNL A   1      47.027  34.865  44.375  1.00  0.00     0.127 S 
ATOM    109  O   UNL A   1      48.082  34.789  43.365  1.00  0.00    -0.237 OA
ATOM    110  O   UNL A   1      47.375  35.648  45.561  1.00  0.00    -0.237 OA
ATOM    111  O   UNL A   1      46.343  33.611  44.654  1.00  0.00    -0.744 OA
ENDBRANCH 105 108
ENDBRANCH  78 101
ENDBRANCH  52  53
ENDBRANCH  45  47
ENDBRANCH  44  45
ENDBRANCH  43  44
ENDBRANCH  42  43
ENDBRANCH  41  42
ENDBRANCH  40  41
ENDBRANCH  39  40
ENDBRANCH  38  39
ENDBRANCH   1  38
TORSDOF 29
ENDMDL
MODEL 3
REMARK VINA RESULT:      -8.9      3.645      5.835
REMARK SMILES COc1ccc(-c2ccc(/C=C3\SC(=S)N([C@H](Cc4ccccc4)C(=O)OCCOCCOCCOCCOC(=O)c4ccc(-c5c6nc(c(-c7cccc(S(=O)(=O)[O-])c7F)c7ccc([nH]7)c(-c7cccc(S(=O)(=O)[O-])c7F)c7nc(c(-c8cccc(S(=O)(=O)[O-])c8F)c8ccc5[nH]8)C=C7)C=C6)cc4)C3=O)o2)cc1
REMARK SMILES IDX 32 1 31 2 30 3 29 4 28 5 27 6 25 7 26 8 17 9 16 10 11 11
REMARK SMILES IDX 12 12 13 13 105 14 14 15 106 16 15 17 10 18 7 19 8 20 107 21
REMARK SMILES IDX 9 22 6 23 3 24 4 25 109 26 5 27 108 28 2 29 1 30 18 31 19 32
REMARK SMILES IDX 20 33 24 34 21 35 23 36 22 37 33 38 34 39 35 40 36 41 37 42
REMARK SMILES IDX 38 43 39 44 40 45 41 46 42 47 43 48 104 49 44 50 103 51
REMARK SMILES IDX 45 52 46 53 47 54 97 55 48 56 102 57 96 58 98 59 49 60
REMARK SMILES IDX 101 61 95 62 94 63 50 65 82 66 62 67 81 68 63 69 66 70 80 71
REMARK SMILES IDX 99 72 64 73 65 74 79 76 100 77 67 78 51 79 52 80 60 81 53 82
REMARK SMILES IDX 55 83 61 84 54 85 56 86 57 87 58 88 59 89 83 90 84 91 92 92
REMARK SMILES IDX 85 93 87 94 93 95 86 96 88 97 89 98 90 99 91 100 68 101
REMARK SMILES IDX 69 102 77 103 70 104 72 105 78 106 71 107 73 108 74 109
REMARK SMILES IDX 75 110 76 111
REMARK H PARENT 98 64 66 75
REMARK Flexibility Score: inf
ROOT
ATOM      1  C   UNL A   1      33.094  28.913  26.538  1.00  0.00     0.188 C 
ENDROOT
BRANCH   1   2
ATOM      2  C   UNL A   1      31.322  29.393  25.367  1.00  0.00     0.188 C 
BRANCH   2   3
ATOM      3  O   UNL A   1      30.984  29.365  23.858  1.00  0.00    -0.376 OA
BRANCH   3   4
ATOM      4  C   UNL A   1      32.067  29.123  22.945  1.00  0.00     0.202 C 
BRANCH   4   5
ATOM      5  C   UNL A   1      33.194  28.071  23.207  1.00  0.00     0.261 C 
BRANCH   5   6
ATOM      6  O   UNL A   1      33.263  26.880  22.396  1.00  0.00    -0.462 OA
BRANCH   6   7
ATOM      7  C   UNL A   1      32.169  26.071  22.340  1.00  0.00     0.329 C 
ATOM      8  O   UNL A   1      31.275  26.219  21.514  1.00  0.00    -0.250 OA
BRANCH   7   9
ATOM      9  C   UNL A   1      32.089  25.017  23.515  1.00  0.00     0.206 C 
BRANCH   9  10
ATOM     10  N   UNL A   1      33.439  24.480  23.494  1.00  0.00    -0.278 N 
ATOM     11  C   UNL A   1      36.055  23.675  25.759  1.00  0.00     0.068 C 
ATOM     12  C   UNL A   1      35.336  23.810  24.642  1.00  0.00     0.084 C 
ATOM     13  S   UNL A   1      35.450  22.953  23.149  1.00  0.00    -0.054 SA
ATOM     14  C   UNL A   1      34.229  24.757  24.599  1.00  0.00     0.267 C 
ATOM     15  C   UNL A   1      33.935  23.601  22.563  1.00  0.00     0.149 C 
ATOM     16  O   UNL A   1      34.060  25.641  25.425  1.00  0.00    -0.268 OA
ATOM     17  S   UNL A   1      33.286  23.185  21.087  1.00  0.00    -0.052 S 
BRANCH  11  18
ATOM     18  C   UNL A   1      37.183  22.840  25.728  1.00  0.00     0.128 A 
ATOM     19  C   UNL A   1      39.187  22.077  26.137  1.00  0.00     0.134 A 
ATOM     20  C   UNL A   1      38.487  21.020  25.605  1.00  0.00     0.051 A 
ATOM     21  O   UNL A   1      38.407  23.181  26.230  1.00  0.00    -0.457 OA
ATOM     22  C   UNL A   1      37.222  21.525  25.289  1.00  0.00     0.051 A 
BRANCH  19  23
ATOM     23  C   UNL A   1      40.573  22.227  26.492  1.00  0.00     0.017 A 
ATOM     24  C   UNL A   1      43.273  22.667  27.026  1.00  0.00     0.118 A 
ATOM     25  C   UNL A   1      42.770  21.363  26.985  1.00  0.00     0.047 A 
ATOM     26  C   UNL A   1      42.426  23.749  26.796  1.00  0.00     0.047 A 
ATOM     27  C   UNL A   1      41.414  21.139  26.735  1.00  0.00     0.016 A 
ATOM     28  C   UNL A   1      41.081  23.527  26.536  1.00  0.00     0.016 A 
BRANCH  24  29
ATOM     29  O   UNL A   1      44.618  22.790  27.250  1.00  0.00    -0.497 OA
ATOM     30  C   UNL A   1      45.233  23.847  26.517  1.00  0.00     0.278 C 
ENDBRANCH  24  29
ENDBRANCH  19  23
ENDBRANCH  11  18
ENDBRANCH   9  10
BRANCH   9  31
ATOM     31  C   UNL A   1      31.028  23.888  23.761  1.00  0.00     0.073 C 
BRANCH  31  32
ATOM     32  C   UNL A   1      31.357  22.899  24.855  1.00  0.00    -0.045 A 
ATOM     33  C   UNL A   1      31.508  23.639  26.485  1.00  0.00     0.004 A 
ATOM     34  C   UNL A   1      32.227  21.374  24.437  1.00  0.00     0.004 A 
ATOM     35  C   UNL A   1      32.739  22.989  27.619  1.00  0.00     0.000 A 
ATOM     36  C   UNL A   1      33.437  20.689  25.587  1.00  0.00     0.000 A 
ATOM     37  C   UNL A   1      33.664  21.467  27.207  1.00  0.00     0.000 A 
ENDBRANCH  31  32
ENDBRANCH   9  31
ENDBRANCH   7   9
ENDBRANCH   6   7
ENDBRANCH   5   6
ENDBRANCH   4   5
ENDBRANCH   3   4
ENDBRANCH   2   3
ENDBRANCH   1   2
BRANCH   1  38
ATOM     38  O   UNL A   1      34.434  29.670  26.733  1.00  0.00    -0.377 OA
BRANCH  38  39
ATOM     39  C   UNL A   1      35.441  29.186  27.627  1.00  0.00     0.188 C 
BRANCH  39  40
ATOM     40  C   UNL A   1      36.610  30.082  28.044  1.00  0.00     0.188 C 
BRANCH  40  41
ATOM     41  O   UNL A   1      37.494  29.510  28.973  1.00  0.00    -0.376 OA
BRANCH  41  42
ATOM     42  C   UNL A   1      37.281  29.747  30.353  1.00  0.00     0.202 C 
BRANCH  42  43
ATOM     43  C   UNL A   1      36.282  30.772  30.937  1.00  0.00     0.261 C 
BRANCH  43  44
ATOM     44  O   UNL A   1      36.528  32.178  30.834  1.00  0.00    -0.460 OA
BRANCH  44  45
ATOM     45  C   UNL A   1      37.782  32.620  30.599  1.00  0.00     0.338 C 
ATOM     46  O   UNL A   1      38.302  32.796  29.513  1.00  0.00    -0.246 OA
BRANCH  45  47
ATOM     47  C   UNL A   1      38.344  33.062  31.903  1.00  0.00     0.060 A 
ATOM     48  C   UNL A   1      37.777  34.178  32.544  1.00  0.00     0.016 A 
ATOM     49  C   UNL A   1      39.354  32.330  32.535  1.00  0.00     0.016 A 
ATOM     50  C   UNL A   1      38.229  34.572  33.803  1.00  0.00     0.010 A 
ATOM     51  C   UNL A   1      39.855  32.766  33.766  1.00  0.00     0.010 A 
ATOM     52  C   UNL A   1      39.323  33.916  34.379  1.00  0.00    -0.014 A 
BRANCH  52  53
ATOM     53  C   UNL A   1      40.111  34.652  35.396  1.00  0.00     0.031 A 
ATOM     54  C   UNL A   1      39.732  34.424  36.837  1.00  0.00     0.074 A 
ATOM     55  C   UNL A   1      41.149  35.443  35.081  1.00  0.00     0.049 A 
ATOM     56  N   UNL A   1      40.271  34.898  37.926  1.00  0.00    -0.248 NA
ATOM     57  C   UNL A   1      38.584  33.529  37.073  1.00  0.00     0.031 C 
ATOM     58  C   UNL A   1      41.631  35.716  33.729  1.00  0.00     0.029 A 
ATOM     59  N   UNL A   1      41.982  36.173  35.892  1.00  0.00    -0.354 N 
ATOM     60  C   UNL A   1      39.515  34.381  38.972  1.00  0.00     0.074 A 
ATOM     61  C   UNL A   1      38.469  33.575  38.389  1.00  0.00     0.031 C 
ATOM     62  C   UNL A   1      42.666  36.573  33.803  1.00  0.00     0.029 A 
ATOM     63  C   UNL A   1      42.903  36.925  35.203  1.00  0.00     0.049 A 
ATOM     64  H   UNL A   1      41.926  36.159  36.875  1.00  0.00     0.167 HD
ATOM     65  C   UNL A   1      39.679  34.552  40.303  1.00  0.00     0.034 A 
ATOM     66  C   UNL A   1      43.816  37.808  35.656  1.00  0.00     0.034 A 
ATOM     67  C   UNL A   1      40.708  35.371  40.877  1.00  0.00     0.049 A 
ATOM     68  C   UNL A   1      43.944  38.035  37.142  1.00  0.00     0.074 A 
ATOM     69  C   UNL A   1      40.982  35.598  42.212  1.00  0.00     0.029 A 
ATOM     70  N   UNL A   1      41.616  36.123  40.146  1.00  0.00    -0.354 N 
ATOM     71  N   UNL A   1      43.283  37.472  38.125  1.00  0.00    -0.248 NA
ATOM     72  C   UNL A   1      44.968  38.994  37.583  1.00  0.00     0.031 C 
ATOM     73  C   UNL A   1      42.017  36.535  42.288  1.00  0.00     0.029 A 
ATOM     74  C   UNL A   1      42.437  36.835  41.001  1.00  0.00     0.049 A 
ATOM     75  H   UNL A   1      41.668  36.147  39.163  1.00  0.00     0.167 HD
ATOM     76  C   UNL A   1      43.842  37.971  39.299  1.00  0.00     0.074 A 
ATOM     77  C   UNL A   1      44.901  38.875  38.902  1.00  0.00     0.031 C 
ATOM     78  C   UNL A   1      43.510  37.703  40.587  1.00  0.00     0.034 A 
BRANCH  65  79
ATOM     79  C   UNL A   1      38.701  33.858  41.214  1.00  0.00     0.023 A 
ATOM     80  C   UNL A   1      37.516  34.512  41.618  1.00  0.00     0.012 A 
ATOM     81  C   UNL A   1      38.957  32.552  41.673  1.00  0.00     0.148 A 
ATOM     82  C   UNL A   1      36.632  33.897  42.503  1.00  0.00     0.002 A 
ATOM     83  C   UNL A   1      38.043  31.924  42.509  1.00  0.00     0.091 A 
ATOM     84  F   UNL A   1      40.098  31.957  41.301  1.00  0.00    -0.205 F 
ATOM     85  C   UNL A   1      36.891  32.601  42.940  1.00  0.00     0.022 A 
BRANCH  83  86
ATOM     86  S   UNL A   1      38.244  30.228  43.058  1.00  0.00     0.127 S 
ATOM     87  O   UNL A   1      39.563  30.276  43.687  1.00  0.00    -0.237 OA
ATOM     88  O   UNL A   1      37.128  30.075  43.992  1.00  0.00    -0.237 OA
ATOM     89  O   UNL A   1      38.154  29.402  41.863  1.00  0.00    -0.744 OA
ENDBRANCH  83  86
ENDBRANCH  65  79
BRANCH  66  90
ATOM     90  C   UNL A   1      44.703  38.524  34.695  1.00  0.00     0.023 A 
ATOM     91  C   UNL A   1      45.881  37.905  34.233  1.00  0.00     0.012 A 
ATOM     92  C   UNL A   1      44.375  39.811  34.228  1.00  0.00     0.148 A 
ATOM     93  C   UNL A   1      46.729  38.565  33.342  1.00  0.00     0.002 A 
ATOM     94  C   UNL A   1      45.195  40.441  33.299  1.00  0.00     0.091 A 
ATOM     95  F   UNL A   1      43.257  40.387  34.690  1.00  0.00    -0.205 F 
ATOM     96  C   UNL A   1      46.381  39.827  32.867  1.00  0.00     0.022 A 
BRANCH  94  97
ATOM     97  S   UNL A   1      44.771  42.014  32.542  1.00  0.00     0.127 S 
ATOM     98  O   UNL A   1      45.754  42.104  31.466  1.00  0.00    -0.237 OA
ATOM     99  O   UNL A   1      43.397  41.770  32.105  1.00  0.00    -0.237 OA
ATOM    100  O   UNL A   1      44.903  43.010  33.596  1.00  0.00    -0.744 OA
ENDBRANCH  94  97
ENDBRANCH  66  90
BRANCH  78 101
ATOM    101  C   UNL A   1      44.340  38.339  41.675  1.00  0.00     0.023 A 
ATOM    102  C   UNL A   1      45.561  37.763  42.075  1.00  0.00     0.012 A 
ATOM    103  C   UNL A   1      43.933  39.563  42.245  1.00  0.00     0.148 A 
ATOM    104  C   UNL A   1      46.343  38.374  43.056  1.00  0.00     0.002 A 
ATOM    105  C   UNL A   1      44.745  40.195  43.176  1.00  0.00     0.091 A 
ATOM    106  F   UNL A   1      42.762  40.090  41.858  1.00  0.00    -0.205 F 
ATOM    107  C   UNL A   1      45.941  39.594  43.596  1.00  0.00     0.022 A 
BRANCH 105 108
ATOM    108  S   UNL A   1      44.361  41.816  43.847  1.00  0.00     0.127 S 
ATOM    109  O   UNL A   1      42.928  41.919  43.571  1.00  0.00    -0.237 OA
ATOM    110  O   UNL A   1      44.698  41.652  45.261  1.00  0.00    -0.237 OA
ATOM    111  O   UNL A   1      45.201  42.762  43.128  1.00  0.00    -0.744 OA
ENDBRANCH 105 108
ENDBRANCH  78 101
ENDBRANCH  52  53
ENDBRANCH  45  47
ENDBRANCH  44  45
ENDBRANCH  43  44
ENDBRANCH  42  43
ENDBRANCH  41  42
ENDBRANCH  40  41
ENDBRANCH  39  40
ENDBRANCH  38  39
ENDBRANCH   1  38
TORSDOF 29
ENDMDL
