MODEL 1
REMARK VINA RESULT:      -8.5      0.000      0.000
REMARK SMILES C[C@H]([NH2+]Cc1ccccc1F)C(=O)OCCOCCOCCOCCOC(=O)c1ccc(-c2c3nc(c(-c4cccc(S(=O)(=O)[O-])c4F)c4ccc([nH]4)c(-c4cccc(S(=O)(=O)[O-])c4F)c4nc(c(-c5cccc(S(=O)(=O)[O-])c5F)c5ccc2[nH]5)C=C4)C=C3)cc1
REMARK SMILES IDX 20 1 19 2 18 3 17 4 16 5 15 6 14 7 12 8 13 9 2 10 1 11 3 12
REMARK SMILES IDX 4 15 5 16 6 17 10 18 7 19 9 20 11 21 8 22 21 23 22 24 23 25
REMARK SMILES IDX 24 26 25 27 26 28 27 29 28 30 29 31 30 32 91 33 31 34 90 35
REMARK SMILES IDX 32 36 33 37 34 38 84 39 35 40 89 41 83 42 85 43 36 44 88 45
REMARK SMILES IDX 82 46 81 47 37 49 69 50 49 51 68 52 50 53 53 54 67 55 86 56
REMARK SMILES IDX 51 57 52 58 66 60 87 61 54 62 38 63 39 64 47 65 40 66 42 67
REMARK SMILES IDX 48 68 41 69 43 70 44 71 45 72 46 73 70 74 71 75 79 76 72 77
REMARK SMILES IDX 74 78 80 79 73 80 75 81 76 82 77 83 78 84 55 85 56 86 64 87
REMARK SMILES IDX 57 88 59 89 65 90 58 91 60 92 61 93 62 94 63 95
REMARK H PARENT 3 13 3 14 85 48 53 59
REMARK Flexibility Score: inf
ROOT
ATOM      1  O   UNL A   1      34.378  31.016  27.974  1.00  0.00    -0.377 OA
ENDROOT
BRANCH   1   2
ATOM      2  C   UNL A   1      33.196  30.654  27.292  1.00  0.00     0.188 C 
BRANCH   2   3
ATOM      3  C   UNL A   1      33.086  29.153  26.983  1.00  0.00     0.188 C 
BRANCH   3   4
ATOM      4  O   UNL A   1      31.880  28.581  26.486  1.00  0.00    -0.376 OA
BRANCH   4   5
ATOM      5  C   UNL A   1      31.752  27.178  26.298  1.00  0.00     0.202 C 
BRANCH   5   6
ATOM      6  C   UNL A   1      30.565  26.543  25.549  1.00  0.00     0.261 C 
BRANCH   6   7
ATOM      7  O   UNL A   1      30.738  25.191  25.108  1.00  0.00    -0.459 OA
BRANCH   7   8
ATOM      8  C   UNL A   1      30.659  24.239  26.068  1.00  0.00     0.364 C 
ATOM      9  O   UNL A   1      29.968  24.335  27.081  1.00  0.00    -0.245 OA
BRANCH   8  10
ATOM     10  C   UNL A   1      31.502  22.982  25.783  1.00  0.00     0.290 C 
ATOM     11  C   UNL A   1      32.722  23.004  26.692  1.00  0.00     0.088 C 
BRANCH  10  12
ATOM     12  N   UNL A   1      31.883  22.800  24.365  1.00  0.00    -0.331 N 
ATOM     13  H   UNL A   1      31.251  23.352  23.787  1.00  0.00     0.347 HD
ATOM     14  H   UNL A   1      31.818  21.802  24.161  1.00  0.00     0.347 HD
BRANCH  12  15
ATOM     15  C   UNL A   1      33.256  23.213  24.076  1.00  0.00     0.301 C 
BRANCH  15  16
ATOM     16  C   UNL A   1      33.379  24.513  23.309  1.00  0.00     0.042 A 
ATOM     17  C   UNL A   1      32.825  24.682  22.031  1.00  0.00     0.012 A 
ATOM     18  C   UNL A   1      33.947  25.638  23.924  1.00  0.00     0.132 A 
ATOM     19  C   UNL A   1      32.842  25.933  21.401  1.00  0.00     0.001 A 
ATOM     20  C   UNL A   1      33.967  26.888  23.303  1.00  0.00     0.040 A 
ATOM     21  F   UNL A   1      34.467  25.540  25.158  1.00  0.00    -0.206 F 
ATOM     22  C   UNL A   1      33.407  27.038  22.037  1.00  0.00     0.003 A 
ENDBRANCH  15  16
ENDBRANCH  12  15
ENDBRANCH  10  12
ENDBRANCH   8  10
ENDBRANCH   7   8
ENDBRANCH   6   7
ENDBRANCH   5   6
ENDBRANCH   4   5
ENDBRANCH   3   4
ENDBRANCH   2   3
ENDBRANCH   1   2
BRANCH   1  23
ATOM     23  C   UNL A   1      34.383  32.290  28.600  1.00  0.00     0.188 C 
BRANCH  23  24
ATOM     24  C   UNL A   1      35.144  33.437  27.895  1.00  0.00     0.188 C 
BRANCH  24  25
ATOM     25  O   UNL A   1      34.539  34.718  28.020  1.00  0.00    -0.376 OA
BRANCH  25  26
ATOM     26  C   UNL A   1      33.246  34.811  28.602  1.00  0.00     0.202 C 
BRANCH  26  27
ATOM     27  C   UNL A   1      32.870  36.099  29.358  1.00  0.00     0.261 C 
BRANCH  27  28
ATOM     28  O   UNL A   1      33.473  36.289  30.647  1.00  0.00    -0.460 OA
BRANCH  28  29
ATOM     29  C   UNL A   1      33.214  35.383  31.611  1.00  0.00     0.338 C 
ATOM     30  O   UNL A   1      32.152  35.209  32.186  1.00  0.00    -0.246 OA
BRANCH  29  31
ATOM     31  C   UNL A   1      34.385  34.487  31.715  1.00  0.00     0.060 A 
ATOM     32  C   UNL A   1      34.207  33.198  32.238  1.00  0.00     0.016 A 
ATOM     33  C   UNL A   1      35.648  34.908  31.292  1.00  0.00     0.016 A 
ATOM     34  C   UNL A   1      35.301  32.346  32.386  1.00  0.00     0.010 A 
ATOM     35  C   UNL A   1      36.746  34.061  31.461  1.00  0.00     0.010 A 
ATOM     36  C   UNL A   1      36.584  32.792  32.046  1.00  0.00    -0.014 A 
BRANCH  36  37
ATOM     37  C   UNL A   1      37.772  32.023  32.486  1.00  0.00     0.031 A 
ATOM     38  C   UNL A   1      38.397  32.371  33.810  1.00  0.00     0.074 A 
ATOM     39  C   UNL A   1      38.286  31.033  31.734  1.00  0.00     0.049 A 
ATOM     40  N   UNL A   1      39.466  31.879  34.376  1.00  0.00    -0.248 NA
ATOM     41  C   UNL A   1      37.725  33.417  34.600  1.00  0.00     0.031 C 
ATOM     42  C   UNL A   1      37.758  30.587  30.448  1.00  0.00     0.029 A 
ATOM     43  N   UNL A   1      39.390  30.241  31.942  1.00  0.00    -0.354 N 
ATOM     44  C   UNL A   1      39.615  32.574  35.569  1.00  0.00     0.074 A 
ATOM     45  C   UNL A   1      38.533  33.530  35.644  1.00  0.00     0.031 C 
ATOM     46  C   UNL A   1      38.554  29.616  29.966  1.00  0.00     0.029 A 
ATOM     47  C   UNL A   1      39.664  29.395  30.893  1.00  0.00     0.049 A 
ATOM     48  H   UNL A   1      39.932  30.275  32.763  1.00  0.00     0.167 HD
ATOM     49  C   UNL A   1      40.560  32.421  36.525  1.00  0.00     0.034 A 
ATOM     50  C   UNL A   1      40.704  28.560  30.691  1.00  0.00     0.034 A 
ATOM     51  C   UNL A   1      41.622  31.455  36.457  1.00  0.00     0.049 A 
ATOM     52  C   UNL A   1      41.769  28.434  31.753  1.00  0.00     0.074 A 
ATOM     53  C   UNL A   1      42.603  31.197  37.398  1.00  0.00     0.029 A 
ATOM     54  N   UNL A   1      41.853  30.602  35.390  1.00  0.00    -0.354 N 
ATOM     55  N   UNL A   1      41.845  29.031  32.917  1.00  0.00    -0.248 NA
ATOM     56  C   UNL A   1      42.872  27.498  31.487  1.00  0.00     0.031 C 
ATOM     57  C   UNL A   1      43.452  30.216  36.881  1.00  0.00     0.029 A 
ATOM     58  C   UNL A   1      42.971  29.827  35.641  1.00  0.00     0.049 A 
ATOM     59  H   UNL A   1      41.303  30.554  34.576  1.00  0.00     0.167 HD
ATOM     60  C   UNL A   1      42.982  28.520  33.537  1.00  0.00     0.074 A 
ATOM     61  C   UNL A   1      43.555  27.552  32.624  1.00  0.00     0.031 C 
ATOM     62  C   UNL A   1      43.506  28.830  34.749  1.00  0.00     0.034 A 
BRANCH  49  63
ATOM     63  C   UNL A   1      40.486  33.303  37.742  1.00  0.00     0.023 A 
ATOM     64  C   UNL A   1      39.657  32.940  38.823  1.00  0.00     0.012 A 
ATOM     65  C   UNL A   1      41.314  34.438  37.854  1.00  0.00     0.148 A 
ATOM     66  C   UNL A   1      39.638  33.704  39.988  1.00  0.00     0.002 A 
ATOM     67  C   UNL A   1      41.326  35.165  39.039  1.00  0.00     0.091 A 
ATOM     68  F   UNL A   1      42.077  34.779  36.806  1.00  0.00    -0.205 F 
ATOM     69  C   UNL A   1      40.482  34.806  40.101  1.00  0.00     0.022 A 
BRANCH  67  70
ATOM     70  S   UNL A   1      42.441  36.545  39.317  1.00  0.00     0.127 S 
ATOM     71  O   UNL A   1      41.863  37.154  40.514  1.00  0.00    -0.237 OA
ATOM     72  O   UNL A   1      43.718  35.865  39.535  1.00  0.00    -0.237 OA
ATOM     73  O   UNL A   1      42.380  37.364  38.114  1.00  0.00    -0.744 OA
ENDBRANCH  67  70
ENDBRANCH  49  63
BRANCH  50  74
ATOM     74  C   UNL A   1      40.770  27.754  29.439  1.00  0.00     0.023 A 
ATOM     75  C   UNL A   1      39.900  26.661  29.267  1.00  0.00     0.012 A 
ATOM     76  C   UNL A   1      41.658  28.096  28.399  1.00  0.00     0.148 A 
ATOM     77  C   UNL A   1      39.924  25.911  28.091  1.00  0.00     0.002 A 
ATOM     78  C   UNL A   1      41.635  27.383  27.206  1.00  0.00     0.091 A 
ATOM     79  F   UNL A   1      42.490  29.130  28.590  1.00  0.00    -0.205 F 
ATOM     80  C   UNL A   1      40.780  26.280  27.056  1.00  0.00     0.022 A 
BRANCH  78  81
ATOM     81  S   UNL A   1      42.600  27.867  25.771  1.00  0.00     0.127 S 
ATOM     82  O   UNL A   1      42.199  29.261  25.595  1.00  0.00    -0.237 OA
ATOM     83  O   UNL A   1      43.967  27.674  26.254  1.00  0.00    -0.237 OA
ATOM     84  O   UNL A   1      42.205  26.961  24.702  1.00  0.00    -0.744 OA
ENDBRANCH  78  81
ENDBRANCH  50  74
BRANCH  62  85
ATOM     85  C   UNL A   1      44.747  28.103  35.203  1.00  0.00     0.023 A 
ATOM     86  C   UNL A   1      46.014  28.693  35.025  1.00  0.00     0.012 A 
ATOM     87  C   UNL A   1      44.642  26.897  35.927  1.00  0.00     0.148 A 
ATOM     88  C   UNL A   1      47.157  28.085  35.544  1.00  0.00     0.002 A 
ATOM     89  C   UNL A   1      45.777  26.326  36.487  1.00  0.00     0.091 A 
ATOM     90  F   UNL A   1      43.428  26.346  36.075  1.00  0.00    -0.205 F 
ATOM     91  C   UNL A   1      47.037  26.912  36.286  1.00  0.00     0.022 A 
BRANCH  89  92
ATOM     92  S   UNL A   1      45.709  24.880  37.552  1.00  0.00     0.127 S 
ATOM     93  O   UNL A   1      44.960  23.937  36.724  1.00  0.00    -0.237 OA
ATOM     94  O   UNL A   1      47.125  24.554  37.719  1.00  0.00    -0.237 OA
ATOM     95  O   UNL A   1      45.035  25.306  38.771  1.00  0.00    -0.744 OA
ENDBRANCH  89  92
ENDBRANCH  62  85
ENDBRANCH  36  37
ENDBRANCH  29  31
ENDBRANCH  28  29
ENDBRANCH  27  28
ENDBRANCH  26  27
ENDBRANCH  25  26
ENDBRANCH  24  25
ENDBRANCH  23  24
ENDBRANCH   1  23
TORSDOF 26
ENDMDL
MODEL 2
REMARK VINA RESULT:      -8.2      1.863      7.824
REMARK SMILES C[C@H]([NH2+]Cc1ccccc1F)C(=O)OCCOCCOCCOCCOC(=O)c1ccc(-c2c3nc(c(-c4cccc(S(=O)(=O)[O-])c4F)c4ccc([nH]4)c(-c4cccc(S(=O)(=O)[O-])c4F)c4nc(c(-c5cccc(S(=O)(=O)[O-])c5F)c5ccc2[nH]5)C=C4)C=C3)cc1
REMARK SMILES IDX 20 1 19 2 18 3 17 4 16 5 15 6 14 7 12 8 13 9 2 10 1 11 3 12
REMARK SMILES IDX 4 15 5 16 6 17 10 18 7 19 9 20 11 21 8 22 21 23 22 24 23 25
REMARK SMILES IDX 24 26 25 27 26 28 27 29 28 30 29 31 30 32 91 33 31 34 90 35
REMARK SMILES IDX 32 36 33 37 34 38 84 39 35 40 89 41 83 42 85 43 36 44 88 45
REMARK SMILES IDX 82 46 81 47 37 49 69 50 49 51 68 52 50 53 53 54 67 55 86 56
REMARK SMILES IDX 51 57 52 58 66 60 87 61 54 62 38 63 39 64 47 65 40 66 42 67
REMARK SMILES IDX 48 68 41 69 43 70 44 71 45 72 46 73 70 74 71 75 79 76 72 77
REMARK SMILES IDX 74 78 80 79 73 80 75 81 76 82 77 83 78 84 55 85 56 86 64 87
REMARK SMILES IDX 57 88 59 89 65 90 58 91 60 92 61 93 62 94 63 95
REMARK H PARENT 3 13 3 14 85 48 53 59
REMARK Flexibility Score: inf
ROOT
ATOM      1  O   UNL A   1      34.117  31.144  27.588  1.00  0.00    -0.377 OA
ENDROOT
BRANCH   1   2
ATOM      2  C   UNL A   1      32.834  30.798  27.112  1.00  0.00     0.188 C 
BRANCH   2   3
ATOM      3  C   UNL A   1      32.838  30.139  25.724  1.00  0.00     0.188 C 
BRANCH   3   4
ATOM      4  O   UNL A   1      31.831  29.209  25.338  1.00  0.00    -0.376 OA
BRANCH   4   5
ATOM      5  C   UNL A   1      31.501  29.004  23.971  1.00  0.00     0.202 C 
BRANCH   5   6
ATOM      6  C   UNL A   1      30.844  27.710  23.457  1.00  0.00     0.261 C 
BRANCH   6   7
ATOM      7  O   UNL A   1      31.300  27.221  22.190  1.00  0.00    -0.459 OA
BRANCH   7   8
ATOM      8  C   UNL A   1      32.459  26.519  22.206  1.00  0.00     0.364 C 
ATOM      9  O   UNL A   1      33.403  26.727  21.447  1.00  0.00    -0.245 OA
BRANCH   8  10
ATOM     10  C   UNL A   1      32.521  25.427  23.290  1.00  0.00     0.290 C 
ATOM     11  C   UNL A   1      33.814  25.601  24.075  1.00  0.00     0.088 C 
BRANCH  10  12
ATOM     12  N   UNL A   1      32.372  24.044  22.786  1.00  0.00    -0.331 N 
ATOM     13  H   UNL A   1      32.049  24.085  21.820  1.00  0.00     0.347 HD
ATOM     14  H   UNL A   1      31.704  23.571  23.395  1.00  0.00     0.347 HD
BRANCH  12  15
ATOM     15  C   UNL A   1      33.616  23.275  22.826  1.00  0.00     0.301 C 
BRANCH  15  16
ATOM     16  C   UNL A   1      33.544  21.997  23.635  1.00  0.00     0.042 A 
ATOM     17  C   UNL A   1      32.447  21.126  23.562  1.00  0.00     0.012 A 
ATOM     18  C   UNL A   1      34.651  21.583  24.391  1.00  0.00     0.132 A 
ATOM     19  C   UNL A   1      32.465  19.890  24.223  1.00  0.00     0.001 A 
ATOM     20  C   UNL A   1      34.678  20.353  25.050  1.00  0.00     0.040 A 
ATOM     21  F   UNL A   1      35.740  22.364  24.472  1.00  0.00    -0.206 F 
ATOM     22  C   UNL A   1      33.581  19.500  24.961  1.00  0.00     0.003 A 
ENDBRANCH  15  16
ENDBRANCH  12  15
ENDBRANCH  10  12
ENDBRANCH   8  10
ENDBRANCH   7   8
ENDBRANCH   6   7
ENDBRANCH   5   6
ENDBRANCH   4   5
ENDBRANCH   3   4
ENDBRANCH   2   3
ENDBRANCH   1   2
BRANCH   1  23
ATOM     23  C   UNL A   1      34.189  32.265  28.456  1.00  0.00     0.188 C 
BRANCH  23  24
ATOM     24  C   UNL A   1      35.103  33.441  28.041  1.00  0.00     0.188 C 
BRANCH  24  25
ATOM     25  O   UNL A   1      34.635  34.726  28.432  1.00  0.00    -0.376 OA
BRANCH  25  26
ATOM     26  C   UNL A   1      33.264  34.881  28.772  1.00  0.00     0.202 C 
BRANCH  26  27
ATOM     27  C   UNL A   1      32.869  36.013  29.738  1.00  0.00     0.261 C 
BRANCH  27  28
ATOM     28  O   UNL A   1      33.598  36.093  30.972  1.00  0.00    -0.460 OA
BRANCH  28  29
ATOM     29  C   UNL A   1      33.397  35.130  31.894  1.00  0.00     0.338 C 
ATOM     30  O   UNL A   1      32.337  34.828  32.418  1.00  0.00    -0.246 OA
BRANCH  29  31
ATOM     31  C   UNL A   1      34.649  34.353  32.017  1.00  0.00     0.060 A 
ATOM     32  C   UNL A   1      34.603  33.087  32.618  1.00  0.00     0.016 A 
ATOM     33  C   UNL A   1      35.857  34.863  31.536  1.00  0.00     0.016 A 
ATOM     34  C   UNL A   1      35.774  32.349  32.784  1.00  0.00     0.010 A 
ATOM     35  C   UNL A   1      37.033  34.132  31.724  1.00  0.00     0.010 A 
ATOM     36  C   UNL A   1      37.002  32.890  32.385  1.00  0.00    -0.014 A 
BRANCH  36  37
ATOM     37  C   UNL A   1      38.267  32.261  32.835  1.00  0.00     0.031 A 
ATOM     38  C   UNL A   1      38.859  31.168  31.986  1.00  0.00     0.074 A 
ATOM     39  C   UNL A   1      38.881  32.647  33.966  1.00  0.00     0.049 A 
ATOM     40  N   UNL A   1      39.920  30.437  32.200  1.00  0.00    -0.248 NA
ATOM     41  C   UNL A   1      38.160  30.860  30.726  1.00  0.00     0.031 C 
ATOM     42  C   UNL A   1      38.420  33.707  34.859  1.00  0.00     0.029 A 
ATOM     43  N   UNL A   1      40.020  32.168  34.568  1.00  0.00    -0.354 N 
ATOM     44  C   UNL A   1      39.998  29.562  31.124  1.00  0.00     0.074 A 
ATOM     45  C   UNL A   1      38.874  29.845  30.261  1.00  0.00     0.031 C 
ATOM     46  C   UNL A   1      39.254  33.782  35.911  1.00  0.00     0.029 A 
ATOM     47  C   UNL A   1      40.288  32.755  35.782  1.00  0.00     0.049 A 
ATOM     48  H   UNL A   1      40.590  31.473  34.167  1.00  0.00     0.167 HD
ATOM     49  C   UNL A   1      40.932  28.616  30.870  1.00  0.00     0.034 A 
ATOM     50  C   UNL A   1      41.241  32.478  36.696  1.00  0.00     0.034 A 
ATOM     51  C   UNL A   1      42.061  28.352  31.719  1.00  0.00     0.049 A 
ATOM     52  C   UNL A   1      42.247  31.391  36.410  1.00  0.00     0.074 A 
ATOM     53  C   UNL A   1      43.083  27.441  31.521  1.00  0.00     0.029 A 
ATOM     54  N   UNL A   1      42.310  28.981  32.927  1.00  0.00    -0.354 N 
ATOM     55  N   UNL A   1      42.363  30.635  35.345  1.00  0.00    -0.248 NA
ATOM     56  C   UNL A   1      43.273  31.141  37.434  1.00  0.00     0.031 C 
ATOM     57  C   UNL A   1      43.929  27.491  32.632  1.00  0.00     0.029 A 
ATOM     58  C   UNL A   1      43.461  28.467  33.497  1.00  0.00     0.049 A 
ATOM     59  H   UNL A   1      41.751  29.689  33.322  1.00  0.00     0.167 HD
ATOM     60  C   UNL A   1      43.490  29.845  35.555  1.00  0.00     0.074 A 
ATOM     61  C   UNL A   1      44.031  30.225  36.844  1.00  0.00     0.031 C 
ATOM     62  C   UNL A   1      44.022  28.887  34.756  1.00  0.00     0.034 A 
BRANCH  49  63
ATOM     63  C   UNL A   1      40.790  27.802  29.611  1.00  0.00     0.023 A 
ATOM     64  C   UNL A   1      39.766  26.839  29.510  1.00  0.00     0.012 A 
ATOM     65  C   UNL A   1      41.611  28.061  28.496  1.00  0.00     0.148 A 
ATOM     66  C   UNL A   1      39.573  26.133  28.324  1.00  0.00     0.002 A 
ATOM     67  C   UNL A   1      41.379  27.389  27.301  1.00  0.00     0.091 A 
ATOM     68  F   UNL A   1      42.594  28.963  28.621  1.00  0.00    -0.205 F 
ATOM     69  C   UNL A   1      40.368  26.418  27.218  1.00  0.00     0.022 A 
BRANCH  67  70
ATOM     70  S   UNL A   1      42.288  27.748  25.795  1.00  0.00     0.127 S 
ATOM     71  O   UNL A   1      43.672  27.640  26.253  1.00  0.00    -0.237 OA
ATOM     72  O   UNL A   1      41.852  26.667  24.912  1.00  0.00    -0.237 OA
ATOM     73  O   UNL A   1      41.874  29.082  25.381  1.00  0.00    -0.744 OA
ENDBRANCH  67  70
ENDBRANCH  49  63
BRANCH  50  74
ATOM     74  C   UNL A   1      41.302  33.267  37.960  1.00  0.00     0.023 A 
ATOM     75  C   UNL A   1      40.636  32.797  39.107  1.00  0.00     0.012 A 
ATOM     76  C   UNL A   1      42.056  34.455  38.041  1.00  0.00     0.148 A 
ATOM     77  C   UNL A   1      40.705  33.503  40.309  1.00  0.00     0.002 A 
ATOM     78  C   UNL A   1      42.170  35.121  39.255  1.00  0.00     0.091 A 
ATOM     79  F   UNL A   1      42.668  34.894  36.931  1.00  0.00    -0.205 F 
ATOM     80  C   UNL A   1      41.481  34.656  40.386  1.00  0.00     0.022 A 
BRANCH  78  81
ATOM     81  S   UNL A   1      43.255  36.533  39.485  1.00  0.00     0.127 S 
ATOM     82  O   UNL A   1      44.541  36.000  39.042  1.00  0.00    -0.237 OA
ATOM     83  O   UNL A   1      42.653  37.519  38.587  1.00  0.00    -0.237 OA
ATOM     84  O   UNL A   1      43.171  36.874  40.898  1.00  0.00    -0.744 OA
ENDBRANCH  78  81
ENDBRANCH  50  74
BRANCH  62  85
ATOM     85  C   UNL A   1      45.279  28.188  35.210  1.00  0.00     0.023 A 
ATOM     86  C   UNL A   1      45.192  26.997  35.956  1.00  0.00     0.012 A 
ATOM     87  C   UNL A   1      46.543  28.644  34.779  1.00  0.00     0.148 A 
ATOM     88  C   UNL A   1      46.343  26.280  36.282  1.00  0.00     0.002 A 
ATOM     89  C   UNL A   1      47.679  27.897  35.061  1.00  0.00     0.091 A 
ATOM     90  F   UNL A   1      46.604  29.788  34.081  1.00  0.00    -0.205 F 
ATOM     91  C   UNL A   1      47.583  26.721  35.822  1.00  0.00     0.022 A 
BRANCH  89  92
ATOM     92  S   UNL A   1      49.302  28.323  34.418  1.00  0.00     0.127 S 
ATOM     93  O   UNL A   1      49.544  29.616  35.058  1.00  0.00    -0.237 OA
ATOM     94  O   UNL A   1      50.131  27.229  34.924  1.00  0.00    -0.237 OA
ATOM     95  O   UNL A   1      49.166  28.364  32.969  1.00  0.00    -0.744 OA
ENDBRANCH  89  92
ENDBRANCH  62  85
ENDBRANCH  36  37
ENDBRANCH  29  31
ENDBRANCH  28  29
ENDBRANCH  27  28
ENDBRANCH  26  27
ENDBRANCH  25  26
ENDBRANCH  24  25
ENDBRANCH  23  24
ENDBRANCH   1  23
TORSDOF 26
ENDMDL
MODEL 3
REMARK VINA RESULT:      -8.1      1.859      2.438
REMARK SMILES C[C@H]([NH2+]Cc1ccccc1F)C(=O)OCCOCCOCCOCCOC(=O)c1ccc(-c2c3nc(c(-c4cccc(S(=O)(=O)[O-])c4F)c4ccc([nH]4)c(-c4cccc(S(=O)(=O)[O-])c4F)c4nc(c(-c5cccc(S(=O)(=O)[O-])c5F)c5ccc2[nH]5)C=C4)C=C3)cc1
REMARK SMILES IDX 20 1 19 2 18 3 17 4 16 5 15 6 14 7 12 8 13 9 2 10 1 11 3 12
REMARK SMILES IDX 4 15 5 16 6 17 10 18 7 19 9 20 11 21 8 22 21 23 22 24 23 25
REMARK SMILES IDX 24 26 25 27 26 28 27 29 28 30 29 31 30 32 91 33 31 34 90 35
REMARK SMILES IDX 32 36 33 37 34 38 84 39 35 40 89 41 83 42 85 43 36 44 88 45
REMARK SMILES IDX 82 46 81 47 37 49 69 50 49 51 68 52 50 53 53 54 67 55 86 56
REMARK SMILES IDX 51 57 52 58 66 60 87 61 54 62 38 63 39 64 47 65 40 66 42 67
REMARK SMILES IDX 48 68 41 69 43 70 44 71 45 72 46 73 70 74 71 75 79 76 72 77
REMARK SMILES IDX 74 78 80 79 73 80 75 81 76 82 77 83 78 84 55 85 56 86 64 87
REMARK SMILES IDX 57 88 59 89 65 90 58 91 60 92 61 93 62 94 63 95
REMARK H PARENT 3 13 3 14 85 48 53 59
REMARK Flexibility Score: inf
ROOT
ATOM      1  O   UNL A   1      33.370  31.687  27.313  1.00  0.00    -0.377 OA
ENDROOT
BRANCH   1   2
ATOM      2  C   UNL A   1      32.212  31.123  26.735  1.00  0.00     0.188 C 
BRANCH   2   3
ATOM      3  C   UNL A   1      32.334  29.623  26.423  1.00  0.00     0.188 C 
BRANCH   3   4
ATOM      4  O   UNL A   1      31.498  28.660  27.056  1.00  0.00    -0.376 OA
BRANCH   4   5
ATOM      5  C   UNL A   1      31.755  27.268  26.935  1.00  0.00     0.202 C 
BRANCH   5   6
ATOM      6  C   UNL A   1      30.804  26.306  26.197  1.00  0.00     0.261 C 
BRANCH   6   7
ATOM      7  O   UNL A   1      30.792  24.947  26.650  1.00  0.00    -0.459 OA
BRANCH   7   8
ATOM      8  C   UNL A   1      30.971  24.002  25.695  1.00  0.00     0.364 C 
ATOM      9  O   UNL A   1      30.812  22.797  25.878  1.00  0.00    -0.245 OA
BRANCH   8  10
ATOM     10  C   UNL A   1      31.377  24.563  24.319  1.00  0.00     0.290 C 
ATOM     11  C   UNL A   1      30.581  23.831  23.248  1.00  0.00     0.088 C 
BRANCH  10  12
ATOM     12  N   UNL A   1      32.829  24.527  24.038  1.00  0.00    -0.331 N 
ATOM     13  H   UNL A   1      33.326  24.423  24.922  1.00  0.00     0.347 HD
ATOM     14  H   UNL A   1      33.066  25.399  23.564  1.00  0.00     0.347 HD
BRANCH  12  15
ATOM     15  C   UNL A   1      33.222  23.431  23.152  1.00  0.00     0.301 C 
BRANCH  15  16
ATOM     16  C   UNL A   1      34.347  22.565  23.677  1.00  0.00     0.042 A 
ATOM     17  C   UNL A   1      35.690  22.965  23.615  1.00  0.00     0.012 A 
ATOM     18  C   UNL A   1      34.055  21.379  24.367  1.00  0.00     0.132 A 
ATOM     19  C   UNL A   1      36.696  22.202  24.223  1.00  0.00     0.001 A 
ATOM     20  C   UNL A   1      35.051  20.614  24.977  1.00  0.00     0.040 A 
ATOM     21  F   UNL A   1      32.784  20.963  24.482  1.00  0.00    -0.206 F 
ATOM     22  C   UNL A   1      36.378  21.030  24.909  1.00  0.00     0.003 A 
ENDBRANCH  15  16
ENDBRANCH  12  15
ENDBRANCH  10  12
ENDBRANCH   8  10
ENDBRANCH   7   8
ENDBRANCH   6   7
ENDBRANCH   5   6
ENDBRANCH   4   5
ENDBRANCH   3   4
ENDBRANCH   2   3
ENDBRANCH   1   2
BRANCH   1  23
ATOM     23  C   UNL A   1      33.204  32.930  27.979  1.00  0.00     0.188 C 
BRANCH  23  24
ATOM     24  C   UNL A   1      34.477  33.677  28.439  1.00  0.00     0.188 C 
BRANCH  24  25
ATOM     25  O   UNL A   1      34.236  34.884  29.151  1.00  0.00    -0.376 OA
BRANCH  25  26
ATOM     26  C   UNL A   1      33.101  35.666  28.807  1.00  0.00     0.202 C 
BRANCH  26  27
ATOM     27  C   UNL A   1      32.383  36.451  29.920  1.00  0.00     0.261 C 
BRANCH  27  28
ATOM     28  O   UNL A   1      33.151  36.753  31.095  1.00  0.00    -0.460 OA
BRANCH  28  29
ATOM     29  C   UNL A   1      32.942  36.011  32.200  1.00  0.00     0.338 C 
ATOM     30  O   UNL A   1      31.922  35.966  32.870  1.00  0.00    -0.246 OA
BRANCH  29  31
ATOM     31  C   UNL A   1      34.091  35.095  32.354  1.00  0.00     0.060 A 
ATOM     32  C   UNL A   1      33.889  33.854  32.976  1.00  0.00     0.016 A 
ATOM     33  C   UNL A   1      35.357  35.449  31.882  1.00  0.00     0.016 A 
ATOM     34  C   UNL A   1      34.963  32.987  33.171  1.00  0.00     0.010 A 
ATOM     35  C   UNL A   1      36.436  34.589  32.099  1.00  0.00     0.010 A 
ATOM     36  C   UNL A   1      36.251  33.372  32.780  1.00  0.00    -0.014 A 
BRANCH  36  37
ATOM     37  C   UNL A   1      37.427  32.606  33.259  1.00  0.00     0.031 A 
ATOM     38  C   UNL A   1      38.066  33.021  34.557  1.00  0.00     0.074 A 
ATOM     39  C   UNL A   1      37.918  31.564  32.565  1.00  0.00     0.049 A 
ATOM     40  N   UNL A   1      39.128  32.542  35.146  1.00  0.00    -0.248 NA
ATOM     41  C   UNL A   1      37.419  34.124  35.287  1.00  0.00     0.031 C 
ATOM     42  C   UNL A   1      37.373  31.053  31.310  1.00  0.00     0.029 A 
ATOM     43  N   UNL A   1      39.006  30.764  32.814  1.00  0.00    -0.354 N 
ATOM     44  C   UNL A   1      39.298  33.303  36.295  1.00  0.00     0.074 A 
ATOM     45  C   UNL A   1      38.235  34.283  36.319  1.00  0.00     0.031 C 
ATOM     46  C   UNL A   1      38.147  30.040  30.882  1.00  0.00     0.029 A 
ATOM     47  C   UNL A   1      39.258  29.853  31.816  1.00  0.00     0.049 A 
ATOM     48  H   UNL A   1      39.554  30.836  33.629  1.00  0.00     0.167 HD
ATOM     49  C   UNL A   1      40.246  33.188  37.254  1.00  0.00     0.034 A 
ATOM     50  C   UNL A   1      40.280  28.987  31.659  1.00  0.00     0.034 A 
ATOM     51  C   UNL A   1      41.288  32.199  37.239  1.00  0.00     0.049 A 
ATOM     52  C   UNL A   1      41.348  28.903  32.721  1.00  0.00     0.074 A 
ATOM     53  C   UNL A   1      42.269  31.978  38.189  1.00  0.00     0.029 A 
ATOM     54  N   UNL A   1      41.496  31.280  36.223  1.00  0.00    -0.354 N 
ATOM     55  N   UNL A   1      41.444  29.566  33.848  1.00  0.00    -0.248 NA
ATOM     56  C   UNL A   1      42.432  27.931  32.507  1.00  0.00     0.031 C 
ATOM     57  C   UNL A   1      43.096  30.951  37.728  1.00  0.00     0.029 A 
ATOM     58  C   UNL A   1      42.601  30.500  36.515  1.00  0.00     0.049 A 
ATOM     59  H   UNL A   1      40.940  31.195  35.416  1.00  0.00     0.167 HD
ATOM     60  C   UNL A   1      42.574  29.070  34.492  1.00  0.00     0.074 A 
ATOM     61  C   UNL A   1      43.123  28.039  33.635  1.00  0.00     0.031 C 
ATOM     62  C   UNL A   1      43.111  29.441  35.681  1.00  0.00     0.034 A 
BRANCH  49  63
ATOM     63  C   UNL A   1      40.196  34.142  38.418  1.00  0.00     0.023 A 
ATOM     64  C   UNL A   1      40.820  35.402  38.319  1.00  0.00     0.012 A 
ATOM     65  C   UNL A   1      39.447  33.827  39.569  1.00  0.00     0.148 A 
ATOM     66  C   UNL A   1      40.716  36.327  39.357  1.00  0.00     0.002 A 
ATOM     67  C   UNL A   1      39.307  34.774  40.577  1.00  0.00     0.091 A 
ATOM     68  F   UNL A   1      38.882  32.615  39.652  1.00  0.00    -0.205 F 
ATOM     69  C   UNL A   1      39.948  36.018  40.477  1.00  0.00     0.022 A 
BRANCH  67  70
ATOM     70  S   UNL A   1      38.267  34.509  42.017  1.00  0.00     0.127 S 
ATOM     71  O   UNL A   1      38.504  35.733  42.781  1.00  0.00    -0.237 OA
ATOM     72  O   UNL A   1      36.936  34.413  41.418  1.00  0.00    -0.237 OA
ATOM     73  O   UNL A   1      38.747  33.285  42.643  1.00  0.00    -0.744 OA
ENDBRANCH  67  70
ENDBRANCH  49  63
BRANCH  50  74
ATOM     74  C   UNL A   1      40.324  28.107  30.456  1.00  0.00     0.023 A 
ATOM     75  C   UNL A   1      39.417  27.036  30.344  1.00  0.00     0.012 A 
ATOM     76  C   UNL A   1      41.227  28.356  29.403  1.00  0.00     0.148 A 
ATOM     77  C   UNL A   1      39.419  26.218  29.213  1.00  0.00     0.002 A 
ATOM     78  C   UNL A   1      41.184  27.576  28.254  1.00  0.00     0.091 A 
ATOM     79  F   UNL A   1      42.093  29.371  29.539  1.00  0.00    -0.205 F 
ATOM     80  C   UNL A   1      40.292  26.496  28.164  1.00  0.00     0.022 A 
BRANCH  78  81
ATOM     81  S   UNL A   1      42.171  27.942  26.799  1.00  0.00     0.127 S 
ATOM     82  O   UNL A   1      41.420  29.038  26.194  1.00  0.00    -0.237 OA
ATOM     83  O   UNL A   1      43.450  28.325  27.397  1.00  0.00    -0.237 OA
ATOM     84  O   UNL A   1      42.213  26.708  26.027  1.00  0.00    -0.744 OA
ENDBRANCH  78  81
ENDBRANCH  50  74
BRANCH  62  85
ATOM     85  C   UNL A   1      44.340  28.718  36.172  1.00  0.00     0.023 A 
ATOM     86  C   UNL A   1      45.620  29.226  35.878  1.00  0.00     0.012 A 
ATOM     87  C   UNL A   1      44.217  27.610  37.036  1.00  0.00     0.148 A 
ATOM     88  C   UNL A   1      46.759  28.633  36.423  1.00  0.00     0.002 A 
ATOM     89  C   UNL A   1      45.352  27.058  37.617  1.00  0.00     0.091 A 
ATOM     90  F   UNL A   1      42.990  27.134  37.292  1.00  0.00    -0.205 F 
ATOM     91  C   UNL A   1      46.624  27.561  37.302  1.00  0.00     0.022 A 
BRANCH  89  92
ATOM     92  S   UNL A   1      45.271  25.750  38.847  1.00  0.00     0.127 S 
ATOM     93  O   UNL A   1      46.683  25.573  39.185  1.00  0.00    -0.237 OA
ATOM     94  O   UNL A   1      44.465  26.367  39.900  1.00  0.00    -0.237 OA
ATOM     95  O   UNL A   1      44.644  24.613  38.189  1.00  0.00    -0.744 OA
ENDBRANCH  89  92
ENDBRANCH  62  85
ENDBRANCH  36  37
ENDBRANCH  29  31
ENDBRANCH  28  29
ENDBRANCH  27  28
ENDBRANCH  26  27
ENDBRANCH  25  26
ENDBRANCH  24  25
ENDBRANCH  23  24
ENDBRANCH   1  23
TORSDOF 26
ENDMDL
