MODEL 1
REMARK VINA RESULT:      -9.6      0.000      0.000
REMARK SMILES O=C(OCCOCCOCCOCCOC(=O)[C@H]1CCCCN1C(=O)c1cn2ccccc2n1)c1ccc(-c2c3nc(c(-c4cccc(S(=O)(=O)[O-])c4F)c4ccc([nH]4)c(-c4cccc(S(=O)(=O)[O-])c4F)c4nc(c(-c5cccc(S(=O)(=O)[O-])c5F)c5ccc2[nH]5)C=C4)C=C3)cc1
REMARK SMILES IDX 8 1 7 2 6 3 5 4 4 5 3 6 2 7 1 8 35 9 36 10 97 11 37 12 96 13
REMARK SMILES IDX 38 14 39 15 40 16 90 17 41 18 95 19 89 20 91 21 42 22 94 23
REMARK SMILES IDX 88 24 87 25 43 27 75 28 55 29 74 30 56 31 59 32 73 33 92 34
REMARK SMILES IDX 57 35 58 36 72 38 93 39 60 40 44 41 45 42 53 43 46 44 48 45
REMARK SMILES IDX 54 46 47 47 49 48 50 49 51 50 52 51 76 52 77 53 85 54 78 55
REMARK SMILES IDX 80 56 86 57 79 58 81 59 82 60 83 61 84 62 61 63 62 64 70 65
REMARK SMILES IDX 63 66 65 67 71 68 64 69 66 70 67 71 68 72 69 73 9 74 10 75
REMARK SMILES IDX 11 76 12 77 13 78 14 79 15 80 16 81 17 82 18 83 19 84 23 85
REMARK SMILES IDX 20 86 22 87 21 88 24 89 25 90 26 91 27 92 34 93 28 94 33 95
REMARK SMILES IDX 29 96 32 97 30 98 31 99
REMARK H PARENT 91 26 59 37
REMARK Flexibility Score: inf
ROOT
ATOM      1  C   UNL A   1      31.614  27.781  22.590  1.00  0.00     0.188 C 
ENDROOT
BRANCH   1   2
ATOM      2  C   UNL A   1      32.565  28.969  22.540  1.00  0.00     0.188 C 
BRANCH   2   3
ATOM      3  O   UNL A   1      32.980  29.308  23.859  1.00  0.00    -0.376 OA
BRANCH   3   4
ATOM      4  C   UNL A   1      33.169  28.241  24.768  1.00  0.00     0.202 C 
BRANCH   4   5
ATOM      5  C   UNL A   1      33.952  28.696  25.999  1.00  0.00     0.261 C 
BRANCH   5   6
ATOM      6  O   UNL A   1      33.625  30.050  26.354  1.00  0.00    -0.460 OA
BRANCH   6   7
ATOM      7  C   UNL A   1      34.208  30.833  27.291  1.00  0.00     0.338 C 
ATOM      8  O   UNL A   1      33.658  31.895  27.578  1.00  0.00    -0.246 OA
BRANCH   7   9
ATOM      9  C   UNL A   1      35.421  30.435  28.079  1.00  0.00     0.060 A 
ATOM     10  C   UNL A   1      35.498  29.414  29.036  1.00  0.00     0.016 A 
ATOM     11  C   UNL A   1      36.609  31.117  27.755  1.00  0.00     0.016 A 
ATOM     12  C   UNL A   1      36.695  29.112  29.687  1.00  0.00     0.010 A 
ATOM     13  C   UNL A   1      37.810  30.828  28.406  1.00  0.00     0.010 A 
ATOM     14  C   UNL A   1      37.843  29.848  29.403  1.00  0.00    -0.014 A 
BRANCH  14  15
ATOM     15  C   UNL A   1      39.002  29.768  30.312  1.00  0.00     0.031 A 
ATOM     16  C   UNL A   1      40.093  28.808  29.945  1.00  0.00     0.074 A 
ATOM     17  C   UNL A   1      39.066  30.511  31.429  1.00  0.00     0.049 A 
ATOM     18  N   UNL A   1      41.146  28.448  30.622  1.00  0.00    -0.248 NA
ATOM     19  C   UNL A   1      39.973  28.162  28.625  1.00  0.00     0.031 C 
ATOM     20  C   UNL A   1      38.078  31.507  31.839  1.00  0.00     0.029 A 
ATOM     21  N   UNL A   1      39.993  30.513  32.439  1.00  0.00    -0.354 N 
ATOM     22  C   UNL A   1      41.785  27.497  29.838  1.00  0.00     0.074 A 
ATOM     23  C   UNL A   1      41.016  27.350  28.624  1.00  0.00     0.031 C 
ATOM     24  C   UNL A   1      38.427  31.992  33.042  1.00  0.00     0.029 A 
ATOM     25  C   UNL A   1      39.636  31.311  33.500  1.00  0.00     0.049 A 
ATOM     26  H   UNL A   1      40.829  29.995  32.408  1.00  0.00     0.167 HD
ATOM     27  C   UNL A   1      42.910  26.800  30.112  1.00  0.00     0.034 A 
ATOM     28  C   UNL A   1      40.204  31.435  34.717  1.00  0.00     0.034 A 
ATOM     29  C   UNL A   1      43.652  26.953  31.328  1.00  0.00     0.049 A 
ATOM     30  C   UNL A   1      41.448  30.635  35.015  1.00  0.00     0.074 A 
ATOM     31  C   UNL A   1      44.801  26.299  31.727  1.00  0.00     0.029 A 
ATOM     32  N   UNL A   1      43.300  27.820  32.353  1.00  0.00    -0.354 N 
ATOM     33  N   UNL A   1      42.086  29.788  34.241  1.00  0.00    -0.248 NA
ATOM     34  C   UNL A   1      42.062  30.819  36.337  1.00  0.00     0.031 C 
ATOM     35  C   UNL A   1      45.134  26.759  33.006  1.00  0.00     0.029 A 
ATOM     36  C   UNL A   1      44.206  27.717  33.391  1.00  0.00     0.049 A 
ATOM     37  H   UNL A   1      42.519  28.420  32.343  1.00  0.00     0.167 HD
ATOM     38  C   UNL A   1      43.191  29.359  34.967  1.00  0.00     0.074 A 
ATOM     39  C   UNL A   1      43.140  30.049  36.242  1.00  0.00     0.031 C 
ATOM     40  C   UNL A   1      44.153  28.468  34.621  1.00  0.00     0.034 A 
BRANCH  27  41
ATOM     41  C   UNL A   1      43.359  25.804  29.079  1.00  0.00     0.023 A 
ATOM     42  C   UNL A   1      42.925  24.465  29.160  1.00  0.00     0.012 A 
ATOM     43  C   UNL A   1      44.251  26.181  28.058  1.00  0.00     0.148 A 
ATOM     44  C   UNL A   1      43.409  23.507  28.270  1.00  0.00     0.002 A 
ATOM     45  C   UNL A   1      44.699  25.229  27.151  1.00  0.00     0.091 A 
ATOM     46  F   UNL A   1      44.683  27.449  28.020  1.00  0.00    -0.205 F 
ATOM     47  C   UNL A   1      44.290  23.891  27.262  1.00  0.00     0.022 A 
BRANCH  45  48
ATOM     48  S   UNL A   1      45.796  25.648  25.792  1.00  0.00     0.127 S 
ATOM     49  O   UNL A   1      46.028  24.338  25.186  1.00  0.00    -0.237 OA
ATOM     50  O   UNL A   1      44.968  26.552  24.990  1.00  0.00    -0.237 OA
ATOM     51  O   UNL A   1      46.956  26.280  26.402  1.00  0.00    -0.744 OA
ENDBRANCH  45  48
ENDBRANCH  27  41
BRANCH  28  52
ATOM     52  C   UNL A   1      39.597  32.355  35.722  1.00  0.00     0.023 A 
ATOM     53  C   UNL A   1      38.650  31.862  36.638  1.00  0.00     0.012 A 
ATOM     54  C   UNL A   1      40.011  33.700  35.820  1.00  0.00     0.148 A 
ATOM     55  C   UNL A   1      38.119  32.692  37.629  1.00  0.00     0.002 A 
ATOM     56  C   UNL A   1      39.520  34.505  36.841  1.00  0.00     0.091 A 
ATOM     57  F   UNL A   1      40.899  34.155  34.926  1.00  0.00    -0.205 F 
ATOM     58  C   UNL A   1      38.565  34.007  37.739  1.00  0.00     0.022 A 
BRANCH  56  59
ATOM     59  S   UNL A   1      40.136  36.167  37.141  1.00  0.00     0.127 S 
ATOM     60  O   UNL A   1      39.265  36.618  38.223  1.00  0.00    -0.237 OA
ATOM     61  O   UNL A   1      41.522  35.910  37.532  1.00  0.00    -0.237 OA
ATOM     62  O   UNL A   1      39.991  36.877  35.877  1.00  0.00    -0.744 OA
ENDBRANCH  56  59
ENDBRANCH  28  52
BRANCH  40  63
ATOM     63  C   UNL A   1      45.261  28.206  35.604  1.00  0.00     0.023 A 
ATOM     64  C   UNL A   1      46.456  28.945  35.520  1.00  0.00     0.012 A 
ATOM     65  C   UNL A   1      45.045  27.346  36.698  1.00  0.00     0.148 A 
ATOM     66  C   UNL A   1      47.427  28.825  36.514  1.00  0.00     0.002 A 
ATOM     67  C   UNL A   1      45.997  27.267  37.706  1.00  0.00     0.091 A 
ATOM     68  F   UNL A   1      43.904  26.643  36.742  1.00  0.00    -0.205 F 
ATOM     69  C   UNL A   1      47.191  28.001  37.613  1.00  0.00     0.022 A 
BRANCH  67  70
ATOM     70  S   UNL A   1      45.728  26.319  39.207  1.00  0.00     0.127 S 
ATOM     71  O   UNL A   1      45.960  24.952  38.741  1.00  0.00    -0.237 OA
ATOM     72  O   UNL A   1      46.765  26.845  40.096  1.00  0.00    -0.237 OA
ATOM     73  O   UNL A   1      44.365  26.610  39.630  1.00  0.00    -0.744 OA
ENDBRANCH  67  70
ENDBRANCH  40  63
ENDBRANCH  14  15
ENDBRANCH   7   9
ENDBRANCH   6   7
ENDBRANCH   5   6
ENDBRANCH   4   5
ENDBRANCH   3   4
ENDBRANCH   2   3
ENDBRANCH   1   2
BRANCH   1  74
ATOM     74  O   UNL A   1      30.236  28.123  22.521  1.00  0.00    -0.377 OA
BRANCH  74  75
ATOM     75  C   UNL A   1      29.338  27.436  23.389  1.00  0.00     0.188 C 
BRANCH  75  76
ATOM     76  C   UNL A   1      30.154  26.889  24.564  1.00  0.00     0.188 C 
BRANCH  76  77
ATOM     77  O   UNL A   1      29.886  25.535  24.922  1.00  0.00    -0.376 OA
BRANCH  77  78
ATOM     78  C   UNL A   1      30.958  24.604  24.810  1.00  0.00     0.202 C 
BRANCH  78  79
ATOM     79  C   UNL A   1      31.305  23.793  26.072  1.00  0.00     0.261 C 
BRANCH  79  80
ATOM     80  O   UNL A   1      32.683  23.890  26.513  1.00  0.00    -0.462 OA
BRANCH  80  81
ATOM     81  C   UNL A   1      33.275  22.725  26.874  1.00  0.00     0.328 C 
ATOM     82  O   UNL A   1      33.354  22.346  28.044  1.00  0.00    -0.250 OA
BRANCH  81  83
ATOM     83  C   UNL A   1      33.894  21.873  25.724  1.00  0.00     0.195 C 
ATOM     84  C   UNL A   1      33.407  20.415  25.891  1.00  0.00     0.037 C 
ATOM     85  N   UNL A   1      33.953  22.271  24.290  1.00  0.00    -0.323 N 
ATOM     86  C   UNL A   1      32.183  20.095  25.047  1.00  0.00     0.005 C 
ATOM     87  C   UNL A   1      32.975  21.733  23.333  1.00  0.00     0.121 C 
ATOM     88  C   UNL A   1      32.524  20.308  23.589  1.00  0.00     0.022 C 
BRANCH  85  89
ATOM     89  C   UNL A   1      34.956  23.175  23.903  1.00  0.00     0.274 C 
ATOM     90  O   UNL A   1      34.795  23.992  23.005  1.00  0.00    -0.267 OA
BRANCH  89  91
ATOM     91  C   UNL A   1      36.218  23.130  24.660  1.00  0.00     0.147 A 
ATOM     92  C   UNL A   1      37.113  22.077  24.726  1.00  0.00     0.127 A 
ATOM     93  N   UNL A   1      36.647  24.168  25.479  1.00  0.00    -0.223 NA
ATOM     94  N   UNL A   1      38.087  22.463  25.609  1.00  0.00    -0.306 N 
ATOM     95  C   UNL A   1      37.776  23.756  26.017  1.00  0.00     0.137 A 
ATOM     96  C   UNL A   1      39.194  21.755  26.075  1.00  0.00     0.093 A 
ATOM     97  C   UNL A   1      38.676  24.383  26.926  1.00  0.00     0.048 A 
ATOM     98  C   UNL A   1      40.028  22.344  26.951  1.00  0.00     0.018 A 
ATOM     99  C   UNL A   1      39.754  23.709  27.375  1.00  0.00     0.005 A 
ENDBRANCH  89  91
ENDBRANCH  85  89
ENDBRANCH  81  83
ENDBRANCH  80  81
ENDBRANCH  79  80
ENDBRANCH  78  79
ENDBRANCH  77  78
ENDBRANCH  76  77
ENDBRANCH  75  76
ENDBRANCH  74  75
ENDBRANCH   1  74
TORSDOF 25
ENDMDL
MODEL 2
REMARK VINA RESULT:      -9.2      2.373      3.642
REMARK SMILES O=C(OCCOCCOCCOCCOC(=O)[C@H]1CCCCN1C(=O)c1cn2ccccc2n1)c1ccc(-c2c3nc(c(-c4cccc(S(=O)(=O)[O-])c4F)c4ccc([nH]4)c(-c4cccc(S(=O)(=O)[O-])c4F)c4nc(c(-c5cccc(S(=O)(=O)[O-])c5F)c5ccc2[nH]5)C=C4)C=C3)cc1
REMARK SMILES IDX 8 1 7 2 6 3 5 4 4 5 3 6 2 7 1 8 35 9 36 10 97 11 37 12 96 13
REMARK SMILES IDX 38 14 39 15 40 16 90 17 41 18 95 19 89 20 91 21 42 22 94 23
REMARK SMILES IDX 88 24 87 25 43 27 75 28 55 29 74 30 56 31 59 32 73 33 92 34
REMARK SMILES IDX 57 35 58 36 72 38 93 39 60 40 44 41 45 42 53 43 46 44 48 45
REMARK SMILES IDX 54 46 47 47 49 48 50 49 51 50 52 51 76 52 77 53 85 54 78 55
REMARK SMILES IDX 80 56 86 57 79 58 81 59 82 60 83 61 84 62 61 63 62 64 70 65
REMARK SMILES IDX 63 66 65 67 71 68 64 69 66 70 67 71 68 72 69 73 9 74 10 75
REMARK SMILES IDX 11 76 12 77 13 78 14 79 15 80 16 81 17 82 18 83 19 84 23 85
REMARK SMILES IDX 20 86 22 87 21 88 24 89 25 90 26 91 27 92 34 93 28 94 33 95
REMARK SMILES IDX 29 96 32 97 30 98 31 99
REMARK H PARENT 91 26 59 37
REMARK Flexibility Score: inf
ROOT
ATOM      1  C   UNL A   1      31.091  28.445  23.066  1.00  0.00     0.188 C 
ENDROOT
BRANCH   1   2
ATOM      2  C   UNL A   1      31.869  29.318  24.040  1.00  0.00     0.188 C 
BRANCH   2   3
ATOM      3  O   UNL A   1      31.933  28.681  25.312  1.00  0.00    -0.376 OA
BRANCH   3   4
ATOM      4  C   UNL A   1      32.953  29.108  26.194  1.00  0.00     0.202 C 
BRANCH   4   5
ATOM      5  C   UNL A   1      32.466  30.241  27.096  1.00  0.00     0.261 C 
BRANCH   5   6
ATOM      6  O   UNL A   1      33.273  31.419  26.936  1.00  0.00    -0.460 OA
BRANCH   6   7
ATOM      7  C   UNL A   1      34.105  31.991  27.838  1.00  0.00     0.338 C 
ATOM      8  O   UNL A   1      33.764  33.062  28.338  1.00  0.00    -0.246 OA
BRANCH   7   9
ATOM      9  C   UNL A   1      35.361  31.348  28.346  1.00  0.00     0.060 A 
ATOM     10  C   UNL A   1      35.491  30.041  28.834  1.00  0.00     0.016 A 
ATOM     11  C   UNL A   1      36.529  32.125  28.241  1.00  0.00     0.016 A 
ATOM     12  C   UNL A   1      36.724  29.538  29.253  1.00  0.00     0.010 A 
ATOM     13  C   UNL A   1      37.766  31.635  28.665  1.00  0.00     0.010 A 
ATOM     14  C   UNL A   1      37.855  30.349  29.209  1.00  0.00    -0.014 A 
BRANCH  14  15
ATOM     15  C   UNL A   1      39.065  29.953  29.953  1.00  0.00     0.031 A 
ATOM     16  C   UNL A   1      39.917  28.878  29.348  1.00  0.00     0.074 A 
ATOM     17  C   UNL A   1      39.378  30.518  31.130  1.00  0.00     0.049 A 
ATOM     18  N   UNL A   1      40.949  28.256  29.846  1.00  0.00    -0.248 NA
ATOM     19  C   UNL A   1      39.548  28.444  27.989  1.00  0.00     0.031 C 
ATOM     20  C   UNL A   1      38.638  31.604  31.769  1.00  0.00     0.029 A 
ATOM     21  N   UNL A   1      40.387  30.228  32.013  1.00  0.00    -0.354 N 
ATOM     22  C   UNL A   1      41.319  27.323  28.886  1.00  0.00     0.074 A 
ATOM     23  C   UNL A   1      40.417  27.473  27.767  1.00  0.00     0.031 C 
ATOM     24  C   UNL A   1      39.190  31.858  32.967  1.00  0.00     0.029 A 
ATOM     25  C   UNL A   1      40.293  30.925  33.193  1.00  0.00     0.049 A 
ATOM     26  H   UNL A   1      41.105  29.583  31.820  1.00  0.00     0.167 HD
ATOM     27  C   UNL A   1      42.317  26.415  28.939  1.00  0.00     0.034 A 
ATOM     28  C   UNL A   1      40.993  30.788  34.337  1.00  0.00     0.034 A 
ATOM     29  C   UNL A   1      43.194  26.275  30.063  1.00  0.00     0.049 A 
ATOM     30  C   UNL A   1      42.092  29.755  34.387  1.00  0.00     0.074 A 
ATOM     31  C   UNL A   1      44.237  25.387  30.241  1.00  0.00     0.029 A 
ATOM     32  N   UNL A   1      43.113  27.045  31.216  1.00  0.00    -0.354 N 
ATOM     33  N   UNL A   1      42.481  28.922  33.449  1.00  0.00    -0.248 NA
ATOM     34  C   UNL A   1      42.860  29.653  35.635  1.00  0.00     0.031 C 
ATOM     35  C   UNL A   1      44.776  25.609  31.513  1.00  0.00     0.029 A 
ATOM     36  C   UNL A   1      44.085  26.652  32.115  1.00  0.00     0.049 A 
ATOM     37  H   UNL A   1      42.460  27.765  31.369  1.00  0.00     0.167 HD
ATOM     38  C   UNL A   1      43.556  28.218  33.980  1.00  0.00     0.074 A 
ATOM     39  C   UNL A   1      43.762  28.730  35.321  1.00  0.00     0.031 C 
ATOM     40  C   UNL A   1      44.297  27.230  33.419  1.00  0.00     0.034 A 
BRANCH  27  41
ATOM     41  C   UNL A   1      42.468  25.503  27.753  1.00  0.00     0.023 A 
ATOM     42  C   UNL A   1      43.112  25.969  26.588  1.00  0.00     0.012 A 
ATOM     43  C   UNL A   1      41.930  24.203  27.773  1.00  0.00     0.148 A 
ATOM     44  C   UNL A   1      43.175  25.172  25.445  1.00  0.00     0.002 A 
ATOM     45  C   UNL A   1      42.030  23.401  26.643  1.00  0.00     0.091 A 
ATOM     46  F   UNL A   1      41.288  23.792  28.875  1.00  0.00    -0.205 F 
ATOM     47  C   UNL A   1      42.640  23.886  25.475  1.00  0.00     0.022 A 
BRANCH  45  48
ATOM     48  S   UNL A   1      41.412  21.715  26.613  1.00  0.00     0.127 S 
ATOM     49  O   UNL A   1      41.062  21.504  28.016  1.00  0.00    -0.237 OA
ATOM     50  O   UNL A   1      40.264  21.819  25.708  1.00  0.00    -0.237 OA
ATOM     51  O   UNL A   1      42.506  20.903  26.102  1.00  0.00    -0.744 OA
ENDBRANCH  45  48
ENDBRANCH  27  41
BRANCH  28  52
ATOM     52  C   UNL A   1      40.672  31.655  35.506  1.00  0.00     0.023 A 
ATOM     53  C   UNL A   1      41.554  32.688  35.873  1.00  0.00     0.012 A 
ATOM     54  C   UNL A   1      39.459  31.507  36.210  1.00  0.00     0.148 A 
ATOM     55  C   UNL A   1      41.239  33.553  36.924  1.00  0.00     0.002 A 
ATOM     56  C   UNL A   1      39.127  32.404  37.220  1.00  0.00     0.091 A 
ATOM     57  F   UNL A   1      38.641  30.505  35.858  1.00  0.00    -0.205 F 
ATOM     58  C   UNL A   1      40.021  33.420  37.586  1.00  0.00     0.022 A 
BRANCH  56  59
ATOM     59  S   UNL A   1      37.525  32.391  38.034  1.00  0.00     0.127 S 
ATOM     60  O   UNL A   1      37.818  33.090  39.282  1.00  0.00    -0.237 OA
ATOM     61  O   UNL A   1      36.698  33.140  37.088  1.00  0.00    -0.237 OA
ATOM     62  O   UNL A   1      37.161  30.987  38.169  1.00  0.00    -0.744 OA
ENDBRANCH  56  59
ENDBRANCH  28  52
BRANCH  40  63
ATOM     63  C   UNL A   1      45.430  26.654  34.222  1.00  0.00     0.023 A 
ATOM     64  C   UNL A   1      46.670  27.321  34.255  1.00  0.00     0.012 A 
ATOM     65  C   UNL A   1      45.209  25.547  35.064  1.00  0.00     0.148 A 
ATOM     66  C   UNL A   1      47.678  26.887  35.115  1.00  0.00     0.002 A 
ATOM     67  C   UNL A   1      46.202  25.149  35.949  1.00  0.00     0.091 A 
ATOM     68  F   UNL A   1      44.024  24.923  34.998  1.00  0.00    -0.205 F 
ATOM     69  C   UNL A   1      47.439  25.814  35.972  1.00  0.00     0.022 A 
BRANCH  67  70
ATOM     70  S   UNL A   1      45.941  23.852  37.163  1.00  0.00     0.127 S 
ATOM     71  O   UNL A   1      45.334  22.800  36.349  1.00  0.00    -0.237 OA
ATOM     72  O   UNL A   1      47.305  23.567  37.611  1.00  0.00    -0.237 OA
ATOM     73  O   UNL A   1      45.077  24.424  38.187  1.00  0.00    -0.744 OA
ENDBRANCH  67  70
ENDBRANCH  40  63
ENDBRANCH  14  15
ENDBRANCH   7   9
ENDBRANCH   6   7
ENDBRANCH   5   6
ENDBRANCH   4   5
ENDBRANCH   3   4
ENDBRANCH   2   3
ENDBRANCH   1   2
BRANCH   1  74
ATOM     74  O   UNL A   1      29.680  28.480  23.236  1.00  0.00    -0.377 OA
BRANCH  74  75
ATOM     75  C   UNL A   1      28.997  27.237  23.372  1.00  0.00     0.188 C 
BRANCH  75  76
ATOM     76  C   UNL A   1      29.943  26.261  24.078  1.00  0.00     0.188 C 
BRANCH  76  77
ATOM     77  O   UNL A   1      30.049  24.968  23.486  1.00  0.00    -0.376 OA
BRANCH  77  78
ATOM     78  C   UNL A   1      31.356  24.493  23.180  1.00  0.00     0.202 C 
BRANCH  78  79
ATOM     79  C   UNL A   1      32.533  25.406  23.572  1.00  0.00     0.261 C 
BRANCH  79  80
ATOM     80  O   UNL A   1      33.822  25.023  23.030  1.00  0.00    -0.462 OA
BRANCH  80  81
ATOM     81  C   UNL A   1      33.974  23.709  22.731  1.00  0.00     0.328 C 
ATOM     82  O   UNL A   1      33.605  23.215  21.663  1.00  0.00    -0.250 OA
BRANCH  81  83
ATOM     83  C   UNL A   1      34.626  22.815  23.830  1.00  0.00     0.195 C 
ATOM     84  C   UNL A   1      36.157  23.017  23.770  1.00  0.00     0.037 C 
ATOM     85  N   UNL A   1      34.143  22.685  25.234  1.00  0.00    -0.323 N 
ATOM     86  C   UNL A   1      36.661  24.057  24.759  1.00  0.00     0.005 C 
ATOM     87  C   UNL A   1      34.807  23.430  26.314  1.00  0.00     0.121 C 
ATOM     88  C   UNL A   1      36.304  23.613  26.161  1.00  0.00     0.022 C 
BRANCH  85  89
ATOM     89  C   UNL A   1      33.042  21.846  25.473  1.00  0.00     0.274 C 
ATOM     90  O   UNL A   1      31.958  22.275  25.849  1.00  0.00    -0.267 OA
BRANCH  89  91
ATOM     91  C   UNL A   1      33.232  20.410  25.208  1.00  0.00     0.147 A 
ATOM     92  C   UNL A   1      34.432  19.755  24.995  1.00  0.00     0.127 A 
ATOM     93  N   UNL A   1      32.175  19.518  25.081  1.00  0.00    -0.223 NA
ATOM     94  N   UNL A   1      34.106  18.453  24.713  1.00  0.00    -0.306 N 
ATOM     95  C   UNL A   1      32.722  18.352  24.808  1.00  0.00     0.137 A 
ATOM     96  C   UNL A   1      34.934  17.386  24.371  1.00  0.00     0.093 A 
ATOM     97  C   UNL A   1      32.149  17.067  24.581  1.00  0.00     0.048 A 
ATOM     98  C   UNL A   1      34.386  16.179  24.135  1.00  0.00     0.018 A 
ATOM     99  C   UNL A   1      32.944  16.026  24.259  1.00  0.00     0.005 A 
ENDBRANCH  89  91
ENDBRANCH  85  89
ENDBRANCH  81  83
ENDBRANCH  80  81
ENDBRANCH  79  80
ENDBRANCH  78  79
ENDBRANCH  77  78
ENDBRANCH  76  77
ENDBRANCH  75  76
ENDBRANCH  74  75
ENDBRANCH   1  74
TORSDOF 25
ENDMDL
MODEL 3
REMARK VINA RESULT:      -8.8      2.147      3.895
REMARK SMILES O=C(OCCOCCOCCOCCOC(=O)[C@H]1CCCCN1C(=O)c1cn2ccccc2n1)c1ccc(-c2c3nc(c(-c4cccc(S(=O)(=O)[O-])c4F)c4ccc([nH]4)c(-c4cccc(S(=O)(=O)[O-])c4F)c4nc(c(-c5cccc(S(=O)(=O)[O-])c5F)c5ccc2[nH]5)C=C4)C=C3)cc1
REMARK SMILES IDX 8 1 7 2 6 3 5 4 4 5 3 6 2 7 1 8 35 9 36 10 97 11 37 12 96 13
REMARK SMILES IDX 38 14 39 15 40 16 90 17 41 18 95 19 89 20 91 21 42 22 94 23
REMARK SMILES IDX 88 24 87 25 43 27 75 28 55 29 74 30 56 31 59 32 73 33 92 34
REMARK SMILES IDX 57 35 58 36 72 38 93 39 60 40 44 41 45 42 53 43 46 44 48 45
REMARK SMILES IDX 54 46 47 47 49 48 50 49 51 50 52 51 76 52 77 53 85 54 78 55
REMARK SMILES IDX 80 56 86 57 79 58 81 59 82 60 83 61 84 62 61 63 62 64 70 65
REMARK SMILES IDX 63 66 65 67 71 68 64 69 66 70 67 71 68 72 69 73 9 74 10 75
REMARK SMILES IDX 11 76 12 77 13 78 14 79 15 80 16 81 17 82 18 83 19 84 23 85
REMARK SMILES IDX 20 86 22 87 21 88 24 89 25 90 26 91 27 92 34 93 28 94 33 95
REMARK SMILES IDX 29 96 32 97 30 98 31 99
REMARK H PARENT 91 26 59 37
REMARK Flexibility Score: inf
ROOT
ATOM      1  C   UNL A   1      33.274  28.779  27.492  1.00  0.00     0.188 C 
ENDROOT
BRANCH   1   2
ATOM      2  C   UNL A   1      34.335  29.813  27.140  1.00  0.00     0.188 C 
BRANCH   2   3
ATOM      3  O   UNL A   1      33.841  31.120  27.412  1.00  0.00    -0.376 OA
BRANCH   3   4
ATOM      4  C   UNL A   1      32.529  31.416  26.972  1.00  0.00     0.202 C 
BRANCH   4   5
ATOM      5  C   UNL A   1      32.237  32.912  27.075  1.00  0.00     0.261 C 
BRANCH   5   6
ATOM      6  O   UNL A   1      32.464  33.397  28.409  1.00  0.00    -0.460 OA
BRANCH   6   7
ATOM      7  C   UNL A   1      33.324  34.362  28.812  1.00  0.00     0.338 C 
ATOM      8  O   UNL A   1      32.973  35.535  28.688  1.00  0.00    -0.246 OA
BRANCH   7   9
ATOM      9  C   UNL A   1      34.627  34.088  29.503  1.00  0.00     0.060 A 
ATOM     10  C   UNL A   1      35.901  34.475  29.066  1.00  0.00     0.016 A 
ATOM     11  C   UNL A   1      34.532  33.445  30.751  1.00  0.00     0.016 A 
ATOM     12  C   UNL A   1      37.046  34.190  29.812  1.00  0.00     0.010 A 
ATOM     13  C   UNL A   1      35.672  33.147  31.500  1.00  0.00     0.010 A 
ATOM     14  C   UNL A   1      36.936  33.488  31.010  1.00  0.00    -0.014 A 
BRANCH  14  15
ATOM     15  C   UNL A   1      38.141  32.894  31.619  1.00  0.00     0.031 A 
ATOM     16  C   UNL A   1      38.759  31.726  30.909  1.00  0.00     0.074 A 
ATOM     17  C   UNL A   1      38.649  33.367  32.768  1.00  0.00     0.049 A 
ATOM     18  N   UNL A   1      39.730  30.944  31.287  1.00  0.00    -0.248 NA
ATOM     19  C   UNL A   1      38.197  31.397  29.587  1.00  0.00     0.031 C 
ATOM     20  C   UNL A   1      38.146  34.527  33.499  1.00  0.00     0.029 A 
ATOM     21  N   UNL A   1      39.685  32.902  33.537  1.00  0.00    -0.354 N 
ATOM     22  C   UNL A   1      39.860  30.000  30.277  1.00  0.00     0.074 A 
ATOM     23  C   UNL A   1      38.885  30.318  29.259  1.00  0.00     0.031 C 
ATOM     24  C   UNL A   1      38.844  34.657  34.639  1.00  0.00     0.029 A 
ATOM     25  C   UNL A   1      39.813  33.565  34.733  1.00  0.00     0.049 A 
ATOM     26  H   UNL A   1      40.276  32.166  33.259  1.00  0.00     0.167 HD
ATOM     27  C   UNL A   1      40.712  28.953  30.210  1.00  0.00     0.034 A 
ATOM     28  C   UNL A   1      40.594  33.288  35.797  1.00  0.00     0.034 A 
ATOM     29  C   UNL A   1      41.665  28.648  31.236  1.00  0.00     0.049 A 
ATOM     30  C   UNL A   1      41.525  32.104  35.714  1.00  0.00     0.074 A 
ATOM     31  C   UNL A   1      42.576  27.612  31.290  1.00  0.00     0.029 A 
ATOM     32  N   UNL A   1      41.813  29.383  32.405  1.00  0.00    -0.354 N 
ATOM     33  N   UNL A   1      41.692  31.255  34.726  1.00  0.00    -0.248 NA
ATOM     34  C   UNL A   1      42.389  31.849  36.875  1.00  0.00     0.031 C 
ATOM     35  C   UNL A   1      43.264  27.709  32.504  1.00  0.00     0.029 A 
ATOM     36  C   UNL A   1      42.799  28.821  33.193  1.00  0.00     0.049 A 
ATOM     37  H   UNL A   1      41.293  30.185  32.638  1.00  0.00     0.167 HD
ATOM     38  C   UNL A   1      42.696  30.384  35.131  1.00  0.00     0.074 A 
ATOM     39  C   UNL A   1      43.108  30.815  36.453  1.00  0.00     0.031 C 
ATOM     40  C   UNL A   1      43.222  29.318  34.479  1.00  0.00     0.034 A 
BRANCH  27  41
ATOM     41  C   UNL A   1      40.608  28.070  28.998  1.00  0.00     0.023 A 
ATOM     42  C   UNL A   1      39.578  27.111  28.915  1.00  0.00     0.012 A 
ATOM     43  C   UNL A   1      41.558  28.155  27.963  1.00  0.00     0.148 A 
ATOM     44  C   UNL A   1      39.524  26.218  27.846  1.00  0.00     0.002 A 
ATOM     45  C   UNL A   1      41.475  27.287  26.881  1.00  0.00     0.091 A 
ATOM     46  F   UNL A   1      42.552  29.046  28.077  1.00  0.00    -0.205 F 
ATOM     47  C   UNL A   1      40.468  26.311  26.826  1.00  0.00     0.022 A 
BRANCH  45  48
ATOM     48  S   UNL A   1      42.621  27.372  25.502  1.00  0.00     0.127 S 
ATOM     49  O   UNL A   1      42.100  28.515  24.755  1.00  0.00    -0.237 OA
ATOM     50  O   UNL A   1      43.900  27.615  26.173  1.00  0.00    -0.237 OA
ATOM     51  O   UNL A   1      42.531  26.082  24.834  1.00  0.00    -0.744 OA
ENDBRANCH  45  48
ENDBRANCH  27  41
BRANCH  28  52
ATOM     52  C   UNL A   1      40.522  34.153  37.009  1.00  0.00     0.023 A 
ATOM     53  C   UNL A   1      39.458  33.999  37.916  1.00  0.00     0.012 A 
ATOM     54  C   UNL A   1      41.545  35.079  37.303  1.00  0.00     0.148 A 
ATOM     55  C   UNL A   1      39.408  34.754  39.091  1.00  0.00     0.002 A 
ATOM     56  C   UNL A   1      41.517  35.788  38.498  1.00  0.00     0.091 A 
ATOM     57  F   UNL A   1      42.539  35.226  36.416  1.00  0.00    -0.205 F 
ATOM     58  C   UNL A   1      40.444  35.636  39.388  1.00  0.00     0.022 A 
BRANCH  56  59
ATOM     59  S   UNL A   1      42.873  36.845  39.026  1.00  0.00     0.127 S 
ATOM     60  O   UNL A   1      43.955  35.880  39.198  1.00  0.00    -0.237 OA
ATOM     61  O   UNL A   1      43.022  37.741  37.879  1.00  0.00    -0.237 OA
ATOM     62  O   UNL A   1      42.413  37.500  40.243  1.00  0.00    -0.744 OA
ENDBRANCH  56  59
ENDBRANCH  28  52
BRANCH  40  63
ATOM     63  C   UNL A   1      44.331  28.555  35.151  1.00  0.00     0.023 A 
ATOM     64  C   UNL A   1      45.668  28.943  34.945  1.00  0.00     0.012 A 
ATOM     65  C   UNL A   1      44.029  27.564  36.106  1.00  0.00     0.148 A 
ATOM     66  C   UNL A   1      46.693  28.348  35.680  1.00  0.00     0.002 A 
ATOM     67  C   UNL A   1      45.051  27.009  36.864  1.00  0.00     0.091 A 
ATOM     68  F   UNL A   1      42.747  27.204  36.268  1.00  0.00    -0.205 F 
ATOM     69  C   UNL A   1      46.383  27.395  36.649  1.00  0.00     0.022 A 
BRANCH  67  70
ATOM     70  S   UNL A   1      44.733  25.860  38.207  1.00  0.00     0.127 S 
ATOM     71  O   UNL A   1      46.082  25.618  38.717  1.00  0.00    -0.237 OA
ATOM     72  O   UNL A   1      43.876  26.648  39.094  1.00  0.00    -0.237 OA
ATOM     73  O   UNL A   1      44.079  24.706  37.604  1.00  0.00    -0.744 OA
ENDBRANCH  67  70
ENDBRANCH  40  63
ENDBRANCH  14  15
ENDBRANCH   7   9
ENDBRANCH   6   7
ENDBRANCH   5   6
ENDBRANCH   4   5
ENDBRANCH   3   4
ENDBRANCH   2   3
ENDBRANCH   1   2
BRANCH   1  74
ATOM     74  O   UNL A   1      32.859  27.963  26.404  1.00  0.00    -0.377 OA
BRANCH  74  75
ATOM     75  C   UNL A   1      31.696  28.360  25.683  1.00  0.00     0.188 C 
BRANCH  75  76
ATOM     76  C   UNL A   1      31.972  28.134  24.193  1.00  0.00     0.188 C 
BRANCH  76  77
ATOM     77  O   UNL A   1      30.927  27.496  23.463  1.00  0.00    -0.376 OA
BRANCH  77  78
ATOM     78  C   UNL A   1      29.876  26.896  24.212  1.00  0.00     0.202 C 
BRANCH  78  79
ATOM     79  C   UNL A   1      30.029  25.401  24.544  1.00  0.00     0.261 C 
BRANCH  79  80
ATOM     80  O   UNL A   1      31.367  24.863  24.386  1.00  0.00    -0.462 OA
BRANCH  80  81
ATOM     81  C   UNL A   1      31.585  23.643  24.934  1.00  0.00     0.328 C 
ATOM     82  O   UNL A   1      30.839  23.142  25.778  1.00  0.00    -0.250 OA
BRANCH  81  83
ATOM     83  C   UNL A   1      32.867  22.888  24.468  1.00  0.00     0.195 C 
ATOM     84  C   UNL A   1      33.235  23.393  23.054  1.00  0.00     0.037 C 
ATOM     85  N   UNL A   1      34.081  22.653  25.300  1.00  0.00    -0.323 N 
ATOM     86  C   UNL A   1      34.273  24.504  23.068  1.00  0.00     0.005 C 
ATOM     87  C   UNL A   1      35.266  23.507  25.134  1.00  0.00     0.121 C 
ATOM     88  C   UNL A   1      35.536  23.987  23.721  1.00  0.00     0.022 C 
BRANCH  85  89
ATOM     89  C   UNL A   1      34.038  21.609  26.240  1.00  0.00     0.274 C 
ATOM     90  O   UNL A   1      34.139  21.804  27.444  1.00  0.00    -0.267 OA
BRANCH  89  91
ATOM     91  C   UNL A   1      33.821  20.252  25.713  1.00  0.00     0.147 A 
ATOM     92  C   UNL A   1      32.825  19.365  26.083  1.00  0.00     0.127 A 
ATOM     93  N   UNL A   1      34.663  19.658  24.781  1.00  0.00    -0.223 NA
ATOM     94  N   UNL A   1      33.072  18.209  25.388  1.00  0.00    -0.306 N 
ATOM     95  C   UNL A   1      34.184  18.447  24.587  1.00  0.00     0.137 A 
ATOM     96  C   UNL A   1      32.403  16.987  25.433  1.00  0.00     0.093 A 
ATOM     97  C   UNL A   1      34.614  17.382  23.743  1.00  0.00     0.048 A 
ATOM     98  C   UNL A   1      32.827  15.978  24.651  1.00  0.00     0.018 A 
ATOM     99  C   UNL A   1      33.967  16.200  23.772  1.00  0.00     0.005 A 
ENDBRANCH  89  91
ENDBRANCH  85  89
ENDBRANCH  81  83
ENDBRANCH  80  81
ENDBRANCH  79  80
ENDBRANCH  78  79
ENDBRANCH  77  78
ENDBRANCH  76  77
ENDBRANCH  75  76
ENDBRANCH  74  75
ENDBRANCH   1  74
TORSDOF 25
ENDMDL
