MODEL 1
REMARK VINA RESULT:     -10.4      0.000      0.000
REMARK SMILES O=C(OCCOCCOCCOCCOC(=O)[C@]12C[NH2+]C[C@H]1CN(C(=O)c1ccccc1-n1cncn1)C2)c1ccc(-c2c3nc(c(-c4cccc(S(=O)(=O)[O-])c4F)c4ccc([nH]4)c(-c4cccc(S(=O)(=O)[O-])c4F)c4nc(c(-c5cccc(S(=O)(=O)[O-])c5F)c5ccc2[nH]5)C=C4)C=C3)cc1
REMARK SMILES IDX 9 1 8 2 7 3 6 4 5 5 4 6 3 7 2 8 1 9 39 10 40 11 101 12 41 13
REMARK SMILES IDX 100 14 42 15 43 16 44 17 94 18 45 19 99 20 93 21 95 22 46 23
REMARK SMILES IDX 98 24 92 25 91 26 47 28 79 29 59 30 78 31 60 32 63 33 77 34
REMARK SMILES IDX 96 35 61 36 62 37 76 39 97 40 64 41 48 42 49 43 57 44 50 45
REMARK SMILES IDX 52 46 58 47 51 48 53 49 54 50 55 51 56 52 80 53 81 54 89 55
REMARK SMILES IDX 82 56 84 57 90 58 83 59 85 60 86 61 87 62 88 63 65 64 66 65
REMARK SMILES IDX 74 66 67 67 69 68 75 69 68 70 70 71 71 72 72 73 73 74 10 75
REMARK SMILES IDX 11 76 12 77 13 78 14 79 15 80 16 81 17 82 18 83 19 84 22 85
REMARK SMILES IDX 38 86 20 87 21 88 23 89 24 90 25 93 26 94 27 95 28 96 32 97
REMARK SMILES IDX 29 98 31 99 30 100 33 101 34 102 37 103 35 104 36 105
REMARK H PARENT 95 27 63 38 20 91 20 92
REMARK Flexibility Score: inf
ROOT
ATOM      1  O   UNL A   1      31.756  29.963  27.251  1.00  0.00    -0.377 OA
ENDROOT
BRANCH   1   2
ATOM      2  C   UNL A   1      31.788  31.080  26.387  1.00  0.00     0.188 C 
BRANCH   2   3
ATOM      3  C   UNL A   1      31.778  32.510  26.957  1.00  0.00     0.188 C 
BRANCH   3   4
ATOM      4  O   UNL A   1      32.891  32.888  27.750  1.00  0.00    -0.376 OA
BRANCH   4   5
ATOM      5  C   UNL A   1      33.265  34.255  27.849  1.00  0.00     0.202 C 
BRANCH   5   6
ATOM      6  C   UNL A   1      33.837  34.797  29.172  1.00  0.00     0.261 C 
BRANCH   6   7
ATOM      7  O   UNL A   1      33.007  34.578  30.314  1.00  0.00    -0.460 OA
BRANCH   7   8
ATOM      8  C   UNL A   1      33.349  35.213  31.443  1.00  0.00     0.338 C 
ATOM      9  O   UNL A   1      32.969  36.332  31.773  1.00  0.00    -0.246 OA
BRANCH   8  10
ATOM     10  C   UNL A   1      34.393  34.568  32.213  1.00  0.00     0.060 A 
ATOM     11  C   UNL A   1      35.535  35.315  32.485  1.00  0.00     0.016 A 
ATOM     12  C   UNL A   1      34.330  33.169  32.333  1.00  0.00     0.016 A 
ATOM     13  C   UNL A   1      36.698  34.632  32.652  1.00  0.00     0.010 A 
ATOM     14  C   UNL A   1      35.502  32.484  32.507  1.00  0.00     0.010 A 
ATOM     15  C   UNL A   1      36.665  33.238  32.534  1.00  0.00    -0.014 A 
BRANCH  15  16
ATOM     16  C   UNL A   1      37.954  32.621  32.416  1.00  0.00     0.031 A 
ATOM     17  C   UNL A   1      38.718  32.754  33.663  1.00  0.00     0.074 A 
ATOM     18  C   UNL A   1      38.367  32.127  31.240  1.00  0.00     0.049 A 
ATOM     19  N   UNL A   1      39.630  33.629  33.922  1.00  0.00    -0.248 NA
ATOM     20  C   UNL A   1      38.177  32.062  34.839  1.00  0.00     0.031 C 
ATOM     21  C   UNL A   1      37.570  31.767  30.064  1.00  0.00     0.029 A 
ATOM     22  N   UNL A   1      39.609  31.710  30.913  1.00  0.00    -0.354 N 
ATOM     23  C   UNL A   1      39.960  33.403  35.253  1.00  0.00     0.074 A 
ATOM     24  C   UNL A   1      38.858  32.670  35.808  1.00  0.00     0.031 C 
ATOM     25  C   UNL A   1      38.298  30.922  29.297  1.00  0.00     0.029 A 
ATOM     26  C   UNL A   1      39.632  30.809  29.862  1.00  0.00     0.049 A 
ATOM     27  H   UNL A   1      40.421  32.017  31.378  1.00  0.00     0.167 HD
ATOM     28  C   UNL A   1      41.249  33.534  35.664  1.00  0.00     0.034 A 
ATOM     29  C   UNL A   1      40.646  29.949  29.607  1.00  0.00     0.034 A 
ATOM     30  C   UNL A   1      41.999  34.349  34.731  1.00  0.00     0.049 A 
ATOM     31  C   UNL A   1      41.852  30.470  30.311  1.00  0.00     0.074 A 
ATOM     32  C   UNL A   1      41.883  35.641  34.259  1.00  0.00     0.029 A 
ATOM     33  N   UNL A   1      42.800  33.684  33.829  1.00  0.00    -0.354 N 
ATOM     34  N   UNL A   1      42.443  31.589  29.992  1.00  0.00    -0.248 NA
ATOM     35  C   UNL A   1      42.112  29.999  31.666  1.00  0.00     0.031 C 
ATOM     36  C   UNL A   1      42.256  35.572  32.884  1.00  0.00     0.029 A 
ATOM     37  C   UNL A   1      42.640  34.260  32.599  1.00  0.00     0.049 A 
ATOM     38  H   UNL A   1      43.389  32.922  34.036  1.00  0.00     0.167 HD
ATOM     39  C   UNL A   1      42.760  32.182  31.210  1.00  0.00     0.074 A 
ATOM     40  C   UNL A   1      42.636  31.109  32.196  1.00  0.00     0.031 C 
ATOM     41  C   UNL A   1      42.788  33.542  31.348  1.00  0.00     0.034 A 
BRANCH  28  42
ATOM     42  C   UNL A   1      41.936  32.541  36.589  1.00  0.00     0.023 A 
ATOM     43  C   UNL A   1      42.712  33.095  37.629  1.00  0.00     0.012 A 
ATOM     44  C   UNL A   1      42.126  31.162  36.327  1.00  0.00     0.148 A 
ATOM     45  C   UNL A   1      43.721  32.363  38.263  1.00  0.00     0.002 A 
ATOM     46  C   UNL A   1      43.107  30.427  36.979  1.00  0.00     0.091 A 
ATOM     47  F   UNL A   1      41.420  30.534  35.392  1.00  0.00    -0.205 F 
ATOM     48  C   UNL A   1      43.934  31.033  37.922  1.00  0.00     0.022 A 
BRANCH  46  49
ATOM     49  S   UNL A   1      43.413  28.699  36.574  1.00  0.00     0.127 S 
ATOM     50  O   UNL A   1      44.350  28.319  37.628  1.00  0.00    -0.237 OA
ATOM     51  O   UNL A   1      42.071  28.129  36.696  1.00  0.00    -0.237 OA
ATOM     52  O   UNL A   1      43.949  28.687  35.219  1.00  0.00    -0.744 OA
ENDBRANCH  46  49
ENDBRANCH  28  42
BRANCH  29  53
ATOM     53  C   UNL A   1      40.553  28.558  29.108  1.00  0.00     0.023 A 
ATOM     54  C   UNL A   1      39.566  27.703  29.631  1.00  0.00     0.012 A 
ATOM     55  C   UNL A   1      41.250  28.143  27.949  1.00  0.00     0.148 A 
ATOM     56  C   UNL A   1      39.265  26.485  29.008  1.00  0.00     0.002 A 
ATOM     57  C   UNL A   1      40.959  26.926  27.342  1.00  0.00     0.091 A 
ATOM     58  F   UNL A   1      42.132  28.979  27.386  1.00  0.00    -0.205 F 
ATOM     59  C   UNL A   1      39.957  26.099  27.862  1.00  0.00     0.022 A 
BRANCH  57  60
ATOM     60  S   UNL A   1      41.801  26.372  25.852  1.00  0.00     0.127 S 
ATOM     61  O   UNL A   1      43.026  25.785  26.397  1.00  0.00    -0.237 OA
ATOM     62  O   UNL A   1      40.850  25.407  25.308  1.00  0.00    -0.237 OA
ATOM     63  O   UNL A   1      42.019  27.568  25.048  1.00  0.00    -0.744 OA
ENDBRANCH  57  60
ENDBRANCH  29  53
BRANCH  41  64
ATOM     64  C   UNL A   1      42.724  34.381  30.095  1.00  0.00     0.023 A 
ATOM     65  C   UNL A   1      41.501  34.793  29.523  1.00  0.00     0.012 A 
ATOM     66  C   UNL A   1      43.922  34.917  29.595  1.00  0.00     0.148 A 
ATOM     67  C   UNL A   1      41.478  35.704  28.462  1.00  0.00     0.002 A 
ATOM     68  C   UNL A   1      43.892  35.858  28.574  1.00  0.00     0.091 A 
ATOM     69  F   UNL A   1      45.075  34.520  30.155  1.00  0.00    -0.205 F 
ATOM     70  C   UNL A   1      42.673  36.246  27.996  1.00  0.00     0.022 A 
BRANCH  68  71
ATOM     71  S   UNL A   1      45.384  36.691  28.030  1.00  0.00     0.127 S 
ATOM     72  O   UNL A   1      46.188  36.708  29.250  1.00  0.00    -0.237 OA
ATOM     73  O   UNL A   1      45.881  35.799  26.982  1.00  0.00    -0.237 OA
ATOM     74  O   UNL A   1      44.956  37.997  27.542  1.00  0.00    -0.744 OA
ENDBRANCH  68  71
ENDBRANCH  41  64
ENDBRANCH  15  16
ENDBRANCH   8  10
ENDBRANCH   7   8
ENDBRANCH   6   7
ENDBRANCH   5   6
ENDBRANCH   4   5
ENDBRANCH   3   4
ENDBRANCH   2   3
ENDBRANCH   1   2
BRANCH   1  75
ATOM     75  C   UNL A   1      32.814  29.034  27.203  1.00  0.00     0.188 C 
BRANCH  75  76
ATOM     76  C   UNL A   1      33.958  29.209  26.186  1.00  0.00     0.188 C 
BRANCH  76  77
ATOM     77  O   UNL A   1      34.134  28.171  25.251  1.00  0.00    -0.376 OA
BRANCH  77  78
ATOM     78  C   UNL A   1      33.731  28.328  23.897  1.00  0.00     0.202 C 
BRANCH  78  79
ATOM     79  C   UNL A   1      32.262  28.418  23.388  1.00  0.00     0.261 C 
BRANCH  79  80
ATOM     80  O   UNL A   1      31.737  27.177  22.921  1.00  0.00    -0.463 OA
BRANCH  80  81
ATOM     81  C   UNL A   1      32.405  25.972  22.926  1.00  0.00     0.320 C 
ATOM     82  O   UNL A   1      33.200  25.592  22.088  1.00  0.00    -0.251 OA
BRANCH  81  83
ATOM     83  C   UNL A   1      31.930  25.257  24.199  1.00  0.00     0.144 C 
ATOM     84  C   UNL A   1      30.606  24.585  23.800  1.00  0.00     0.281 C 
ATOM     85  C   UNL A   1      31.528  25.775  25.589  1.00  0.00     0.088 C 
ATOM     86  C   UNL A   1      33.267  24.592  24.621  1.00  0.00     0.145 C 
ATOM     87  N   UNL A   1      29.542  25.442  24.335  1.00  0.00    -0.345 N 
ATOM     88  C   UNL A   1      30.016  25.957  25.608  1.00  0.00     0.267 C 
ATOM     89  C   UNL A   1      31.915  24.567  26.511  1.00  0.00     0.130 C 
ATOM     90  N   UNL A   1      33.093  23.983  25.906  1.00  0.00    -0.337 N 
ATOM     91  H   UNL A   1      28.689  24.898  24.473  1.00  0.00     0.346 HD
ATOM     92  H   UNL A   1      29.324  26.202  23.691  1.00  0.00     0.346 HD
BRANCH  90  93
ATOM     93  C   UNL A   1      33.810  22.946  26.502  1.00  0.00     0.256 C 
ATOM     94  O   UNL A   1      33.360  22.386  27.504  1.00  0.00    -0.269 OA
BRANCH  93  95
ATOM     95  C   UNL A   1      35.149  22.467  25.984  1.00  0.00     0.065 A 
ATOM     96  C   UNL A   1      36.229  23.355  26.122  1.00  0.00     0.016 A 
ATOM     97  C   UNL A   1      35.419  21.251  25.329  1.00  0.00     0.079 A 
ATOM     98  C   UNL A   1      37.515  23.016  25.672  1.00  0.00     0.001 A 
ATOM     99  C   UNL A   1      36.740  20.853  25.024  1.00  0.00     0.029 A 
ATOM    100  C   UNL A   1      37.787  21.748  25.184  1.00  0.00     0.002 A 
BRANCH  97 101
ATOM    101  N   UNL A   1      34.399  20.459  24.785  1.00  0.00    -0.220 N 
ATOM    102  C   UNL A   1      33.213  20.867  24.222  1.00  0.00     0.225 A 
ATOM    103  N   UNL A   1      34.499  19.110  24.693  1.00  0.00    -0.155 NA
ATOM    104  N   UNL A   1      32.485  19.825  23.892  1.00  0.00    -0.223 NA
ATOM    105  C   UNL A   1      33.302  18.780  24.208  1.00  0.00     0.246 A 
ENDBRANCH  97 101
ENDBRANCH  93  95
ENDBRANCH  90  93
ENDBRANCH  81  83
ENDBRANCH  80  81
ENDBRANCH  79  80
ENDBRANCH  78  79
ENDBRANCH  77  78
ENDBRANCH  76  77
ENDBRANCH  75  76
ENDBRANCH   1  75
TORSDOF 26
ENDMDL
MODEL 2
REMARK VINA RESULT:      -9.6      3.839      8.479
REMARK SMILES O=C(OCCOCCOCCOCCOC(=O)[C@]12C[NH2+]C[C@H]1CN(C(=O)c1ccccc1-n1cncn1)C2)c1ccc(-c2c3nc(c(-c4cccc(S(=O)(=O)[O-])c4F)c4ccc([nH]4)c(-c4cccc(S(=O)(=O)[O-])c4F)c4nc(c(-c5cccc(S(=O)(=O)[O-])c5F)c5ccc2[nH]5)C=C4)C=C3)cc1
REMARK SMILES IDX 9 1 8 2 7 3 6 4 5 5 4 6 3 7 2 8 1 9 39 10 40 11 101 12 41 13
REMARK SMILES IDX 100 14 42 15 43 16 44 17 94 18 45 19 99 20 93 21 95 22 46 23
REMARK SMILES IDX 98 24 92 25 91 26 47 28 79 29 59 30 78 31 60 32 63 33 77 34
REMARK SMILES IDX 96 35 61 36 62 37 76 39 97 40 64 41 48 42 49 43 57 44 50 45
REMARK SMILES IDX 52 46 58 47 51 48 53 49 54 50 55 51 56 52 80 53 81 54 89 55
REMARK SMILES IDX 82 56 84 57 90 58 83 59 85 60 86 61 87 62 88 63 65 64 66 65
REMARK SMILES IDX 74 66 67 67 69 68 75 69 68 70 70 71 71 72 72 73 73 74 10 75
REMARK SMILES IDX 11 76 12 77 13 78 14 79 15 80 16 81 17 82 18 83 19 84 22 85
REMARK SMILES IDX 38 86 20 87 21 88 23 89 24 90 25 93 26 94 27 95 28 96 32 97
REMARK SMILES IDX 29 98 31 99 30 100 33 101 34 102 37 103 35 104 36 105
REMARK H PARENT 95 27 63 38 20 91 20 92
REMARK Flexibility Score: inf
ROOT
ATOM      1  O   UNL A   1      31.412  28.807  26.462  1.00  0.00    -0.377 OA
ENDROOT
BRANCH   1   2
ATOM      2  C   UNL A   1      31.668  30.006  25.761  1.00  0.00     0.188 C 
BRANCH   2   3
ATOM      3  C   UNL A   1      32.237  31.233  26.495  1.00  0.00     0.188 C 
BRANCH   3   4
ATOM      4  O   UNL A   1      33.154  30.979  27.546  1.00  0.00    -0.376 OA
BRANCH   4   5
ATOM      5  C   UNL A   1      33.998  32.017  28.024  1.00  0.00     0.202 C 
BRANCH   5   6
ATOM      6  C   UNL A   1      35.316  31.664  28.739  1.00  0.00     0.261 C 
BRANCH   6   7
ATOM      7  O   UNL A   1      35.589  30.265  28.827  1.00  0.00    -0.460 OA
BRANCH   7   8
ATOM      8  C   UNL A   1      36.493  29.880  29.738  1.00  0.00     0.338 C 
ATOM      9  O   UNL A   1      36.533  30.258  30.905  1.00  0.00    -0.246 OA
BRANCH   8  10
ATOM     10  C   UNL A   1      37.595  29.101  29.213  1.00  0.00     0.060 A 
ATOM     11  C   UNL A   1      38.207  28.201  30.080  1.00  0.00     0.016 A 
ATOM     12  C   UNL A   1      38.174  29.539  28.009  1.00  0.00     0.016 A 
ATOM     13  C   UNL A   1      39.517  27.917  29.858  1.00  0.00     0.010 A 
ATOM     14  C   UNL A   1      39.492  29.247  27.785  1.00  0.00     0.010 A 
ATOM     15  C   UNL A   1      40.154  28.549  28.783  1.00  0.00    -0.014 A 
BRANCH  15  16
ATOM     16  C   UNL A   1      41.584  28.444  28.795  1.00  0.00     0.031 A 
ATOM     17  C   UNL A   1      42.039  27.354  27.924  1.00  0.00     0.074 A 
ATOM     18  C   UNL A   1      42.316  29.204  29.623  1.00  0.00     0.049 A 
ATOM     19  N   UNL A   1      42.372  26.161  28.288  1.00  0.00    -0.248 NA
ATOM     20  C   UNL A   1      41.776  27.507  26.489  1.00  0.00     0.031 C 
ATOM     21  C   UNL A   1      41.935  30.439  30.314  1.00  0.00     0.029 A 
ATOM     22  N   UNL A   1      43.631  29.084  29.903  1.00  0.00    -0.354 N 
ATOM     23  C   UNL A   1      42.617  25.490  27.097  1.00  0.00     0.074 A 
ATOM     24  C   UNL A   1      41.959  26.254  26.076  1.00  0.00     0.031 C 
ATOM     25  C   UNL A   1      43.063  31.093  30.673  1.00  0.00     0.029 A 
ATOM     26  C   UNL A   1      44.210  30.257  30.358  1.00  0.00     0.049 A 
ATOM     27  H   UNL A   1      44.131  28.243  29.794  1.00  0.00     0.167 HD
ATOM     28  C   UNL A   1      43.623  24.577  27.026  1.00  0.00     0.034 A 
ATOM     29  C   UNL A   1      45.536  30.526  30.320  1.00  0.00     0.034 A 
ATOM     30  C   UNL A   1      43.979  24.112  28.351  1.00  0.00     0.049 A 
ATOM     31  C   UNL A   1      46.245  29.224  30.179  1.00  0.00     0.074 A 
ATOM     32  C   UNL A   1      43.302  23.478  29.373  1.00  0.00     0.029 A 
ATOM     33  N   UNL A   1      45.099  24.671  28.925  1.00  0.00    -0.354 N 
ATOM     34  N   UNL A   1      46.246  28.302  31.103  1.00  0.00    -0.248 NA
ATOM     35  C   UNL A   1      46.547  28.749  28.833  1.00  0.00     0.031 C 
ATOM     36  C   UNL A   1      43.814  24.052  30.574  1.00  0.00     0.029 A 
ATOM     37  C   UNL A   1      44.818  24.960  30.233  1.00  0.00     0.049 A 
ATOM     38  H   UNL A   1      45.957  24.836  28.471  1.00  0.00     0.167 HD
ATOM     39  C   UNL A   1      46.094  27.105  30.410  1.00  0.00     0.074 A 
ATOM     40  C   UNL A   1      46.398  27.434  29.018  1.00  0.00     0.031 C 
ATOM     41  C   UNL A   1      45.439  26.043  30.970  1.00  0.00     0.034 A 
BRANCH  28  42
ATOM     42  C   UNL A   1      44.598  24.496  25.862  1.00  0.00     0.023 A 
ATOM     43  C   UNL A   1      44.877  23.201  25.375  1.00  0.00     0.012 A 
ATOM     44  C   UNL A   1      45.467  25.530  25.437  1.00  0.00     0.148 A 
ATOM     45  C   UNL A   1      46.035  22.927  24.640  1.00  0.00     0.002 A 
ATOM     46  C   UNL A   1      46.601  25.262  24.682  1.00  0.00     0.091 A 
ATOM     47  F   UNL A   1      45.272  26.791  25.809  1.00  0.00    -0.205 F 
ATOM     48  C   UNL A   1      46.910  23.955  24.312  1.00  0.00     0.022 A 
BRANCH  46  49
ATOM     49  S   UNL A   1      47.758  26.565  24.227  1.00  0.00     0.127 S 
ATOM     50  O   UNL A   1      48.635  25.857  23.298  1.00  0.00    -0.237 OA
ATOM     51  O   UNL A   1      46.865  27.548  23.616  1.00  0.00    -0.237 OA
ATOM     52  O   UNL A   1      48.379  27.008  25.468  1.00  0.00    -0.744 OA
ENDBRANCH  46  49
ENDBRANCH  28  42
BRANCH  29  53
ATOM     53  C   UNL A   1      46.191  31.825  30.042  1.00  0.00     0.023 A 
ATOM     54  C   UNL A   1      47.184  32.297  30.920  1.00  0.00     0.012 A 
ATOM     55  C   UNL A   1      46.037  32.477  28.797  1.00  0.00     0.148 A 
ATOM     56  C   UNL A   1      48.012  33.368  30.561  1.00  0.00     0.002 A 
ATOM     57  C   UNL A   1      46.851  33.549  28.449  1.00  0.00     0.091 A 
ATOM     58  F   UNL A   1      45.157  31.989  27.912  1.00  0.00    -0.205 F 
ATOM     59  C   UNL A   1      47.850  33.990  29.325  1.00  0.00     0.022 A 
BRANCH  57  60
ATOM     60  S   UNL A   1      46.708  34.389  26.865  1.00  0.00     0.127 S 
ATOM     61  O   UNL A   1      46.863  33.282  25.920  1.00  0.00    -0.237 OA
ATOM     62  O   UNL A   1      45.360  34.945  26.939  1.00  0.00    -0.237 OA
ATOM     63  O   UNL A   1      47.793  35.362  26.829  1.00  0.00    -0.744 OA
ENDBRANCH  57  60
ENDBRANCH  29  53
BRANCH  41  64
ATOM     64  C   UNL A   1      45.115  26.108  32.442  1.00  0.00     0.023 A 
ATOM     65  C   UNL A   1      43.905  26.649  32.927  1.00  0.00     0.012 A 
ATOM     66  C   UNL A   1      45.968  25.442  33.337  1.00  0.00     0.148 A 
ATOM     67  C   UNL A   1      43.566  26.545  34.280  1.00  0.00     0.002 A 
ATOM     68  C   UNL A   1      45.604  25.298  34.670  1.00  0.00     0.091 A 
ATOM     69  F   UNL A   1      47.111  24.928  32.859  1.00  0.00    -0.205 F 
ATOM     70  C   UNL A   1      44.410  25.857  35.149  1.00  0.00     0.022 A 
BRANCH  68  71
ATOM     71  S   UNL A   1      46.581  24.305  35.801  1.00  0.00     0.127 S 
ATOM     72  O   UNL A   1      45.680  24.167  36.943  1.00  0.00    -0.237 OA
ATOM     73  O   UNL A   1      46.795  23.075  35.037  1.00  0.00    -0.237 OA
ATOM     74  O   UNL A   1      47.799  25.067  36.050  1.00  0.00    -0.744 OA
ENDBRANCH  68  71
ENDBRANCH  41  64
ENDBRANCH  15  16
ENDBRANCH   8  10
ENDBRANCH   7   8
ENDBRANCH   6   7
ENDBRANCH   5   6
ENDBRANCH   4   5
ENDBRANCH   3   4
ENDBRANCH   2   3
ENDBRANCH   1   2
BRANCH   1  75
ATOM     75  C   UNL A   1      32.069  27.627  26.060  1.00  0.00     0.188 C 
BRANCH  75  76
ATOM     76  C   UNL A   1      33.577  27.646  25.746  1.00  0.00     0.188 C 
BRANCH  76  77
ATOM     77  O   UNL A   1      33.966  27.130  24.495  1.00  0.00    -0.376 OA
BRANCH  77  78
ATOM     78  C   UNL A   1      33.637  27.807  23.289  1.00  0.00     0.202 C 
BRANCH  78  79
ATOM     79  C   UNL A   1      32.540  27.375  22.272  1.00  0.00     0.261 C 
BRANCH  79  80
ATOM     80  O   UNL A   1      31.936  26.118  22.576  1.00  0.00    -0.463 OA
BRANCH  80  81
ATOM     81  C   UNL A   1      32.517  24.884  22.387  1.00  0.00     0.320 C 
ATOM     82  O   UNL A   1      33.358  24.610  21.552  1.00  0.00    -0.251 OA
BRANCH  81  83
ATOM     83  C   UNL A   1      31.880  23.975  23.448  1.00  0.00     0.144 C 
ATOM     84  C   UNL A   1      30.367  24.067  23.185  1.00  0.00     0.281 C 
ATOM     85  C   UNL A   1      31.861  24.032  24.983  1.00  0.00     0.088 C 
ATOM     86  C   UNL A   1      32.815  22.744  23.312  1.00  0.00     0.145 C 
ATOM     87  N   UNL A   1      29.838  24.988  24.196  1.00  0.00    -0.345 N 
ATOM     88  C   UNL A   1      30.592  24.754  25.416  1.00  0.00     0.267 C 
ATOM     89  C   UNL A   1      31.748  22.516  25.364  1.00  0.00     0.130 C 
ATOM     90  N   UNL A   1      32.495  21.807  24.346  1.00  0.00    -0.337 N 
ATOM     91  H   UNL A   1      28.847  24.803  24.356  1.00  0.00     0.346 HD
ATOM     92  H   UNL A   1      29.927  25.958  23.892  1.00  0.00     0.346 HD
BRANCH  90  93
ATOM     93  C   UNL A   1      32.727  20.433  24.402  1.00  0.00     0.256 C 
ATOM     94  O   UNL A   1      31.783  19.647  24.297  1.00  0.00    -0.269 OA
BRANCH  93  95
ATOM     95  C   UNL A   1      34.104  19.838  24.602  1.00  0.00     0.065 A 
ATOM     96  C   UNL A   1      34.213  18.446  24.446  1.00  0.00     0.016 A 
ATOM     97  C   UNL A   1      35.275  20.519  24.979  1.00  0.00     0.079 A 
ATOM     98  C   UNL A   1      35.442  17.787  24.613  1.00  0.00     0.001 A 
ATOM     99  C   UNL A   1      36.534  19.877  24.990  1.00  0.00     0.029 A 
ATOM    100  C   UNL A   1      36.611  18.502  24.820  1.00  0.00     0.002 A 
BRANCH  97 101
ATOM    101  N   UNL A   1      35.240  21.805  25.536  1.00  0.00    -0.220 N 
ATOM    102  C   UNL A   1      35.572  22.998  24.941  1.00  0.00     0.225 A 
ATOM    103  N   UNL A   1      34.787  22.040  26.793  1.00  0.00    -0.155 NA
ATOM    104  N   UNL A   1      35.479  23.979  25.810  1.00  0.00    -0.223 NA
ATOM    105  C   UNL A   1      35.011  23.347  26.923  1.00  0.00     0.246 A 
ENDBRANCH  97 101
ENDBRANCH  93  95
ENDBRANCH  90  93
ENDBRANCH  81  83
ENDBRANCH  80  81
ENDBRANCH  79  80
ENDBRANCH  78  79
ENDBRANCH  77  78
ENDBRANCH  76  77
ENDBRANCH  75  76
ENDBRANCH   1  75
TORSDOF 26
ENDMDL
MODEL 3
REMARK VINA RESULT:      -9.2      3.489      5.192
REMARK SMILES O=C(OCCOCCOCCOCCOC(=O)[C@]12C[NH2+]C[C@H]1CN(C(=O)c1ccccc1-n1cncn1)C2)c1ccc(-c2c3nc(c(-c4cccc(S(=O)(=O)[O-])c4F)c4ccc([nH]4)c(-c4cccc(S(=O)(=O)[O-])c4F)c4nc(c(-c5cccc(S(=O)(=O)[O-])c5F)c5ccc2[nH]5)C=C4)C=C3)cc1
REMARK SMILES IDX 9 1 8 2 7 3 6 4 5 5 4 6 3 7 2 8 1 9 39 10 40 11 101 12 41 13
REMARK SMILES IDX 100 14 42 15 43 16 44 17 94 18 45 19 99 20 93 21 95 22 46 23
REMARK SMILES IDX 98 24 92 25 91 26 47 28 79 29 59 30 78 31 60 32 63 33 77 34
REMARK SMILES IDX 96 35 61 36 62 37 76 39 97 40 64 41 48 42 49 43 57 44 50 45
REMARK SMILES IDX 52 46 58 47 51 48 53 49 54 50 55 51 56 52 80 53 81 54 89 55
REMARK SMILES IDX 82 56 84 57 90 58 83 59 85 60 86 61 87 62 88 63 65 64 66 65
REMARK SMILES IDX 74 66 67 67 69 68 75 69 68 70 70 71 71 72 72 73 73 74 10 75
REMARK SMILES IDX 11 76 12 77 13 78 14 79 15 80 16 81 17 82 18 83 19 84 22 85
REMARK SMILES IDX 38 86 20 87 21 88 23 89 24 90 25 93 26 94 27 95 28 96 32 97
REMARK SMILES IDX 29 98 31 99 30 100 33 101 34 102 37 103 35 104 36 105
REMARK H PARENT 95 27 63 38 20 91 20 92
REMARK Flexibility Score: inf
ROOT
ATOM      1  O   UNL A   1      30.133  26.473  24.109  1.00  0.00    -0.377 OA
ENDROOT
BRANCH   1   2
ATOM      2  C   UNL A   1      31.182  27.299  23.650  1.00  0.00     0.188 C 
BRANCH   2   3
ATOM      3  C   UNL A   1      31.467  28.650  24.332  1.00  0.00     0.188 C 
BRANCH   3   4
ATOM      4  O   UNL A   1      32.814  29.092  24.331  1.00  0.00    -0.376 OA
BRANCH   4   5
ATOM      5  C   UNL A   1      33.691  28.712  25.383  1.00  0.00     0.202 C 
BRANCH   5   6
ATOM      6  C   UNL A   1      33.698  29.512  26.699  1.00  0.00     0.261 C 
BRANCH   6   7
ATOM      7  O   UNL A   1      34.984  29.650  27.305  1.00  0.00    -0.460 OA
BRANCH   7   8
ATOM      8  C   UNL A   1      35.140  30.657  28.175  1.00  0.00     0.338 C 
ATOM      9  O   UNL A   1      34.495  31.700  28.179  1.00  0.00    -0.246 OA
BRANCH   8  10
ATOM     10  C   UNL A   1      36.293  30.539  29.044  1.00  0.00     0.060 A 
ATOM     11  C   UNL A   1      37.487  31.095  28.594  1.00  0.00     0.016 A 
ATOM     12  C   UNL A   1      36.214  29.604  30.090  1.00  0.00     0.016 A 
ATOM     13  C   UNL A   1      38.640  30.530  29.038  1.00  0.00     0.010 A 
ATOM     14  C   UNL A   1      37.378  29.041  30.540  1.00  0.00     0.010 A 
ATOM     15  C   UNL A   1      38.546  29.436  29.906  1.00  0.00    -0.014 A 
BRANCH  15  16
ATOM     16  C   UNL A   1      39.771  28.712  30.085  1.00  0.00     0.031 A 
ATOM     17  C   UNL A   1      40.288  28.881  31.448  1.00  0.00     0.074 A 
ATOM     18  C   UNL A   1      40.355  28.096  29.046  1.00  0.00     0.049 A 
ATOM     19  N   UNL A   1      41.210  29.698  31.830  1.00  0.00    -0.248 NA
ATOM     20  C   UNL A   1      39.469  28.328  32.533  1.00  0.00     0.031 C 
ATOM     21  C   UNL A   1      39.770  27.709  27.760  1.00  0.00     0.029 A 
ATOM     22  N   UNL A   1      41.593  27.558  29.000  1.00  0.00    -0.354 N 
ATOM     23  C   UNL A   1      41.255  29.552  33.211  1.00  0.00     0.074 A 
ATOM     24  C   UNL A   1      40.003  28.954  33.580  1.00  0.00     0.031 C 
ATOM     25  C   UNL A   1      40.551  26.753  27.206  1.00  0.00     0.029 A 
ATOM     26  C   UNL A   1      41.734  26.579  28.032  1.00  0.00     0.049 A 
ATOM     27  H   UNL A   1      42.324  27.836  29.597  1.00  0.00     0.167 HD
ATOM     28  C   UNL A   1      42.447  29.612  33.862  1.00  0.00     0.034 A 
ATOM     29  C   UNL A   1      42.694  25.625  28.037  1.00  0.00     0.034 A 
ATOM     30  C   UNL A   1      43.435  30.290  33.049  1.00  0.00     0.049 A 
ATOM     31  C   UNL A   1      43.784  26.101  28.933  1.00  0.00     0.074 A 
ATOM     32  C   UNL A   1      43.533  31.547  32.485  1.00  0.00     0.029 A 
ATOM     33  N   UNL A   1      44.330  29.496  32.367  1.00  0.00    -0.354 N 
ATOM     34  N   UNL A   1      44.527  27.143  28.670  1.00  0.00    -0.248 NA
ATOM     35  C   UNL A   1      43.733  25.719  30.339  1.00  0.00     0.031 C 
ATOM     36  C   UNL A   1      44.156  31.341  31.218  1.00  0.00     0.029 A 
ATOM     37  C   UNL A   1      44.464  29.985  31.096  1.00  0.00     0.049 A 
ATOM     38  H   UNL A   1      44.794  28.708  32.733  1.00  0.00     0.167 HD
ATOM     39  C   UNL A   1      44.656  27.801  29.889  1.00  0.00     0.074 A 
ATOM     40  C   UNL A   1      44.245  26.822  30.894  1.00  0.00     0.031 C 
ATOM     41  C   UNL A   1      44.784  29.162  29.946  1.00  0.00     0.034 A 
BRANCH  28  42
ATOM     42  C   UNL A   1      42.847  28.643  34.963  1.00  0.00     0.023 A 
ATOM     43  C   UNL A   1      43.436  29.216  36.111  1.00  0.00     0.012 A 
ATOM     44  C   UNL A   1      42.975  27.240  34.825  1.00  0.00     0.148 A 
ATOM     45  C   UNL A   1      44.230  28.464  36.982  1.00  0.00     0.002 A 
ATOM     46  C   UNL A   1      43.739  26.489  35.707  1.00  0.00     0.091 A 
ATOM     47  F   UNL A   1      42.427  26.596  33.799  1.00  0.00    -0.205 F 
ATOM     48  C   UNL A   1      44.401  27.103  36.768  1.00  0.00     0.022 A 
BRANCH  46  49
ATOM     49  S   UNL A   1      43.980  24.719  35.472  1.00  0.00     0.127 S 
ATOM     50  O   UNL A   1      42.605  24.232  35.531  1.00  0.00    -0.237 OA
ATOM     51  O   UNL A   1      44.599  24.682  34.147  1.00  0.00    -0.237 OA
ATOM     52  O   UNL A   1      44.852  24.280  36.554  1.00  0.00    -0.744 OA
ENDBRANCH  46  49
ENDBRANCH  28  42
BRANCH  29  53
ATOM     53  C   UNL A   1      42.571  24.210  27.615  1.00  0.00     0.023 A 
ATOM     54  C   UNL A   1      41.389  23.504  27.909  1.00  0.00     0.012 A 
ATOM     55  C   UNL A   1      43.488  23.629  26.708  1.00  0.00     0.148 A 
ATOM     56  C   UNL A   1      41.119  22.271  27.302  1.00  0.00     0.002 A 
ATOM     57  C   UNL A   1      43.221  22.397  26.119  1.00  0.00     0.091 A 
ATOM     58  F   UNL A   1      44.575  24.323  26.348  1.00  0.00    -0.205 F 
ATOM     59  C   UNL A   1      42.030  21.720  26.405  1.00  0.00     0.022 A 
BRANCH  57  60
ATOM     60  S   UNL A   1      44.346  21.635  24.941  1.00  0.00     0.127 S 
ATOM     61  O   UNL A   1      43.793  20.285  24.823  1.00  0.00    -0.237 OA
ATOM     62  O   UNL A   1      44.164  22.475  23.761  1.00  0.00    -0.237 OA
ATOM     63  O   UNL A   1      45.667  21.687  25.557  1.00  0.00    -0.744 OA
ENDBRANCH  57  60
ENDBRANCH  29  53
BRANCH  41  64
ATOM     64  C   UNL A   1      45.041  29.903  28.657  1.00  0.00     0.023 A 
ATOM     65  C   UNL A   1      43.997  30.307  27.796  1.00  0.00     0.012 A 
ATOM     66  C   UNL A   1      46.344  30.361  28.405  1.00  0.00     0.148 A 
ATOM     67  C   UNL A   1      44.255  31.132  26.697  1.00  0.00     0.002 A 
ATOM     68  C   UNL A   1      46.588  31.221  27.342  1.00  0.00     0.091 A 
ATOM     69  F   UNL A   1      47.323  29.973  29.237  1.00  0.00    -0.205 F 
ATOM     70  C   UNL A   1      45.549  31.600  26.478  1.00  0.00     0.022 A 
BRANCH  68  71
ATOM     71  S   UNL A   1      48.202  31.964  27.094  1.00  0.00     0.127 S 
ATOM     72  O   UNL A   1      48.519  32.459  28.431  1.00  0.00    -0.237 OA
ATOM     73  O   UNL A   1      49.010  30.825  26.655  1.00  0.00    -0.237 OA
ATOM     74  O   UNL A   1      48.017  32.987  26.071  1.00  0.00    -0.744 OA
ENDBRANCH  68  71
ENDBRANCH  41  64
ENDBRANCH  15  16
ENDBRANCH   8  10
ENDBRANCH   7   8
ENDBRANCH   6   7
ENDBRANCH   5   6
ENDBRANCH   4   5
ENDBRANCH   3   4
ENDBRANCH   2   3
ENDBRANCH   1   2
BRANCH   1  75
ATOM     75  C   UNL A   1      30.395  25.110  24.354  1.00  0.00     0.188 C 
BRANCH  75  76
ATOM     76  C   UNL A   1      30.277  24.540  25.780  1.00  0.00     0.188 C 
BRANCH  76  77
ATOM     77  O   UNL A   1      31.485  24.275  26.454  1.00  0.00    -0.376 OA
BRANCH  77  78
ATOM     78  C   UNL A   1      32.512  25.255  26.531  1.00  0.00     0.202 C 
BRANCH  78  79
ATOM     79  C   UNL A   1      33.856  25.229  25.747  1.00  0.00     0.261 C 
BRANCH  79  80
ATOM     80  O   UNL A   1      34.906  24.541  26.426  1.00  0.00    -0.463 OA
BRANCH  80  81
ATOM     81  C   UNL A   1      34.877  23.221  26.817  1.00  0.00     0.320 C 
ATOM     82  O   UNL A   1      34.353  22.786  27.825  1.00  0.00    -0.251 OA
BRANCH  81  83
ATOM     83  C   UNL A   1      35.626  22.460  25.714  1.00  0.00     0.144 C 
ATOM     84  C   UNL A   1      37.083  22.941  25.827  1.00  0.00     0.281 C 
ATOM     85  C   UNL A   1      35.492  22.458  24.184  1.00  0.00     0.088 C 
ATOM     86  C   UNL A   1      35.051  21.040  25.960  1.00  0.00     0.145 C 
ATOM     87  N   UNL A   1      37.267  23.924  24.754  1.00  0.00    -0.345 N 
ATOM     88  C   UNL A   1      36.491  23.458  23.618  1.00  0.00     0.267 C 
ATOM     89  C   UNL A   1      35.952  21.005  23.818  1.00  0.00     0.130 C 
ATOM     90  N   UNL A   1      35.505  20.173  24.916  1.00  0.00    -0.337 N 
ATOM     91  H   UNL A   1      38.254  23.988  24.502  1.00  0.00     0.346 HD
ATOM     92  H   UNL A   1      36.962  24.851  25.050  1.00  0.00     0.346 HD
BRANCH  90  93
ATOM     93  C   UNL A   1      35.626  18.783  24.905  1.00  0.00     0.256 C 
ATOM     94  O   UNL A   1      36.739  18.266  24.786  1.00  0.00    -0.269 OA
BRANCH  93  95
ATOM     95  C   UNL A   1      34.439  17.852  25.020  1.00  0.00     0.065 A 
ATOM     96  C   UNL A   1      34.727  16.487  25.186  1.00  0.00     0.016 A 
ATOM     97  C   UNL A   1      33.079  18.197  24.925  1.00  0.00     0.079 A 
ATOM     98  C   UNL A   1      33.703  15.533  25.299  1.00  0.00     0.001 A 
ATOM     99  C   UNL A   1      32.056  17.260  25.198  1.00  0.00     0.029 A 
ATOM    100  C   UNL A   1      32.374  15.920  25.370  1.00  0.00     0.002 A 
BRANCH  97 101
ATOM    101  N   UNL A   1      32.659  19.421  24.385  1.00  0.00    -0.220 N 
ATOM    102  C   UNL A   1      32.584  19.785  23.062  1.00  0.00     0.225 A 
ATOM    103  N   UNL A   1      32.192  20.433  25.157  1.00  0.00    -0.155 NA
ATOM    104  N   UNL A   1      32.213  21.041  22.957  1.00  0.00    -0.223 NA
ATOM    105  C   UNL A   1      31.999  21.396  24.256  1.00  0.00     0.246 A 
ENDBRANCH  97 101
ENDBRANCH  93  95
ENDBRANCH  90  93
ENDBRANCH  81  83
ENDBRANCH  80  81
ENDBRANCH  79  80
ENDBRANCH  78  79
ENDBRANCH  77  78
ENDBRANCH  76  77
ENDBRANCH  75  76
ENDBRANCH   1  75
TORSDOF 26
ENDMDL
