MODEL 1
REMARK VINA RESULT:      -7.4      0.000      0.000
REMARK SMILES C#CCNC(=O)C[N@@H+](CC(=O)OCCOCCOCCOCCOC(=O)c1ccc(-c2c3nc(c(-c4cccc(S(=O)(=O)[O-])c4F)c4ccc([nH]4)c(-c4cccc(S(=O)(=O)[O-])c4F)c4nc(c(-c5cccc(S(=O)(=O)[O-])c5F)c5ccc2[nH]5)C=C4)C=C3)cc1)C(C)(C)C
REMARK SMILES IDX 17 1 16 2 15 3 14 4 13 5 12 6 10 7 11 8 9 9 8 10 7 12 5 13
REMARK SMILES IDX 4 14 6 16 3 17 2 18 1 19 90 20 91 21 92 22 93 23 18 24 19 25
REMARK SMILES IDX 20 26 21 27 22 28 23 29 24 30 25 31 26 32 27 33 28 34 89 35
REMARK SMILES IDX 29 36 88 37 30 38 31 39 32 40 82 41 33 42 87 43 81 44 83 45
REMARK SMILES IDX 34 46 86 47 80 48 79 49 35 51 67 52 47 53 66 54 48 55 51 56
REMARK SMILES IDX 65 57 84 58 49 59 50 60 64 62 85 63 52 64 36 65 37 66 45 67
REMARK SMILES IDX 38 68 40 69 46 70 39 71 41 72 42 73 43 74 44 75 68 76 69 77
REMARK SMILES IDX 77 78 70 79 72 80 78 81 71 82 73 83 74 84 75 85 76 86 53 87
REMARK SMILES IDX 54 88 62 89 55 90 57 91 63 92 56 93 58 94 59 95 60 96 61 97
REMARK H PARENT 8 11 4 15 83 50 51 61
REMARK Flexibility Score: inf
ROOT
ATOM      1  C   UNL A   1      39.977  25.406  28.176  1.00  0.00     0.188 C 
ENDROOT
BRANCH   1   2
ATOM      2  C   UNL A   1      40.531  24.073  27.640  1.00  0.00     0.188 C 
BRANCH   2   3
ATOM      3  O   UNL A   1      39.579  23.239  26.976  1.00  0.00    -0.376 OA
BRANCH   3   4
ATOM      4  C   UNL A   1      38.409  23.886  26.479  1.00  0.00     0.202 C 
BRANCH   4   5
ATOM      5  C   UNL A   1      37.453  23.071  25.586  1.00  0.00     0.261 C 
BRANCH   5   6
ATOM      6  O   UNL A   1      37.014  23.680  24.348  1.00  0.00    -0.459 OA
BRANCH   6   7
ATOM      7  C   UNL A   1      35.692  23.565  24.067  1.00  0.00     0.361 C 
ATOM      8  O   UNL A   1      35.243  22.746  23.264  1.00  0.00    -0.245 OA
BRANCH   7   9
ATOM      9  C   UNL A   1      34.731  24.546  24.756  1.00  0.00     0.387 C 
BRANCH   9  10
ATOM     10  N   UNL A   1      33.327  24.770  24.297  1.00  0.00    -0.314 N 
ATOM     11  H   UNL A   1      33.227  24.258  23.422  1.00  0.00     0.349 HD
BRANCH  10  12
ATOM     12  C   UNL A   1      33.107  26.185  23.915  1.00  0.00     0.364 C 
BRANCH  12  13
ATOM     13  C   UNL A   1      33.358  26.484  22.436  1.00  0.00     0.275 C 
ATOM     14  N   UNL A   1      33.217  27.760  21.974  1.00  0.00    -0.340 N 
ATOM     15  H   UNL A   1      33.504  27.933  21.049  1.00  0.00     0.164 HD
ATOM     16  O   UNL A   1      33.677  25.598  21.643  1.00  0.00    -0.268 OA
BRANCH  14  17
ATOM     17  C   UNL A   1      32.690  28.865  22.708  1.00  0.00     0.206 C 
BRANCH  17  18
ATOM     18  C   UNL A   1      31.189  29.058  22.568  1.00  0.00    -0.085 C 
ATOM     19  C   UNL A   1      29.901  29.223  22.447  1.00  0.00     0.006 C 
ENDBRANCH  17  18
ENDBRANCH  14  17
ENDBRANCH  12  13
ENDBRANCH  10  12
BRANCH  10  20
ATOM     20  C   UNL A   1      32.235  23.996  24.939  1.00  0.00     0.090 C 
ATOM     21  C   UNL A   1      31.261  23.598  23.873  1.00  0.00     0.078 C 
ATOM     22  C   UNL A   1      32.573  22.648  25.641  1.00  0.00     0.078 C 
ATOM     23  C   UNL A   1      31.463  24.840  25.981  1.00  0.00     0.078 C 
ENDBRANCH  10  20
ENDBRANCH   9  10
ENDBRANCH   7   9
ENDBRANCH   6   7
ENDBRANCH   5   6
ENDBRANCH   4   5
ENDBRANCH   3   4
ENDBRANCH   2   3
ENDBRANCH   1   2
BRANCH   1  24
ATOM     24  O   UNL A   1      40.693  26.487  27.593  1.00  0.00    -0.377 OA
BRANCH  24  25
ATOM     25  C   UNL A   1      41.124  27.572  28.403  1.00  0.00     0.188 C 
BRANCH  25  26
ATOM     26  C   UNL A   1      40.532  28.964  28.141  1.00  0.00     0.188 C 
BRANCH  26  27
ATOM     27  O   UNL A   1      40.021  29.724  29.237  1.00  0.00    -0.376 OA
BRANCH  27  28
ATOM     28  C   UNL A   1      38.721  30.284  29.123  1.00  0.00     0.202 C 
BRANCH  28  29
ATOM     29  C   UNL A   1      38.123  30.996  30.332  1.00  0.00     0.261 C 
BRANCH  29  30
ATOM     30  O   UNL A   1      37.586  32.271  29.958  1.00  0.00    -0.460 OA
BRANCH  30  31
ATOM     31  C   UNL A   1      37.803  33.253  30.859  1.00  0.00     0.338 C 
ATOM     32  O   UNL A   1      37.186  33.461  31.887  1.00  0.00    -0.246 OA
BRANCH  31  33
ATOM     33  C   UNL A   1      39.044  33.959  30.513  1.00  0.00     0.060 A 
ATOM     34  C   UNL A   1      39.143  34.488  29.221  1.00  0.00     0.016 A 
ATOM     35  C   UNL A   1      40.124  34.003  31.396  1.00  0.00     0.016 A 
ATOM     36  C   UNL A   1      40.349  35.008  28.778  1.00  0.00     0.010 A 
ATOM     37  C   UNL A   1      41.344  34.502  30.942  1.00  0.00     0.010 A 
ATOM     38  C   UNL A   1      41.466  34.954  29.616  1.00  0.00    -0.014 A 
BRANCH  38  39
ATOM     39  C   UNL A   1      42.795  35.168  29.014  1.00  0.00     0.031 A 
ATOM     40  C   UNL A   1      43.666  33.968  28.773  1.00  0.00     0.074 A 
ATOM     41  C   UNL A   1      43.185  36.399  28.650  1.00  0.00     0.049 A 
ATOM     42  N   UNL A   1      44.871  33.908  28.274  1.00  0.00    -0.248 NA
ATOM     43  C   UNL A   1      43.100  32.658  29.140  1.00  0.00     0.031 C 
ATOM     44  C   UNL A   1      42.393  37.616  28.815  1.00  0.00     0.029 A 
ATOM     45  N   UNL A   1      44.358  36.827  28.088  1.00  0.00    -0.354 N 
ATOM     46  C   UNL A   1      45.224  32.565  28.307  1.00  0.00     0.074 A 
ATOM     47  C   UNL A   1      44.107  31.842  28.871  1.00  0.00     0.031 C 
ATOM     48  C   UNL A   1      43.122  38.666  28.401  1.00  0.00     0.029 A 
ATOM     49  C   UNL A   1      44.438  38.192  27.978  1.00  0.00     0.049 A 
ATOM     50  H   UNL A   1      45.071  36.216  27.794  1.00  0.00     0.167 HD
ATOM     51  C   UNL A   1      46.380  31.990  27.901  1.00  0.00     0.034 A 
ATOM     52  C   UNL A   1      45.475  38.969  27.613  1.00  0.00     0.034 A 
ATOM     53  C   UNL A   1      47.476  32.726  27.336  1.00  0.00     0.049 A 
ATOM     54  C   UNL A   1      46.761  38.308  27.194  1.00  0.00     0.074 A 
ATOM     55  C   UNL A   1      48.677  32.244  26.849  1.00  0.00     0.029 A 
ATOM     56  N   UNL A   1      47.514  34.107  27.206  1.00  0.00    -0.354 N 
ATOM     57  N   UNL A   1      47.052  37.030  27.132  1.00  0.00    -0.248 NA
ATOM     58  C   UNL A   1      47.851  39.192  26.761  1.00  0.00     0.031 C 
ATOM     59  C   UNL A   1      49.459  33.339  26.466  1.00  0.00     0.029 A 
ATOM     60  C   UNL A   1      48.727  34.499  26.666  1.00  0.00     0.049 A 
ATOM     61  H   UNL A   1      46.786  34.719  27.461  1.00  0.00     0.167 HD
ATOM     62  C   UNL A   1      48.343  36.954  26.624  1.00  0.00     0.074 A 
ATOM     63  C   UNL A   1      48.769  38.317  26.375  1.00  0.00     0.031 C 
ATOM     64  C   UNL A   1      49.112  35.860  26.391  1.00  0.00     0.034 A 
BRANCH  51  65
ATOM     65  C   UNL A   1      46.517  30.501  28.073  1.00  0.00     0.023 A 
ATOM     66  C   UNL A   1      47.037  29.968  29.270  1.00  0.00     0.012 A 
ATOM     67  C   UNL A   1      46.099  29.624  27.052  1.00  0.00     0.148 A 
ATOM     68  C   UNL A   1      47.171  28.588  29.434  1.00  0.00     0.002 A 
ATOM     69  C   UNL A   1      46.189  28.251  27.242  1.00  0.00     0.091 A 
ATOM     70  F   UNL A   1      45.633  30.150  25.910  1.00  0.00    -0.205 F 
ATOM     71  C   UNL A   1      46.738  27.732  28.426  1.00  0.00     0.022 A 
BRANCH  69  72
ATOM     72  S   UNL A   1      45.584  27.065  26.036  1.00  0.00     0.127 S 
ATOM     73  O   UNL A   1      44.677  26.255  26.848  1.00  0.00    -0.237 OA
ATOM     74  O   UNL A   1      44.920  27.932  25.063  1.00  0.00    -0.237 OA
ATOM     75  O   UNL A   1      46.758  26.369  25.531  1.00  0.00    -0.744 OA
ENDBRANCH  69  72
ENDBRANCH  51  65
BRANCH  52  76
ATOM     76  C   UNL A   1      45.331  40.450  27.632  1.00  0.00     0.023 A 
ATOM     77  C   UNL A   1      45.513  41.159  28.834  1.00  0.00     0.012 A 
ATOM     78  C   UNL A   1      45.047  41.162  26.449  1.00  0.00     0.148 A 
ATOM     79  C   UNL A   1      45.387  42.548  28.864  1.00  0.00     0.002 A 
ATOM     80  C   UNL A   1      44.981  42.549  26.475  1.00  0.00     0.091 A 
ATOM     81  F   UNL A   1      44.865  40.466  25.318  1.00  0.00    -0.205 F 
ATOM     82  C   UNL A   1      45.132  43.243  27.685  1.00  0.00     0.022 A 
BRANCH  80  83
ATOM     83  S   UNL A   1      44.788  43.534  24.985  1.00  0.00     0.127 S 
ATOM     84  O   UNL A   1      45.826  42.975  24.122  1.00  0.00    -0.237 OA
ATOM     85  O   UNL A   1      43.417  43.211  24.589  1.00  0.00    -0.237 OA
ATOM     86  O   UNL A   1      44.985  44.917  25.394  1.00  0.00    -0.744 OA
ENDBRANCH  80  83
ENDBRANCH  52  76
BRANCH  64  87
ATOM     87  C   UNL A   1      50.479  36.085  25.800  1.00  0.00     0.023 A 
ATOM     88  C   UNL A   1      50.658  36.064  24.403  1.00  0.00     0.012 A 
ATOM     89  C   UNL A   1      51.573  36.389  26.634  1.00  0.00     0.148 A 
ATOM     90  C   UNL A   1      51.914  36.303  23.847  1.00  0.00     0.002 A 
ATOM     91  C   UNL A   1      52.809  36.682  26.070  1.00  0.00     0.091 A 
ATOM     92  F   UNL A   1      51.385  36.389  27.962  1.00  0.00    -0.205 F 
ATOM     93  C   UNL A   1      52.985  36.624  24.679  1.00  0.00     0.022 A 
BRANCH  91  94
ATOM     94  S   UNL A   1      54.216  37.206  27.055  1.00  0.00     0.127 S 
ATOM     95  O   UNL A   1      53.676  38.379  27.742  1.00  0.00    -0.237 OA
ATOM     96  O   UNL A   1      54.440  36.044  27.917  1.00  0.00    -0.237 OA
ATOM     97  O   UNL A   1      55.292  37.477  26.112  1.00  0.00    -0.744 OA
ENDBRANCH  91  94
ENDBRANCH  64  87
ENDBRANCH  38  39
ENDBRANCH  31  33
ENDBRANCH  30  31
ENDBRANCH  29  30
ENDBRANCH  28  29
ENDBRANCH  27  28
ENDBRANCH  26  27
ENDBRANCH  25  26
ENDBRANCH  24  25
ENDBRANCH   1  24
TORSDOF 29
ENDMDL
MODEL 2
REMARK VINA RESULT:      -7.4      4.301      8.217
REMARK SMILES C#CCNC(=O)C[N@@H+](CC(=O)OCCOCCOCCOCCOC(=O)c1ccc(-c2c3nc(c(-c4cccc(S(=O)(=O)[O-])c4F)c4ccc([nH]4)c(-c4cccc(S(=O)(=O)[O-])c4F)c4nc(c(-c5cccc(S(=O)(=O)[O-])c5F)c5ccc2[nH]5)C=C4)C=C3)cc1)C(C)(C)C
REMARK SMILES IDX 17 1 16 2 15 3 14 4 13 5 12 6 10 7 11 8 9 9 8 10 7 12 5 13
REMARK SMILES IDX 4 14 6 16 3 17 2 18 1 19 90 20 91 21 92 22 93 23 18 24 19 25
REMARK SMILES IDX 20 26 21 27 22 28 23 29 24 30 25 31 26 32 27 33 28 34 89 35
REMARK SMILES IDX 29 36 88 37 30 38 31 39 32 40 82 41 33 42 87 43 81 44 83 45
REMARK SMILES IDX 34 46 86 47 80 48 79 49 35 51 67 52 47 53 66 54 48 55 51 56
REMARK SMILES IDX 65 57 84 58 49 59 50 60 64 62 85 63 52 64 36 65 37 66 45 67
REMARK SMILES IDX 38 68 40 69 46 70 39 71 41 72 42 73 43 74 44 75 68 76 69 77
REMARK SMILES IDX 77 78 70 79 72 80 78 81 71 82 73 83 74 84 75 85 76 86 53 87
REMARK SMILES IDX 54 88 62 89 55 90 57 91 63 92 56 93 58 94 59 95 60 96 61 97
REMARK H PARENT 8 11 4 15 83 50 51 61
REMARK Flexibility Score: inf
ROOT
ATOM      1  C   UNL A   1      37.232  21.530  24.515  1.00  0.00     0.188 C 
ENDROOT
BRANCH   1   2
ATOM      2  C   UNL A   1      35.979  20.807  25.044  1.00  0.00     0.188 C 
BRANCH   2   3
ATOM      3  O   UNL A   1      34.965  21.657  25.581  1.00  0.00    -0.376 OA
BRANCH   3   4
ATOM      4  C   UNL A   1      33.757  21.019  25.994  1.00  0.00     0.202 C 
BRANCH   4   5
ATOM      5  C   UNL A   1      32.735  20.628  24.909  1.00  0.00     0.261 C 
BRANCH   5   6
ATOM      6  O   UNL A   1      31.863  21.669  24.408  1.00  0.00    -0.459 OA
BRANCH   6   7
ATOM      7  C   UNL A   1      32.317  22.354  23.328  1.00  0.00     0.361 C 
ATOM      8  O   UNL A   1      32.431  21.850  22.210  1.00  0.00    -0.245 OA
BRANCH   7   9
ATOM      9  C   UNL A   1      32.750  23.813  23.542  1.00  0.00     0.387 C 
BRANCH   9  10
ATOM     10  N   UNL A   1      31.851  24.854  24.121  1.00  0.00    -0.314 N 
ATOM     11  H   UNL A   1      31.110  24.353  24.611  1.00  0.00     0.349 HD
BRANCH  10  12
ATOM     12  C   UNL A   1      31.139  25.601  23.057  1.00  0.00     0.364 C 
BRANCH  12  13
ATOM     13  C   UNL A   1      32.054  26.202  21.990  1.00  0.00     0.275 C 
ATOM     14  N   UNL A   1      32.395  27.521  22.061  1.00  0.00    -0.340 N 
ATOM     15  H   UNL A   1      33.080  27.839  21.430  1.00  0.00     0.164 HD
ATOM     16  O   UNL A   1      32.487  25.527  21.055  1.00  0.00    -0.268 OA
BRANCH  14  17
ATOM     17  C   UNL A   1      31.850  28.481  22.966  1.00  0.00     0.206 C 
BRANCH  17  18
ATOM     18  C   UNL A   1      30.628  29.218  22.443  1.00  0.00    -0.085 C 
ATOM     19  C   UNL A   1      29.580  29.850  21.994  1.00  0.00     0.006 C 
ENDBRANCH  17  18
ENDBRANCH  14  17
ENDBRANCH  12  13
ENDBRANCH  10  12
BRANCH  10  20
ATOM     20  C   UNL A   1      32.274  25.551  25.362  1.00  0.00     0.090 C 
ATOM     21  C   UNL A   1      32.472  24.519  26.429  1.00  0.00     0.078 C 
ATOM     22  C   UNL A   1      33.615  26.340  25.369  1.00  0.00     0.078 C 
ATOM     23  C   UNL A   1      31.194  26.538  25.868  1.00  0.00     0.078 C 
ENDBRANCH  10  20
ENDBRANCH   9  10
ENDBRANCH   7   9
ENDBRANCH   6   7
ENDBRANCH   5   6
ENDBRANCH   4   5
ENDBRANCH   3   4
ENDBRANCH   2   3
ENDBRANCH   1   2
BRANCH   1  24
ATOM     24  O   UNL A   1      38.320  21.307  25.402  1.00  0.00    -0.377 OA
BRANCH  24  25
ATOM     25  C   UNL A   1      38.833  22.379  26.181  1.00  0.00     0.188 C 
BRANCH  25  26
ATOM     26  C   UNL A   1      37.949  23.614  26.402  1.00  0.00     0.188 C 
BRANCH  26  27
ATOM     27  O   UNL A   1      38.564  24.881  26.641  1.00  0.00    -0.376 OA
BRANCH  27  28
ATOM     28  C   UNL A   1      39.373  25.031  27.799  1.00  0.00     0.202 C 
BRANCH  28  29
ATOM     29  C   UNL A   1      39.878  26.423  28.162  1.00  0.00     0.261 C 
BRANCH  29  30
ATOM     30  O   UNL A   1      41.164  26.351  28.789  1.00  0.00    -0.460 OA
BRANCH  30  31
ATOM     31  C   UNL A   1      42.203  26.591  27.961  1.00  0.00     0.338 C 
ATOM     32  O   UNL A   1      42.528  25.949  26.979  1.00  0.00    -0.246 OA
BRANCH  31  33
ATOM     33  C   UNL A   1      42.810  27.883  28.308  1.00  0.00     0.060 A 
ATOM     34  C   UNL A   1      43.645  27.918  29.431  1.00  0.00     0.016 A 
ATOM     35  C   UNL A   1      42.477  29.049  27.618  1.00  0.00     0.016 A 
ATOM     36  C   UNL A   1      44.104  29.134  29.912  1.00  0.00     0.010 A 
ATOM     37  C   UNL A   1      42.918  30.275  28.118  1.00  0.00     0.010 A 
ATOM     38  C   UNL A   1      43.686  30.316  29.294  1.00  0.00    -0.014 A 
BRANCH  38  39
ATOM     39  C   UNL A   1      43.879  31.584  30.021  1.00  0.00     0.031 A 
ATOM     40  C   UNL A   1      42.832  31.998  31.016  1.00  0.00     0.074 A 
ATOM     41  C   UNL A   1      44.988  32.315  29.829  1.00  0.00     0.049 A 
ATOM     42  N   UNL A   1      42.775  33.070  31.758  1.00  0.00    -0.248 NA
ATOM     43  C   UNL A   1      41.698  31.076  31.201  1.00  0.00     0.031 C 
ATOM     44  C   UNL A   1      46.072  31.974  28.910  1.00  0.00     0.029 A 
ATOM     45  N   UNL A   1      45.370  33.508  30.381  1.00  0.00    -0.354 N 
ATOM     46  C   UNL A   1      41.583  32.975  32.464  1.00  0.00     0.074 A 
ATOM     47  C   UNL A   1      40.947  31.739  32.067  1.00  0.00     0.031 C 
ATOM     48  C   UNL A   1      46.982  32.962  28.929  1.00  0.00     0.029 A 
ATOM     49  C   UNL A   1      46.522  34.012  29.835  1.00  0.00     0.049 A 
ATOM     50  H   UNL A   1      44.866  33.958  31.098  1.00  0.00     0.167 HD
ATOM     51  C   UNL A   1      41.068  33.843  33.365  1.00  0.00     0.034 A 
ATOM     52  C   UNL A   1      47.113  35.208  30.020  1.00  0.00     0.034 A 
ATOM     53  C   UNL A   1      41.720  35.063  33.753  1.00  0.00     0.049 A 
ATOM     54  C   UNL A   1      46.506  36.170  31.005  1.00  0.00     0.074 A 
ATOM     55  C   UNL A   1      41.314  35.996  34.688  1.00  0.00     0.029 A 
ATOM     56  N   UNL A   1      42.906  35.531  33.205  1.00  0.00    -0.354 N 
ATOM     57  N   UNL A   1      45.432  36.028  31.745  1.00  0.00    -0.248 NA
ATOM     58  C   UNL A   1      47.210  37.443  31.208  1.00  0.00     0.031 C 
ATOM     59  C   UNL A   1      42.232  37.052  34.673  1.00  0.00     0.029 A 
ATOM     60  C   UNL A   1      43.237  36.752  33.766  1.00  0.00     0.049 A 
ATOM     61  H   UNL A   1      43.434  35.064  32.518  1.00  0.00     0.167 HD
ATOM     62  C   UNL A   1      45.347  37.176  32.524  1.00  0.00     0.074 A 
ATOM     63  C   UNL A   1      46.493  37.994  32.179  1.00  0.00     0.031 C 
ATOM     64  C   UNL A   1      44.405  37.529  33.435  1.00  0.00     0.034 A 
BRANCH  51  65
ATOM     65  C   UNL A   1      39.732  33.509  33.973  1.00  0.00     0.023 A 
ATOM     66  C   UNL A   1      38.540  33.830  33.291  1.00  0.00     0.012 A 
ATOM     67  C   UNL A   1      39.659  32.845  35.214  1.00  0.00     0.148 A 
ATOM     68  C   UNL A   1      37.298  33.527  33.850  1.00  0.00     0.002 A 
ATOM     69  C   UNL A   1      38.421  32.503  35.741  1.00  0.00     0.091 A 
ATOM     70  F   UNL A   1      40.802  32.574  35.860  1.00  0.00    -0.205 F 
ATOM     71  C   UNL A   1      37.239  32.855  35.069  1.00  0.00     0.022 A 
BRANCH  69  72
ATOM     72  S   UNL A   1      38.243  31.566  37.264  1.00  0.00     0.127 S 
ATOM     73  O   UNL A   1      39.368  32.068  38.052  1.00  0.00    -0.237 OA
ATOM     74  O   UNL A   1      36.927  31.999  37.736  1.00  0.00    -0.237 OA
ATOM     75  O   UNL A   1      38.323  30.163  36.885  1.00  0.00    -0.744 OA
ENDBRANCH  69  72
ENDBRANCH  51  65
BRANCH  52  76
ATOM     76  C   UNL A   1      48.344  35.550  29.254  1.00  0.00     0.023 A 
ATOM     77  C   UNL A   1      49.607  35.427  29.863  1.00  0.00     0.012 A 
ATOM     78  C   UNL A   1      48.264  35.963  27.909  1.00  0.00     0.148 A 
ATOM     79  C   UNL A   1      50.768  35.738  29.155  1.00  0.00     0.002 A 
ATOM     80  C   UNL A   1      49.427  36.214  27.193  1.00  0.00     0.091 A 
ATOM     81  F   UNL A   1      47.051  36.084  27.353  1.00  0.00    -0.205 F 
ATOM     82  C   UNL A   1      50.679  36.121  27.819  1.00  0.00     0.022 A 
BRANCH  80  83
ATOM     83  S   UNL A   1      49.417  36.583  25.435  1.00  0.00     0.127 S 
ATOM     84  O   UNL A   1      50.840  36.765  25.160  1.00  0.00    -0.237 OA
ATOM     85  O   UNL A   1      48.833  35.362  24.877  1.00  0.00    -0.237 OA
ATOM     86  O   UNL A   1      48.587  37.770  25.282  1.00  0.00    -0.744 OA
ENDBRANCH  80  83
ENDBRANCH  52  76
BRANCH  64  87
ATOM     87  C   UNL A   1      44.593  38.837  34.157  1.00  0.00     0.023 A 
ATOM     88  C   UNL A   1      45.534  38.941  35.200  1.00  0.00     0.012 A 
ATOM     89  C   UNL A   1      43.883  39.983  33.749  1.00  0.00     0.148 A 
ATOM     90  C   UNL A   1      45.736  40.156  35.852  1.00  0.00     0.002 A 
ATOM     91  C   UNL A   1      44.130  41.203  34.365  1.00  0.00     0.091 A 
ATOM     92  F   UNL A   1      42.981  39.859  32.764  1.00  0.00    -0.205 F 
ATOM     93  C   UNL A   1      45.045  41.289  35.427  1.00  0.00     0.022 A 
BRANCH  91  94
ATOM     94  S   UNL A   1      43.364  42.732  33.815  1.00  0.00     0.127 S 
ATOM     95  O   UNL A   1      43.761  42.773  32.409  1.00  0.00    -0.237 OA
ATOM     96  O   UNL A   1      41.943  42.464  34.041  1.00  0.00    -0.237 OA
ATOM     97  O   UNL A   1      43.921  43.787  34.651  1.00  0.00    -0.744 OA
ENDBRANCH  91  94
ENDBRANCH  64  87
ENDBRANCH  38  39
ENDBRANCH  31  33
ENDBRANCH  30  31
ENDBRANCH  29  30
ENDBRANCH  28  29
ENDBRANCH  27  28
ENDBRANCH  26  27
ENDBRANCH  25  26
ENDBRANCH  24  25
ENDBRANCH   1  24
TORSDOF 29
ENDMDL
MODEL 3
REMARK VINA RESULT:      -7.2      5.527     15.646
REMARK SMILES C#CCNC(=O)C[N@@H+](CC(=O)OCCOCCOCCOCCOC(=O)c1ccc(-c2c3nc(c(-c4cccc(S(=O)(=O)[O-])c4F)c4ccc([nH]4)c(-c4cccc(S(=O)(=O)[O-])c4F)c4nc(c(-c5cccc(S(=O)(=O)[O-])c5F)c5ccc2[nH]5)C=C4)C=C3)cc1)C(C)(C)C
REMARK SMILES IDX 17 1 16 2 15 3 14 4 13 5 12 6 10 7 11 8 9 9 8 10 7 12 5 13
REMARK SMILES IDX 4 14 6 16 3 17 2 18 1 19 90 20 91 21 92 22 93 23 18 24 19 25
REMARK SMILES IDX 20 26 21 27 22 28 23 29 24 30 25 31 26 32 27 33 28 34 89 35
REMARK SMILES IDX 29 36 88 37 30 38 31 39 32 40 82 41 33 42 87 43 81 44 83 45
REMARK SMILES IDX 34 46 86 47 80 48 79 49 35 51 67 52 47 53 66 54 48 55 51 56
REMARK SMILES IDX 65 57 84 58 49 59 50 60 64 62 85 63 52 64 36 65 37 66 45 67
REMARK SMILES IDX 38 68 40 69 46 70 39 71 41 72 42 73 43 74 44 75 68 76 69 77
REMARK SMILES IDX 77 78 70 79 72 80 78 81 71 82 73 83 74 84 75 85 76 86 53 87
REMARK SMILES IDX 54 88 62 89 55 90 57 91 63 92 56 93 58 94 59 95 60 96 61 97
REMARK H PARENT 8 11 4 15 83 50 51 61
REMARK Flexibility Score: inf
ROOT
ATOM      1  C   UNL A   1      44.236  42.518  24.920  1.00  0.00     0.188 C 
ENDROOT
BRANCH   1   2
ATOM      2  C   UNL A   1      44.918  43.764  25.516  1.00  0.00     0.188 C 
BRANCH   2   3
ATOM      3  O   UNL A   1      45.557  44.622  24.570  1.00  0.00    -0.376 OA
BRANCH   3   4
ATOM      4  C   UNL A   1      46.459  43.999  23.658  1.00  0.00     0.202 C 
BRANCH   4   5
ATOM      5  C   UNL A   1      47.834  44.658  23.433  1.00  0.00     0.261 C 
BRANCH   5   6
ATOM      6  O   UNL A   1      48.393  44.596  22.099  1.00  0.00    -0.459 OA
BRANCH   6   7
ATOM      7  C   UNL A   1      48.165  45.676  21.310  1.00  0.00     0.361 C 
ATOM      8  O   UNL A   1      47.697  46.734  21.735  1.00  0.00    -0.245 OA
BRANCH   7   9
ATOM      9  C   UNL A   1      48.465  45.536  19.810  1.00  0.00     0.387 C 
BRANCH   9  10
ATOM     10  N   UNL A   1      47.646  46.196  18.750  1.00  0.00    -0.314 N 
ATOM     11  H   UNL A   1      47.506  47.159  19.054  1.00  0.00     0.349 HD
BRANCH  10  12
ATOM     12  C   UNL A   1      46.277  45.630  18.699  1.00  0.00     0.364 C 
BRANCH  12  13
ATOM     13  C   UNL A   1      45.164  46.678  18.649  1.00  0.00     0.275 C 
ATOM     14  N   UNL A   1      43.946  46.343  18.135  1.00  0.00    -0.340 N 
ATOM     15  H   UNL A   1      43.224  47.004  18.232  1.00  0.00     0.164 HD
ATOM     16  O   UNL A   1      45.341  47.828  19.054  1.00  0.00    -0.268 OA
BRANCH  14  17
ATOM     17  C   UNL A   1      43.624  45.122  17.469  1.00  0.00     0.206 C 
BRANCH  17  18
ATOM     18  C   UNL A   1      42.881  44.112  18.328  1.00  0.00    -0.085 C 
ATOM     19  C   UNL A   1      42.244  43.246  19.066  1.00  0.00     0.006 C 
ENDBRANCH  17  18
ENDBRANCH  14  17
ENDBRANCH  12  13
ENDBRANCH  10  12
BRANCH  10  20
ATOM     20  C   UNL A   1      48.316  46.631  17.498  1.00  0.00     0.090 C 
ATOM     21  C   UNL A   1      49.367  45.620  17.160  1.00  0.00     0.078 C 
ATOM     22  C   UNL A   1      47.482  46.739  16.189  1.00  0.00     0.078 C 
ATOM     23  C   UNL A   1      49.025  47.997  17.667  1.00  0.00     0.078 C 
ENDBRANCH  10  20
ENDBRANCH   9  10
ENDBRANCH   7   9
ENDBRANCH   6   7
ENDBRANCH   5   6
ENDBRANCH   4   5
ENDBRANCH   3   4
ENDBRANCH   2   3
ENDBRANCH   1   2
BRANCH   1  24
ATOM     24  O   UNL A   1      43.419  41.904  25.908  1.00  0.00    -0.377 OA
BRANCH  24  25
ATOM     25  C   UNL A   1      42.188  41.301  25.536  1.00  0.00     0.188 C 
BRANCH  25  26
ATOM     26  C   UNL A   1      41.783  39.983  26.212  1.00  0.00     0.188 C 
BRANCH  26  27
ATOM     27  O   UNL A   1      42.792  39.155  26.791  1.00  0.00    -0.376 OA
BRANCH  27  28
ATOM     28  C   UNL A   1      42.584  38.655  28.104  1.00  0.00     0.202 C 
BRANCH  28  29
ATOM     29  C   UNL A   1      43.715  38.779  29.120  1.00  0.00     0.261 C 
BRANCH  29  30
ATOM     30  O   UNL A   1      43.920  37.538  29.807  1.00  0.00    -0.460 OA
BRANCH  30  31
ATOM     31  C   UNL A   1      45.178  37.055  29.722  1.00  0.00     0.338 C 
ATOM     32  O   UNL A   1      46.209  37.620  30.037  1.00  0.00    -0.246 OA
BRANCH  31  33
ATOM     33  C   UNL A   1      45.126  35.634  29.352  1.00  0.00     0.060 A 
ATOM     34  C   UNL A   1      44.499  35.308  28.143  1.00  0.00     0.016 A 
ATOM     35  C   UNL A   1      45.579  34.641  30.221  1.00  0.00     0.016 A 
ATOM     36  C   UNL A   1      44.262  33.981  27.825  1.00  0.00     0.010 A 
ATOM     37  C   UNL A   1      45.317  33.307  29.912  1.00  0.00     0.010 A 
ATOM     38  C   UNL A   1      44.612  32.984  28.740  1.00  0.00    -0.014 A 
BRANCH  38  39
ATOM     39  C   UNL A   1      44.034  31.641  28.556  1.00  0.00     0.031 A 
ATOM     40  C   UNL A   1      44.815  30.635  27.759  1.00  0.00     0.074 A 
ATOM     41  C   UNL A   1      42.865  31.320  29.131  1.00  0.00     0.049 A 
ATOM     42  N   UNL A   1      44.507  29.405  27.450  1.00  0.00    -0.248 NA
ATOM     43  C   UNL A   1      46.124  31.076  27.243  1.00  0.00     0.031 C 
ATOM     44  C   UNL A   1      42.054  32.220  29.949  1.00  0.00     0.029 A 
ATOM     45  N   UNL A   1      42.148  30.154  29.091  1.00  0.00    -0.354 N 
ATOM     46  C   UNL A   1      45.558  28.939  26.670  1.00  0.00     0.074 A 
ATOM     47  C   UNL A   1      46.515  30.015  26.555  1.00  0.00     0.031 C 
ATOM     48  C   UNL A   1      40.924  31.584  30.301  1.00  0.00     0.029 A 
ATOM     49  C   UNL A   1      40.925  30.251  29.704  1.00  0.00     0.049 A 
ATOM     50  H   UNL A   1      42.479  29.330  28.665  1.00  0.00     0.167 HD
ATOM     51  C   UNL A   1      45.707  27.719  26.104  1.00  0.00     0.034 A 
ATOM     52  C   UNL A   1      39.906  29.371  29.739  1.00  0.00     0.034 A 
ATOM     53  C   UNL A   1      44.746  26.659  26.238  1.00  0.00     0.049 A 
ATOM     54  C   UNL A   1      40.084  28.031  29.076  1.00  0.00     0.074 A 
ATOM     55  C   UNL A   1      44.814  25.369  25.746  1.00  0.00     0.029 A 
ATOM     56  N   UNL A   1      43.530  26.778  26.894  1.00  0.00    -0.354 N 
ATOM     57  N   UNL A   1      41.123  27.562  28.427  1.00  0.00    -0.248 NA
ATOM     58  C   UNL A   1      38.964  27.087  29.180  1.00  0.00     0.031 C 
ATOM     59  C   UNL A   1      43.616  24.721  26.066  1.00  0.00     0.029 A 
ATOM     60  C   UNL A   1      42.825  25.590  26.802  1.00  0.00     0.049 A 
ATOM     61  H   UNL A   1      43.214  27.587  27.357  1.00  0.00     0.167 HD
ATOM     62  C   UNL A   1      40.797  26.258  28.072  1.00  0.00     0.074 A 
ATOM     63  C   UNL A   1      39.469  26.007  28.599  1.00  0.00     0.031 C 
ATOM     64  C   UNL A   1      41.521  25.352  27.369  1.00  0.00     0.034 A 
BRANCH  51  65
ATOM     65  C   UNL A   1      46.942  27.479  25.278  1.00  0.00     0.023 A 
ATOM     66  C   UNL A   1      46.945  27.776  23.899  1.00  0.00     0.012 A 
ATOM     67  C   UNL A   1      48.118  26.985  25.879  1.00  0.00     0.148 A 
ATOM     68  C   UNL A   1      48.085  27.552  23.127  1.00  0.00     0.002 A 
ATOM     69  C   UNL A   1      49.263  26.812  25.113  1.00  0.00     0.091 A 
ATOM     70  F   UNL A   1      48.088  26.683  27.185  1.00  0.00    -0.205 F 
ATOM     71  C   UNL A   1      49.245  27.080  23.735  1.00  0.00     0.022 A 
BRANCH  69  72
ATOM     72  S   UNL A   1      50.829  26.286  25.820  1.00  0.00     0.127 S 
ATOM     73  O   UNL A   1      51.583  25.915  24.623  1.00  0.00    -0.237 OA
ATOM     74  O   UNL A   1      51.292  27.508  26.478  1.00  0.00    -0.237 OA
ATOM     75  O   UNL A   1      50.515  25.189  26.724  1.00  0.00    -0.744 OA
ENDBRANCH  69  72
ENDBRANCH  51  65
BRANCH  52  76
ATOM     76  C   UNL A   1      38.638  29.738  30.428  1.00  0.00     0.023 A 
ATOM     77  C   UNL A   1      38.400  29.298  31.743  1.00  0.00     0.012 A 
ATOM     78  C   UNL A   1      37.681  30.553  29.790  1.00  0.00     0.148 A 
ATOM     79  C   UNL A   1      37.219  29.639  32.402  1.00  0.00     0.002 A 
ATOM     80  C   UNL A   1      36.534  30.937  30.473  1.00  0.00     0.091 A 
ATOM     81  F   UNL A   1      37.923  30.950  28.533  1.00  0.00    -0.205 F 
ATOM     82  C   UNL A   1      36.292  30.466  31.772  1.00  0.00     0.022 A 
BRANCH  80  83
ATOM     83  S   UNL A   1      35.351  32.105  29.792  1.00  0.00     0.127 S 
ATOM     84  O   UNL A   1      34.697  31.301  28.763  1.00  0.00    -0.237 OA
ATOM     85  O   UNL A   1      34.523  32.406  30.960  1.00  0.00    -0.237 OA
ATOM     86  O   UNL A   1      36.138  33.231  29.307  1.00  0.00    -0.744 OA
ENDBRANCH  80  83
ENDBRANCH  52  76
BRANCH  64  87
ATOM     87  C   UNL A   1      40.916  23.989  27.162  1.00  0.00     0.023 A 
ATOM     88  C   UNL A   1      41.459  22.865  27.815  1.00  0.00     0.012 A 
ATOM     89  C   UNL A   1      39.760  23.837  26.370  1.00  0.00     0.148 A 
ATOM     90  C   UNL A   1      40.885  21.606  27.653  1.00  0.00     0.002 A 
ATOM     91  C   UNL A   1      39.160  22.589  26.259  1.00  0.00     0.091 A 
ATOM     92  F   UNL A   1      39.267  24.916  25.744  1.00  0.00    -0.205 F 
ATOM     93  C   UNL A   1      39.729  21.470  26.886  1.00  0.00     0.022 A 
BRANCH  91  94
ATOM     94  S   UNL A   1      37.614  22.340  25.379  1.00  0.00     0.127 S 
ATOM     95  O   UNL A   1      37.925  21.170  24.559  1.00  0.00    -0.237 OA
ATOM     96  O   UNL A   1      36.673  22.087  26.472  1.00  0.00    -0.237 OA
ATOM     97  O   UNL A   1      37.367  23.570  24.640  1.00  0.00    -0.744 OA
ENDBRANCH  91  94
ENDBRANCH  64  87
ENDBRANCH  38  39
ENDBRANCH  31  33
ENDBRANCH  30  31
ENDBRANCH  29  30
ENDBRANCH  28  29
ENDBRANCH  27  28
ENDBRANCH  26  27
ENDBRANCH  25  26
ENDBRANCH  24  25
ENDBRANCH   1  24
TORSDOF 29
ENDMDL
