MODEL 1
REMARK VINA RESULT:      -7.7      0.000      0.000
REMARK SMILES CC[C@@H](C(=O)OCCOCCOCCOCCOC(=O)c1ccc(-c2c3nc(c(-c4cccc(S(=O)(=O)[O-])c4F)c4ccc([nH]4)c(-c4cccc(S(=O)(=O)[O-])c4F)c4nc(c(-c5cccc(S(=O)(=O)[O-])c5F)c5ccc2[nH]5)C=C4)C=C3)cc1)N(C)C(=O)N(C)C[C@@H]1CCC[N@H+]1C
REMARK SMILES IDX 11 1 10 2 9 3 8 4 7 5 6 6 4 7 5 8 3 9 2 10 1 11 84 12 85 13
REMARK SMILES IDX 86 14 87 15 88 16 89 17 90 18 91 19 92 20 95 21 93 22 94 23
REMARK SMILES IDX 96 24 12 26 13 27 14 28 15 29 16 30 17 31 18 32 19 33 20 34
REMARK SMILES IDX 21 35 22 36 83 37 23 38 82 39 24 40 25 41 26 42 76 43 27 44
REMARK SMILES IDX 81 45 75 46 77 47 28 48 80 49 74 50 73 51 29 53 61 54 41 55
REMARK SMILES IDX 60 56 42 57 45 58 59 59 78 60 43 61 44 62 58 64 79 65 46 66
REMARK SMILES IDX 30 67 31 68 39 69 32 70 34 71 40 72 33 73 35 74 36 75 37 76
REMARK SMILES IDX 38 77 62 78 63 79 71 80 64 81 66 82 72 83 65 84 67 85 68 86
REMARK SMILES IDX 69 87 70 88 47 89 48 90 56 91 49 92 51 93 57 94 50 95 52 96
REMARK SMILES IDX 53 97 54 98 55 99
REMARK H PARENT 95 25 77 52 45 63
REMARK Flexibility Score: inf
ROOT
ATOM      1  C   UNL A   1      34.543  33.518  28.620  1.00  0.00     0.188 C 
ENDROOT
BRANCH   1   2
ATOM      2  C   UNL A   1      34.440  31.983  28.569  1.00  0.00     0.188 C 
BRANCH   2   3
ATOM      3  O   UNL A   1      33.557  31.446  27.606  1.00  0.00    -0.376 OA
BRANCH   3   4
ATOM      4  C   UNL A   1      33.735  30.101  27.216  1.00  0.00     0.202 C 
BRANCH   4   5
ATOM      5  C   UNL A   1      32.944  29.564  26.015  1.00  0.00     0.261 C 
BRANCH   5   6
ATOM      6  O   UNL A   1      33.666  28.723  25.097  1.00  0.00    -0.462 OA
BRANCH   6   7
ATOM      7  C   UNL A   1      33.499  27.385  25.180  1.00  0.00     0.328 C 
ATOM      8  O   UNL A   1      34.017  26.700  26.061  1.00  0.00    -0.250 OA
BRANCH   7   9
ATOM      9  C   UNL A   1      32.635  26.776  24.036  1.00  0.00     0.196 C 
BRANCH   9  10
ATOM     10  C   UNL A   1      32.677  27.256  22.560  1.00  0.00     0.034 C 
ATOM     11  C   UNL A   1      33.877  28.097  22.119  1.00  0.00     0.007 C 
ENDBRANCH   9  10
BRANCH   9  12
ATOM     12  N   UNL A   1      31.231  26.533  24.574  1.00  0.00    -0.314 N 
ATOM     13  C   UNL A   1      30.289  27.560  24.183  1.00  0.00     0.149 C 
BRANCH  12  14
ATOM     14  C   UNL A   1      30.915  25.315  25.169  1.00  0.00     0.320 C 
ATOM     15  O   UNL A   1      30.527  25.311  26.342  1.00  0.00    -0.248 OA
BRANCH  14  16
ATOM     16  N   UNL A   1      31.028  24.080  24.531  1.00  0.00    -0.322 N 
ATOM     17  C   UNL A   1      30.607  23.642  23.209  1.00  0.00     0.149 C 
BRANCH  16  18
ATOM     18  C   UNL A   1      31.556  22.949  25.346  1.00  0.00     0.185 C 
BRANCH  18  19
ATOM     19  C   UNL A   1      32.768  22.103  24.824  1.00  0.00     0.203 C 
ATOM     20  C   UNL A   1      32.490  20.658  24.415  1.00  0.00     0.073 C 
ATOM     21  N   UNL A   1      33.970  21.983  25.700  1.00  0.00    -0.333 N 
ATOM     22  C   UNL A   1      33.666  19.826  24.894  1.00  0.00     0.068 C 
ATOM     23  C   UNL A   1      34.738  20.860  25.129  1.00  0.00     0.262 C 
ATOM     24  C   UNL A   1      34.802  23.186  25.690  1.00  0.00     0.333 C 
ATOM     25  H   UNL A   1      33.689  21.844  26.671  1.00  0.00     0.348 HD
ENDBRANCH  18  19
ENDBRANCH  16  18
ENDBRANCH  14  16
ENDBRANCH  12  14
ENDBRANCH   9  12
ENDBRANCH   7   9
ENDBRANCH   6   7
ENDBRANCH   5   6
ENDBRANCH   4   5
ENDBRANCH   3   4
ENDBRANCH   2   3
ENDBRANCH   1   2
BRANCH   1  26
ATOM     26  O   UNL A   1      33.429  34.362  28.389  1.00  0.00    -0.377 OA
BRANCH  26  27
ATOM     27  C   UNL A   1      33.525  35.713  28.787  1.00  0.00     0.188 C 
BRANCH  27  28
ATOM     28  C   UNL A   1      32.802  36.115  30.091  1.00  0.00     0.188 C 
BRANCH  28  29
ATOM     29  O   UNL A   1      33.150  37.394  30.603  1.00  0.00    -0.376 OA
BRANCH  29  30
ATOM     30  C   UNL A   1      33.363  37.530  31.998  1.00  0.00     0.202 C 
BRANCH  30  31
ATOM     31  C   UNL A   1      33.411  36.262  32.868  1.00  0.00     0.261 C 
BRANCH  31  32
ATOM     32  O   UNL A   1      34.702  35.860  33.342  1.00  0.00    -0.460 OA
BRANCH  32  33
ATOM     33  C   UNL A   1      35.159  34.643  32.966  1.00  0.00     0.338 C 
ATOM     34  O   UNL A   1      34.763  33.966  32.046  1.00  0.00    -0.246 OA
BRANCH  33  35
ATOM     35  C   UNL A   1      36.389  34.386  33.753  1.00  0.00     0.060 A 
ATOM     36  C   UNL A   1      37.633  34.682  33.176  1.00  0.00     0.016 A 
ATOM     37  C   UNL A   1      36.311  33.929  35.070  1.00  0.00     0.016 A 
ATOM     38  C   UNL A   1      38.802  34.541  33.924  1.00  0.00     0.010 A 
ATOM     39  C   UNL A   1      37.487  33.739  35.801  1.00  0.00     0.010 A 
ATOM     40  C   UNL A   1      38.737  34.031  35.226  1.00  0.00    -0.014 A 
BRANCH  40  41
ATOM     41  C   UNL A   1      39.984  33.627  35.913  1.00  0.00     0.031 A 
ATOM     42  C   UNL A   1      40.614  34.603  36.865  1.00  0.00     0.074 A 
ATOM     43  C   UNL A   1      40.547  32.425  35.698  1.00  0.00     0.049 A 
ATOM     44  N   UNL A   1      41.722  34.497  37.549  1.00  0.00    -0.248 NA
ATOM     45  C   UNL A   1      39.893  35.871  37.074  1.00  0.00     0.031 C 
ATOM     46  C   UNL A   1      40.020  31.387  34.814  1.00  0.00     0.029 A 
ATOM     47  N   UNL A   1      41.711  31.888  36.194  1.00  0.00    -0.354 N 
ATOM     48  C   UNL A   1      41.849  35.693  38.245  1.00  0.00     0.074 A 
ATOM     49  C   UNL A   1      40.706  36.511  37.899  1.00  0.00     0.031 C 
ATOM     50  C   UNL A   1      40.877  30.351  34.802  1.00  0.00     0.029 A 
ATOM     51  C   UNL A   1      42.026  30.666  35.650  1.00  0.00     0.049 A 
ATOM     52  H   UNL A   1      42.265  32.337  36.873  1.00  0.00     0.167 HD
ATOM     53  C   UNL A   1      42.824  36.074  39.100  1.00  0.00     0.034 A 
ATOM     54  C   UNL A   1      43.132  29.907  35.797  1.00  0.00     0.034 A 
ATOM     55  C   UNL A   1      43.959  35.260  39.440  1.00  0.00     0.049 A 
ATOM     56  C   UNL A   1      44.232  30.379  36.715  1.00  0.00     0.074 A 
ATOM     57  C   UNL A   1      44.981  35.539  40.329  1.00  0.00     0.029 A 
ATOM     58  N   UNL A   1      44.237  34.020  38.886  1.00  0.00    -0.354 N 
ATOM     59  N   UNL A   1      44.286  31.459  37.458  1.00  0.00    -0.248 NA
ATOM     60  C   UNL A   1      45.415  29.512  36.836  1.00  0.00     0.031 C 
ATOM     61  C   UNL A   1      45.900  34.487  40.280  1.00  0.00     0.029 A 
ATOM     62  C   UNL A   1      45.427  33.530  39.397  1.00  0.00     0.049 A 
ATOM     63  H   UNL A   1      43.670  33.555  38.228  1.00  0.00     0.167 HD
ATOM     64  C   UNL A   1      45.487  31.385  38.156  1.00  0.00     0.074 A 
ATOM     65  C   UNL A   1      46.119  30.142  37.766  1.00  0.00     0.031 C 
ATOM     66  C   UNL A   1      46.027  32.272  39.030  1.00  0.00     0.034 A 
BRANCH  53  67
ATOM     67  C   UNL A   1      42.708  37.437  39.728  1.00  0.00     0.023 A 
ATOM     68  C   UNL A   1      43.248  38.562  39.071  1.00  0.00     0.012 A 
ATOM     69  C   UNL A   1      42.023  37.609  40.946  1.00  0.00     0.148 A 
ATOM     70  C   UNL A   1      43.134  39.833  39.633  1.00  0.00     0.002 A 
ATOM     71  C   UNL A   1      41.872  38.885  41.476  1.00  0.00     0.091 A 
ATOM     72  F   UNL A   1      41.540  36.524  41.567  1.00  0.00    -0.205 F 
ATOM     73  C   UNL A   1      42.438  39.995  40.827  1.00  0.00     0.022 A 
BRANCH  71  74
ATOM     74  S   UNL A   1      40.924  39.209  42.965  1.00  0.00     0.127 S 
ATOM     75  O   UNL A   1      41.773  38.605  43.992  1.00  0.00    -0.237 OA
ATOM     76  O   UNL A   1      40.884  40.671  42.991  1.00  0.00    -0.237 OA
ATOM     77  O   UNL A   1      39.633  38.567  42.770  1.00  0.00    -0.744 OA
ENDBRANCH  71  74
ENDBRANCH  53  67
BRANCH  54  78
ATOM     78  C   UNL A   1      43.259  28.617  35.060  1.00  0.00     0.023 A 
ATOM     79  C   UNL A   1      43.799  28.604  33.760  1.00  0.00     0.012 A 
ATOM     80  C   UNL A   1      42.846  27.402  35.644  1.00  0.00     0.148 A 
ATOM     81  C   UNL A   1      43.895  27.412  33.041  1.00  0.00     0.002 A 
ATOM     82  C   UNL A   1      42.999  26.211  34.945  1.00  0.00     0.091 A 
ATOM     83  F   UNL A   1      42.317  27.437  36.875  1.00  0.00    -0.205 F 
ATOM     84  C   UNL A   1      43.505  26.215  33.636  1.00  0.00     0.022 A 
BRANCH  82  85
ATOM     85  S   UNL A   1      42.642  24.609  35.676  1.00  0.00     0.127 S 
ATOM     86  O   UNL A   1      42.959  23.701  34.576  1.00  0.00    -0.237 OA
ATOM     87  O   UNL A   1      43.583  24.575  36.794  1.00  0.00    -0.237 OA
ATOM     88  O   UNL A   1      41.240  24.656  36.069  1.00  0.00    -0.744 OA
ENDBRANCH  82  85
ENDBRANCH  54  78
BRANCH  66  89
ATOM     89  C   UNL A   1      47.354  31.922  39.658  1.00  0.00     0.023 A 
ATOM     90  C   UNL A   1      47.393  31.173  40.850  1.00  0.00     0.012 A 
ATOM     91  C   UNL A   1      48.563  32.273  39.023  1.00  0.00     0.148 A 
ATOM     92  C   UNL A   1      48.613  30.813  41.422  1.00  0.00     0.002 A 
ATOM     93  C   UNL A   1      49.774  31.865  39.570  1.00  0.00     0.091 A 
ATOM     94  F   UNL A   1      48.505  32.996  37.895  1.00  0.00    -0.205 F 
ATOM     95  C   UNL A   1      49.802  31.148  40.776  1.00  0.00     0.022 A 
BRANCH  93  96
ATOM     96  S   UNL A   1      51.350  32.165  38.762  1.00  0.00     0.127 S 
ATOM     97  O   UNL A   1      51.428  33.625  38.794  1.00  0.00    -0.237 OA
ATOM     98  O   UNL A   1      52.288  31.484  39.653  1.00  0.00    -0.237 OA
ATOM     99  O   UNL A   1      51.241  31.577  37.433  1.00  0.00    -0.744 OA
ENDBRANCH  93  96
ENDBRANCH  66  89
ENDBRANCH  40  41
ENDBRANCH  33  35
ENDBRANCH  32  33
ENDBRANCH  31  32
ENDBRANCH  30  31
ENDBRANCH  29  30
ENDBRANCH  28  29
ENDBRANCH  27  28
ENDBRANCH  26  27
ENDBRANCH   1  26
TORSDOF 29
ENDMDL
MODEL 2
REMARK VINA RESULT:      -7.7      6.927      7.997
REMARK SMILES CC[C@@H](C(=O)OCCOCCOCCOCCOC(=O)c1ccc(-c2c3nc(c(-c4cccc(S(=O)(=O)[O-])c4F)c4ccc([nH]4)c(-c4cccc(S(=O)(=O)[O-])c4F)c4nc(c(-c5cccc(S(=O)(=O)[O-])c5F)c5ccc2[nH]5)C=C4)C=C3)cc1)N(C)C(=O)N(C)C[C@@H]1CCC[N@H+]1C
REMARK SMILES IDX 11 1 10 2 9 3 8 4 7 5 6 6 4 7 5 8 3 9 2 10 1 11 84 12 85 13
REMARK SMILES IDX 86 14 87 15 88 16 89 17 90 18 91 19 92 20 95 21 93 22 94 23
REMARK SMILES IDX 96 24 12 26 13 27 14 28 15 29 16 30 17 31 18 32 19 33 20 34
REMARK SMILES IDX 21 35 22 36 83 37 23 38 82 39 24 40 25 41 26 42 76 43 27 44
REMARK SMILES IDX 81 45 75 46 77 47 28 48 80 49 74 50 73 51 29 53 61 54 41 55
REMARK SMILES IDX 60 56 42 57 45 58 59 59 78 60 43 61 44 62 58 64 79 65 46 66
REMARK SMILES IDX 30 67 31 68 39 69 32 70 34 71 40 72 33 73 35 74 36 75 37 76
REMARK SMILES IDX 38 77 62 78 63 79 71 80 64 81 66 82 72 83 65 84 67 85 68 86
REMARK SMILES IDX 69 87 70 88 47 89 48 90 56 91 49 92 51 93 57 94 50 95 52 96
REMARK SMILES IDX 53 97 54 98 55 99
REMARK H PARENT 95 25 77 52 45 63
REMARK Flexibility Score: inf
ROOT
ATOM      1  C   UNL A   1      34.140  33.485  28.073  1.00  0.00     0.188 C 
ENDROOT
BRANCH   1   2
ATOM      2  C   UNL A   1      34.128  31.945  28.067  1.00  0.00     0.188 C 
BRANCH   2   3
ATOM      3  O   UNL A   1      33.037  31.331  27.415  1.00  0.00    -0.376 OA
BRANCH   3   4
ATOM      4  C   UNL A   1      33.279  30.149  26.680  1.00  0.00     0.202 C 
BRANCH   4   5
ATOM      5  C   UNL A   1      32.251  29.701  25.632  1.00  0.00     0.261 C 
BRANCH   5   6
ATOM      6  O   UNL A   1      32.705  28.746  24.657  1.00  0.00    -0.462 OA
BRANCH   6   7
ATOM      7  C   UNL A   1      32.259  27.474  24.744  1.00  0.00     0.328 C 
ATOM      8  O   UNL A   1      32.350  26.801  25.770  1.00  0.00    -0.250 OA
BRANCH   7   9
ATOM      9  C   UNL A   1      31.662  26.914  23.418  1.00  0.00     0.196 C 
BRANCH   9  10
ATOM     10  C   UNL A   1      30.313  26.151  23.321  1.00  0.00     0.034 C 
ATOM     11  C   UNL A   1      29.358  26.241  24.513  1.00  0.00     0.007 C 
ENDBRANCH   9  10
BRANCH   9  12
ATOM     12  N   UNL A   1      32.792  26.290  22.610  1.00  0.00    -0.314 N 
ATOM     13  C   UNL A   1      33.655  27.274  21.990  1.00  0.00     0.149 C 
BRANCH  12  14
ATOM     14  C   UNL A   1      33.040  24.924  22.699  1.00  0.00     0.320 C 
ATOM     15  O   UNL A   1      32.607  24.183  21.811  1.00  0.00    -0.248 OA
BRANCH  14  16
ATOM     16  N   UNL A   1      33.735  24.322  23.748  1.00  0.00    -0.322 N 
ATOM     17  C   UNL A   1      34.846  24.796  24.558  1.00  0.00     0.149 C 
BRANCH  16  18
ATOM     18  C   UNL A   1      33.397  22.902  24.050  1.00  0.00     0.185 C 
BRANCH  18  19
ATOM     19  C   UNL A   1      32.507  22.552  25.291  1.00  0.00     0.203 C 
ATOM     20  C   UNL A   1      31.028  22.926  25.221  1.00  0.00     0.073 C 
ATOM     21  N   UNL A   1      32.926  23.073  26.625  1.00  0.00    -0.333 N 
ATOM     22  C   UNL A   1      30.631  23.436  26.595  1.00  0.00     0.068 C 
ATOM     23  C   UNL A   1      31.733  22.913  27.480  1.00  0.00     0.262 C 
ATOM     24  C   UNL A   1      34.036  22.320  27.206  1.00  0.00     0.333 C 
ATOM     25  H   UNL A   1      33.252  24.037  26.543  1.00  0.00     0.348 HD
ENDBRANCH  18  19
ENDBRANCH  16  18
ENDBRANCH  14  16
ENDBRANCH  12  14
ENDBRANCH   9  12
ENDBRANCH   7   9
ENDBRANCH   6   7
ENDBRANCH   5   6
ENDBRANCH   4   5
ENDBRANCH   3   4
ENDBRANCH   2   3
ENDBRANCH   1   2
BRANCH   1  26
ATOM     26  O   UNL A   1      32.950  34.254  28.111  1.00  0.00    -0.377 OA
BRANCH  26  27
ATOM     27  C   UNL A   1      32.964  35.465  28.837  1.00  0.00     0.188 C 
BRANCH  27  28
ATOM     28  C   UNL A   1      32.906  35.361  30.377  1.00  0.00     0.188 C 
BRANCH  28  29
ATOM     29  O   UNL A   1      33.635  36.361  31.076  1.00  0.00    -0.376 OA
BRANCH  29  30
ATOM     30  C   UNL A   1      33.992  36.119  32.425  1.00  0.00     0.202 C 
BRANCH  30  31
ATOM     31  C   UNL A   1      34.234  34.671  32.881  1.00  0.00     0.261 C 
BRANCH  31  32
ATOM     32  O   UNL A   1      35.437  34.047  32.418  1.00  0.00    -0.460 OA
BRANCH  32  33
ATOM     33  C   UNL A   1      35.324  32.862  31.775  1.00  0.00     0.338 C 
ATOM     34  O   UNL A   1      34.306  32.332  31.393  1.00  0.00    -0.246 OA
BRANCH  33  35
ATOM     35  C   UNL A   1      36.699  32.433  31.422  1.00  0.00     0.060 A 
ATOM     36  C   UNL A   1      37.585  32.092  32.455  1.00  0.00     0.016 A 
ATOM     37  C   UNL A   1      37.084  32.299  30.087  1.00  0.00     0.016 A 
ATOM     38  C   UNL A   1      38.853  31.596  32.153  1.00  0.00     0.010 A 
ATOM     39  C   UNL A   1      38.373  31.849  29.787  1.00  0.00     0.010 A 
ATOM     40  C   UNL A   1      39.266  31.510  30.819  1.00  0.00    -0.014 A 
BRANCH  40  41
ATOM     41  C   UNL A   1      40.691  31.246  30.513  1.00  0.00     0.031 A 
ATOM     42  C   UNL A   1      41.607  32.425  30.348  1.00  0.00     0.074 A 
ATOM     43  C   UNL A   1      41.162  29.994  30.383  1.00  0.00     0.049 A 
ATOM     44  N   UNL A   1      42.875  32.452  30.039  1.00  0.00    -0.248 NA
ATOM     45  C   UNL A   1      41.008  33.754  30.563  1.00  0.00     0.031 C 
ATOM     46  C   UNL A   1      40.376  28.772  30.540  1.00  0.00     0.029 A 
ATOM     47  N   UNL A   1      42.420  29.548  30.060  1.00  0.00    -0.354 N 
ATOM     48  C   UNL A   1      43.222  33.797  29.992  1.00  0.00     0.074 A 
ATOM     49  C   UNL A   1      42.029  34.555  30.302  1.00  0.00     0.031 C 
ATOM     50  C   UNL A   1      41.162  27.713  30.277  1.00  0.00     0.029 A 
ATOM     51  C   UNL A   1      42.495  28.184  29.903  1.00  0.00     0.049 A 
ATOM     52  H   UNL A   1      43.194  30.148  29.952  1.00  0.00     0.167 HD
ATOM     53  C   UNL A   1      44.425  34.351  29.722  1.00  0.00     0.034 A 
ATOM     54  C   UNL A   1      43.515  27.412  29.474  1.00  0.00     0.034 A 
ATOM     55  C   UNL A   1      45.608  33.595  29.413  1.00  0.00     0.049 A 
ATOM     56  C   UNL A   1      44.833  28.060  29.126  1.00  0.00     0.074 A 
ATOM     57  C   UNL A   1      46.886  34.062  29.165  1.00  0.00     0.029 A 
ATOM     58  N   UNL A   1      45.653  32.216  29.282  1.00  0.00    -0.354 N 
ATOM     59  N   UNL A   1      45.181  29.322  29.198  1.00  0.00    -0.248 NA
ATOM     60  C   UNL A   1      45.909  27.170  28.663  1.00  0.00     0.031 C 
ATOM     61  C   UNL A   1      47.694  32.969  28.841  1.00  0.00     0.029 A 
ATOM     62  C   UNL A   1      46.932  31.816  28.933  1.00  0.00     0.049 A 
ATOM     63  H   UNL A   1      44.888  31.610  29.418  1.00  0.00     0.167 HD
ATOM     64  C   UNL A   1      46.519  29.374  28.821  1.00  0.00     0.074 A 
ATOM     65  C   UNL A   1      46.927  28.012  28.546  1.00  0.00     0.031 C 
ATOM     66  C   UNL A   1      47.335  30.452  28.701  1.00  0.00     0.034 A 
BRANCH  53  67
ATOM     67  C   UNL A   1      44.522  35.853  29.746  1.00  0.00     0.023 A 
ATOM     68  C   UNL A   1      44.740  36.524  30.967  1.00  0.00     0.012 A 
ATOM     69  C   UNL A   1      44.445  36.595  28.552  1.00  0.00     0.148 A 
ATOM     70  C   UNL A   1      44.847  37.915  31.002  1.00  0.00     0.002 A 
ATOM     71  C   UNL A   1      44.601  37.975  28.589  1.00  0.00     0.091 A 
ATOM     72  F   UNL A   1      44.212  35.940  27.406  1.00  0.00    -0.205 F 
ATOM     73  C   UNL A   1      44.789  38.637  29.813  1.00  0.00     0.022 A 
BRANCH  71  74
ATOM     74  S   UNL A   1      44.623  38.987  27.106  1.00  0.00     0.127 S 
ATOM     75  O   UNL A   1      45.004  40.292  27.646  1.00  0.00    -0.237 OA
ATOM     76  O   UNL A   1      45.657  38.333  26.305  1.00  0.00    -0.237 OA
ATOM     77  O   UNL A   1      43.281  38.914  26.547  1.00  0.00    -0.744 OA
ENDBRANCH  71  74
ENDBRANCH  53  67
BRANCH  54  78
ATOM     78  C   UNL A   1      43.338  25.937  29.349  1.00  0.00     0.023 A 
ATOM     79  C   UNL A   1      43.876  25.083  30.332  1.00  0.00     0.012 A 
ATOM     80  C   UNL A   1      42.639  25.377  28.261  1.00  0.00     0.148 A 
ATOM     81  C   UNL A   1      43.751  23.698  30.217  1.00  0.00     0.002 A 
ATOM     82  C   UNL A   1      42.468  24.000  28.183  1.00  0.00     0.091 A 
ATOM     83  F   UNL A   1      42.152  26.204  27.326  1.00  0.00    -0.205 F 
ATOM     84  C   UNL A   1      43.039  23.157  29.149  1.00  0.00     0.022 A 
BRANCH  82  85
ATOM     85  S   UNL A   1      41.462  23.221  26.914  1.00  0.00     0.127 S 
ATOM     86  O   UNL A   1      42.369  23.225  25.769  1.00  0.00    -0.237 OA
ATOM     87  O   UNL A   1      41.213  21.904  27.499  1.00  0.00    -0.237 OA
ATOM     88  O   UNL A   1      40.276  24.056  26.780  1.00  0.00    -0.744 OA
ENDBRANCH  82  85
ENDBRANCH  54  78
BRANCH  66  89
ATOM     89  C   UNL A   1      48.765  30.208  28.284  1.00  0.00     0.023 A 
ATOM     90  C   UNL A   1      49.116  30.238  26.920  1.00  0.00     0.012 A 
ATOM     91  C   UNL A   1      49.773  30.024  29.253  1.00  0.00     0.148 A 
ATOM     92  C   UNL A   1      50.440  30.050  26.524  1.00  0.00     0.002 A 
ATOM     93  C   UNL A   1      51.098  29.890  28.853  1.00  0.00     0.091 A 
ATOM     94  F   UNL A   1      49.418  29.986  30.545  1.00  0.00    -0.205 F 
ATOM     95  C   UNL A   1      51.431  29.888  27.490  1.00  0.00     0.022 A 
BRANCH  93  96
ATOM     96  S   UNL A   1      52.454  29.774  30.025  1.00  0.00     0.127 S 
ATOM     97  O   UNL A   1      52.137  30.857  30.956  1.00  0.00    -0.237 OA
ATOM     98  O   UNL A   1      52.275  28.429  30.572  1.00  0.00    -0.237 OA
ATOM     99  O   UNL A   1      53.674  29.956  29.251  1.00  0.00    -0.744 OA
ENDBRANCH  93  96
ENDBRANCH  66  89
ENDBRANCH  40  41
ENDBRANCH  33  35
ENDBRANCH  32  33
ENDBRANCH  31  32
ENDBRANCH  30  31
ENDBRANCH  29  30
ENDBRANCH  28  29
ENDBRANCH  27  28
ENDBRANCH  26  27
ENDBRANCH   1  26
TORSDOF 29
ENDMDL
MODEL 3
REMARK VINA RESULT:      -7.5      7.138      8.145
REMARK SMILES CC[C@@H](C(=O)OCCOCCOCCOCCOC(=O)c1ccc(-c2c3nc(c(-c4cccc(S(=O)(=O)[O-])c4F)c4ccc([nH]4)c(-c4cccc(S(=O)(=O)[O-])c4F)c4nc(c(-c5cccc(S(=O)(=O)[O-])c5F)c5ccc2[nH]5)C=C4)C=C3)cc1)N(C)C(=O)N(C)C[C@@H]1CCC[N@H+]1C
REMARK SMILES IDX 11 1 10 2 9 3 8 4 7 5 6 6 4 7 5 8 3 9 2 10 1 11 84 12 85 13
REMARK SMILES IDX 86 14 87 15 88 16 89 17 90 18 91 19 92 20 95 21 93 22 94 23
REMARK SMILES IDX 96 24 12 26 13 27 14 28 15 29 16 30 17 31 18 32 19 33 20 34
REMARK SMILES IDX 21 35 22 36 83 37 23 38 82 39 24 40 25 41 26 42 76 43 27 44
REMARK SMILES IDX 81 45 75 46 77 47 28 48 80 49 74 50 73 51 29 53 61 54 41 55
REMARK SMILES IDX 60 56 42 57 45 58 59 59 78 60 43 61 44 62 58 64 79 65 46 66
REMARK SMILES IDX 30 67 31 68 39 69 32 70 34 71 40 72 33 73 35 74 36 75 37 76
REMARK SMILES IDX 38 77 62 78 63 79 71 80 64 81 66 82 72 83 65 84 67 85 68 86
REMARK SMILES IDX 69 87 70 88 47 89 48 90 56 91 49 92 51 93 57 94 50 95 52 96
REMARK SMILES IDX 53 97 54 98 55 99
REMARK H PARENT 95 25 77 52 45 63
REMARK Flexibility Score: inf
ROOT
ATOM      1  C   UNL A   1      34.761  33.059  28.066  1.00  0.00     0.188 C 
ENDROOT
BRANCH   1   2
ATOM      2  C   UNL A   1      34.605  31.529  28.009  1.00  0.00     0.188 C 
BRANCH   2   3
ATOM      3  O   UNL A   1      33.522  31.038  27.248  1.00  0.00    -0.376 OA
BRANCH   3   4
ATOM      4  C   UNL A   1      33.674  29.794  26.597  1.00  0.00     0.202 C 
BRANCH   4   5
ATOM      5  C   UNL A   1      32.786  29.473  25.387  1.00  0.00     0.261 C 
BRANCH   5   6
ATOM      6  O   UNL A   1      32.656  28.083  25.039  1.00  0.00    -0.462 OA
BRANCH   6   7
ATOM      7  C   UNL A   1      31.490  27.457  25.309  1.00  0.00     0.328 C 
ATOM      8  O   UNL A   1      31.008  27.400  26.439  1.00  0.00    -0.250 OA
BRANCH   7   9
ATOM      9  C   UNL A   1      30.831  26.770  24.075  1.00  0.00     0.196 C 
BRANCH   9  10
ATOM     10  C   UNL A   1      29.338  26.352  24.002  1.00  0.00     0.034 C 
ATOM     11  C   UNL A   1      28.324  27.410  23.561  1.00  0.00     0.007 C 
ENDBRANCH   9  10
BRANCH   9  12
ATOM     12  N   UNL A   1      31.800  25.727  23.534  1.00  0.00    -0.314 N 
ATOM     13  C   UNL A   1      32.752  26.274  22.590  1.00  0.00     0.149 C 
BRANCH  12  14
ATOM     14  C   UNL A   1      31.851  24.461  24.107  1.00  0.00     0.320 C 
ATOM     15  O   UNL A   1      31.784  23.472  23.370  1.00  0.00    -0.248 OA
BRANCH  14  16
ATOM     16  N   UNL A   1      31.953  24.227  25.478  1.00  0.00    -0.322 N 
ATOM     17  C   UNL A   1      30.942  23.902  26.473  1.00  0.00     0.149 C 
BRANCH  16  18
ATOM     18  C   UNL A   1      33.288  24.452  26.101  1.00  0.00     0.185 C 
BRANCH  18  19
ATOM     19  C   UNL A   1      34.500  23.535  25.718  1.00  0.00     0.203 C 
ATOM     20  C   UNL A   1      35.481  24.067  24.676  1.00  0.00     0.073 C 
ATOM     21  N   UNL A   1      34.209  22.153  25.236  1.00  0.00    -0.333 N 
ATOM     22  C   UNL A   1      35.867  22.898  23.788  1.00  0.00     0.068 C 
ATOM     23  C   UNL A   1      35.470  21.701  24.615  1.00  0.00     0.262 C 
ATOM     24  C   UNL A   1      33.855  21.237  26.319  1.00  0.00     0.333 C 
ATOM     25  H   UNL A   1      33.412  22.159  24.600  1.00  0.00     0.348 HD
ENDBRANCH  18  19
ENDBRANCH  16  18
ENDBRANCH  14  16
ENDBRANCH  12  14
ENDBRANCH   9  12
ENDBRANCH   7   9
ENDBRANCH   6   7
ENDBRANCH   5   6
ENDBRANCH   4   5
ENDBRANCH   3   4
ENDBRANCH   2   3
ENDBRANCH   1   2
BRANCH   1  26
ATOM     26  O   UNL A   1      33.655  33.939  27.969  1.00  0.00    -0.377 OA
BRANCH  26  27
ATOM     27  C   UNL A   1      33.594  35.032  28.861  1.00  0.00     0.188 C 
BRANCH  27  28
ATOM     28  C   UNL A   1      33.482  34.703  30.366  1.00  0.00     0.188 C 
BRANCH  28  29
ATOM     29  O   UNL A   1      34.093  35.647  31.236  1.00  0.00    -0.376 OA
BRANCH  29  30
ATOM     30  C   UNL A   1      34.193  35.332  32.613  1.00  0.00     0.202 C 
BRANCH  30  31
ATOM     31  C   UNL A   1      34.398  33.865  33.027  1.00  0.00     0.261 C 
BRANCH  31  32
ATOM     32  O   UNL A   1      35.682  33.295  32.747  1.00  0.00    -0.460 OA
BRANCH  32  33
ATOM     33  C   UNL A   1      35.733  32.248  31.891  1.00  0.00     0.338 C 
ATOM     34  O   UNL A   1      34.798  31.670  31.388  1.00  0.00    -0.246 OA
BRANCH  33  35
ATOM     35  C   UNL A   1      37.154  32.080  31.504  1.00  0.00     0.060 A 
ATOM     36  C   UNL A   1      38.084  31.726  32.493  1.00  0.00     0.016 A 
ATOM     37  C   UNL A   1      37.550  32.198  30.171  1.00  0.00     0.016 A 
ATOM     38  C   UNL A   1      39.410  31.468  32.146  1.00  0.00     0.010 A 
ATOM     39  C   UNL A   1      38.890  31.989  29.833  1.00  0.00     0.010 A 
ATOM     40  C   UNL A   1      39.827  31.637  30.820  1.00  0.00    -0.014 A 
BRANCH  40  41
ATOM     41  C   UNL A   1      41.274  31.631  30.505  1.00  0.00     0.031 A 
ATOM     42  C   UNL A   1      42.021  32.931  30.592  1.00  0.00     0.074 A 
ATOM     43  C   UNL A   1      41.911  30.502  30.149  1.00  0.00     0.049 A 
ATOM     44  N   UNL A   1      43.273  33.187  30.326  1.00  0.00    -0.248 NA
ATOM     45  C   UNL A   1      41.247  34.101  31.043  1.00  0.00     0.031 C 
ATOM     46  C   UNL A   1      41.299  29.178  30.050  1.00  0.00     0.029 A 
ATOM     47  N   UNL A   1      43.218  30.299  29.778  1.00  0.00    -0.354 N 
ATOM     48  C   UNL A   1      43.433  34.550  30.546  1.00  0.00     0.074 A 
ATOM     49  C   UNL A   1      42.148  35.067  30.966  1.00  0.00     0.031 C 
ATOM     50  C   UNL A   1      42.222  28.306  29.607  1.00  0.00     0.029 A 
ATOM     51  C   UNL A   1      43.478  29.014  29.365  1.00  0.00     0.049 A 
ATOM     52  H   UNL A   1      43.903  31.007  29.806  1.00  0.00     0.167 HD
ATOM     53  C   UNL A   1      44.550  35.302  30.417  1.00  0.00     0.034 A 
ATOM     54  C   UNL A   1      44.592  28.484  28.820  1.00  0.00     0.034 A 
ATOM     55  C   UNL A   1      45.823  34.784  29.998  1.00  0.00     0.049 A 
ATOM     56  C   UNL A   1      45.809  29.356  28.636  1.00  0.00     0.074 A 
ATOM     57  C   UNL A   1      47.026  35.458  29.876  1.00  0.00     0.029 A 
ATOM     58  N   UNL A   1      46.056  33.476  29.606  1.00  0.00    -0.354 N 
ATOM     59  N   UNL A   1      45.982  30.616  28.958  1.00  0.00    -0.248 NA
ATOM     60  C   UNL A   1      46.996  28.725  28.038  1.00  0.00     0.031 C 
ATOM     61  C   UNL A   1      47.975  34.566  29.369  1.00  0.00     0.029 A 
ATOM     62  C   UNL A   1      47.377  33.325  29.219  1.00  0.00     0.049 A 
ATOM     63  H   UNL A   1      45.381  32.758  29.604  1.00  0.00     0.167 HD
ATOM     64  C   UNL A   1      47.300  30.919  28.631  1.00  0.00     0.074 A 
ATOM     65  C   UNL A   1      47.889  29.703  28.110  1.00  0.00     0.031 C 
ATOM     66  C   UNL A   1      47.962  32.099  28.740  1.00  0.00     0.034 A 
BRANCH  53  67
ATOM     67  C   UNL A   1      44.441  36.770  30.731  1.00  0.00     0.023 A 
ATOM     68  C   UNL A   1      44.800  37.244  32.009  1.00  0.00     0.012 A 
ATOM     69  C   UNL A   1      44.029  37.685  29.744  1.00  0.00     0.148 A 
ATOM     70  C   UNL A   1      44.720  38.604  32.310  1.00  0.00     0.002 A 
ATOM     71  C   UNL A   1      43.997  39.043  30.035  1.00  0.00     0.091 A 
ATOM     72  F   UNL A   1      43.667  37.211  28.543  1.00  0.00    -0.205 F 
ATOM     73  C   UNL A   1      44.330  39.502  31.320  1.00  0.00     0.022 A 
BRANCH  71  74
ATOM     74  S   UNL A   1      43.587  40.288  28.808  1.00  0.00     0.127 S 
ATOM     75  O   UNL A   1      43.117  41.387  29.650  1.00  0.00    -0.237 OA
ATOM     76  O   UNL A   1      44.881  40.522  28.166  1.00  0.00    -0.237 OA
ATOM     77  O   UNL A   1      42.578  39.689  27.947  1.00  0.00    -0.744 OA
ENDBRANCH  71  74
ENDBRANCH  53  67
BRANCH  54  78
ATOM     78  C   UNL A   1      44.617  27.050  28.411  1.00  0.00     0.023 A 
ATOM     79  C   UNL A   1      45.114  26.078  29.301  1.00  0.00     0.012 A 
ATOM     80  C   UNL A   1      44.152  26.647  27.144  1.00  0.00     0.148 A 
ATOM     81  C   UNL A   1      45.178  24.735  28.925  1.00  0.00     0.002 A 
ATOM     82  C   UNL A   1      44.164  25.300  26.798  1.00  0.00     0.091 A 
ATOM     83  F   UNL A   1      43.701  27.588  26.303  1.00  0.00    -0.205 F 
ATOM     84  C   UNL A   1      44.694  24.345  27.678  1.00  0.00     0.022 A 
BRANCH  82  85
ATOM     85  S   UNL A   1      43.449  24.690  25.267  1.00  0.00     0.127 S 
ATOM     86  O   UNL A   1      42.697  25.852  24.802  1.00  0.00    -0.237 OA
ATOM     87  O   UNL A   1      44.645  24.376  24.485  1.00  0.00    -0.237 OA
ATOM     88  O   UNL A   1      42.650  23.530  25.637  1.00  0.00    -0.744 OA
ENDBRANCH  82  85
ENDBRANCH  54  78
BRANCH  66  89
ATOM     89  C   UNL A   1      49.411  32.134  28.320  1.00  0.00     0.023 A 
ATOM     90  C   UNL A   1      50.400  31.585  29.158  1.00  0.00     0.012 A 
ATOM     91  C   UNL A   1      49.780  32.645  27.059  1.00  0.00     0.148 A 
ATOM     92  C   UNL A   1      51.739  31.578  28.766  1.00  0.00     0.002 A 
ATOM     93  C   UNL A   1      51.108  32.588  26.652  1.00  0.00     0.091 A 
ATOM     94  F   UNL A   1      48.826  33.175  26.280  1.00  0.00    -0.205 F 
ATOM     95  C   UNL A   1      52.091  32.069  27.510  1.00  0.00     0.022 A 
BRANCH  93  96
ATOM     96  S   UNL A   1      51.642  33.105  25.017  1.00  0.00     0.127 S 
ATOM     97  O   UNL A   1      51.541  31.857  24.262  1.00  0.00    -0.237 OA
ATOM     98  O   UNL A   1      50.639  34.111  24.669  1.00  0.00    -0.237 OA
ATOM     99  O   UNL A   1      52.993  33.626  25.179  1.00  0.00    -0.744 OA
ENDBRANCH  93  96
ENDBRANCH  66  89
ENDBRANCH  40  41
ENDBRANCH  33  35
ENDBRANCH  32  33
ENDBRANCH  31  32
ENDBRANCH  30  31
ENDBRANCH  29  30
ENDBRANCH  28  29
ENDBRANCH  27  28
ENDBRANCH  26  27
ENDBRANCH   1  26
TORSDOF 29
ENDMDL
