MODEL 1
REMARK VINA RESULT:      -6.5      0.000      0.000
REMARK SMILES O=C(OCCOCCOCCOCCOC(=O)[C@H]1[C@H]2CC[C@H](CC2)[C@@H]1C(=O)Nc1ccc(Cc2ccncc2)cc1)c1ccc(-c2c3nc(c(-c4cccc(S(=O)(=O)[O-])c4F)c4ccc([nH]4)c(-c4cccc(S(=O)(=O)[O-])c4F)c4nc(c(-c5cccc(S(=O)(=O)[O-])c5F)c5ccc2[nH]5)C=C4)C=C3)cc1
REMARK SMILES IDX 10 1 9 2 8 3 7 4 6 5 5 6 4 7 3 8 2 9 1 10 42 11 43 12 104 13
REMARK SMILES IDX 44 14 103 15 45 16 46 17 47 18 97 19 48 20 102 21 96 22
REMARK SMILES IDX 98 23 49 24 101 25 95 26 94 27 50 29 82 30 62 31 81 32 63 33
REMARK SMILES IDX 66 34 80 35 99 36 64 37 65 38 79 40 100 41 67 42 51 43 52 44
REMARK SMILES IDX 60 45 53 46 55 47 61 48 54 49 56 50 57 51 58 52 59 53 83 54
REMARK SMILES IDX 84 55 92 56 85 57 87 58 93 59 86 60 88 61 89 62 90 63 91 64
REMARK SMILES IDX 68 65 69 66 77 67 70 68 72 69 78 70 71 71 73 72 74 73 75 74
REMARK SMILES IDX 76 75 11 76 12 77 13 78 14 79 15 80 16 81 17 82 18 83 19 84
REMARK SMILES IDX 25 85 24 86 20 87 22 88 23 89 21 90 26 91 27 92 28 93 29 95
REMARK SMILES IDX 30 96 41 97 31 98 40 99 32 100 33 101 34 102 35 103 39 104
REMARK SMILES IDX 36 105 38 106 37 107
REMARK H PARENT 98 28 66 39 28 94
REMARK Flexibility Score: inf
ROOT
ATOM      1  C   UNL A   1      39.314  24.757  27.038  1.00  0.00     0.188 C 
ENDROOT
BRANCH   1   2
ATOM      2  O   UNL A   1      40.536  24.046  26.905  1.00  0.00    -0.377 OA
BRANCH   2   3
ATOM      3  C   UNL A   1      41.059  23.337  28.013  1.00  0.00     0.188 C 
BRANCH   3   4
ATOM      4  C   UNL A   1      41.412  21.894  27.714  1.00  0.00     0.188 C 
BRANCH   4   5
ATOM      5  O   UNL A   1      42.810  21.797  27.517  1.00  0.00    -0.376 OA
BRANCH   5   6
ATOM      6  C   UNL A   1      43.330  21.382  26.264  1.00  0.00     0.202 C 
BRANCH   6   7
ATOM      7  C   UNL A   1      42.655  21.960  25.039  1.00  0.00     0.261 C 
BRANCH   7   8
ATOM      8  O   UNL A   1      43.387  22.968  24.323  1.00  0.00    -0.460 OA
BRANCH   8   9
ATOM      9  C   UNL A   1      44.499  23.676  24.616  1.00  0.00     0.338 C 
ATOM     10  O   UNL A   1      45.478  23.526  23.883  1.00  0.00    -0.246 OA
BRANCH   9  11
ATOM     11  C   UNL A   1      44.631  24.637  25.745  1.00  0.00     0.060 A 
ATOM     12  C   UNL A   1      43.615  25.433  26.262  1.00  0.00     0.016 A 
ATOM     13  C   UNL A   1      45.859  24.643  26.421  1.00  0.00     0.016 A 
ATOM     14  C   UNL A   1      43.795  26.275  27.332  1.00  0.00     0.010 A 
ATOM     15  C   UNL A   1      46.057  25.466  27.531  1.00  0.00     0.010 A 
ATOM     16  C   UNL A   1      45.022  26.307  27.955  1.00  0.00    -0.014 A 
BRANCH  16  17
ATOM     17  C   UNL A   1      45.227  27.418  28.879  1.00  0.00     0.031 A 
ATOM     18  C   UNL A   1      45.092  27.108  30.330  1.00  0.00     0.074 A 
ATOM     19  C   UNL A   1      45.695  28.589  28.419  1.00  0.00     0.049 A 
ATOM     20  N   UNL A   1      45.091  27.915  31.346  1.00  0.00    -0.248 NA
ATOM     21  C   UNL A   1      44.946  25.682  30.684  1.00  0.00     0.031 C 
ATOM     22  C   UNL A   1      46.041  28.873  27.022  1.00  0.00     0.029 A 
ATOM     23  N   UNL A   1      45.967  29.753  29.077  1.00  0.00    -0.354 N 
ATOM     24  C   UNL A   1      44.843  27.111  32.448  1.00  0.00     0.074 A 
ATOM     25  C   UNL A   1      44.746  25.747  31.989  1.00  0.00     0.031 C 
ATOM     26  C   UNL A   1      46.441  30.148  26.922  1.00  0.00     0.029 A 
ATOM     27  C   UNL A   1      46.285  30.781  28.224  1.00  0.00     0.049 A 
ATOM     28  H   UNL A   1      45.938  29.845  30.057  1.00  0.00     0.167 HD
ATOM     29  C   UNL A   1      44.678  27.506  33.727  1.00  0.00     0.034 A 
ATOM     30  C   UNL A   1      46.343  32.101  28.474  1.00  0.00     0.034 A 
ATOM     31  C   UNL A   1      44.791  28.883  34.113  1.00  0.00     0.049 A 
ATOM     32  C   UNL A   1      46.078  32.536  29.887  1.00  0.00     0.074 A 
ATOM     33  C   UNL A   1      44.611  29.452  35.355  1.00  0.00     0.029 A 
ATOM     34  N   UNL A   1      45.102  29.913  33.231  1.00  0.00    -0.354 N 
ATOM     35  N   UNL A   1      45.806  31.793  30.937  1.00  0.00    -0.248 NA
ATOM     36  C   UNL A   1      46.134  33.974  30.162  1.00  0.00     0.031 C 
ATOM     37  C   UNL A   1      44.768  30.835  35.213  1.00  0.00     0.029 A 
ATOM     38  C   UNL A   1      45.101  31.121  33.893  1.00  0.00     0.049 A 
ATOM     39  H   UNL A   1      45.293  29.795  32.273  1.00  0.00     0.167 HD
ATOM     40  C   UNL A   1      45.683  32.667  32.005  1.00  0.00     0.074 A 
ATOM     41  C   UNL A   1      45.925  33.997  31.473  1.00  0.00     0.031 C 
ATOM     42  C   UNL A   1      45.392  32.407  33.305  1.00  0.00     0.034 A 
BRANCH  29  43
ATOM     43  C   UNL A   1      44.259  26.455  34.715  1.00  0.00     0.023 A 
ATOM     44  C   UNL A   1      42.896  26.201  34.967  1.00  0.00     0.012 A 
ATOM     45  C   UNL A   1      45.239  25.774  35.462  1.00  0.00     0.148 A 
ATOM     46  C   UNL A   1      42.516  25.325  35.986  1.00  0.00     0.002 A 
ATOM     47  C   UNL A   1      44.853  24.865  36.438  1.00  0.00     0.091 A 
ATOM     48  F   UNL A   1      46.529  26.062  35.239  1.00  0.00    -0.205 F 
ATOM     49  C   UNL A   1      43.493  24.654  36.716  1.00  0.00     0.022 A 
BRANCH  47  50
ATOM     50  S   UNL A   1      46.036  23.905  37.386  1.00  0.00     0.127 S 
ATOM     51  O   UNL A   1      46.577  23.009  36.368  1.00  0.00    -0.237 OA
ATOM     52  O   UNL A   1      46.960  24.935  37.851  1.00  0.00    -0.237 OA
ATOM     53  O   UNL A   1      45.268  23.254  38.446  1.00  0.00    -0.744 OA
ENDBRANCH  47  50
ENDBRANCH  29  43
BRANCH  30  54
ATOM     54  C   UNL A   1      46.593  33.056  27.360  1.00  0.00     0.023 A 
ATOM     55  C   UNL A   1      45.520  33.738  26.760  1.00  0.00     0.012 A 
ATOM     56  C   UNL A   1      47.911  33.344  26.939  1.00  0.00     0.148 A 
ATOM     57  C   UNL A   1      45.750  34.673  25.749  1.00  0.00     0.002 A 
ATOM     58  C   UNL A   1      48.136  34.316  25.972  1.00  0.00     0.091 A 
ATOM     59  F   UNL A   1      48.921  32.679  27.515  1.00  0.00    -0.205 F 
ATOM     60  C   UNL A   1      47.055  34.971  25.363  1.00  0.00     0.022 A 
BRANCH  58  61
ATOM     61  S   UNL A   1      49.785  34.860  25.508  1.00  0.00     0.127 S 
ATOM     62  O   UNL A   1      50.321  35.316  26.783  1.00  0.00    -0.237 OA
ATOM     63  O   UNL A   1      50.374  33.626  24.991  1.00  0.00    -0.237 OA
ATOM     64  O   UNL A   1      49.589  35.899  24.498  1.00  0.00    -0.744 OA
ENDBRANCH  58  61
ENDBRANCH  30  54
BRANCH  42  65
ATOM     65  C   UNL A   1      45.373  33.576  34.245  1.00  0.00     0.023 A 
ATOM     66  C   UNL A   1      46.578  34.096  34.751  1.00  0.00     0.012 A 
ATOM     67  C   UNL A   1      44.156  34.232  34.509  1.00  0.00     0.148 A 
ATOM     68  C   UNL A   1      46.570  35.253  35.526  1.00  0.00     0.002 A 
ATOM     69  C   UNL A   1      44.162  35.416  35.229  1.00  0.00     0.091 A 
ATOM     70  F   UNL A   1      43.024  33.700  34.026  1.00  0.00    -0.205 F 
ATOM     71  C   UNL A   1      45.366  35.921  35.749  1.00  0.00     0.022 A 
BRANCH  69  72
ATOM     72  S   UNL A   1      42.683  36.405  35.458  1.00  0.00     0.127 S 
ATOM     73  O   UNL A   1      42.299  36.687  34.076  1.00  0.00    -0.237 OA
ATOM     74  O   UNL A   1      41.799  35.478  36.162  1.00  0.00    -0.237 OA
ATOM     75  O   UNL A   1      43.090  37.567  36.239  1.00  0.00    -0.744 OA
ENDBRANCH  69  72
ENDBRANCH  42  65
ENDBRANCH  16  17
ENDBRANCH   9  11
ENDBRANCH   8   9
ENDBRANCH   7   8
ENDBRANCH   6   7
ENDBRANCH   5   6
ENDBRANCH   4   5
ENDBRANCH   3   4
ENDBRANCH   2   3
ENDBRANCH   1   2
BRANCH   1  76
ATOM     76  C   UNL A   1      39.213  25.934  28.019  1.00  0.00     0.188 C 
BRANCH  76  77
ATOM     77  O   UNL A   1      39.942  27.085  27.671  1.00  0.00    -0.376 OA
BRANCH  77  78
ATOM     78  C   UNL A   1      40.049  28.186  28.566  1.00  0.00     0.202 C 
BRANCH  78  79
ATOM     79  C   UNL A   1      39.260  29.513  28.468  1.00  0.00     0.261 C 
BRANCH  79  80
ATOM     80  O   UNL A   1      39.311  30.401  29.598  1.00  0.00    -0.463 OA
BRANCH  80  81
ATOM     81  C   UNL A   1      38.562  30.028  30.658  1.00  0.00     0.310 C 
ATOM     82  O   UNL A   1      37.482  29.448  30.546  1.00  0.00    -0.252 OA
BRANCH  81  83
ATOM     83  C   UNL A   1      39.208  30.207  32.035  1.00  0.00     0.115 C 
ATOM     84  C   UNL A   1      39.946  29.060  32.770  1.00  0.00     0.004 C 
ATOM     85  C   UNL A   1      40.148  31.418  31.938  1.00  0.00     0.096 C 
ATOM     86  C   UNL A   1      41.165  28.602  31.981  1.00  0.00     0.005 C 
ATOM     87  C   UNL A   1      40.408  29.585  34.148  1.00  0.00     0.005 C 
ATOM     88  C   UNL A   1      41.551  31.051  32.474  1.00  0.00     0.002 C 
ATOM     89  C   UNL A   1      42.042  29.817  31.673  1.00  0.00     0.005 C 
ATOM     90  C   UNL A   1      41.473  30.665  33.958  1.00  0.00     0.005 C 
BRANCH  85  91
ATOM     91  C   UNL A   1      39.497  32.614  32.661  1.00  0.00     0.228 C 
ATOM     92  O   UNL A   1      38.846  32.481  33.701  1.00  0.00    -0.274 OA
ATOM     93  N   UNL A   1      39.735  33.883  32.213  1.00  0.00    -0.326 N 
ATOM     94  H   UNL A   1      39.320  34.626  32.709  1.00  0.00     0.169 HD
BRANCH  93  95
ATOM     95  C   UNL A   1      40.517  34.205  31.110  1.00  0.00     0.041 A 
ATOM     96  C   UNL A   1      39.859  34.493  29.926  1.00  0.00     0.026 A 
ATOM     97  C   UNL A   1      41.900  34.364  31.221  1.00  0.00     0.026 A 
ATOM     98  C   UNL A   1      40.571  35.089  28.894  1.00  0.00     0.006 A 
ATOM     99  C   UNL A   1      42.618  34.934  30.176  1.00  0.00     0.006 A 
ATOM    100  C   UNL A   1      41.951  35.328  29.012  1.00  0.00    -0.043 A 
BRANCH 100 101
ATOM    101  C   UNL A   1      42.714  35.958  27.872  1.00  0.00     0.071 C 
BRANCH 101 102
ATOM    102  C   UNL A   1      42.615  37.462  27.879  1.00  0.00    -0.041 A 
ATOM    103  C   UNL A   1      43.191  38.215  28.908  1.00  0.00     0.024 A 
ATOM    104  C   UNL A   1      41.905  38.138  26.885  1.00  0.00     0.024 A 
ATOM    105  C   UNL A   1      43.018  39.589  28.912  1.00  0.00     0.111 A 
ATOM    106  C   UNL A   1      41.804  39.519  26.966  1.00  0.00     0.111 A 
ATOM    107  N   UNL A   1      42.346  40.261  27.957  1.00  0.00    -0.265 NA
ENDBRANCH 101 102
ENDBRANCH 100 101
ENDBRANCH  93  95
ENDBRANCH  85  91
ENDBRANCH  81  83
ENDBRANCH  80  81
ENDBRANCH  79  80
ENDBRANCH  78  79
ENDBRANCH  77  78
ENDBRANCH  76  77
ENDBRANCH   1  76
TORSDOF 27
ENDMDL
MODEL 2
REMARK VINA RESULT:      -5.8      5.674     10.292
REMARK SMILES O=C(OCCOCCOCCOCCOC(=O)[C@H]1[C@H]2CC[C@H](CC2)[C@@H]1C(=O)Nc1ccc(Cc2ccncc2)cc1)c1ccc(-c2c3nc(c(-c4cccc(S(=O)(=O)[O-])c4F)c4ccc([nH]4)c(-c4cccc(S(=O)(=O)[O-])c4F)c4nc(c(-c5cccc(S(=O)(=O)[O-])c5F)c5ccc2[nH]5)C=C4)C=C3)cc1
REMARK SMILES IDX 10 1 9 2 8 3 7 4 6 5 5 6 4 7 3 8 2 9 1 10 42 11 43 12 104 13
REMARK SMILES IDX 44 14 103 15 45 16 46 17 47 18 97 19 48 20 102 21 96 22
REMARK SMILES IDX 98 23 49 24 101 25 95 26 94 27 50 29 82 30 62 31 81 32 63 33
REMARK SMILES IDX 66 34 80 35 99 36 64 37 65 38 79 40 100 41 67 42 51 43 52 44
REMARK SMILES IDX 60 45 53 46 55 47 61 48 54 49 56 50 57 51 58 52 59 53 83 54
REMARK SMILES IDX 84 55 92 56 85 57 87 58 93 59 86 60 88 61 89 62 90 63 91 64
REMARK SMILES IDX 68 65 69 66 77 67 70 68 72 69 78 70 71 71 73 72 74 73 75 74
REMARK SMILES IDX 76 75 11 76 12 77 13 78 14 79 15 80 16 81 17 82 18 83 19 84
REMARK SMILES IDX 25 85 24 86 20 87 22 88 23 89 21 90 26 91 27 92 28 93 29 95
REMARK SMILES IDX 30 96 41 97 31 98 40 99 32 100 33 101 34 102 35 103 39 104
REMARK SMILES IDX 36 105 38 106 37 107
REMARK H PARENT 98 28 66 39 28 94
REMARK Flexibility Score: inf
ROOT
ATOM      1  C   UNL A   1      38.588  20.871  25.271  1.00  0.00     0.188 C 
ENDROOT
BRANCH   1   2
ATOM      2  O   UNL A   1      39.389  21.145  26.411  1.00  0.00    -0.377 OA
BRANCH   2   3
ATOM      3  C   UNL A   1      40.788  21.300  26.265  1.00  0.00     0.188 C 
BRANCH   3   4
ATOM      4  C   UNL A   1      41.307  22.662  26.682  1.00  0.00     0.188 C 
BRANCH   4   5
ATOM      5  O   UNL A   1      42.346  23.043  25.800  1.00  0.00    -0.376 OA
BRANCH   5   6
ATOM      6  C   UNL A   1      42.911  24.343  25.879  1.00  0.00     0.202 C 
BRANCH   6   7
ATOM      7  C   UNL A   1      43.846  24.593  27.044  1.00  0.00     0.261 C 
BRANCH   7   8
ATOM      8  O   UNL A   1      43.533  25.715  27.884  1.00  0.00    -0.460 OA
BRANCH   8   9
ATOM      9  C   UNL A   1      43.758  25.972  29.191  1.00  0.00     0.338 C 
ATOM     10  O   UNL A   1      44.022  25.017  29.921  1.00  0.00    -0.246 OA
BRANCH   9  11
ATOM     11  C   UNL A   1      43.727  27.323  29.816  1.00  0.00     0.060 A 
ATOM     12  C   UNL A   1      42.985  28.412  29.370  1.00  0.00     0.016 A 
ATOM     13  C   UNL A   1      44.412  27.466  31.030  1.00  0.00     0.016 A 
ATOM     14  C   UNL A   1      42.973  29.624  30.016  1.00  0.00     0.010 A 
ATOM     15  C   UNL A   1      44.390  28.679  31.722  1.00  0.00     0.010 A 
ATOM     16  C   UNL A   1      43.692  29.765  31.182  1.00  0.00    -0.014 A 
BRANCH  16  17
ATOM     17  C   UNL A   1      43.871  31.136  31.646  1.00  0.00     0.031 A 
ATOM     18  C   UNL A   1      42.964  31.591  32.737  1.00  0.00     0.074 A 
ATOM     19  C   UNL A   1      44.926  31.850  31.223  1.00  0.00     0.049 A 
ATOM     20  N   UNL A   1      42.814  32.777  33.241  1.00  0.00    -0.248 NA
ATOM     21  C   UNL A   1      42.108  30.556  33.352  1.00  0.00     0.031 C 
ATOM     22  C   UNL A   1      45.964  31.366  30.306  1.00  0.00     0.029 A 
ATOM     23  N   UNL A   1      45.302  33.129  31.514  1.00  0.00    -0.354 N 
ATOM     24  C   UNL A   1      41.781  32.656  34.157  1.00  0.00     0.074 A 
ATOM     25  C   UNL A   1      41.370  31.274  34.180  1.00  0.00     0.031 C 
ATOM     26  C   UNL A   1      46.839  32.355  30.078  1.00  0.00     0.029 A 
ATOM     27  C   UNL A   1      46.365  33.554  30.755  1.00  0.00     0.049 A 
ATOM     28  H   UNL A   1      44.860  33.687  32.195  1.00  0.00     0.167 HD
ATOM     29  C   UNL A   1      41.215  33.640  34.885  1.00  0.00     0.034 A 
ATOM     30  C   UNL A   1      46.826  34.802  30.568  1.00  0.00     0.034 A 
ATOM     31  C   UNL A   1      41.678  34.995  34.815  1.00  0.00     0.049 A 
ATOM     32  C   UNL A   1      46.134  35.901  31.324  1.00  0.00     0.074 A 
ATOM     33  C   UNL A   1      41.188  36.114  35.452  1.00  0.00     0.029 A 
ATOM     34  N   UNL A   1      42.749  35.408  34.028  1.00  0.00    -0.354 N 
ATOM     35  N   UNL A   1      45.131  35.811  32.168  1.00  0.00    -0.248 NA
ATOM     36  C   UNL A   1      46.629  37.265  31.117  1.00  0.00     0.031 C 
ATOM     37  C   UNL A   1      41.935  37.212  35.014  1.00  0.00     0.029 A 
ATOM     38  C   UNL A   1      42.927  36.770  34.146  1.00  0.00     0.049 A 
ATOM     39  H   UNL A   1      43.299  34.814  33.468  1.00  0.00     0.167 HD
ATOM     40  C   UNL A   1      44.889  37.099  32.618  1.00  0.00     0.074 A 
ATOM     41  C   UNL A   1      45.864  37.951  31.957  1.00  0.00     0.031 C 
ATOM     42  C   UNL A   1      43.949  37.548  33.487  1.00  0.00     0.034 A 
BRANCH  29  43
ATOM     43  C   UNL A   1      40.001  33.277  35.692  1.00  0.00     0.023 A 
ATOM     44  C   UNL A   1      38.749  33.092  35.072  1.00  0.00     0.012 A 
ATOM     45  C   UNL A   1      40.096  33.202  37.095  1.00  0.00     0.148 A 
ATOM     46  C   UNL A   1      37.600  32.895  35.841  1.00  0.00     0.002 A 
ATOM     47  C   UNL A   1      38.957  32.953  37.850  1.00  0.00     0.091 A 
ATOM     48  F   UNL A   1      41.287  33.425  37.669  1.00  0.00    -0.205 F 
ATOM     49  C   UNL A   1      37.706  32.819  37.227  1.00  0.00     0.022 A 
BRANCH  47  50
ATOM     50  S   UNL A   1      39.002  32.775  39.634  1.00  0.00     0.127 S 
ATOM     51  O   UNL A   1      38.778  34.148  40.077  1.00  0.00    -0.237 OA
ATOM     52  O   UNL A   1      37.889  31.862  39.877  1.00  0.00    -0.237 OA
ATOM     53  O   UNL A   1      40.319  32.225  39.951  1.00  0.00    -0.744 OA
ENDBRANCH  47  50
ENDBRANCH  29  43
BRANCH  30  54
ATOM     54  C   UNL A   1      47.927  35.049  29.597  1.00  0.00     0.023 A 
ATOM     55  C   UNL A   1      49.254  35.167  30.047  1.00  0.00     0.012 A 
ATOM     56  C   UNL A   1      47.666  35.099  28.209  1.00  0.00     0.148 A 
ATOM     57  C   UNL A   1      50.298  35.348  29.138  1.00  0.00     0.002 A 
ATOM     58  C   UNL A   1      48.716  35.223  27.307  1.00  0.00     0.091 A 
ATOM     59  F   UNL A   1      46.395  34.995  27.798  1.00  0.00    -0.205 F 
ATOM     60  C   UNL A   1      50.032  35.365  27.770  1.00  0.00     0.022 A 
BRANCH  58  61
ATOM     61  S   UNL A   1      48.484  35.121  25.528  1.00  0.00     0.127 S 
ATOM     62  O   UNL A   1      48.460  36.527  25.147  1.00  0.00    -0.237 OA
ATOM     63  O   UNL A   1      49.678  34.386  25.111  1.00  0.00    -0.237 OA
ATOM     64  O   UNL A   1      47.233  34.392  25.332  1.00  0.00    -0.744 OA
ENDBRANCH  58  61
ENDBRANCH  30  54
BRANCH  42  65
ATOM     65  C   UNL A   1      43.967  39.013  33.812  1.00  0.00     0.023 A 
ATOM     66  C   UNL A   1      43.276  39.926  32.994  1.00  0.00     0.012 A 
ATOM     67  C   UNL A   1      44.564  39.450  35.009  1.00  0.00     0.148 A 
ATOM     68  C   UNL A   1      43.192  41.267  33.360  1.00  0.00     0.002 A 
ATOM     69  C   UNL A   1      44.424  40.773  35.397  1.00  0.00     0.091 A 
ATOM     70  F   UNL A   1      45.230  38.557  35.755  1.00  0.00    -0.205 F 
ATOM     71  C   UNL A   1      43.750  41.686  34.569  1.00  0.00     0.022 A 
BRANCH  69  72
ATOM     72  S   UNL A   1      44.999  41.369  36.988  1.00  0.00     0.127 S 
ATOM     73  O   UNL A   1      46.400  40.950  36.974  1.00  0.00    -0.237 OA
ATOM     74  O   UNL A   1      44.789  42.811  36.870  1.00  0.00    -0.237 OA
ATOM     75  O   UNL A   1      44.166  40.716  37.990  1.00  0.00    -0.744 OA
ENDBRANCH  69  72
ENDBRANCH  42  65
ENDBRANCH  16  17
ENDBRANCH   9  11
ENDBRANCH   8   9
ENDBRANCH   7   8
ENDBRANCH   6   7
ENDBRANCH   5   6
ENDBRANCH   4   5
ENDBRANCH   3   4
ENDBRANCH   2   3
ENDBRANCH   1   2
BRANCH   1  76
ATOM     76  C   UNL A   1      37.114  21.301  25.248  1.00  0.00     0.188 C 
BRANCH  76  77
ATOM     77  O   UNL A   1      36.739  22.146  24.188  1.00  0.00    -0.376 OA
BRANCH  77  78
ATOM     78  C   UNL A   1      36.508  23.534  24.400  1.00  0.00     0.202 C 
BRANCH  78  79
ATOM     79  C   UNL A   1      35.411  24.142  25.305  1.00  0.00     0.261 C 
BRANCH  79  80
ATOM     80  O   UNL A   1      34.295  24.779  24.660  1.00  0.00    -0.463 OA
BRANCH  80  81
ATOM     81  C   UNL A   1      33.773  25.833  25.323  1.00  0.00     0.310 C 
ATOM     82  O   UNL A   1      34.464  26.702  25.853  1.00  0.00    -0.252 OA
BRANCH  81  83
ATOM     83  C   UNL A   1      32.252  25.995  25.237  1.00  0.00     0.115 C 
ATOM     84  C   UNL A   1      31.573  27.087  24.373  1.00  0.00     0.004 C 
ATOM     85  C   UNL A   1      31.674  24.626  24.850  1.00  0.00     0.096 C 
ATOM     86  C   UNL A   1      31.884  26.885  22.896  1.00  0.00     0.005 C 
ATOM     87  C   UNL A   1      30.044  26.989  24.581  1.00  0.00     0.005 C 
ATOM     88  C   UNL A   1      30.718  24.770  23.643  1.00  0.00     0.002 C 
ATOM     89  C   UNL A   1      31.518  25.454  22.502  1.00  0.00     0.005 C 
ATOM     90  C   UNL A   1      29.529  25.670  24.006  1.00  0.00     0.005 C 
BRANCH  85  91
ATOM     91  C   UNL A   1      31.016  23.992  26.092  1.00  0.00     0.228 C 
ATOM     92  O   UNL A   1      30.210  24.605  26.797  1.00  0.00    -0.274 OA
ATOM     93  N   UNL A   1      31.236  22.672  26.372  1.00  0.00    -0.326 N 
ATOM     94  H   UNL A   1      30.786  22.293  27.162  1.00  0.00     0.169 HD
BRANCH  93  95
ATOM     95  C   UNL A   1      32.046  21.825  25.625  1.00  0.00     0.041 A 
ATOM     96  C   UNL A   1      33.162  21.296  26.252  1.00  0.00     0.026 A 
ATOM     97  C   UNL A   1      31.681  21.414  24.342  1.00  0.00     0.026 A 
ATOM     98  C   UNL A   1      33.829  20.238  25.650  1.00  0.00     0.006 A 
ATOM     99  C   UNL A   1      32.368  20.374  23.725  1.00  0.00     0.006 A 
ATOM    100  C   UNL A   1      33.432  19.758  24.389  1.00  0.00    -0.043 A 
BRANCH 100 101
ATOM    101  C   UNL A   1      34.181  18.620  23.740  1.00  0.00     0.071 C 
BRANCH 101 102
ATOM    102  C   UNL A   1      33.942  17.304  24.435  1.00  0.00    -0.041 A 
ATOM    103  C   UNL A   1      35.009  16.458  24.756  1.00  0.00     0.024 A 
ATOM    104  C   UNL A   1      32.647  16.875  24.731  1.00  0.00     0.024 A 
ATOM    105  C   UNL A   1      34.738  15.228  25.332  1.00  0.00     0.111 A 
ATOM    106  C   UNL A   1      32.480  15.634  25.327  1.00  0.00     0.111 A 
ATOM    107  N   UNL A   1      33.498  14.801  25.635  1.00  0.00    -0.265 NA
ENDBRANCH 101 102
ENDBRANCH 100 101
ENDBRANCH  93  95
ENDBRANCH  85  91
ENDBRANCH  81  83
ENDBRANCH  80  81
ENDBRANCH  79  80
ENDBRANCH  78  79
ENDBRANCH  77  78
ENDBRANCH  76  77
ENDBRANCH   1  76
TORSDOF 27
ENDMDL
MODEL 3
REMARK VINA RESULT:      -5.5      2.955      4.241
REMARK SMILES O=C(OCCOCCOCCOCCOC(=O)[C@H]1[C@H]2CC[C@H](CC2)[C@@H]1C(=O)Nc1ccc(Cc2ccncc2)cc1)c1ccc(-c2c3nc(c(-c4cccc(S(=O)(=O)[O-])c4F)c4ccc([nH]4)c(-c4cccc(S(=O)(=O)[O-])c4F)c4nc(c(-c5cccc(S(=O)(=O)[O-])c5F)c5ccc2[nH]5)C=C4)C=C3)cc1
REMARK SMILES IDX 10 1 9 2 8 3 7 4 6 5 5 6 4 7 3 8 2 9 1 10 42 11 43 12 104 13
REMARK SMILES IDX 44 14 103 15 45 16 46 17 47 18 97 19 48 20 102 21 96 22
REMARK SMILES IDX 98 23 49 24 101 25 95 26 94 27 50 29 82 30 62 31 81 32 63 33
REMARK SMILES IDX 66 34 80 35 99 36 64 37 65 38 79 40 100 41 67 42 51 43 52 44
REMARK SMILES IDX 60 45 53 46 55 47 61 48 54 49 56 50 57 51 58 52 59 53 83 54
REMARK SMILES IDX 84 55 92 56 85 57 87 58 93 59 86 60 88 61 89 62 90 63 91 64
REMARK SMILES IDX 68 65 69 66 77 67 70 68 72 69 78 70 71 71 73 72 74 73 75 74
REMARK SMILES IDX 76 75 11 76 12 77 13 78 14 79 15 80 16 81 17 82 18 83 19 84
REMARK SMILES IDX 25 85 24 86 20 87 22 88 23 89 21 90 26 91 27 92 28 93 29 95
REMARK SMILES IDX 30 96 41 97 31 98 40 99 32 100 33 101 34 102 35 103 39 104
REMARK SMILES IDX 36 105 38 106 37 107
REMARK H PARENT 98 28 66 39 28 94
REMARK Flexibility Score: inf
ROOT
ATOM      1  C   UNL A   1      39.611  24.768  26.847  1.00  0.00     0.188 C 
ENDROOT
BRANCH   1   2
ATOM      2  O   UNL A   1      40.932  24.821  26.328  1.00  0.00    -0.377 OA
BRANCH   2   3
ATOM      3  C   UNL A   1      42.030  24.538  27.174  1.00  0.00     0.188 C 
BRANCH   3   4
ATOM      4  C   UNL A   1      42.864  23.352  26.732  1.00  0.00     0.188 C 
BRANCH   4   5
ATOM      5  O   UNL A   1      44.214  23.587  27.084  1.00  0.00    -0.376 OA
BRANCH   5   6
ATOM      6  C   UNL A   1      45.182  23.843  26.078  1.00  0.00     0.202 C 
BRANCH   6   7
ATOM      7  C   UNL A   1      44.850  24.950  25.101  1.00  0.00     0.261 C 
BRANCH   7   8
ATOM      8  O   UNL A   1      45.790  26.033  25.019  1.00  0.00    -0.460 OA
BRANCH   8   9
ATOM      9  C   UNL A   1      46.736  26.493  25.867  1.00  0.00     0.338 C 
ATOM     10  O   UNL A   1      47.914  26.305  25.561  1.00  0.00    -0.246 OA
BRANCH   9  11
ATOM     11  C   UNL A   1      46.466  27.225  27.135  1.00  0.00     0.060 A 
ATOM     12  C   UNL A   1      45.212  27.522  27.655  1.00  0.00     0.016 A 
ATOM     13  C   UNL A   1      47.580  27.529  27.930  1.00  0.00     0.016 A 
ATOM     14  C   UNL A   1      45.032  28.171  28.852  1.00  0.00     0.010 A 
ATOM     15  C   UNL A   1      47.423  28.160  29.165  1.00  0.00     0.010 A 
ATOM     16  C   UNL A   1      46.139  28.508  29.599  1.00  0.00    -0.014 A 
BRANCH  16  17
ATOM     17  C   UNL A   1      45.894  29.440  30.695  1.00  0.00     0.031 A 
ATOM     18  C   UNL A   1      45.798  28.849  32.060  1.00  0.00     0.074 A 
ATOM     19  C   UNL A   1      45.949  30.761  30.471  1.00  0.00     0.049 A 
ATOM     20  N   UNL A   1      45.462  29.413  33.178  1.00  0.00    -0.248 NA
ATOM     21  C   UNL A   1      46.139  27.417  32.179  1.00  0.00     0.031 C 
ATOM     22  C   UNL A   1      46.249  31.390  29.179  1.00  0.00     0.029 A 
ATOM     23  N   UNL A   1      45.763  31.812  31.321  1.00  0.00    -0.354 N 
ATOM     24  C   UNL A   1      45.451  28.389  34.114  1.00  0.00     0.074 A 
ATOM     25  C   UNL A   1      45.860  27.178  33.448  1.00  0.00     0.031 C 
ATOM     26  C   UNL A   1      46.184  32.721  29.316  1.00  0.00     0.029 A 
ATOM     27  C   UNL A   1      45.748  33.023  30.672  1.00  0.00     0.049 A 
ATOM     28  H   UNL A   1      45.651  31.713  32.294  1.00  0.00     0.167 HD
ATOM     29  C   UNL A   1      45.091  28.472  35.411  1.00  0.00     0.034 A 
ATOM     30  C   UNL A   1      45.330  34.219  31.121  1.00  0.00     0.034 A 
ATOM     31  C   UNL A   1      44.696  29.715  36.008  1.00  0.00     0.049 A 
ATOM     32  C   UNL A   1      44.855  34.280  32.545  1.00  0.00     0.074 A 
ATOM     33  C   UNL A   1      44.263  29.960  37.293  1.00  0.00     0.029 A 
ATOM     34  N   UNL A   1      44.676  30.929  35.330  1.00  0.00    -0.354 N 
ATOM     35  N   UNL A   1      44.803  33.315  33.435  1.00  0.00    -0.248 NA
ATOM     36  C   UNL A   1      44.392  35.580  33.036  1.00  0.00     0.031 C 
ATOM     37  C   UNL A   1      43.936  31.317  37.377  1.00  0.00     0.029 A 
ATOM     38  C   UNL A   1      44.219  31.929  36.161  1.00  0.00     0.049 A 
ATOM     39  H   UNL A   1      44.947  31.055  34.392  1.00  0.00     0.167 HD
ATOM     40  C   UNL A   1      44.327  33.891  34.602  1.00  0.00     0.074 A 
ATOM     41  C   UNL A   1      44.118  35.299  34.304  1.00  0.00     0.031 C 
ATOM     42  C   UNL A   1      44.075  33.322  35.807  1.00  0.00     0.034 A 
BRANCH  29  43
ATOM     43  C   UNL A   1      45.012  27.183  36.178  1.00  0.00     0.023 A 
ATOM     44  C   UNL A   1      43.841  26.399  36.157  1.00  0.00     0.012 A 
ATOM     45  C   UNL A   1      46.090  26.795  36.996  1.00  0.00     0.148 A 
ATOM     46  C   UNL A   1      43.724  25.279  36.982  1.00  0.00     0.002 A 
ATOM     47  C   UNL A   1      45.986  25.649  37.774  1.00  0.00     0.091 A 
ATOM     48  F   UNL A   1      47.178  27.577  37.036  1.00  0.00    -0.205 F 
ATOM     49  C   UNL A   1      44.798  24.901  37.784  1.00  0.00     0.022 A 
BRANCH  47  50
ATOM     50  S   UNL A   1      47.336  25.047  38.791  1.00  0.00     0.127 S 
ATOM     51  O   UNL A   1      46.684  23.987  39.554  1.00  0.00    -0.237 OA
ATOM     52  O   UNL A   1      48.290  24.584  37.787  1.00  0.00    -0.237 OA
ATOM     53  O   UNL A   1      47.790  26.193  39.577  1.00  0.00    -0.744 OA
ENDBRANCH  47  50
ENDBRANCH  29  43
BRANCH  30  54
ATOM     54  C   UNL A   1      45.291  35.385  30.197  1.00  0.00     0.023 A 
ATOM     55  C   UNL A   1      46.428  36.195  30.032  1.00  0.00     0.012 A 
ATOM     56  C   UNL A   1      44.139  35.654  29.424  1.00  0.00     0.148 A 
ATOM     57  C   UNL A   1      46.415  37.261  29.130  1.00  0.00     0.002 A 
ATOM     58  C   UNL A   1      44.152  36.681  28.488  1.00  0.00     0.091 A 
ATOM     59  F   UNL A   1      43.061  34.878  29.601  1.00  0.00    -0.205 F 
ATOM     60  C   UNL A   1      45.284  37.497  28.352  1.00  0.00     0.022 A 
BRANCH  58  61
ATOM     61  S   UNL A   1      42.793  36.975  27.350  1.00  0.00     0.127 S 
ATOM     62  O   UNL A   1      42.710  35.702  26.645  1.00  0.00    -0.237 OA
ATOM     63  O   UNL A   1      41.687  37.250  28.267  1.00  0.00    -0.237 OA
ATOM     64  O   UNL A   1      43.198  38.121  26.538  1.00  0.00    -0.744 OA
ENDBRANCH  58  61
ENDBRANCH  30  54
BRANCH  42  65
ATOM     65  C   UNL A   1      43.600  34.230  36.903  1.00  0.00     0.023 A 
ATOM     66  C   UNL A   1      44.526  34.826  37.778  1.00  0.00     0.012 A 
ATOM     67  C   UNL A   1      42.239  34.587  36.965  1.00  0.00     0.148 A 
ATOM     68  C   UNL A   1      44.098  35.761  38.717  1.00  0.00     0.002 A 
ATOM     69  C   UNL A   1      41.832  35.562  37.861  1.00  0.00     0.091 A 
ATOM     70  F   UNL A   1      41.381  33.986  36.128  1.00  0.00    -0.205 F 
ATOM     71  C   UNL A   1      42.756  36.141  38.746  1.00  0.00     0.022 A 
BRANCH  69  72
ATOM     72  S   UNL A   1      40.155  36.201  37.882  1.00  0.00     0.127 S 
ATOM     73  O   UNL A   1      40.262  37.283  38.858  1.00  0.00    -0.237 OA
ATOM     74  O   UNL A   1      39.976  36.638  36.498  1.00  0.00    -0.237 OA
ATOM     75  O   UNL A   1      39.303  35.087  38.280  1.00  0.00    -0.744 OA
ENDBRANCH  69  72
ENDBRANCH  42  65
ENDBRANCH  16  17
ENDBRANCH   9  11
ENDBRANCH   8   9
ENDBRANCH   7   8
ENDBRANCH   6   7
ENDBRANCH   5   6
ENDBRANCH   4   5
ENDBRANCH   3   4
ENDBRANCH   2   3
ENDBRANCH   1   2
BRANCH   1  76
ATOM     76  C   UNL A   1      39.255  25.548  28.121  1.00  0.00     0.188 C 
BRANCH  76  77
ATOM     77  O   UNL A   1      39.287  26.950  28.009  1.00  0.00    -0.376 OA
BRANCH  77  78
ATOM     78  C   UNL A   1      39.230  27.782  29.163  1.00  0.00     0.202 C 
BRANCH  78  79
ATOM     79  C   UNL A   1      37.982  28.541  29.671  1.00  0.00     0.261 C 
BRANCH  79  80
ATOM     80  O   UNL A   1      38.125  29.330  30.865  1.00  0.00    -0.463 OA
BRANCH  80  81
ATOM     81  C   UNL A   1      38.384  28.628  31.990  1.00  0.00     0.310 C 
ATOM     82  O   UNL A   1      37.814  27.575  32.270  1.00  0.00    -0.252 OA
BRANCH  81  83
ATOM     83  C   UNL A   1      39.564  29.122  32.833  1.00  0.00     0.115 C 
ATOM     84  C   UNL A   1      40.976  28.489  32.749  1.00  0.00     0.004 C 
ATOM     85  C   UNL A   1      39.684  30.635  32.599  1.00  0.00     0.096 C 
ATOM     86  C   UNL A   1      41.572  28.669  31.360  1.00  0.00     0.005 C 
ATOM     87  C   UNL A   1      41.886  29.196  33.781  1.00  0.00     0.005 C 
ATOM     88  C   UNL A   1      41.137  31.005  32.223  1.00  0.00     0.002 C 
ATOM     89  C   UNL A   1      41.524  30.151  30.987  1.00  0.00     0.005 C 
ATOM     90  C   UNL A   1      42.094  30.654  33.372  1.00  0.00     0.005 C 
BRANCH  85  91
ATOM     91  C   UNL A   1      39.155  31.375  33.843  1.00  0.00     0.228 C 
ATOM     92  O   UNL A   1      39.752  31.361  34.923  1.00  0.00    -0.274 OA
ATOM     93  N   UNL A   1      38.049  32.172  33.735  1.00  0.00    -0.326 N 
ATOM     94  H   UNL A   1      37.748  32.646  34.543  1.00  0.00     0.169 HD
BRANCH  93  95
ATOM     95  C   UNL A   1      37.317  32.362  32.568  1.00  0.00     0.041 A 
ATOM     96  C   UNL A   1      36.106  31.699  32.462  1.00  0.00     0.026 A 
ATOM     97  C   UNL A   1      37.717  33.287  31.602  1.00  0.00     0.026 A 
ATOM     98  C   UNL A   1      35.223  32.077  31.460  1.00  0.00     0.006 A 
ATOM     99  C   UNL A   1      36.844  33.645  30.581  1.00  0.00     0.006 A 
ATOM    100  C   UNL A   1      35.575  33.061  30.520  1.00  0.00    -0.043 A 
BRANCH 100 101
ATOM    101  C   UNL A   1      34.610  33.446  29.425  1.00  0.00     0.071 C 
BRANCH 101 102
ATOM    102  C   UNL A   1      34.019  34.816  29.637  1.00  0.00    -0.041 A 
ATOM    103  C   UNL A   1      33.918  35.727  28.579  1.00  0.00     0.024 A 
ATOM    104  C   UNL A   1      33.602  35.229  30.904  1.00  0.00     0.024 A 
ATOM    105  C   UNL A   1      33.432  36.998  28.833  1.00  0.00     0.111 A 
ATOM    106  C   UNL A   1      33.111  36.517  31.053  1.00  0.00     0.111 A 
ATOM    107  N   UNL A   1      33.015  37.411  30.045  1.00  0.00    -0.265 NA
ENDBRANCH 101 102
ENDBRANCH 100 101
ENDBRANCH  93  95
ENDBRANCH  85  91
ENDBRANCH  81  83
ENDBRANCH  80  81
ENDBRANCH  79  80
ENDBRANCH  78  79
ENDBRANCH  77  78
ENDBRANCH  76  77
ENDBRANCH   1  76
TORSDOF 27
ENDMDL
