MODEL 1
REMARK VINA RESULT:      -7.5      0.000      0.000
REMARK SMILES O=C(CC1CC[NH+](C[C@@H]2Cc3ccccc32)CC1)OCCOCCOCCOCCOC(=O)c1ccc(-c2c3nc(c(-c4cccc(S(=O)(=O)[O-])c4F)c4ccc([nH]4)c(-c4cccc(S(=O)(=O)[O-])c4F)c4nc(c(-c5cccc(S(=O)(=O)[O-])c5F)c5ccc2[nH]5)C=C4)C=C3)cc1
REMARK SMILES IDX 25 1 24 2 23 3 22 4 21 5 20 6 19 7 2 8 1 9 3 10 4 11 5 12
REMARK SMILES IDX 18 13 6 14 17 15 7 16 8 18 9 19 10 20 16 21 11 22 15 23
REMARK SMILES IDX 12 24 14 25 13 26 26 27 27 28 28 29 29 30 30 31 31 32 32 33
REMARK SMILES IDX 33 34 34 35 35 36 96 37 36 38 95 39 37 40 38 41 39 42 89 43
REMARK SMILES IDX 40 44 94 45 88 46 90 47 41 48 93 49 87 50 86 51 42 53 74 54
REMARK SMILES IDX 54 55 73 56 55 57 58 58 72 59 91 60 56 61 57 62 71 64 92 65
REMARK SMILES IDX 59 66 43 67 44 68 52 69 45 70 47 71 53 72 46 73 48 74 49 75
REMARK SMILES IDX 50 76 51 77 75 78 76 79 84 80 77 81 79 82 85 83 78 84 80 85
REMARK SMILES IDX 81 86 82 87 83 88 60 89 61 90 69 91 62 92 64 93 70 94 63 95
REMARK SMILES IDX 65 96 66 97 67 98 68 99
REMARK H PARENT 7 17 90 52 58 63
REMARK Flexibility Score: inf
ROOT
ATOM      1  O   UNL A   1      39.646  30.507  29.247  1.00  0.00    -0.377 OA
ENDROOT
BRANCH   1   2
ATOM      2  C   UNL A   1      39.776  29.097  29.163  1.00  0.00     0.188 C 
BRANCH   2   3
ATOM      3  C   UNL A   1      41.085  28.669  29.834  1.00  0.00     0.188 C 
BRANCH   3   4
ATOM      4  O   UNL A   1      42.073  28.204  28.921  1.00  0.00    -0.376 OA
BRANCH   4   5
ATOM      5  C   UNL A   1      42.758  27.007  29.263  1.00  0.00     0.202 C 
BRANCH   5   6
ATOM      6  C   UNL A   1      42.307  25.666  28.693  1.00  0.00     0.261 C 
BRANCH   6   7
ATOM      7  O   UNL A   1      42.901  25.314  27.432  1.00  0.00    -0.463 OA
BRANCH   7   8
ATOM      8  C   UNL A   1      43.031  24.007  27.164  1.00  0.00     0.306 C 
ATOM      9  O   UNL A   1      44.065  23.396  27.424  1.00  0.00    -0.252 OA
BRANCH   8  10
ATOM     10  C   UNL A   1      41.830  23.324  26.523  1.00  0.00     0.126 C 
BRANCH  10  11
ATOM     11  C   UNL A   1      40.447  23.038  27.199  1.00  0.00     0.011 C 
ATOM     12  C   UNL A   1      39.867  21.671  26.750  1.00  0.00     0.066 C 
ATOM     13  C   UNL A   1      39.324  24.090  27.335  1.00  0.00     0.066 C 
ATOM     14  C   UNL A   1      38.718  21.724  25.728  1.00  0.00     0.262 C 
ATOM     15  C   UNL A   1      38.093  23.984  26.403  1.00  0.00     0.262 C 
ATOM     16  N   UNL A   1      37.659  22.616  26.163  1.00  0.00    -0.334 N 
ATOM     17  H   UNL A   1      37.449  22.255  27.092  1.00  0.00     0.348 HD
BRANCH  16  18
ATOM     18  C   UNL A   1      36.318  22.446  25.558  1.00  0.00     0.270 C 
BRANCH  18  19
ATOM     19  C   UNL A   1      35.260  21.443  26.066  1.00  0.00     0.079 C 
ATOM     20  C   UNL A   1      34.523  20.480  25.070  1.00  0.00     0.050 C 
ATOM     21  C   UNL A   1      33.890  21.964  26.432  1.00  0.00    -0.036 A 
ATOM     22  C   UNL A   1      33.289  21.227  25.460  1.00  0.00    -0.043 A 
ATOM     23  C   UNL A   1      33.155  22.810  27.238  1.00  0.00     0.004 A 
ATOM     24  C   UNL A   1      31.980  21.432  25.155  1.00  0.00     0.004 A 
ATOM     25  C   UNL A   1      31.800  23.012  26.933  1.00  0.00     0.000 A 
ATOM     26  C   UNL A   1      31.213  22.341  25.867  1.00  0.00     0.000 A 
ENDBRANCH  18  19
ENDBRANCH  16  18
ENDBRANCH  10  11
ENDBRANCH   8  10
ENDBRANCH   7   8
ENDBRANCH   6   7
ENDBRANCH   5   6
ENDBRANCH   4   5
ENDBRANCH   3   4
ENDBRANCH   2   3
ENDBRANCH   1   2
BRANCH   1  27
ATOM     27  C   UNL A   1      38.470  30.950  29.931  1.00  0.00     0.188 C 
BRANCH  27  28
ATOM     28  C   UNL A   1      37.801  32.207  29.299  1.00  0.00     0.188 C 
BRANCH  28  29
ATOM     29  O   UNL A   1      36.396  32.350  29.407  1.00  0.00    -0.376 OA
BRANCH  29  30
ATOM     30  C   UNL A   1      35.894  33.255  30.364  1.00  0.00     0.202 C 
BRANCH  30  31
ATOM     31  C   UNL A   1      34.926  32.782  31.476  1.00  0.00     0.261 C 
BRANCH  31  32
ATOM     32  O   UNL A   1      34.655  33.693  32.564  1.00  0.00    -0.460 OA
BRANCH  32  33
ATOM     33  C   UNL A   1      35.673  34.532  32.924  1.00  0.00     0.338 C 
ATOM     34  O   UNL A   1      35.636  35.739  32.908  1.00  0.00    -0.246 OA
BRANCH  33  35
ATOM     35  C   UNL A   1      36.807  33.754  33.522  1.00  0.00     0.060 A 
ATOM     36  C   UNL A   1      36.510  32.700  34.402  1.00  0.00     0.016 A 
ATOM     37  C   UNL A   1      38.143  34.078  33.281  1.00  0.00     0.016 A 
ATOM     38  C   UNL A   1      37.534  32.010  35.076  1.00  0.00     0.010 A 
ATOM     39  C   UNL A   1      39.167  33.397  33.971  1.00  0.00     0.010 A 
ATOM     40  C   UNL A   1      38.875  32.385  34.909  1.00  0.00    -0.014 A 
BRANCH  40  41
ATOM     41  C   UNL A   1      39.942  31.909  35.852  1.00  0.00     0.031 A 
ATOM     42  C   UNL A   1      40.173  32.693  37.121  1.00  0.00     0.074 A 
ATOM     43  C   UNL A   1      40.730  30.839  35.619  1.00  0.00     0.049 A 
ATOM     44  N   UNL A   1      41.111  32.557  38.024  1.00  0.00    -0.248 NA
ATOM     45  C   UNL A   1      39.223  33.781  37.400  1.00  0.00     0.031 C 
ATOM     46  C   UNL A   1      40.631  29.961  34.464  1.00  0.00     0.029 A 
ATOM     47  N   UNL A   1      41.799  30.329  36.330  1.00  0.00    -0.354 N 
ATOM     48  C   UNL A   1      40.893  33.569  38.952  1.00  0.00     0.074 A 
ATOM     49  C   UNL A   1      39.730  34.306  38.505  1.00  0.00     0.031 C 
ATOM     50  C   UNL A   1      41.609  29.039  34.520  1.00  0.00     0.029 A 
ATOM     51  C   UNL A   1      42.443  29.287  35.697  1.00  0.00     0.049 A 
ATOM     52  H   UNL A   1      42.076  30.678  37.208  1.00  0.00     0.167 HD
ATOM     53  C   UNL A   1      41.589  33.863  40.076  1.00  0.00     0.034 A 
ATOM     54  C   UNL A   1      43.589  28.635  35.997  1.00  0.00     0.034 A 
ATOM     55  C   UNL A   1      42.730  33.132  40.556  1.00  0.00     0.049 A 
ATOM     56  C   UNL A   1      44.374  29.018  37.233  1.00  0.00     0.074 A 
ATOM     57  C   UNL A   1      43.454  33.345  41.718  1.00  0.00     0.029 A 
ATOM     58  N   UNL A   1      43.329  32.069  39.904  1.00  0.00    -0.354 N 
ATOM     59  N   UNL A   1      44.090  29.904  38.155  1.00  0.00    -0.248 NA
ATOM     60  C   UNL A   1      45.635  28.293  37.480  1.00  0.00     0.031 C 
ATOM     61  C   UNL A   1      44.516  32.438  41.748  1.00  0.00     0.029 A 
ATOM     62  C   UNL A   1      44.428  31.631  40.627  1.00  0.00     0.049 A 
ATOM     63  H   UNL A   1      43.021  31.681  39.053  1.00  0.00     0.167 HD
ATOM     64  C   UNL A   1      45.109  29.818  39.101  1.00  0.00     0.074 A 
ATOM     65  C   UNL A   1      46.006  28.775  38.659  1.00  0.00     0.031 C 
ATOM     66  C   UNL A   1      45.293  30.553  40.226  1.00  0.00     0.034 A 
BRANCH  53  67
ATOM     67  C   UNL A   1      41.133  35.044  40.890  1.00  0.00     0.023 A 
ATOM     68  C   UNL A   1      40.211  34.859  41.939  1.00  0.00     0.012 A 
ATOM     69  C   UNL A   1      41.685  36.320  40.666  1.00  0.00     0.148 A 
ATOM     70  C   UNL A   1      39.829  35.933  42.741  1.00  0.00     0.002 A 
ATOM     71  C   UNL A   1      41.336  37.375  41.498  1.00  0.00     0.091 A 
ATOM     72  F   UNL A   1      42.546  36.473  39.649  1.00  0.00    -0.205 F 
ATOM     73  C   UNL A   1      40.400  37.186  42.528  1.00  0.00     0.022 A 
BRANCH  71  74
ATOM     74  S   UNL A   1      42.077  39.004  41.361  1.00  0.00     0.127 S 
ATOM     75  O   UNL A   1      43.487  38.670  41.163  1.00  0.00    -0.237 OA
ATOM     76  O   UNL A   1      41.406  39.547  40.180  1.00  0.00    -0.237 OA
ATOM     77  O   UNL A   1      41.775  39.693  42.608  1.00  0.00    -0.744 OA
ENDBRANCH  71  74
ENDBRANCH  53  67
BRANCH  54  78
ATOM     78  C   UNL A   1      44.112  27.551  35.108  1.00  0.00     0.023 A 
ATOM     79  C   UNL A   1      44.986  27.872  34.048  1.00  0.00     0.012 A 
ATOM     80  C   UNL A   1      43.697  26.214  35.265  1.00  0.00     0.148 A 
ATOM     81  C   UNL A   1      45.396  26.895  33.138  1.00  0.00     0.002 A 
ATOM     82  C   UNL A   1      44.162  25.235  34.394  1.00  0.00     0.091 A 
ATOM     83  F   UNL A   1      42.842  25.926  36.256  1.00  0.00    -0.205 F 
ATOM     84  C   UNL A   1      44.992  25.575  33.316  1.00  0.00     0.022 A 
BRANCH  82  85
ATOM     85  S   UNL A   1      43.798  23.490  34.623  1.00  0.00     0.127 S 
ATOM     86  O   UNL A   1      44.238  22.921  33.353  1.00  0.00    -0.237 OA
ATOM     87  O   UNL A   1      44.637  23.158  35.775  1.00  0.00    -0.237 OA
ATOM     88  O   UNL A   1      42.367  23.421  34.887  1.00  0.00    -0.744 OA
ENDBRANCH  82  85
ENDBRANCH  54  78
BRANCH  66  89
ATOM     89  C   UNL A   1      46.482  30.238  41.103  1.00  0.00     0.023 A 
ATOM     90  C   UNL A   1      46.369  29.279  42.129  1.00  0.00     0.012 A 
ATOM     91  C   UNL A   1      47.736  30.837  40.858  1.00  0.00     0.148 A 
ATOM     92  C   UNL A   1      47.472  28.945  42.916  1.00  0.00     0.002 A 
ATOM     93  C   UNL A   1      48.842  30.462  41.613  1.00  0.00     0.091 A 
ATOM     94  F   UNL A   1      47.825  31.757  39.886  1.00  0.00    -0.205 F 
ATOM     95  C   UNL A   1      48.709  29.527  42.652  1.00  0.00     0.022 A 
BRANCH  93  96
ATOM     96  S   UNL A   1      50.495  31.087  41.286  1.00  0.00     0.127 S 
ATOM     97  O   UNL A   1      50.381  32.477  41.722  1.00  0.00    -0.237 OA
ATOM     98  O   UNL A   1      51.321  30.242  42.149  1.00  0.00    -0.237 OA
ATOM     99  O   UNL A   1      50.722  30.899  39.858  1.00  0.00    -0.744 OA
ENDBRANCH  93  96
ENDBRANCH  66  89
ENDBRANCH  40  41
ENDBRANCH  33  35
ENDBRANCH  32  33
ENDBRANCH  31  32
ENDBRANCH  30  31
ENDBRANCH  29  30
ENDBRANCH  28  29
ENDBRANCH  27  28
ENDBRANCH   1  27
TORSDOF 26
ENDMDL
MODEL 2
REMARK VINA RESULT:      -7.3      5.060     13.074
REMARK SMILES O=C(CC1CC[NH+](C[C@@H]2Cc3ccccc32)CC1)OCCOCCOCCOCCOC(=O)c1ccc(-c2c3nc(c(-c4cccc(S(=O)(=O)[O-])c4F)c4ccc([nH]4)c(-c4cccc(S(=O)(=O)[O-])c4F)c4nc(c(-c5cccc(S(=O)(=O)[O-])c5F)c5ccc2[nH]5)C=C4)C=C3)cc1
REMARK SMILES IDX 25 1 24 2 23 3 22 4 21 5 20 6 19 7 2 8 1 9 3 10 4 11 5 12
REMARK SMILES IDX 18 13 6 14 17 15 7 16 8 18 9 19 10 20 16 21 11 22 15 23
REMARK SMILES IDX 12 24 14 25 13 26 26 27 27 28 28 29 29 30 30 31 31 32 32 33
REMARK SMILES IDX 33 34 34 35 35 36 96 37 36 38 95 39 37 40 38 41 39 42 89 43
REMARK SMILES IDX 40 44 94 45 88 46 90 47 41 48 93 49 87 50 86 51 42 53 74 54
REMARK SMILES IDX 54 55 73 56 55 57 58 58 72 59 91 60 56 61 57 62 71 64 92 65
REMARK SMILES IDX 59 66 43 67 44 68 52 69 45 70 47 71 53 72 46 73 48 74 49 75
REMARK SMILES IDX 50 76 51 77 75 78 76 79 84 80 77 81 79 82 85 83 78 84 80 85
REMARK SMILES IDX 81 86 82 87 83 88 60 89 61 90 69 91 62 92 64 93 70 94 63 95
REMARK SMILES IDX 65 96 66 97 67 98 68 99
REMARK H PARENT 7 17 90 52 58 63
REMARK Flexibility Score: inf
ROOT
ATOM      1  O   UNL A   1      44.699  23.809  28.376  1.00  0.00    -0.377 OA
ENDROOT
BRANCH   1   2
ATOM      2  C   UNL A   1      45.194  24.306  29.609  1.00  0.00     0.188 C 
BRANCH   2   3
ATOM      3  C   UNL A   1      44.031  24.466  30.592  1.00  0.00     0.188 C 
BRANCH   3   4
ATOM      4  O   UNL A   1      44.271  23.879  31.867  1.00  0.00    -0.376 OA
BRANCH   4   5
ATOM      5  C   UNL A   1      44.870  24.702  32.857  1.00  0.00     0.202 C 
BRANCH   5   6
ATOM      6  C   UNL A   1      44.089  25.848  33.491  1.00  0.00     0.261 C 
BRANCH   6   7
ATOM      7  O   UNL A   1      44.398  26.099  34.872  1.00  0.00    -0.463 OA
BRANCH   7   8
ATOM      8  C   UNL A   1      43.948  27.248  35.397  1.00  0.00     0.306 C 
ATOM      9  O   UNL A   1      44.417  27.709  36.435  1.00  0.00    -0.252 OA
BRANCH   8  10
ATOM     10  C   UNL A   1      42.828  27.948  34.637  1.00  0.00     0.126 C 
BRANCH  10  11
ATOM     11  C   UNL A   1      42.787  29.453  34.211  1.00  0.00     0.011 C 
ATOM     12  C   UNL A   1      43.868  29.772  33.145  1.00  0.00     0.066 C 
ATOM     13  C   UNL A   1      42.641  30.624  35.209  1.00  0.00     0.066 C 
ATOM     14  C   UNL A   1      45.110  30.533  33.643  1.00  0.00     0.262 C 
ATOM     15  C   UNL A   1      43.890  31.481  35.532  1.00  0.00     0.262 C 
ATOM     16  N   UNL A   1      44.742  31.729  34.379  1.00  0.00    -0.334 N 
ATOM     17  H   UNL A   1      44.131  32.203  33.715  1.00  0.00     0.348 HD
BRANCH  16  18
ATOM     18  C   UNL A   1      45.763  32.791  34.529  1.00  0.00     0.270 C 
BRANCH  18  19
ATOM     19  C   UNL A   1      45.708  33.899  35.603  1.00  0.00     0.079 C 
ATOM     20  C   UNL A   1      46.669  35.136  35.529  1.00  0.00     0.050 C 
ATOM     21  C   UNL A   1      46.318  33.620  36.956  1.00  0.00    -0.036 A 
ATOM     22  C   UNL A   1      47.241  34.608  36.805  1.00  0.00    -0.043 A 
ATOM     23  C   UNL A   1      46.306  32.828  38.088  1.00  0.00     0.004 A 
ATOM     24  C   UNL A   1      48.268  34.728  37.688  1.00  0.00     0.004 A 
ATOM     25  C   UNL A   1      47.359  32.960  39.006  1.00  0.00     0.000 A 
ATOM     26  C   UNL A   1      48.363  33.896  38.793  1.00  0.00     0.000 A 
ENDBRANCH  18  19
ENDBRANCH  16  18
ENDBRANCH  10  11
ENDBRANCH   8  10
ENDBRANCH   7   8
ENDBRANCH   6   7
ENDBRANCH   5   6
ENDBRANCH   4   5
ENDBRANCH   3   4
ENDBRANCH   2   3
ENDBRANCH   1   2
BRANCH   1  27
ATOM     27  C   UNL A   1      43.474  23.077  28.486  1.00  0.00     0.188 C 
BRANCH  27  28
ATOM     28  C   UNL A   1      43.217  22.084  27.313  1.00  0.00     0.188 C 
BRANCH  28  29
ATOM     29  O   UNL A   1      42.588  22.571  26.142  1.00  0.00    -0.376 OA
BRANCH  29  30
ATOM     30  C   UNL A   1      41.433  21.904  25.685  1.00  0.00     0.202 C 
BRANCH  30  31
ATOM     31  C   UNL A   1      40.484  21.185  26.674  1.00  0.00     0.261 C 
BRANCH  31  32
ATOM     32  O   UNL A   1      39.370  21.935  27.204  1.00  0.00    -0.460 OA
BRANCH  32  33
ATOM     33  C   UNL A   1      38.966  23.021  26.476  1.00  0.00     0.338 C 
ATOM     34  O   UNL A   1      38.062  23.041  25.676  1.00  0.00    -0.246 OA
BRANCH  33  35
ATOM     35  C   UNL A   1      39.684  24.255  26.934  1.00  0.00     0.060 A 
ATOM     36  C   UNL A   1      39.884  24.447  28.311  1.00  0.00     0.016 A 
ATOM     37  C   UNL A   1      40.106  25.245  26.045  1.00  0.00     0.016 A 
ATOM     38  C   UNL A   1      40.451  25.638  28.801  1.00  0.00     0.010 A 
ATOM     39  C   UNL A   1      40.658  26.444  26.538  1.00  0.00     0.010 A 
ATOM     40  C   UNL A   1      40.798  26.675  27.923  1.00  0.00    -0.014 A 
BRANCH  40  41
ATOM     41  C   UNL A   1      41.080  28.062  28.426  1.00  0.00     0.031 A 
ATOM     42  C   UNL A   1      42.521  28.475  28.604  1.00  0.00     0.074 A 
ATOM     43  C   UNL A   1      40.123  28.952  28.757  1.00  0.00     0.049 A 
ATOM     44  N   UNL A   1      43.015  29.564  29.137  1.00  0.00    -0.248 NA
ATOM     45  C   UNL A   1      43.538  27.526  28.125  1.00  0.00     0.031 C 
ATOM     46  C   UNL A   1      38.691  28.731  28.627  1.00  0.00     0.029 A 
ATOM     47  N   UNL A   1      40.213  30.215  29.307  1.00  0.00    -0.354 N 
ATOM     48  C   UNL A   1      44.396  29.412  29.101  1.00  0.00     0.074 A 
ATOM     49  C   UNL A   1      44.661  28.128  28.488  1.00  0.00     0.031 C 
ATOM     50  C   UNL A   1      38.030  29.799  29.107  1.00  0.00     0.029 A 
ATOM     51  C   UNL A   1      38.991  30.771  29.629  1.00  0.00     0.049 A 
ATOM     52  H   UNL A   1      41.069  30.677  29.458  1.00  0.00     0.167 HD
ATOM     53  C   UNL A   1      45.361  30.257  29.533  1.00  0.00     0.034 A 
ATOM     54  C   UNL A   1      38.678  31.902  30.300  1.00  0.00     0.034 A 
ATOM     55  C   UNL A   1      45.126  31.548  30.121  1.00  0.00     0.049 A 
ATOM     56  C   UNL A   1      39.778  32.805  30.815  1.00  0.00     0.074 A 
ATOM     57  C   UNL A   1      46.063  32.481  30.535  1.00  0.00     0.029 A 
ATOM     58  N   UNL A   1      43.882  32.083  30.399  1.00  0.00    -0.354 N 
ATOM     59  N   UNL A   1      41.076  32.696  30.672  1.00  0.00    -0.248 NA
ATOM     60  C   UNL A   1      39.366  34.002  31.573  1.00  0.00     0.031 C 
ATOM     61  C   UNL A   1      45.385  33.563  31.103  1.00  0.00     0.029 A 
ATOM     62  C   UNL A   1      44.025  33.323  31.002  1.00  0.00     0.049 A 
ATOM     63  H   UNL A   1      43.021  31.649  30.199  1.00  0.00     0.167 HD
ATOM     64  C   UNL A   1      41.627  33.819  31.286  1.00  0.00     0.074 A 
ATOM     65  C   UNL A   1      40.525  34.613  31.779  1.00  0.00     0.031 C 
ATOM     66  C   UNL A   1      42.933  34.150  31.442  1.00  0.00     0.034 A 
BRANCH  53  67
ATOM     67  C   UNL A   1      46.793  29.816  29.384  1.00  0.00     0.023 A 
ATOM     68  C   UNL A   1      47.560  30.276  28.296  1.00  0.00     0.012 A 
ATOM     69  C   UNL A   1      47.397  29.014  30.372  1.00  0.00     0.148 A 
ATOM     70  C   UNL A   1      48.903  29.927  28.181  1.00  0.00     0.002 A 
ATOM     71  C   UNL A   1      48.748  28.709  30.275  1.00  0.00     0.091 A 
ATOM     72  F   UNL A   1      46.641  28.574  31.388  1.00  0.00    -0.205 F 
ATOM     73  C   UNL A   1      49.500  29.154  29.175  1.00  0.00     0.022 A 
BRANCH  71  74
ATOM     74  S   UNL A   1      49.628  27.794  31.545  1.00  0.00     0.127 S 
ATOM     75  O   UNL A   1      49.007  26.474  31.440  1.00  0.00    -0.237 OA
ATOM     76  O   UNL A   1      51.009  27.859  31.066  1.00  0.00    -0.237 OA
ATOM     77  O   UNL A   1      49.381  28.497  32.796  1.00  0.00    -0.744 OA
ENDBRANCH  71  74
ENDBRANCH  53  67
BRANCH  54  78
ATOM     78  C   UNL A   1      37.250  32.268  30.565  1.00  0.00     0.023 A 
ATOM     79  C   UNL A   1      36.672  31.974  31.818  1.00  0.00     0.012 A 
ATOM     80  C   UNL A   1      36.445  32.842  29.562  1.00  0.00     0.148 A 
ATOM     81  C   UNL A   1      35.314  32.202  32.049  1.00  0.00     0.002 A 
ATOM     82  C   UNL A   1      35.109  33.127  29.822  1.00  0.00     0.091 A 
ATOM     83  F   UNL A   1      36.998  33.087  28.366  1.00  0.00    -0.205 F 
ATOM     84  C   UNL A   1      34.534  32.787  31.055  1.00  0.00     0.022 A 
BRANCH  82  85
ATOM     85  S   UNL A   1      34.063  33.996  28.647  1.00  0.00     0.127 S 
ATOM     86  O   UNL A   1      34.909  35.123  28.269  1.00  0.00    -0.237 OA
ATOM     87  O   UNL A   1      33.878  32.984  27.606  1.00  0.00    -0.237 OA
ATOM     88  O   UNL A   1      32.849  34.331  29.379  1.00  0.00    -0.744 OA
ENDBRANCH  82  85
ENDBRANCH  54  78
BRANCH  66  89
ATOM     89  C   UNL A   1      43.266  35.452  32.132  1.00  0.00     0.023 A 
ATOM     90  C   UNL A   1      43.280  35.523  33.539  1.00  0.00     0.012 A 
ATOM     91  C   UNL A   1      43.644  36.587  31.384  1.00  0.00     0.148 A 
ATOM     92  C   UNL A   1      43.630  36.707  34.189  1.00  0.00     0.002 A 
ATOM     93  C   UNL A   1      44.041  37.748  32.038  1.00  0.00     0.091 A 
ATOM     94  F   UNL A   1      43.613  36.508  30.045  1.00  0.00    -0.205 F 
ATOM     95  C   UNL A   1      44.021  37.815  33.440  1.00  0.00     0.022 A 
BRANCH  93  96
ATOM     96  S   UNL A   1      44.650  39.195  31.162  1.00  0.00     0.127 S 
ATOM     97  O   UNL A   1      43.463  39.616  30.419  1.00  0.00    -0.237 OA
ATOM     98  O   UNL A   1      45.028  40.084  32.261  1.00  0.00    -0.237 OA
ATOM     99  O   UNL A   1      45.764  38.731  30.345  1.00  0.00    -0.744 OA
ENDBRANCH  93  96
ENDBRANCH  66  89
ENDBRANCH  40  41
ENDBRANCH  33  35
ENDBRANCH  32  33
ENDBRANCH  31  32
ENDBRANCH  30  31
ENDBRANCH  29  30
ENDBRANCH  28  29
ENDBRANCH  27  28
ENDBRANCH   1  27
TORSDOF 26
ENDMDL
MODEL 3
REMARK VINA RESULT:      -7.2      5.335     10.470
REMARK SMILES O=C(CC1CC[NH+](C[C@@H]2Cc3ccccc32)CC1)OCCOCCOCCOCCOC(=O)c1ccc(-c2c3nc(c(-c4cccc(S(=O)(=O)[O-])c4F)c4ccc([nH]4)c(-c4cccc(S(=O)(=O)[O-])c4F)c4nc(c(-c5cccc(S(=O)(=O)[O-])c5F)c5ccc2[nH]5)C=C4)C=C3)cc1
REMARK SMILES IDX 25 1 24 2 23 3 22 4 21 5 20 6 19 7 2 8 1 9 3 10 4 11 5 12
REMARK SMILES IDX 18 13 6 14 17 15 7 16 8 18 9 19 10 20 16 21 11 22 15 23
REMARK SMILES IDX 12 24 14 25 13 26 26 27 27 28 28 29 29 30 30 31 31 32 32 33
REMARK SMILES IDX 33 34 34 35 35 36 96 37 36 38 95 39 37 40 38 41 39 42 89 43
REMARK SMILES IDX 40 44 94 45 88 46 90 47 41 48 93 49 87 50 86 51 42 53 74 54
REMARK SMILES IDX 54 55 73 56 55 57 58 58 72 59 91 60 56 61 57 62 71 64 92 65
REMARK SMILES IDX 59 66 43 67 44 68 52 69 45 70 47 71 53 72 46 73 48 74 49 75
REMARK SMILES IDX 50 76 51 77 75 78 76 79 84 80 77 81 79 82 85 83 78 84 80 85
REMARK SMILES IDX 81 86 82 87 83 88 60 89 61 90 69 91 62 92 64 93 70 94 63 95
REMARK SMILES IDX 65 96 66 97 67 98 68 99
REMARK H PARENT 7 17 90 52 58 63
REMARK Flexibility Score: inf
ROOT
ATOM      1  O   UNL A   1      51.981  25.028  32.526  1.00  0.00    -0.377 OA
ENDROOT
BRANCH   1   2
ATOM      2  C   UNL A   1      52.461  26.182  31.854  1.00  0.00     0.188 C 
BRANCH   2   3
ATOM      3  C   UNL A   1      51.878  26.221  30.438  1.00  0.00     0.188 C 
BRANCH   3   4
ATOM      4  O   UNL A   1      50.608  25.588  30.322  1.00  0.00    -0.376 OA
BRANCH   4   5
ATOM      5  C   UNL A   1      50.179  25.232  29.016  1.00  0.00     0.202 C 
BRANCH   5   6
ATOM      6  C   UNL A   1      48.888  25.804  28.440  1.00  0.00     0.261 C 
BRANCH   6   7
ATOM      7  O   UNL A   1      48.463  25.210  27.201  1.00  0.00    -0.463 OA
BRANCH   7   8
ATOM      8  C   UNL A   1      47.178  24.838  27.113  1.00  0.00     0.306 C 
ATOM      9  O   UNL A   1      46.859  23.678  26.865  1.00  0.00    -0.252 OA
BRANCH   8  10
ATOM     10  C   UNL A   1      46.140  25.930  27.339  1.00  0.00     0.126 C 
BRANCH  10  11
ATOM     11  C   UNL A   1      44.958  25.898  28.365  1.00  0.00     0.011 C 
ATOM     12  C   UNL A   1      45.456  26.142  29.813  1.00  0.00     0.066 C 
ATOM     13  C   UNL A   1      43.832  24.840  28.344  1.00  0.00     0.066 C 
ATOM     14  C   UNL A   1      45.533  24.903  30.723  1.00  0.00     0.262 C 
ATOM     15  C   UNL A   1      43.854  23.716  29.409  1.00  0.00     0.262 C 
ATOM     16  N   UNL A   1      44.283  24.165  30.724  1.00  0.00    -0.334 N 
ATOM     17  H   UNL A   1      43.611  24.891  30.970  1.00  0.00     0.348 HD
BRANCH  16  18
ATOM     18  C   UNL A   1      44.024  23.242  31.854  1.00  0.00     0.270 C 
BRANCH  18  19
ATOM     19  C   UNL A   1      44.311  23.581  33.332  1.00  0.00     0.079 C 
ATOM     20  C   UNL A   1      43.733  22.690  34.486  1.00  0.00     0.050 C 
ATOM     21  C   UNL A   1      43.563  24.730  33.967  1.00  0.00    -0.036 A 
ATOM     22  C   UNL A   1      42.958  23.910  34.867  1.00  0.00    -0.043 A 
ATOM     23  C   UNL A   1      43.286  26.082  33.939  1.00  0.00     0.004 A 
ATOM     24  C   UNL A   1      41.949  24.378  35.650  1.00  0.00     0.004 A 
ATOM     25  C   UNL A   1      42.253  26.568  34.756  1.00  0.00     0.000 A 
ATOM     26  C   UNL A   1      41.560  25.708  35.597  1.00  0.00     0.000 A 
ENDBRANCH  18  19
ENDBRANCH  16  18
ENDBRANCH  10  11
ENDBRANCH   8  10
ENDBRANCH   7   8
ENDBRANCH   6   7
ENDBRANCH   5   6
ENDBRANCH   4   5
ENDBRANCH   3   4
ENDBRANCH   2   3
ENDBRANCH   1   2
BRANCH   1  27
ATOM     27  C   UNL A   1      52.992  24.281  33.209  1.00  0.00     0.188 C 
BRANCH  27  28
ATOM     28  C   UNL A   1      52.802  22.737  33.138  1.00  0.00     0.188 C 
BRANCH  28  29
ATOM     29  O   UNL A   1      51.683  22.164  33.789  1.00  0.00    -0.376 OA
BRANCH  29  30
ATOM     30  C   UNL A   1      51.522  20.765  33.720  1.00  0.00     0.202 C 
BRANCH  30  31
ATOM     31  C   UNL A   1      50.184  20.097  34.121  1.00  0.00     0.261 C 
BRANCH  31  32
ATOM     32  O   UNL A   1      49.692  20.327  35.459  1.00  0.00    -0.460 OA
BRANCH  32  33
ATOM     33  C   UNL A   1      48.341  20.501  35.588  1.00  0.00     0.338 C 
ATOM     34  O   UNL A   1      47.504  19.633  35.509  1.00  0.00    -0.246 OA
BRANCH  33  35
ATOM     35  C   UNL A   1      48.032  21.901  36.026  1.00  0.00     0.060 A 
ATOM     36  C   UNL A   1      46.715  22.215  36.400  1.00  0.00     0.016 A 
ATOM     37  C   UNL A   1      48.992  22.914  36.018  1.00  0.00     0.016 A 
ATOM     38  C   UNL A   1      46.346  23.537  36.711  1.00  0.00     0.010 A 
ATOM     39  C   UNL A   1      48.618  24.240  36.313  1.00  0.00     0.010 A 
ATOM     40  C   UNL A   1      47.282  24.577  36.621  1.00  0.00    -0.014 A 
BRANCH  40  41
ATOM     41  C   UNL A   1      46.853  26.016  36.613  1.00  0.00     0.031 A 
ATOM     42  C   UNL A   1      46.596  26.689  37.939  1.00  0.00     0.074 A 
ATOM     43  C   UNL A   1      46.653  26.735  35.490  1.00  0.00     0.049 A 
ATOM     44  N   UNL A   1      46.101  27.876  38.187  1.00  0.00    -0.248 NA
ATOM     45  C   UNL A   1      46.935  25.916  39.143  1.00  0.00     0.031 C 
ATOM     46  C   UNL A   1      46.874  26.253  34.136  1.00  0.00     0.029 A 
ATOM     47  N   UNL A   1      46.182  28.021  35.310  1.00  0.00    -0.354 N 
ATOM     48  C   UNL A   1      46.025  27.973  39.572  1.00  0.00     0.074 A 
ATOM     49  C   UNL A   1      46.531  26.727  40.109  1.00  0.00     0.031 C 
ATOM     50  C   UNL A   1      46.515  27.209  33.259  1.00  0.00     0.029 A 
ATOM     51  C   UNL A   1      45.989  28.364  33.988  1.00  0.00     0.049 A 
ATOM     52  H   UNL A   1      45.999  28.636  36.057  1.00  0.00     0.167 HD
ATOM     53  C   UNL A   1      45.579  28.999  40.334  1.00  0.00     0.034 A 
ATOM     54  C   UNL A   1      45.419  29.453  33.426  1.00  0.00     0.034 A 
ATOM     55  C   UNL A   1      45.097  30.255  39.828  1.00  0.00     0.049 A 
ATOM     56  C   UNL A   1      44.884  30.564  34.303  1.00  0.00     0.074 A 
ATOM     57  C   UNL A   1      44.677  31.362  40.548  1.00  0.00     0.029 A 
ATOM     58  N   UNL A   1      44.947  30.572  38.490  1.00  0.00    -0.354 N 
ATOM     59  N   UNL A   1      44.923  30.683  35.607  1.00  0.00    -0.248 NA
ATOM     60  C   UNL A   1      44.239  31.705  33.625  1.00  0.00     0.031 C 
ATOM     61  C   UNL A   1      44.233  32.332  39.646  1.00  0.00     0.029 A 
ATOM     62  C   UNL A   1      44.418  31.847  38.363  1.00  0.00     0.049 A 
ATOM     63  H   UNL A   1      45.181  29.980  37.739  1.00  0.00     0.167 HD
ATOM     64  C   UNL A   1      44.346  31.917  35.900  1.00  0.00     0.074 A 
ATOM     65  C   UNL A   1      43.989  32.524  34.637  1.00  0.00     0.031 C 
ATOM     66  C   UNL A   1      44.116  32.485  37.109  1.00  0.00     0.034 A 
BRANCH  53  67
ATOM     67  C   UNL A   1      45.592  28.815  41.828  1.00  0.00     0.023 A 
ATOM     68  C   UNL A   1      44.471  28.261  42.478  1.00  0.00     0.012 A 
ATOM     69  C   UNL A   1      46.750  29.115  42.572  1.00  0.00     0.148 A 
ATOM     70  C   UNL A   1      44.495  28.027  43.851  1.00  0.00     0.002 A 
ATOM     71  C   UNL A   1      46.783  28.835  43.932  1.00  0.00     0.091 A 
ATOM     72  F   UNL A   1      47.796  29.659  41.933  1.00  0.00    -0.205 F 
ATOM     73  C   UNL A   1      45.653  28.303  44.575  1.00  0.00     0.022 A 
BRANCH  71  74
ATOM     74  S   UNL A   1      48.253  29.074  44.935  1.00  0.00     0.127 S 
ATOM     75  O   UNL A   1      47.774  28.676  46.258  1.00  0.00    -0.237 OA
ATOM     76  O   UNL A   1      49.196  28.140  44.320  1.00  0.00    -0.237 OA
ATOM     77  O   UNL A   1      48.610  30.480  44.803  1.00  0.00    -0.744 OA
ENDBRANCH  71  74
ENDBRANCH  53  67
BRANCH  54  78
ATOM     78  C   UNL A   1      45.284  29.569  31.939  1.00  0.00     0.023 A 
ATOM     79  C   UNL A   1      46.379  30.010  31.167  1.00  0.00     0.012 A 
ATOM     80  C   UNL A   1      44.059  29.309  31.295  1.00  0.00     0.148 A 
ATOM     81  C   UNL A   1      46.244  30.234  29.795  1.00  0.00     0.002 A 
ATOM     82  C   UNL A   1      43.950  29.472  29.918  1.00  0.00     0.091 A 
ATOM     83  F   UNL A   1      43.017  28.921  32.043  1.00  0.00    -0.205 F 
ATOM     84  C   UNL A   1      45.032  29.956  29.169  1.00  0.00     0.022 A 
BRANCH  82  85
ATOM     85  S   UNL A   1      42.468  29.016  29.009  1.00  0.00     0.127 S 
ATOM     86  O   UNL A   1      41.514  30.022  29.465  1.00  0.00    -0.237 OA
ATOM     87  O   UNL A   1      42.910  29.165  27.622  1.00  0.00    -0.237 OA
ATOM     88  O   UNL A   1      42.178  27.643  29.399  1.00  0.00    -0.744 OA
ENDBRANCH  82  85
ENDBRANCH  54  78
BRANCH  66  89
ATOM     89  C   UNL A   1      43.490  33.860  37.150  1.00  0.00     0.023 A 
ATOM     90  C   UNL A   1      44.307  35.006  37.213  1.00  0.00     0.012 A 
ATOM     91  C   UNL A   1      42.093  34.018  37.044  1.00  0.00     0.148 A 
ATOM     92  C   UNL A   1      43.744  36.283  37.204  1.00  0.00     0.002 A 
ATOM     93  C   UNL A   1      41.542  35.294  36.985  1.00  0.00     0.091 A 
ATOM     94  F   UNL A   1      41.327  32.917  36.998  1.00  0.00    -0.205 F 
ATOM     95  C   UNL A   1      42.365  36.428  37.079  1.00  0.00     0.022 A 
BRANCH  93  96
ATOM     96  S   UNL A   1      39.786  35.581  36.730  1.00  0.00     0.127 S 
ATOM     97  O   UNL A   1      39.791  36.869  36.040  1.00  0.00    -0.237 OA
ATOM     98  O   UNL A   1      39.405  34.442  35.893  1.00  0.00    -0.237 OA
ATOM     99  O   UNL A   1      39.182  35.587  38.056  1.00  0.00    -0.744 OA
ENDBRANCH  93  96
ENDBRANCH  66  89
ENDBRANCH  40  41
ENDBRANCH  33  35
ENDBRANCH  32  33
ENDBRANCH  31  32
ENDBRANCH  30  31
ENDBRANCH  29  30
ENDBRANCH  28  29
ENDBRANCH  27  28
ENDBRANCH   1  27
TORSDOF 26
ENDMDL
