MODEL 1
REMARK VINA RESULT:      -8.2      0.000      0.000
REMARK SMILES Cc1cc(=O)cc(C)n1C[C@H]1CCCC[C@@H]1C(=O)OCCOCCOCCOCCOC(=O)c1ccc(-c2c3nc(c(-c4cccc(S(=O)(=O)[O-])c4F)c4ccc([nH]4)c(-c4cccc(S(=O)(=O)[O-])c4F)c4nc(c(-c5cccc(S(=O)(=O)[O-])c5F)c5ccc2[nH]5)C=C4)C=C3)cc1
REMARK SMILES IDX 26 1 25 2 24 3 23 4 22 5 21 6 20 7 19 8 17 9 18 10 16 11
REMARK SMILES IDX 11 12 12 13 13 14 15 15 14 16 10 17 9 18 1 19 2 20 3 21 4 22
REMARK SMILES IDX 7 23 5 24 6 25 8 26 27 27 28 28 29 29 30 30 31 31 32 32
REMARK SMILES IDX 33 33 34 34 35 35 96 36 36 37 95 38 37 39 38 40 39 41 89 42
REMARK SMILES IDX 40 43 94 44 88 45 90 46 41 47 93 48 87 49 86 50 42 52 74 53
REMARK SMILES IDX 54 54 73 55 55 56 58 57 72 58 91 59 56 60 57 61 71 63 92 64
REMARK SMILES IDX 59 65 43 66 44 67 52 68 45 69 47 70 53 71 46 72 48 73 49 74
REMARK SMILES IDX 50 75 51 76 75 77 76 78 84 79 77 80 79 81 85 82 78 83 80 84
REMARK SMILES IDX 81 85 82 86 83 87 60 88 61 89 69 90 62 91 64 92 70 93 63 94
REMARK SMILES IDX 65 95 66 96 67 97 68 98
REMARK H PARENT 90 51 58 62
REMARK Flexibility Score: inf
ROOT
ATOM      1  C   UNL A   1      34.669  34.044  29.455  1.00  0.00     0.188 C 
ENDROOT
BRANCH   1   2
ATOM      2  O   UNL A   1      34.567  32.691  29.869  1.00  0.00    -0.377 OA
BRANCH   2   3
ATOM      3  C   UNL A   1      35.672  31.814  29.729  1.00  0.00     0.188 C 
BRANCH   3   4
ATOM      4  C   UNL A   1      35.684  31.181  28.335  1.00  0.00     0.188 C 
BRANCH   4   5
ATOM      5  O   UNL A   1      36.225  29.863  28.272  1.00  0.00    -0.376 OA
BRANCH   5   6
ATOM      6  C   UNL A   1      37.598  29.749  27.878  1.00  0.00     0.202 C 
BRANCH   6   7
ATOM      7  C   UNL A   1      38.442  28.621  28.520  1.00  0.00     0.261 C 
BRANCH   7   8
ATOM      8  O   UNL A   1      39.299  27.841  27.631  1.00  0.00    -0.463 OA
BRANCH   8   9
ATOM      9  C   UNL A   1      39.992  26.828  28.210  1.00  0.00     0.309 C 
ATOM     10  O   UNL A   1      39.536  26.130  29.115  1.00  0.00    -0.252 OA
BRANCH   9  11
ATOM     11  C   UNL A   1      41.397  26.518  27.648  1.00  0.00     0.104 C 
ATOM     12  C   UNL A   1      42.679  26.553  28.541  1.00  0.00     0.023 C 
ATOM     13  C   UNL A   1      43.108  28.007  28.713  1.00  0.00     0.006 C 
ATOM     14  C   UNL A   1      43.416  28.709  27.391  1.00  0.00     0.000 C 
ATOM     15  C   UNL A   1      41.587  27.272  26.310  1.00  0.00     0.016 C 
ATOM     16  C   UNL A   1      42.272  28.635  26.395  1.00  0.00     0.001 C 
BRANCH  12  17
ATOM     17  C   UNL A   1      43.821  25.690  27.889  1.00  0.00     0.126 C 
BRANCH  17  18
ATOM     18  N   UNL A   1      43.428  24.346  27.345  1.00  0.00    -0.349 N 
ATOM     19  C   UNL A   1      44.190  25.050  25.002  1.00  0.00     0.064 C 
ATOM     20  C   UNL A   1      43.492  24.094  25.940  1.00  0.00     0.018 A 
ATOM     21  C   UNL A   1      43.025  22.960  25.381  1.00  0.00     0.073 A 
ATOM     22  C   UNL A   1      42.448  21.907  26.224  1.00  0.00     0.182 A 
ATOM     23  C   UNL A   1      43.071  23.238  28.173  1.00  0.00     0.018 A 
ATOM     24  O   UNL A   1      42.003  20.867  25.754  1.00  0.00    -0.290 OA
ATOM     25  C   UNL A   1      42.554  22.098  27.675  1.00  0.00     0.073 A 
ATOM     26  C   UNL A   1      43.395  23.177  29.643  1.00  0.00     0.064 C 
ENDBRANCH  17  18
ENDBRANCH  12  17
ENDBRANCH   9  11
ENDBRANCH   8   9
ENDBRANCH   7   8
ENDBRANCH   6   7
ENDBRANCH   5   6
ENDBRANCH   4   5
ENDBRANCH   3   4
ENDBRANCH   2   3
ENDBRANCH   1   2
BRANCH   1  27
ATOM     27  C   UNL A   1      33.597  34.995  29.981  1.00  0.00     0.188 C 
BRANCH  27  28
ATOM     28  O   UNL A   1      33.183  34.791  31.336  1.00  0.00    -0.376 OA
BRANCH  28  29
ATOM     29  C   UNL A   1      34.192  34.704  32.341  1.00  0.00     0.202 C 
BRANCH  29  30
ATOM     30  C   UNL A   1      34.131  33.477  33.248  1.00  0.00     0.261 C 
BRANCH  30  31
ATOM     31  O   UNL A   1      35.337  32.704  33.170  1.00  0.00    -0.460 OA
BRANCH  31  32
ATOM     32  C   UNL A   1      36.224  32.900  34.171  1.00  0.00     0.338 C 
ATOM     33  O   UNL A   1      36.025  33.453  35.243  1.00  0.00    -0.246 OA
BRANCH  32  34
ATOM     34  C   UNL A   1      37.455  32.164  33.849  1.00  0.00     0.060 A 
ATOM     35  C   UNL A   1      38.626  32.455  34.561  1.00  0.00     0.016 A 
ATOM     36  C   UNL A   1      37.457  31.225  32.817  1.00  0.00     0.016 A 
ATOM     37  C   UNL A   1      39.817  31.822  34.223  1.00  0.00     0.010 A 
ATOM     38  C   UNL A   1      38.655  30.609  32.464  1.00  0.00     0.010 A 
ATOM     39  C   UNL A   1      39.841  30.933  33.144  1.00  0.00    -0.014 A 
BRANCH  39  40
ATOM     40  C   UNL A   1      41.141  30.483  32.606  1.00  0.00     0.031 A 
ATOM     41  C   UNL A   1      41.809  31.331  31.563  1.00  0.00     0.074 A 
ATOM     42  C   UNL A   1      41.709  29.351  33.055  1.00  0.00     0.049 A 
ATOM     43  N   UNL A   1      42.930  31.125  30.927  1.00  0.00    -0.248 NA
ATOM     44  C   UNL A   1      41.122  32.580  31.185  1.00  0.00     0.031 C 
ATOM     45  C   UNL A   1      41.150  28.477  34.085  1.00  0.00     0.029 A 
ATOM     46  N   UNL A   1      42.879  28.737  32.688  1.00  0.00    -0.354 N 
ATOM     47  C   UNL A   1      43.076  32.205  30.065  1.00  0.00     0.074 A 
ATOM     48  C   UNL A   1      41.921  33.055  30.240  1.00  0.00     0.031 C 
ATOM     49  C   UNL A   1      41.970  27.427  34.256  1.00  0.00     0.029 A 
ATOM     50  C   UNL A   1      43.095  27.541  33.329  1.00  0.00     0.049 A 
ATOM     51  H   UNL A   1      43.503  29.117  32.028  1.00  0.00     0.167 HD
ATOM     52  C   UNL A   1      44.098  32.473  29.221  1.00  0.00     0.034 A 
ATOM     53  C   UNL A   1      44.083  26.638  33.168  1.00  0.00     0.034 A 
ATOM     54  C   UNL A   1      45.245  31.622  29.068  1.00  0.00     0.049 A 
ATOM     55  C   UNL A   1      45.180  26.936  32.178  1.00  0.00     0.074 A 
ATOM     56  C   UNL A   1      46.345  31.806  28.252  1.00  0.00     0.029 A 
ATOM     57  N   UNL A   1      45.437  30.426  29.742  1.00  0.00    -0.354 N 
ATOM     58  N   UNL A   1      45.352  28.001  31.432  1.00  0.00    -0.248 NA
ATOM     59  C   UNL A   1      46.235  25.924  32.027  1.00  0.00     0.031 C 
ATOM     60  C   UNL A   1      47.188  30.704  28.407  1.00  0.00     0.029 A 
ATOM     61  C   UNL A   1      46.635  29.855  29.354  1.00  0.00     0.049 A 
ATOM     62  H   UNL A   1      44.814  30.039  30.398  1.00  0.00     0.167 HD
ATOM     63  C   UNL A   1      46.553  27.807  30.756  1.00  0.00     0.074 A 
ATOM     64  C   UNL A   1      47.072  26.528  31.193  1.00  0.00     0.031 C 
ATOM     65  C   UNL A   1      47.163  28.608  29.849  1.00  0.00     0.034 A 
BRANCH  52  66
ATOM     66  C   UNL A   1      44.049  33.750  28.426  1.00  0.00     0.023 A 
ATOM     67  C   UNL A   1      43.533  33.732  27.114  1.00  0.00     0.012 A 
ATOM     68  C   UNL A   1      44.416  34.979  29.008  1.00  0.00     0.148 A 
ATOM     69  C   UNL A   1      43.398  34.913  26.387  1.00  0.00     0.002 A 
ATOM     70  C   UNL A   1      44.232  36.158  28.295  1.00  0.00     0.091 A 
ATOM     71  F   UNL A   1      44.924  34.973  30.248  1.00  0.00    -0.205 F 
ATOM     72  C   UNL A   1      43.732  36.126  26.982  1.00  0.00     0.022 A 
BRANCH  70  73
ATOM     73  S   UNL A   1      44.547  37.781  29.000  1.00  0.00     0.127 S 
ATOM     74  O   UNL A   1      46.000  37.750  29.171  1.00  0.00    -0.237 OA
ATOM     75  O   UNL A   1      44.078  38.670  27.938  1.00  0.00    -0.237 OA
ATOM     76  O   UNL A   1      43.780  37.842  30.235  1.00  0.00    -0.744 OA
ENDBRANCH  70  73
ENDBRANCH  52  66
BRANCH  53  77
ATOM     77  C   UNL A   1      44.109  25.403  34.005  1.00  0.00     0.023 A 
ATOM     78  C   UNL A   1      43.505  24.228  33.520  1.00  0.00     0.012 A 
ATOM     79  C   UNL A   1      44.757  25.373  35.257  1.00  0.00     0.148 A 
ATOM     80  C   UNL A   1      43.521  23.054  34.273  1.00  0.00     0.002 A 
ATOM     81  C   UNL A   1      44.820  24.186  35.976  1.00  0.00     0.091 A 
ATOM     82  F   UNL A   1      45.314  26.505  35.709  1.00  0.00    -0.205 F 
ATOM     83  C   UNL A   1      44.187  23.029  35.495  1.00  0.00     0.022 A 
BRANCH  81  84
ATOM     84  S   UNL A   1      45.773  24.021  37.490  1.00  0.00     0.127 S 
ATOM     85  O   UNL A   1      45.635  22.595  37.778  1.00  0.00    -0.237 OA
ATOM     86  O   UNL A   1      47.106  24.435  37.052  1.00  0.00    -0.237 OA
ATOM     87  O   UNL A   1      45.151  24.920  38.451  1.00  0.00    -0.744 OA
ENDBRANCH  81  84
ENDBRANCH  53  77
BRANCH  65  88
ATOM     88  C   UNL A   1      48.487  28.164  29.281  1.00  0.00     0.023 A 
ATOM     89  C   UNL A   1      49.685  28.574  29.895  1.00  0.00     0.012 A 
ATOM     90  C   UNL A   1      48.532  27.224  28.230  1.00  0.00     0.148 A 
ATOM     91  C   UNL A   1      50.910  28.069  29.462  1.00  0.00     0.002 A 
ATOM     92  C   UNL A   1      49.751  26.684  27.842  1.00  0.00     0.091 A 
ATOM     93  F   UNL A   1      47.379  26.856  27.653  1.00  0.00    -0.205 F 
ATOM     94  C   UNL A   1      50.942  27.114  28.448  1.00  0.00     0.022 A 
BRANCH  92  95
ATOM     95  S   UNL A   1      49.883  25.363  26.630  1.00  0.00     0.127 S 
ATOM     96  O   UNL A   1      51.238  24.870  26.875  1.00  0.00    -0.237 OA
ATOM     97  O   UNL A   1      48.818  24.453  27.050  1.00  0.00    -0.237 OA
ATOM     98  O   UNL A   1      49.676  25.986  25.329  1.00  0.00    -0.744 OA
ENDBRANCH  92  95
ENDBRANCH  65  88
ENDBRANCH  39  40
ENDBRANCH  32  34
ENDBRANCH  31  32
ENDBRANCH  30  31
ENDBRANCH  29  30
ENDBRANCH  28  29
ENDBRANCH  27  28
ENDBRANCH   1  27
TORSDOF 25
ENDMDL
MODEL 2
REMARK VINA RESULT:      -7.6      3.203      7.222
REMARK SMILES Cc1cc(=O)cc(C)n1C[C@H]1CCCC[C@@H]1C(=O)OCCOCCOCCOCCOC(=O)c1ccc(-c2c3nc(c(-c4cccc(S(=O)(=O)[O-])c4F)c4ccc([nH]4)c(-c4cccc(S(=O)(=O)[O-])c4F)c4nc(c(-c5cccc(S(=O)(=O)[O-])c5F)c5ccc2[nH]5)C=C4)C=C3)cc1
REMARK SMILES IDX 26 1 25 2 24 3 23 4 22 5 21 6 20 7 19 8 17 9 18 10 16 11
REMARK SMILES IDX 11 12 12 13 13 14 15 15 14 16 10 17 9 18 1 19 2 20 3 21 4 22
REMARK SMILES IDX 7 23 5 24 6 25 8 26 27 27 28 28 29 29 30 30 31 31 32 32
REMARK SMILES IDX 33 33 34 34 35 35 96 36 36 37 95 38 37 39 38 40 39 41 89 42
REMARK SMILES IDX 40 43 94 44 88 45 90 46 41 47 93 48 87 49 86 50 42 52 74 53
REMARK SMILES IDX 54 54 73 55 55 56 58 57 72 58 91 59 56 60 57 61 71 63 92 64
REMARK SMILES IDX 59 65 43 66 44 67 52 68 45 69 47 70 53 71 46 72 48 73 49 74
REMARK SMILES IDX 50 75 51 76 75 77 76 78 84 79 77 80 79 81 85 82 78 83 80 84
REMARK SMILES IDX 81 85 82 86 83 87 60 88 61 89 69 90 62 91 64 92 70 93 63 94
REMARK SMILES IDX 65 95 66 96 67 97 68 98
REMARK H PARENT 90 51 58 62
REMARK Flexibility Score: inf
ROOT
ATOM      1  C   UNL A   1      39.785  33.189  39.140  1.00  0.00     0.188 C 
ENDROOT
BRANCH   1   2
ATOM      2  O   UNL A   1      38.689  32.397  38.711  1.00  0.00    -0.377 OA
BRANCH   2   3
ATOM      3  C   UNL A   1      37.958  32.755  37.551  1.00  0.00     0.188 C 
BRANCH   3   4
ATOM      4  C   UNL A   1      38.585  32.127  36.303  1.00  0.00     0.188 C 
BRANCH   4   5
ATOM      5  O   UNL A   1      37.765  31.179  35.623  1.00  0.00    -0.376 OA
BRANCH   5   6
ATOM      6  C   UNL A   1      37.854  31.160  34.193  1.00  0.00     0.202 C 
BRANCH   6   7
ATOM      7  C   UNL A   1      39.199  31.574  33.548  1.00  0.00     0.261 C 
BRANCH   7   8
ATOM      8  O   UNL A   1      39.205  31.801  32.105  1.00  0.00    -0.463 OA
BRANCH   8   9
ATOM      9  C   UNL A   1      38.573  32.922  31.676  1.00  0.00     0.309 C 
ATOM     10  O   UNL A   1      38.966  34.059  31.937  1.00  0.00    -0.252 OA
BRANCH   9  11
ATOM     11  C   UNL A   1      37.337  32.736  30.769  1.00  0.00     0.104 C 
ATOM     12  C   UNL A   1      36.116  31.857  31.193  1.00  0.00     0.023 C 
ATOM     13  C   UNL A   1      36.469  30.392  30.951  1.00  0.00     0.006 C 
ATOM     14  C   UNL A   1      36.810  30.083  29.494  1.00  0.00     0.000 C 
ATOM     15  C   UNL A   1      37.806  32.440  29.325  1.00  0.00     0.016 C 
ATOM     16  C   UNL A   1      37.913  30.966  28.938  1.00  0.00     0.001 C 
BRANCH  12  17
ATOM     17  C   UNL A   1      34.834  32.279  30.386  1.00  0.00     0.126 C 
BRANCH  17  18
ATOM     18  N   UNL A   1      34.355  33.692  30.566  1.00  0.00    -0.349 N 
ATOM     19  C   UNL A   1      34.563  33.459  33.110  1.00  0.00     0.064 C 
ATOM     20  C   UNL A   1      34.110  34.205  31.877  1.00  0.00     0.018 A 
ATOM     21  C   UNL A   1      33.551  35.412  32.094  1.00  0.00     0.073 A 
ATOM     22  C   UNL A   1      33.196  36.274  30.961  1.00  0.00     0.182 A 
ATOM     23  C   UNL A   1      34.213  34.616  29.486  1.00  0.00     0.018 A 
ATOM     24  O   UNL A   1      32.679  37.374  31.116  1.00  0.00    -0.290 OA
ATOM     25  C   UNL A   1      33.619  35.817  29.633  1.00  0.00     0.073 A 
ATOM     26  C   UNL A   1      34.856  34.407  28.140  1.00  0.00     0.064 C 
ENDBRANCH  17  18
ENDBRANCH  12  17
ENDBRANCH   9  11
ENDBRANCH   8   9
ENDBRANCH   7   8
ENDBRANCH   6   7
ENDBRANCH   5   6
ENDBRANCH   4   5
ENDBRANCH   3   4
ENDBRANCH   2   3
ENDBRANCH   1   2
BRANCH   1  27
ATOM     27  C   UNL A   1      39.620  33.903  40.480  1.00  0.00     0.188 C 
BRANCH  27  28
ATOM     28  O   UNL A   1      38.595  34.901  40.540  1.00  0.00    -0.376 OA
BRANCH  28  29
ATOM     29  C   UNL A   1      38.978  36.238  40.856  1.00  0.00     0.202 C 
BRANCH  29  30
ATOM     30  C   UNL A   1      38.866  37.252  39.719  1.00  0.00     0.261 C 
BRANCH  30  31
ATOM     31  O   UNL A   1      39.452  36.754  38.508  1.00  0.00    -0.460 OA
BRANCH  31  32
ATOM     32  C   UNL A   1      40.796  36.868  38.417  1.00  0.00     0.338 C 
ATOM     33  O   UNL A   1      41.558  37.345  39.244  1.00  0.00    -0.246 OA
BRANCH  32  34
ATOM     34  C   UNL A   1      41.240  36.142  37.219  1.00  0.00     0.060 A 
ATOM     35  C   UNL A   1      40.282  35.704  36.295  1.00  0.00     0.016 A 
ATOM     36  C   UNL A   1      42.594  35.857  37.037  1.00  0.00     0.016 A 
ATOM     37  C   UNL A   1      40.674  34.953  35.194  1.00  0.00     0.010 A 
ATOM     38  C   UNL A   1      42.984  35.085  35.946  1.00  0.00     0.010 A 
ATOM     39  C   UNL A   1      42.021  34.604  35.043  1.00  0.00    -0.014 A 
BRANCH  39  40
ATOM     40  C   UNL A   1      42.396  33.581  34.046  1.00  0.00     0.031 A 
ATOM     41  C   UNL A   1      42.646  34.024  32.634  1.00  0.00     0.074 A 
ATOM     42  C   UNL A   1      42.520  32.292  34.406  1.00  0.00     0.049 A 
ATOM     43  N   UNL A   1      42.954  33.308  31.587  1.00  0.00    -0.248 NA
ATOM     44  C   UNL A   1      42.534  35.470  32.363  1.00  0.00     0.031 C 
ATOM     45  C   UNL A   1      42.324  31.772  35.758  1.00  0.00     0.029 A 
ATOM     46  N   UNL A   1      42.828  31.186  33.658  1.00  0.00    -0.354 N 
ATOM     47  C   UNL A   1      43.058  34.208  30.533  1.00  0.00     0.074 A 
ATOM     48  C   UNL A   1      42.759  35.521  31.058  1.00  0.00     0.031 C 
ATOM     49  C   UNL A   1      42.501  30.439  35.740  1.00  0.00     0.029 A 
ATOM     50  C   UNL A   1      42.793  30.013  34.373  1.00  0.00     0.049 A 
ATOM     51  H   UNL A   1      43.053  31.228  32.700  1.00  0.00     0.167 HD
ATOM     52  C   UNL A   1      43.397  33.960  29.248  1.00  0.00     0.034 A 
ATOM     53  C   UNL A   1      42.961  28.741  33.960  1.00  0.00     0.034 A 
ATOM     54  C   UNL A   1      43.704  32.650  28.747  1.00  0.00     0.049 A 
ATOM     55  C   UNL A   1      43.283  28.489  32.509  1.00  0.00     0.074 A 
ATOM     56  C   UNL A   1      44.074  32.288  27.465  1.00  0.00     0.029 A 
ATOM     57  N   UNL A   1      43.670  31.487  29.501  1.00  0.00    -0.354 N 
ATOM     58  N   UNL A   1      43.464  29.355  31.540  1.00  0.00    -0.248 NA
ATOM     59  C   UNL A   1      43.453  27.088  32.096  1.00  0.00     0.031 C 
ATOM     60  C   UNL A   1      44.232  30.901  27.436  1.00  0.00     0.029 A 
ATOM     61  C   UNL A   1      44.005  30.403  28.710  1.00  0.00     0.049 A 
ATOM     62  H   UNL A   1      43.442  31.439  30.457  1.00  0.00     0.167 HD
ATOM     63  C   UNL A   1      43.809  28.611  30.417  1.00  0.00     0.074 A 
ATOM     64  C   UNL A   1      43.826  27.222  30.829  1.00  0.00     0.031 C 
ATOM     65  C   UNL A   1      44.076  29.035  29.158  1.00  0.00     0.034 A 
BRANCH  52  66
ATOM     66  C   UNL A   1      43.496  35.125  28.301  1.00  0.00     0.023 A 
ATOM     67  C   UNL A   1      42.325  35.641  27.711  1.00  0.00     0.012 A 
ATOM     68  C   UNL A   1      44.727  35.771  28.074  1.00  0.00     0.148 A 
ATOM     69  C   UNL A   1      42.377  36.771  26.897  1.00  0.00     0.002 A 
ATOM     70  C   UNL A   1      44.765  36.926  27.301  1.00  0.00     0.091 A 
ATOM     71  F   UNL A   1      45.833  35.252  28.626  1.00  0.00    -0.205 F 
ATOM     72  C   UNL A   1      43.593  37.422  26.704  1.00  0.00     0.022 A 
BRANCH  70  73
ATOM     73  S   UNL A   1      46.262  37.890  27.064  1.00  0.00     0.127 S 
ATOM     74  O   UNL A   1      47.101  36.952  26.318  1.00  0.00    -0.237 OA
ATOM     75  O   UNL A   1      45.773  39.024  26.281  1.00  0.00    -0.237 OA
ATOM     76  O   UNL A   1      46.743  38.227  28.396  1.00  0.00    -0.744 OA
ENDBRANCH  70  73
ENDBRANCH  52  66
BRANCH  53  77
ATOM     77  C   UNL A   1      42.890  27.621  34.943  1.00  0.00     0.023 A 
ATOM     78  C   UNL A   1      41.688  26.903  35.084  1.00  0.00     0.012 A 
ATOM     79  C   UNL A   1      44.010  27.239  35.708  1.00  0.00     0.148 A 
ATOM     80  C   UNL A   1      41.591  25.844  35.987  1.00  0.00     0.002 A 
ATOM     81  C   UNL A   1      43.925  26.146  36.564  1.00  0.00     0.091 A 
ATOM     82  F   UNL A   1      45.143  27.942  35.571  1.00  0.00    -0.205 F 
ATOM     83  C   UNL A   1      42.711  25.458  36.718  1.00  0.00     0.022 A 
BRANCH  81  84
ATOM     84  S   UNL A   1      45.349  25.489  37.440  1.00  0.00     0.127 S 
ATOM     85  O   UNL A   1      46.239  25.129  36.339  1.00  0.00    -0.237 OA
ATOM     86  O   UNL A   1      45.777  26.647  38.225  1.00  0.00    -0.237 OA
ATOM     87  O   UNL A   1      44.848  24.377  38.235  1.00  0.00    -0.744 OA
ENDBRANCH  81  84
ENDBRANCH  53  77
BRANCH  65  88
ATOM     88  C   UNL A   1      44.452  28.006  28.122  1.00  0.00     0.023 A 
ATOM     89  C   UNL A   1      45.796  27.607  27.988  1.00  0.00     0.012 A 
ATOM     90  C   UNL A   1      43.452  27.334  27.390  1.00  0.00     0.148 A 
ATOM     91  C   UNL A   1      46.142  26.567  27.126  1.00  0.00     0.002 A 
ATOM     92  C   UNL A   1      43.798  26.261  26.578  1.00  0.00     0.091 A 
ATOM     93  F   UNL A   1      42.180  27.737  27.526  1.00  0.00    -0.205 F 
ATOM     94  C   UNL A   1      45.143  25.885  26.435  1.00  0.00     0.022 A 
BRANCH  92  95
ATOM     95  S   UNL A   1      42.573  25.246  25.741  1.00  0.00     0.127 S 
ATOM     96  O   UNL A   1      41.812  24.708  26.868  1.00  0.00    -0.237 OA
ATOM     97  O   UNL A   1      41.855  26.233  24.936  1.00  0.00    -0.237 OA
ATOM     98  O   UNL A   1      43.322  24.260  24.973  1.00  0.00    -0.744 OA
ENDBRANCH  92  95
ENDBRANCH  65  88
ENDBRANCH  39  40
ENDBRANCH  32  34
ENDBRANCH  31  32
ENDBRANCH  30  31
ENDBRANCH  29  30
ENDBRANCH  28  29
ENDBRANCH  27  28
ENDBRANCH   1  27
TORSDOF 25
ENDMDL
MODEL 3
REMARK VINA RESULT:      -7.3      4.424      9.782
REMARK SMILES Cc1cc(=O)cc(C)n1C[C@H]1CCCC[C@@H]1C(=O)OCCOCCOCCOCCOC(=O)c1ccc(-c2c3nc(c(-c4cccc(S(=O)(=O)[O-])c4F)c4ccc([nH]4)c(-c4cccc(S(=O)(=O)[O-])c4F)c4nc(c(-c5cccc(S(=O)(=O)[O-])c5F)c5ccc2[nH]5)C=C4)C=C3)cc1
REMARK SMILES IDX 26 1 25 2 24 3 23 4 22 5 21 6 20 7 19 8 17 9 18 10 16 11
REMARK SMILES IDX 11 12 12 13 13 14 15 15 14 16 10 17 9 18 1 19 2 20 3 21 4 22
REMARK SMILES IDX 7 23 5 24 6 25 8 26 27 27 28 28 29 29 30 30 31 31 32 32
REMARK SMILES IDX 33 33 34 34 35 35 96 36 36 37 95 38 37 39 38 40 39 41 89 42
REMARK SMILES IDX 40 43 94 44 88 45 90 46 41 47 93 48 87 49 86 50 42 52 74 53
REMARK SMILES IDX 54 54 73 55 55 56 58 57 72 58 91 59 56 60 57 61 71 63 92 64
REMARK SMILES IDX 59 65 43 66 44 67 52 68 45 69 47 70 53 71 46 72 48 73 49 74
REMARK SMILES IDX 50 75 51 76 75 77 76 78 84 79 77 80 79 81 85 82 78 83 80 84
REMARK SMILES IDX 81 85 82 86 83 87 60 88 61 89 69 90 62 91 64 92 70 93 63 94
REMARK SMILES IDX 65 95 66 96 67 97 68 98
REMARK H PARENT 90 51 58 62
REMARK Flexibility Score: inf
ROOT
ATOM      1  C   UNL A   1      37.934  19.332  25.399  1.00  0.00     0.188 C 
ENDROOT
BRANCH   1   2
ATOM      2  O   UNL A   1      39.338  19.192  25.251  1.00  0.00    -0.377 OA
BRANCH   2   3
ATOM      3  C   UNL A   1      40.216  19.704  26.239  1.00  0.00     0.188 C 
BRANCH   3   4
ATOM      4  C   UNL A   1      41.629  19.151  26.044  1.00  0.00     0.188 C 
BRANCH   4   5
ATOM      5  O   UNL A   1      42.635  19.754  26.855  1.00  0.00    -0.376 OA
BRANCH   5   6
ATOM      6  C   UNL A   1      43.288  20.910  26.317  1.00  0.00     0.202 C 
BRANCH   6   7
ATOM      7  C   UNL A   1      44.189  20.717  25.074  1.00  0.00     0.261 C 
BRANCH   7   8
ATOM      8  O   UNL A   1      44.534  21.911  24.307  1.00  0.00    -0.463 OA
BRANCH   8   9
ATOM      9  C   UNL A   1      45.739  22.470  24.583  1.00  0.00     0.309 C 
ATOM     10  O   UNL A   1      46.811  21.937  24.297  1.00  0.00    -0.252 OA
BRANCH   9  11
ATOM     11  C   UNL A   1      45.739  23.869  25.237  1.00  0.00     0.104 C 
ATOM     12  C   UNL A   1      46.377  24.134  26.639  1.00  0.00     0.023 C 
ATOM     13  C   UNL A   1      45.397  23.672  27.712  1.00  0.00     0.006 C 
ATOM     14  C   UNL A   1      44.047  24.387  27.649  1.00  0.00     0.000 C 
ATOM     15  C   UNL A   1      44.330  24.493  25.102  1.00  0.00     0.016 C 
ATOM     16  C   UNL A   1      43.385  24.292  26.284  1.00  0.00     0.001 C 
BRANCH  12  17
ATOM     17  C   UNL A   1      46.727  25.660  26.799  1.00  0.00     0.126 C 
BRANCH  17  18
ATOM     18  N   UNL A   1      47.429  26.318  25.645  1.00  0.00    -0.349 N 
ATOM     19  C   UNL A   1      45.392  27.818  25.237  1.00  0.00     0.064 C 
ATOM     20  C   UNL A   1      46.735  27.262  24.827  1.00  0.00     0.018 A 
ATOM     21  C   UNL A   1      47.265  27.779  23.701  1.00  0.00     0.073 A 
ATOM     22  C   UNL A   1      48.621  27.404  23.285  1.00  0.00     0.182 A 
ATOM     23  C   UNL A   1      48.816  26.128  25.357  1.00  0.00     0.018 A 
ATOM     24  O   UNL A   1      49.135  27.844  22.264  1.00  0.00    -0.290 OA
ATOM     25  C   UNL A   1      49.390  26.580  24.226  1.00  0.00     0.073 A 
ATOM     26  C   UNL A   1      49.788  25.561  26.358  1.00  0.00     0.064 C 
ENDBRANCH  17  18
ENDBRANCH  12  17
ENDBRANCH   9  11
ENDBRANCH   8   9
ENDBRANCH   7   8
ENDBRANCH   6   7
ENDBRANCH   5   6
ENDBRANCH   4   5
ENDBRANCH   3   4
ENDBRANCH   2   3
ENDBRANCH   1   2
BRANCH   1  27
ATOM     27  C   UNL A   1      37.195  20.002  24.243  1.00  0.00     0.188 C 
BRANCH  27  28
ATOM     28  O   UNL A   1      37.164  21.433  24.260  1.00  0.00    -0.376 OA
BRANCH  28  29
ATOM     29  C   UNL A   1      37.044  22.087  25.522  1.00  0.00     0.202 C 
BRANCH  29  30
ATOM     30  C   UNL A   1      37.145  23.611  25.499  1.00  0.00     0.261 C 
BRANCH  30  31
ATOM     31  O   UNL A   1      37.933  24.104  26.592  1.00  0.00    -0.460 OA
BRANCH  31  32
ATOM     32  C   UNL A   1      39.253  23.818  26.538  1.00  0.00     0.338 C 
ATOM     33  O   UNL A   1      39.786  22.873  25.976  1.00  0.00    -0.246 OA
BRANCH  32  34
ATOM     34  C   UNL A   1      39.994  24.947  27.116  1.00  0.00     0.060 A 
ATOM     35  C   UNL A   1      40.375  24.891  28.464  1.00  0.00     0.016 A 
ATOM     36  C   UNL A   1      40.269  26.074  26.340  1.00  0.00     0.016 A 
ATOM     37  C   UNL A   1      41.012  25.979  29.049  1.00  0.00     0.010 A 
ATOM     38  C   UNL A   1      40.886  27.172  26.933  1.00  0.00     0.010 A 
ATOM     39  C   UNL A   1      41.227  27.138  28.296  1.00  0.00    -0.014 A 
BRANCH  39  40
ATOM     40  C   UNL A   1      41.637  28.380  28.981  1.00  0.00     0.031 A 
ATOM     41  C   UNL A   1      40.564  29.298  29.489  1.00  0.00     0.074 A 
ATOM     42  C   UNL A   1      42.939  28.665  29.153  1.00  0.00     0.049 A 
ATOM     43  N   UNL A   1      40.681  30.451  30.089  1.00  0.00    -0.248 NA
ATOM     44  C   UNL A   1      39.169  28.859  29.294  1.00  0.00     0.031 C 
ATOM     45  C   UNL A   1      44.052  27.822  28.719  1.00  0.00     0.029 A 
ATOM     46  N   UNL A   1      43.543  29.754  29.726  1.00  0.00    -0.354 N 
ATOM     47  C   UNL A   1      39.382  30.883  30.330  1.00  0.00     0.074 A 
ATOM     48  C   UNL A   1      38.489  29.882  29.792  1.00  0.00     0.031 C 
ATOM     49  C   UNL A   1      45.208  28.435  29.028  1.00  0.00     0.029 A 
ATOM     50  C   UNL A   1      44.915  29.723  29.653  1.00  0.00     0.049 A 
ATOM     51  H   UNL A   1      43.041  30.488  30.150  1.00  0.00     0.167 HD
ATOM     52  C   UNL A   1      38.975  32.005  30.965  1.00  0.00     0.034 A 
ATOM     53  C   UNL A   1      45.823  30.642  30.035  1.00  0.00     0.034 A 
ATOM     54  C   UNL A   1      39.877  32.983  31.504  1.00  0.00     0.049 A 
ATOM     55  C   UNL A   1      45.338  31.910  30.691  1.00  0.00     0.074 A 
ATOM     56  C   UNL A   1      39.571  34.150  32.181  1.00  0.00     0.029 A 
ATOM     57  N   UNL A   1      41.259  32.914  31.424  1.00  0.00    -0.354 N 
ATOM     58  N   UNL A   1      44.112  32.268  30.991  1.00  0.00    -0.248 NA
ATOM     59  C   UNL A   1      46.360  32.890  31.087  1.00  0.00     0.031 C 
ATOM     60  C   UNL A   1      40.768  34.802  32.480  1.00  0.00     0.029 A 
ATOM     61  C   UNL A   1      41.822  34.021  32.031  1.00  0.00     0.049 A 
ATOM     62  H   UNL A   1      41.765  32.185  30.997  1.00  0.00     0.167 HD
ATOM     63  C   UNL A   1      44.217  33.490  31.647  1.00  0.00     0.074 A 
ATOM     64  C   UNL A   1      45.629  33.805  31.712  1.00  0.00     0.031 C 
ATOM     65  C   UNL A   1      43.235  34.284  32.139  1.00  0.00     0.034 A 
BRANCH  52  66
ATOM     66  C   UNL A   1      37.497  32.220  31.152  1.00  0.00     0.023 A 
ATOM     67  C   UNL A   1      36.912  31.965  32.408  1.00  0.00     0.012 A 
ATOM     68  C   UNL A   1      36.709  32.767  30.120  1.00  0.00     0.148 A 
ATOM     69  C   UNL A   1      35.563  32.236  32.632  1.00  0.00     0.002 A 
ATOM     70  C   UNL A   1      35.377  33.080  30.365  1.00  0.00     0.091 A 
ATOM     71  F   UNL A   1      37.279  32.982  28.926  1.00  0.00    -0.205 F 
ATOM     72  C   UNL A   1      34.800  32.807  31.617  1.00  0.00     0.022 A 
BRANCH  70  73
ATOM     73  S   UNL A   1      34.332  33.899  29.155  1.00  0.00     0.127 S 
ATOM     74  O   UNL A   1      35.214  34.963  28.676  1.00  0.00    -0.237 OA
ATOM     75  O   UNL A   1      34.088  32.829  28.189  1.00  0.00    -0.237 OA
ATOM     76  O   UNL A   1      33.153  34.352  29.879  1.00  0.00    -0.744 OA
ENDBRANCH  70  73
ENDBRANCH  52  66
BRANCH  53  77
ATOM     77  C   UNL A   1      47.280  30.368  29.863  1.00  0.00     0.023 A 
ATOM     78  C   UNL A   1      47.999  29.771  30.916  1.00  0.00     0.012 A 
ATOM     79  C   UNL A   1      47.948  30.659  28.656  1.00  0.00     0.148 A 
ATOM     80  C   UNL A   1      49.359  29.492  30.784  1.00  0.00     0.002 A 
ATOM     81  C   UNL A   1      49.290  30.325  28.509  1.00  0.00     0.091 A 
ATOM     82  F   UNL A   1      47.252  31.240  27.670  1.00  0.00    -0.205 F 
ATOM     83  C   UNL A   1      50.002  29.759  29.578  1.00  0.00     0.022 A 
BRANCH  81  84
ATOM     84  S   UNL A   1      50.166  30.502  26.951  1.00  0.00     0.127 S 
ATOM     85  O   UNL A   1      51.538  30.186  27.341  1.00  0.00    -0.237 OA
ATOM     86  O   UNL A   1      49.511  29.488  26.124  1.00  0.00    -0.237 OA
ATOM     87  O   UNL A   1      49.934  31.872  26.517  1.00  0.00    -0.744 OA
ENDBRANCH  81  84
ENDBRANCH  53  77
BRANCH  65  88
ATOM     88  C   UNL A   1      43.632  35.561  32.834  1.00  0.00     0.023 A 
ATOM     89  C   UNL A   1      43.760  36.752  32.094  1.00  0.00     0.012 A 
ATOM     90  C   UNL A   1      43.733  35.604  34.240  1.00  0.00     0.148 A 
ATOM     91  C   UNL A   1      44.000  37.964  32.740  1.00  0.00     0.002 A 
ATOM     92  C   UNL A   1      43.915  36.823  34.880  1.00  0.00     0.091 A 
ATOM     93  F   UNL A   1      43.619  34.456  34.925  1.00  0.00    -0.205 F 
ATOM     94  C   UNL A   1      44.061  38.002  34.131  1.00  0.00     0.022 A 
BRANCH  92  95
ATOM     95  S   UNL A   1      43.889  36.992  36.669  1.00  0.00     0.127 S 
ATOM     96  O   UNL A   1      45.056  36.202  37.059  1.00  0.00    -0.237 OA
ATOM     97  O   UNL A   1      44.044  38.436  36.844  1.00  0.00    -0.237 OA
ATOM     98  O   UNL A   1      42.606  36.459  37.107  1.00  0.00    -0.744 OA
ENDBRANCH  92  95
ENDBRANCH  65  88
ENDBRANCH  39  40
ENDBRANCH  32  34
ENDBRANCH  31  32
ENDBRANCH  30  31
ENDBRANCH  29  30
ENDBRANCH  28  29
ENDBRANCH  27  28
ENDBRANCH   1  27
TORSDOF 25
ENDMDL
