MODEL 1
REMARK VINA RESULT:      -8.2      0.000      0.000
REMARK SMILES CC(C)(C)c1cc2c(cc1Cl)C=C(C(=O)OCCOCCOCCOCCOC(=O)c1ccc(-c3c4nc(c(-c5cccc(S(=O)(=O)[O-])c5F)c5ccc([nH]5)c(-c5cccc(S(=O)(=O)[O-])c5F)c5nc(c(-c6cccc(S(=O)(=O)[O-])c6F)c6ccc3[nH]6)C=C5)C=C4)cc1)[C@@H](C(F)(F)F)O2
REMARK SMILES IDX 23 1 22 2 21 3 20 4 19 5 18 6 17 7 16 8 14 9 15 10 13 11
REMARK SMILES IDX 5 12 6 13 10 14 7 15 9 16 11 17 8 18 99 19 12 20 94 21 2 22
REMARK SMILES IDX 1 23 3 24 4 25 95 26 96 27 97 28 98 29 24 30 25 31 26 32
REMARK SMILES IDX 27 33 28 34 29 35 30 36 31 37 32 38 93 39 33 40 92 41 34 42
REMARK SMILES IDX 35 43 36 44 86 45 37 46 91 47 85 48 87 49 38 50 90 51 84 52
REMARK SMILES IDX 83 53 39 55 71 56 51 57 70 58 52 59 55 60 69 61 88 62 53 63
REMARK SMILES IDX 54 64 68 66 89 67 56 68 40 69 41 70 49 71 42 72 44 73 50 74
REMARK SMILES IDX 43 75 45 76 46 77 47 78 48 79 72 80 73 81 81 82 74 83 76 84
REMARK SMILES IDX 82 85 75 86 77 87 78 88 79 89 80 90 57 91 58 92 66 93 59 94
REMARK SMILES IDX 61 95 67 96 60 97 62 98 63 99 64 100 65 101
REMARK H PARENT 87 54 55 65
REMARK Flexibility Score: inf
ROOT
ATOM      1  C   UNL A   1      38.174  31.595  36.599  1.00  0.00     0.188 C 
ENDROOT
BRANCH   1   2
ATOM      2  O   UNL A   1      38.662  32.354  35.491  1.00  0.00    -0.377 OA
BRANCH   2   3
ATOM      3  C   UNL A   1      39.013  31.653  34.312  1.00  0.00     0.188 C 
BRANCH   3   4
ATOM      4  C   UNL A   1      38.462  30.217  34.272  1.00  0.00     0.188 C 
BRANCH   4   5
ATOM      5  O   UNL A   1      39.417  29.255  33.830  1.00  0.00    -0.376 OA
BRANCH   5   6
ATOM      6  C   UNL A   1      39.516  29.035  32.427  1.00  0.00     0.202 C 
BRANCH   6   7
ATOM      7  C   UNL A   1      38.463  28.114  31.792  1.00  0.00     0.261 C 
BRANCH   7   8
ATOM      8  O   UNL A   1      37.486  28.785  30.980  1.00  0.00    -0.460 OA
BRANCH   8   9
ATOM      9  C   UNL A   1      37.931  29.630  30.032  1.00  0.00     0.338 C 
ATOM     10  O   UNL A   1      38.739  29.388  29.153  1.00  0.00    -0.246 OA
BRANCH   9  11
ATOM     11  C   UNL A   1      37.128  30.869  30.116  1.00  0.00     0.087 C 
ATOM     12  C   UNL A   1      34.393  34.839  31.681  1.00  0.00    -0.020 A 
ATOM     13  C   UNL A   1      34.790  34.297  30.427  1.00  0.00     0.053 A 
ATOM     14  C   UNL A   1      35.015  34.274  32.813  1.00  0.00     0.045 A 
ATOM     15  C   UNL A   1      35.637  33.190  30.310  1.00  0.00     0.128 A 
ATOM     16  C   UNL A   1      35.864  33.157  32.691  1.00  0.00     0.032 A 
ATOM     17  Cl  UNL A   1      34.856  34.849  34.435  1.00  0.00    -0.084 Cl
ATOM     18  C   UNL A   1      36.138  32.585  31.449  1.00  0.00     0.019 A 
ATOM     19  O   UNL A   1      35.895  32.762  29.042  1.00  0.00    -0.475 OA
ATOM     20  C   UNL A   1      36.903  31.358  31.343  1.00  0.00     0.027 C 
ATOM     21  C   UNL A   1      36.684  31.551  28.847  1.00  0.00     0.316 C 
BRANCH  12  22
ATOM     22  C   UNL A   1      33.307  35.945  31.650  1.00  0.00    -0.012 C 
ATOM     23  C   UNL A   1      31.995  35.678  32.417  1.00  0.00     0.016 C 
ATOM     24  C   UNL A   1      32.864  36.182  30.178  1.00  0.00     0.016 C 
ATOM     25  C   UNL A   1      33.895  37.257  32.212  1.00  0.00     0.016 C 
ENDBRANCH  12  22
BRANCH  21  26
ATOM     26  C   UNL A   1      35.885  30.610  27.932  1.00  0.00     0.430 C 
ATOM     27  F   UNL A   1      36.680  30.054  26.985  1.00  0.00    -0.167 F 
ATOM     28  F   UNL A   1      35.315  29.593  28.615  1.00  0.00    -0.167 F 
ATOM     29  F   UNL A   1      34.893  31.271  27.288  1.00  0.00    -0.167 F 
ENDBRANCH  21  26
ENDBRANCH   9  11
ENDBRANCH   8   9
ENDBRANCH   7   8
ENDBRANCH   6   7
ENDBRANCH   5   6
ENDBRANCH   4   5
ENDBRANCH   3   4
ENDBRANCH   2   3
ENDBRANCH   1   2
BRANCH   1  30
ATOM     30  C   UNL A   1      37.838  32.251  37.957  1.00  0.00     0.188 C 
BRANCH  30  31
ATOM     31  O   UNL A   1      38.956  32.859  38.603  1.00  0.00    -0.376 OA
BRANCH  31  32
ATOM     32  C   UNL A   1      38.657  33.844  39.584  1.00  0.00     0.202 C 
BRANCH  32  33
ATOM     33  C   UNL A   1      39.872  34.683  39.997  1.00  0.00     0.261 C 
BRANCH  33  34
ATOM     34  O   UNL A   1      40.271  35.682  39.047  1.00  0.00    -0.460 OA
BRANCH  34  35
ATOM     35  C   UNL A   1      41.597  35.844  38.830  1.00  0.00     0.338 C 
ATOM     36  O   UNL A   1      42.420  36.278  39.616  1.00  0.00    -0.246 OA
BRANCH  35  37
ATOM     37  C   UNL A   1      41.906  35.206  37.534  1.00  0.00     0.060 A 
ATOM     38  C   UNL A   1      43.215  34.810  37.238  1.00  0.00     0.016 A 
ATOM     39  C   UNL A   1      40.884  35.047  36.591  1.00  0.00     0.016 A 
ATOM     40  C   UNL A   1      43.494  34.223  36.005  1.00  0.00     0.010 A 
ATOM     41  C   UNL A   1      41.170  34.471  35.351  1.00  0.00     0.010 A 
ATOM     42  C   UNL A   1      42.471  34.032  35.061  1.00  0.00    -0.014 A 
BRANCH  42  43
ATOM     43  C   UNL A   1      42.717  33.180  33.874  1.00  0.00     0.031 A 
ATOM     44  C   UNL A   1      42.862  33.743  32.495  1.00  0.00     0.074 A 
ATOM     45  C   UNL A   1      42.780  31.850  34.077  1.00  0.00     0.049 A 
ATOM     46  N   UNL A   1      43.129  33.107  31.383  1.00  0.00    -0.248 NA
ATOM     47  C   UNL A   1      42.684  35.193  32.334  1.00  0.00     0.031 C 
ATOM     48  C   UNL A   1      42.608  31.193  35.375  1.00  0.00     0.029 A 
ATOM     49  N   UNL A   1      42.990  30.816  33.203  1.00  0.00    -0.354 N 
ATOM     50  C   UNL A   1      43.151  34.071  30.385  1.00  0.00     0.074 A 
ATOM     51  C   UNL A   1      42.856  35.339  31.023  1.00  0.00     0.031 C 
ATOM     52  C   UNL A   1      42.715  29.867  35.212  1.00  0.00     0.029 A 
ATOM     53  C   UNL A   1      42.955  29.580  33.801  1.00  0.00     0.049 A 
ATOM     54  H   UNL A   1      43.151  30.946  32.241  1.00  0.00     0.167 HD
ATOM     55  C   UNL A   1      43.412  33.909  29.066  1.00  0.00     0.034 A 
ATOM     56  C   UNL A   1      43.105  28.348  33.279  1.00  0.00     0.034 A 
ATOM     57  C   UNL A   1      43.713  32.645  28.444  1.00  0.00     0.049 A 
ATOM     58  C   UNL A   1      43.405  28.202  31.817  1.00  0.00     0.074 A 
ATOM     59  C   UNL A   1      44.044  32.399  27.121  1.00  0.00     0.029 A 
ATOM     60  N   UNL A   1      43.711  31.418  29.087  1.00  0.00    -0.354 N 
ATOM     61  N   UNL A   1      43.549  29.140  30.914  1.00  0.00    -0.248 NA
ATOM     62  C   UNL A   1      43.598  26.837  31.309  1.00  0.00     0.031 C 
ATOM     63  C   UNL A   1      44.231  31.023  26.964  1.00  0.00     0.029 A 
ATOM     64  C   UNL A   1      44.032  30.413  28.192  1.00  0.00     0.049 A 
ATOM     65  H   UNL A   1      43.511  31.281  30.042  1.00  0.00     0.167 HD
ATOM     66  C   UNL A   1      43.878  28.482  29.736  1.00  0.00     0.074 A 
ATOM     67  C   UNL A   1      43.920  27.067  30.042  1.00  0.00     0.031 C 
ATOM     68  C   UNL A   1      44.116  29.012  28.512  1.00  0.00     0.034 A 
BRANCH  55  69
ATOM     69  C   UNL A   1      43.455  35.131  28.191  1.00  0.00     0.023 A 
ATOM     70  C   UNL A   1      42.240  35.701  27.759  1.00  0.00     0.012 A 
ATOM     71  C   UNL A   1      44.668  35.794  27.919  1.00  0.00     0.148 A 
ATOM     72  C   UNL A   1      42.231  36.911  27.068  1.00  0.00     0.002 A 
ATOM     73  C   UNL A   1      44.648  37.014  27.252  1.00  0.00     0.091 A 
ATOM     74  F   UNL A   1      45.810  35.229  28.335  1.00  0.00    -0.205 F 
ATOM     75  C   UNL A   1      43.432  37.572  26.825  1.00  0.00     0.022 A 
BRANCH  73  76
ATOM     76  S   UNL A   1      46.132  37.978  26.940  1.00  0.00     0.127 S 
ATOM     77  O   UNL A   1      45.586  39.146  26.250  1.00  0.00    -0.237 OA
ATOM     78  O   UNL A   1      46.618  38.243  28.295  1.00  0.00    -0.237 OA
ATOM     79  O   UNL A   1      47.001  37.133  26.133  1.00  0.00    -0.744 OA
ENDBRANCH  73  76
ENDBRANCH  55  69
BRANCH  56  80
ATOM     80  C   UNL A   1      43.058  27.174  34.187  1.00  0.00     0.023 A 
ATOM     81  C   UNL A   1      41.808  26.662  34.578  1.00  0.00     0.012 A 
ATOM     82  C   UNL A   1      44.236  26.509  34.577  1.00  0.00     0.148 A 
ATOM     83  C   UNL A   1      41.730  25.504  35.351  1.00  0.00     0.002 A 
ATOM     84  C   UNL A   1      44.150  25.335  35.313  1.00  0.00     0.091 A 
ATOM     85  F   UNL A   1      45.412  27.020  34.184  1.00  0.00    -0.205 F 
ATOM     86  C   UNL A   1      42.899  24.836  35.709  1.00  0.00     0.022 A 
BRANCH  84  87
ATOM     87  S   UNL A   1      45.588  24.343  35.728  1.00  0.00     0.127 S 
ATOM     88  O   UNL A   1      46.327  25.243  36.612  1.00  0.00    -0.237 OA
ATOM     89  O   UNL A   1      44.975  23.192  36.392  1.00  0.00    -0.237 OA
ATOM     90  O   UNL A   1      46.239  24.037  34.462  1.00  0.00    -0.744 OA
ENDBRANCH  84  87
ENDBRANCH  56  80
BRANCH  68  91
ATOM     91  C   UNL A   1      44.467  28.069  27.394  1.00  0.00     0.023 A 
ATOM     92  C   UNL A   1      43.437  27.437  26.673  1.00  0.00     0.012 A 
ATOM     93  C   UNL A   1      45.806  27.903  26.989  1.00  0.00     0.148 A 
ATOM     94  C   UNL A   1      43.735  26.643  25.566  1.00  0.00     0.002 A 
ATOM     95  C   UNL A   1      46.093  27.138  25.865  1.00  0.00     0.091 A 
ATOM     96  F   UNL A   1      46.767  28.508  27.701  1.00  0.00    -0.205 F 
ATOM     97  C   UNL A   1      45.060  26.504  25.155  1.00  0.00     0.022 A 
BRANCH  95  98
ATOM     98  S   UNL A   1      47.758  26.959  25.215  1.00  0.00     0.127 S 
ATOM     99  O   UNL A   1      48.255  28.333  25.287  1.00  0.00    -0.237 OA
ATOM    100  O   UNL A   1      48.367  26.039  26.175  1.00  0.00    -0.237 OA
ATOM    101  O   UNL A   1      47.612  26.423  23.868  1.00  0.00    -0.744 OA
ENDBRANCH  95  98
ENDBRANCH  68  91
ENDBRANCH  42  43
ENDBRANCH  35  37
ENDBRANCH  34  35
ENDBRANCH  33  34
ENDBRANCH  32  33
ENDBRANCH  31  32
ENDBRANCH  30  31
ENDBRANCH   1  30
TORSDOF 25
ENDMDL
MODEL 2
REMARK VINA RESULT:      -8.1      4.794     11.428
REMARK SMILES CC(C)(C)c1cc2c(cc1Cl)C=C(C(=O)OCCOCCOCCOCCOC(=O)c1ccc(-c3c4nc(c(-c5cccc(S(=O)(=O)[O-])c5F)c5ccc([nH]5)c(-c5cccc(S(=O)(=O)[O-])c5F)c5nc(c(-c6cccc(S(=O)(=O)[O-])c6F)c6ccc3[nH]6)C=C5)C=C4)cc1)[C@@H](C(F)(F)F)O2
REMARK SMILES IDX 23 1 22 2 21 3 20 4 19 5 18 6 17 7 16 8 14 9 15 10 13 11
REMARK SMILES IDX 5 12 6 13 10 14 7 15 9 16 11 17 8 18 99 19 12 20 94 21 2 22
REMARK SMILES IDX 1 23 3 24 4 25 95 26 96 27 97 28 98 29 24 30 25 31 26 32
REMARK SMILES IDX 27 33 28 34 29 35 30 36 31 37 32 38 93 39 33 40 92 41 34 42
REMARK SMILES IDX 35 43 36 44 86 45 37 46 91 47 85 48 87 49 38 50 90 51 84 52
REMARK SMILES IDX 83 53 39 55 71 56 51 57 70 58 52 59 55 60 69 61 88 62 53 63
REMARK SMILES IDX 54 64 68 66 89 67 56 68 40 69 41 70 49 71 42 72 44 73 50 74
REMARK SMILES IDX 43 75 45 76 46 77 47 78 48 79 72 80 73 81 81 82 74 83 76 84
REMARK SMILES IDX 82 85 75 86 77 87 78 88 79 89 80 90 57 91 58 92 66 93 59 94
REMARK SMILES IDX 61 95 67 96 60 97 62 98 63 99 64 100 65 101
REMARK H PARENT 87 54 55 65
REMARK Flexibility Score: inf
ROOT
ATOM      1  C   UNL A   1      37.504  22.121  25.729  1.00  0.00     0.188 C 
ENDROOT
BRANCH   1   2
ATOM      2  O   UNL A   1      38.673  21.412  25.316  1.00  0.00    -0.377 OA
BRANCH   2   3
ATOM      3  C   UNL A   1      39.666  21.148  26.290  1.00  0.00     0.188 C 
BRANCH   3   4
ATOM      4  C   UNL A   1      40.336  19.774  26.116  1.00  0.00     0.188 C 
BRANCH   4   5
ATOM      5  O   UNL A   1      41.545  19.634  26.859  1.00  0.00    -0.376 OA
BRANCH   5   6
ATOM      6  C   UNL A   1      42.554  18.795  26.306  1.00  0.00     0.202 C 
BRANCH   6   7
ATOM      7  C   UNL A   1      43.444  19.407  25.213  1.00  0.00     0.261 C 
BRANCH   7   8
ATOM      8  O   UNL A   1      44.287  20.484  25.654  1.00  0.00    -0.460 OA
BRANCH   8   9
ATOM      9  C   UNL A   1      43.814  21.738  25.537  1.00  0.00     0.338 C 
ATOM     10  O   UNL A   1      42.811  22.093  24.945  1.00  0.00    -0.246 OA
BRANCH   9  11
ATOM     11  C   UNL A   1      44.623  22.610  26.417  1.00  0.00     0.087 C 
ATOM     12  C   UNL A   1      46.289  25.638  30.124  1.00  0.00    -0.020 A 
ATOM     13  C   UNL A   1      46.806  25.142  28.895  1.00  0.00     0.053 A 
ATOM     14  C   UNL A   1      45.083  25.052  30.559  1.00  0.00     0.045 A 
ATOM     15  C   UNL A   1      46.113  24.232  28.090  1.00  0.00     0.128 A 
ATOM     16  C   UNL A   1      44.386  24.139  29.743  1.00  0.00     0.032 A 
ATOM     17  Cl  UNL A   1      44.325  25.333  32.086  1.00  0.00    -0.084 Cl
ATOM     18  C   UNL A   1      44.873  23.765  28.492  1.00  0.00     0.019 A 
ATOM     19  O   UNL A   1      46.719  23.879  26.921  1.00  0.00    -0.475 OA
ATOM     20  C   UNL A   1      44.088  22.930  27.603  1.00  0.00     0.027 C 
ATOM     21  C   UNL A   1      46.009  23.017  25.984  1.00  0.00     0.316 C 
BRANCH  12  22
ATOM     22  C   UNL A   1      47.089  26.778  30.806  1.00  0.00    -0.012 C 
ATOM     23  C   UNL A   1      48.276  27.382  30.027  1.00  0.00     0.016 C 
ATOM     24  C   UNL A   1      47.713  26.242  32.126  1.00  0.00     0.016 C 
ATOM     25  C   UNL A   1      46.134  27.944  31.142  1.00  0.00     0.016 C 
ENDBRANCH  12  22
BRANCH  21  26
ATOM     26  C   UNL A   1      46.007  23.711  24.613  1.00  0.00     0.430 C 
ATOM     27  F   UNL A   1      44.985  24.595  24.512  1.00  0.00    -0.167 F 
ATOM     28  F   UNL A   1      47.148  24.399  24.385  1.00  0.00    -0.167 F 
ATOM     29  F   UNL A   1      45.867  22.816  23.606  1.00  0.00    -0.167 F 
ENDBRANCH  21  26
ENDBRANCH   9  11
ENDBRANCH   8   9
ENDBRANCH   7   8
ENDBRANCH   6   7
ENDBRANCH   5   6
ENDBRANCH   4   5
ENDBRANCH   3   4
ENDBRANCH   2   3
ENDBRANCH   1   2
BRANCH   1  30
ATOM     30  C   UNL A   1      37.564  23.585  26.221  1.00  0.00     0.188 C 
BRANCH  30  31
ATOM     31  O   UNL A   1      38.881  24.135  26.254  1.00  0.00    -0.376 OA
BRANCH  31  32
ATOM     32  C   UNL A   1      39.113  25.154  27.218  1.00  0.00     0.202 C 
BRANCH  32  33
ATOM     33  C   UNL A   1      40.481  25.047  27.903  1.00  0.00     0.261 C 
BRANCH  33  34
ATOM     34  O   UNL A   1      41.586  24.821  27.016  1.00  0.00    -0.460 OA
BRANCH  34  35
ATOM     35  C   UNL A   1      41.905  25.809  26.149  1.00  0.00     0.338 C 
ATOM     36  O   UNL A   1      41.838  25.767  24.934  1.00  0.00    -0.246 OA
BRANCH  35  37
ATOM     37  C   UNL A   1      42.154  27.026  26.949  1.00  0.00     0.060 A 
ATOM     38  C   UNL A   1      43.139  27.027  27.942  1.00  0.00     0.016 A 
ATOM     39  C   UNL A   1      41.360  28.158  26.732  1.00  0.00     0.016 A 
ATOM     40  C   UNL A   1      43.352  28.179  28.699  1.00  0.00     0.010 A 
ATOM     41  C   UNL A   1      41.566  29.305  27.501  1.00  0.00     0.010 A 
ATOM     42  C   UNL A   1      42.580  29.332  28.471  1.00  0.00    -0.014 A 
BRANCH  42  43
ATOM     43  C   UNL A   1      42.982  30.616  29.088  1.00  0.00     0.031 A 
ATOM     44  C   UNL A   1      44.142  31.422  28.590  1.00  0.00     0.074 A 
ATOM     45  C   UNL A   1      42.273  31.033  30.154  1.00  0.00     0.049 A 
ATOM     46  N   UNL A   1      44.563  32.586  29.013  1.00  0.00    -0.248 NA
ATOM     47  C   UNL A   1      44.932  30.858  27.486  1.00  0.00     0.031 C 
ATOM     48  C   UNL A   1      41.150  30.302  30.749  1.00  0.00     0.029 A 
ATOM     49  N   UNL A   1      42.392  32.155  30.931  1.00  0.00    -0.354 N 
ATOM     50  C   UNL A   1      45.668  32.900  28.235  1.00  0.00     0.074 A 
ATOM     51  C   UNL A   1      45.861  31.795  27.317  1.00  0.00     0.031 C 
ATOM     52  C   UNL A   1      40.687  30.993  31.800  1.00  0.00     0.029 A 
ATOM     53  C   UNL A   1      41.481  32.207  31.959  1.00  0.00     0.049 A 
ATOM     54  H   UNL A   1      43.064  32.855  30.770  1.00  0.00     0.167 HD
ATOM     55  C   UNL A   1      46.432  34.017  28.274  1.00  0.00     0.034 A 
ATOM     56  C   UNL A   1      41.297  33.130  32.921  1.00  0.00     0.034 A 
ATOM     57  C   UNL A   1      46.226  35.115  29.184  1.00  0.00     0.049 A 
ATOM     58  C   UNL A   1      42.152  34.361  32.932  1.00  0.00     0.074 A 
ATOM     59  C   UNL A   1      46.922  36.311  29.254  1.00  0.00     0.029 A 
ATOM     60  N   UNL A   1      45.268  35.153  30.184  1.00  0.00    -0.354 N 
ATOM     61  N   UNL A   1      43.109  34.698  32.104  1.00  0.00    -0.248 NA
ATOM     62  C   UNL A   1      41.880  35.353  33.981  1.00  0.00     0.031 C 
ATOM     63  C   UNL A   1      46.391  37.067  30.303  1.00  0.00     0.029 A 
ATOM     64  C   UNL A   1      45.354  36.348  30.877  1.00  0.00     0.049 A 
ATOM     65  H   UNL A   1      44.620  34.436  30.373  1.00  0.00     0.167 HD
ATOM     66  C   UNL A   1      43.537  35.955  32.513  1.00  0.00     0.074 A 
ATOM     67  C   UNL A   1      42.729  36.321  33.658  1.00  0.00     0.031 C 
ATOM     68  C   UNL A   1      44.518  36.727  31.986  1.00  0.00     0.034 A 
BRANCH  55  69
ATOM     69  C   UNL A   1      47.537  34.163  27.264  1.00  0.00     0.023 A 
ATOM     70  C   UNL A   1      47.260  34.807  26.041  1.00  0.00     0.012 A 
ATOM     71  C   UNL A   1      48.863  33.802  27.574  1.00  0.00     0.148 A 
ATOM     72  C   UNL A   1      48.285  35.088  25.140  1.00  0.00     0.002 A 
ATOM     73  C   UNL A   1      49.884  34.110  26.681  1.00  0.00     0.091 A 
ATOM     74  F   UNL A   1      49.100  33.185  28.739  1.00  0.00    -0.205 F 
ATOM     75  C   UNL A   1      49.597  34.751  25.464  1.00  0.00     0.022 A 
BRANCH  73  76
ATOM     76  S   UNL A   1      51.615  33.773  27.027  1.00  0.00     0.127 S 
ATOM     77  O   UNL A   1      51.622  32.312  27.096  1.00  0.00    -0.237 OA
ATOM     78  O   UNL A   1      52.279  34.331  25.848  1.00  0.00    -0.237 OA
ATOM     79  O   UNL A   1      51.917  34.453  28.278  1.00  0.00    -0.744 OA
ENDBRANCH  73  76
ENDBRANCH  55  69
BRANCH  56  80
ATOM     80  C   UNL A   1      40.189  32.940  33.893  1.00  0.00     0.023 A 
ATOM     81  C   UNL A   1      40.488  32.495  35.193  1.00  0.00     0.012 A 
ATOM     82  C   UNL A   1      38.867  33.294  33.564  1.00  0.00     0.148 A 
ATOM     83  C   UNL A   1      39.483  32.400  36.155  1.00  0.00     0.002 A 
ATOM     84  C   UNL A   1      37.878  33.235  34.537  1.00  0.00     0.091 A 
ATOM     85  F   UNL A   1      38.615  33.718  32.318  1.00  0.00    -0.205 F 
ATOM     86  C   UNL A   1      38.182  32.779  35.831  1.00  0.00     0.022 A 
BRANCH  84  87
ATOM     87  S   UNL A   1      36.200  33.804  34.252  1.00  0.00     0.127 S 
ATOM     88  O   UNL A   1      36.428  35.124  33.666  1.00  0.00    -0.237 OA
ATOM     89  O   UNL A   1      35.696  32.794  33.320  1.00  0.00    -0.237 OA
ATOM     90  O   UNL A   1      35.552  33.803  35.556  1.00  0.00    -0.744 OA
ENDBRANCH  84  87
ENDBRANCH  56  80
BRANCH  68  91
ATOM     91  C   UNL A   1      44.776  38.066  32.618  1.00  0.00     0.023 A 
ATOM     92  C   UNL A   1      45.699  38.165  33.676  1.00  0.00     0.012 A 
ATOM     93  C   UNL A   1      44.193  39.234  32.090  1.00  0.00     0.148 A 
ATOM     94  C   UNL A   1      46.033  39.410  34.207  1.00  0.00     0.002 A 
ATOM     95  C   UNL A   1      44.556  40.474  32.601  1.00  0.00     0.091 A 
ATOM     96  F   UNL A   1      43.308  39.109  31.091  1.00  0.00    -0.205 F 
ATOM     97  C   UNL A   1      45.472  40.564  33.662  1.00  0.00     0.022 A 
BRANCH  95  98
ATOM     98  S   UNL A   1      43.944  42.019  31.919  1.00  0.00     0.127 S 
ATOM     99  O   UNL A   1      44.404  41.936  30.533  1.00  0.00    -0.237 OA
ATOM    100  O   UNL A   1      42.498  41.881  32.090  1.00  0.00    -0.237 OA
ATOM    101  O   UNL A   1      44.551  43.081  32.711  1.00  0.00    -0.744 OA
ENDBRANCH  95  98
ENDBRANCH  68  91
ENDBRANCH  42  43
ENDBRANCH  35  37
ENDBRANCH  34  35
ENDBRANCH  33  34
ENDBRANCH  32  33
ENDBRANCH  31  32
ENDBRANCH  30  31
ENDBRANCH   1  30
TORSDOF 25
ENDMDL
MODEL 3
REMARK VINA RESULT:      -7.7      4.829     12.260
REMARK SMILES CC(C)(C)c1cc2c(cc1Cl)C=C(C(=O)OCCOCCOCCOCCOC(=O)c1ccc(-c3c4nc(c(-c5cccc(S(=O)(=O)[O-])c5F)c5ccc([nH]5)c(-c5cccc(S(=O)(=O)[O-])c5F)c5nc(c(-c6cccc(S(=O)(=O)[O-])c6F)c6ccc3[nH]6)C=C5)C=C4)cc1)[C@@H](C(F)(F)F)O2
REMARK SMILES IDX 23 1 22 2 21 3 20 4 19 5 18 6 17 7 16 8 14 9 15 10 13 11
REMARK SMILES IDX 5 12 6 13 10 14 7 15 9 16 11 17 8 18 99 19 12 20 94 21 2 22
REMARK SMILES IDX 1 23 3 24 4 25 95 26 96 27 97 28 98 29 24 30 25 31 26 32
REMARK SMILES IDX 27 33 28 34 29 35 30 36 31 37 32 38 93 39 33 40 92 41 34 42
REMARK SMILES IDX 35 43 36 44 86 45 37 46 91 47 85 48 87 49 38 50 90 51 84 52
REMARK SMILES IDX 83 53 39 55 71 56 51 57 70 58 52 59 55 60 69 61 88 62 53 63
REMARK SMILES IDX 54 64 68 66 89 67 56 68 40 69 41 70 49 71 42 72 44 73 50 74
REMARK SMILES IDX 43 75 45 76 46 77 47 78 48 79 72 80 73 81 81 82 74 83 76 84
REMARK SMILES IDX 82 85 75 86 77 87 78 88 79 89 80 90 57 91 58 92 66 93 59 94
REMARK SMILES IDX 61 95 67 96 60 97 62 98 63 99 64 100 65 101
REMARK H PARENT 87 54 55 65
REMARK Flexibility Score: inf
ROOT
ATOM      1  C   UNL A   1      37.724  22.177  25.690  1.00  0.00     0.188 C 
ENDROOT
BRANCH   1   2
ATOM      2  O   UNL A   1      38.907  21.444  25.371  1.00  0.00    -0.377 OA
BRANCH   2   3
ATOM      3  C   UNL A   1      39.747  21.044  26.438  1.00  0.00     0.188 C 
BRANCH   3   4
ATOM      4  C   UNL A   1      40.471  19.713  26.174  1.00  0.00     0.188 C 
BRANCH   4   5
ATOM      5  O   UNL A   1      41.660  19.551  26.944  1.00  0.00    -0.376 OA
BRANCH   5   6
ATOM      6  C   UNL A   1      42.696  18.754  26.380  1.00  0.00     0.202 C 
BRANCH   6   7
ATOM      7  C   UNL A   1      43.524  19.387  25.250  1.00  0.00     0.261 C 
BRANCH   7   8
ATOM      8  O   UNL A   1      44.356  20.486  25.655  1.00  0.00    -0.460 OA
BRANCH   8   9
ATOM      9  C   UNL A   1      43.840  21.726  25.572  1.00  0.00     0.338 C 
ATOM     10  O   UNL A   1      42.808  22.057  25.017  1.00  0.00    -0.246 OA
BRANCH   9  11
ATOM     11  C   UNL A   1      44.650  22.611  26.438  1.00  0.00     0.087 C 
ATOM     12  C   UNL A   1      46.323  25.681  30.107  1.00  0.00    -0.020 A 
ATOM     13  C   UNL A   1      46.833  25.179  28.878  1.00  0.00     0.053 A 
ATOM     14  C   UNL A   1      45.125  25.090  30.556  1.00  0.00     0.045 A 
ATOM     15  C   UNL A   1      46.140  24.257  28.086  1.00  0.00     0.128 A 
ATOM     16  C   UNL A   1      44.428  24.165  29.753  1.00  0.00     0.032 A 
ATOM     17  Cl  UNL A   1      44.377  25.378  32.087  1.00  0.00    -0.084 Cl
ATOM     18  C   UNL A   1      44.908  23.785  28.501  1.00  0.00     0.019 A 
ATOM     19  O   UNL A   1      46.740  23.900  26.915  1.00  0.00    -0.475 OA
ATOM     20  C   UNL A   1      44.122  22.937  27.625  1.00  0.00     0.027 C 
ATOM     21  C   UNL A   1      46.029  23.025  25.990  1.00  0.00     0.316 C 
BRANCH  12  22
ATOM     22  C   UNL A   1      47.119  26.833  30.773  1.00  0.00    -0.012 C 
ATOM     23  C   UNL A   1      48.085  27.642  29.881  1.00  0.00     0.016 C 
ATOM     24  C   UNL A   1      48.017  26.245  31.898  1.00  0.00     0.016 C 
ATOM     25  C   UNL A   1      46.133  27.844  31.397  1.00  0.00     0.016 C 
ENDBRANCH  12  22
BRANCH  21  26
ATOM     26  C   UNL A   1      46.011  23.708  24.614  1.00  0.00     0.430 C 
ATOM     27  F   UNL A   1      44.940  24.527  24.487  1.00  0.00    -0.167 F 
ATOM     28  F   UNL A   1      47.112  24.461  24.401  1.00  0.00    -0.167 F 
ATOM     29  F   UNL A   1      45.943  22.798  23.612  1.00  0.00    -0.167 F 
ENDBRANCH  21  26
ENDBRANCH   9  11
ENDBRANCH   8   9
ENDBRANCH   7   8
ENDBRANCH   6   7
ENDBRANCH   5   6
ENDBRANCH   4   5
ENDBRANCH   3   4
ENDBRANCH   2   3
ENDBRANCH   1   2
BRANCH   1  30
ATOM     30  C   UNL A   1      37.777  23.617  26.250  1.00  0.00     0.188 C 
BRANCH  30  31
ATOM     31  O   UNL A   1      39.093  24.164  26.326  1.00  0.00    -0.376 OA
BRANCH  31  32
ATOM     32  C   UNL A   1      39.245  25.328  27.129  1.00  0.00     0.202 C 
BRANCH  32  33
ATOM     33  C   UNL A   1      40.538  25.337  27.952  1.00  0.00     0.261 C 
BRANCH  33  34
ATOM     34  O   UNL A   1      41.714  24.925  27.240  1.00  0.00    -0.460 OA
BRANCH  34  35
ATOM     35  C   UNL A   1      42.124  25.698  26.208  1.00  0.00     0.338 C 
ATOM     36  O   UNL A   1      42.052  25.434  25.021  1.00  0.00    -0.246 OA
BRANCH  35  37
ATOM     37  C   UNL A   1      42.488  27.015  26.770  1.00  0.00     0.060 A 
ATOM     38  C   UNL A   1      41.919  28.183  26.253  1.00  0.00     0.016 A 
ATOM     39  C   UNL A   1      43.443  27.080  27.792  1.00  0.00     0.016 A 
ATOM     40  C   UNL A   1      42.284  29.420  26.784  1.00  0.00     0.010 A 
ATOM     41  C   UNL A   1      43.817  28.321  28.312  1.00  0.00     0.010 A 
ATOM     42  C   UNL A   1      43.221  29.496  27.829  1.00  0.00    -0.014 A 
BRANCH  42  43
ATOM     43  C   UNL A   1      43.405  30.772  28.557  1.00  0.00     0.031 A 
ATOM     44  C   UNL A   1      42.498  31.205  29.667  1.00  0.00     0.074 A 
ATOM     45  C   UNL A   1      44.421  31.564  28.161  1.00  0.00     0.049 A 
ATOM     46  N   UNL A   1      42.584  32.276  30.414  1.00  0.00    -0.248 NA
ATOM     47  C   UNL A   1      41.352  30.340  29.981  1.00  0.00     0.031 C 
ATOM     48  C   UNL A   1      45.337  31.257  27.060  1.00  0.00     0.029 A 
ATOM     49  N   UNL A   1      44.844  32.782  28.622  1.00  0.00    -0.354 N 
ATOM     50  C   UNL A   1      41.507  32.222  31.287  1.00  0.00     0.074 A 
ATOM     51  C   UNL A   1      40.771  31.014  30.969  1.00  0.00     0.031 C 
ATOM     52  C   UNL A   1      46.214  32.263  26.928  1.00  0.00     0.029 A 
ATOM     53  C   UNL A   1      45.917  33.286  27.926  1.00  0.00     0.049 A 
ATOM     54  H   UNL A   1      44.423  33.250  29.378  1.00  0.00     0.167 HD
ATOM     55  C   UNL A   1      41.181  33.091  32.273  1.00  0.00     0.034 A 
ATOM     56  C   UNL A   1      46.594  34.440  28.074  1.00  0.00     0.034 A 
ATOM     57  C   UNL A   1      41.925  34.283  32.588  1.00  0.00     0.049 A 
ATOM     58  C   UNL A   1      46.216  35.377  29.181  1.00  0.00     0.074 A 
ATOM     59  C   UNL A   1      41.694  35.193  33.608  1.00  0.00     0.029 A 
ATOM     60  N   UNL A   1      43.030  34.742  31.890  1.00  0.00    -0.354 N 
ATOM     61  N   UNL A   1      45.272  35.242  30.079  1.00  0.00    -0.248 NA
ATOM     62  C   UNL A   1      47.015  36.602  29.321  1.00  0.00     0.031 C 
ATOM     63  C   UNL A   1      42.653  36.205  33.520  1.00  0.00     0.029 A 
ATOM     64  C   UNL A   1      43.491  35.920  32.454  1.00  0.00     0.049 A 
ATOM     65  H   UNL A   1      43.429  34.296  31.109  1.00  0.00     0.167 HD
ATOM     66  C   UNL A   1      45.379  36.350  30.909  1.00  0.00     0.074 A 
ATOM     67  C   UNL A   1      46.485  37.142  30.412  1.00  0.00     0.031 C 
ATOM     68  C   UNL A   1      44.620  36.679  31.982  1.00  0.00     0.034 A 
BRANCH  55  69
ATOM     69  C   UNL A   1      39.999  32.770  33.146  1.00  0.00     0.023 A 
ATOM     70  C   UNL A   1      40.210  32.047  34.338  1.00  0.00     0.012 A 
ATOM     71  C   UNL A   1      38.722  33.298  32.872  1.00  0.00     0.148 A 
ATOM     72  C   UNL A   1      39.168  31.853  35.243  1.00  0.00     0.002 A 
ATOM     73  C   UNL A   1      37.694  33.123  33.792  1.00  0.00     0.091 A 
ATOM     74  F   UNL A   1      38.545  33.976  31.729  1.00  0.00    -0.205 F 
ATOM     75  C   UNL A   1      37.915  32.399  34.976  1.00  0.00     0.022 A 
BRANCH  73  76
ATOM     76  S   UNL A   1      36.059  33.835  33.574  1.00  0.00     0.127 S 
ATOM     77  O   UNL A   1      35.585  33.126  32.386  1.00  0.00    -0.237 OA
ATOM     78  O   UNL A   1      35.389  33.454  34.819  1.00  0.00    -0.237 OA
ATOM     79  O   UNL A   1      36.261  35.266  33.401  1.00  0.00    -0.744 OA
ENDBRANCH  73  76
ENDBRANCH  55  69
BRANCH  56  80
ATOM     80  C   UNL A   1      47.756  34.707  27.188  1.00  0.00     0.023 A 
ATOM     81  C   UNL A   1      47.548  35.381  25.971  1.00  0.00     0.012 A 
ATOM     82  C   UNL A   1      49.067  34.389  27.593  1.00  0.00     0.148 A 
ATOM     83  C   UNL A   1      48.630  35.732  25.164  1.00  0.00     0.002 A 
ATOM     84  C   UNL A   1      50.142  34.775  26.804  1.00  0.00     0.091 A 
ATOM     85  F   UNL A   1      49.232  33.750  28.760  1.00  0.00    -0.205 F 
ATOM     86  C   UNL A   1      49.925  35.438  25.585  1.00  0.00     0.022 A 
BRANCH  84  87
ATOM     87  S   UNL A   1      51.849  34.544  27.309  1.00  0.00     0.127 S 
ATOM     88  O   UNL A   1      51.855  35.163  28.633  1.00  0.00    -0.237 OA
ATOM     89  O   UNL A   1      51.965  33.085  27.310  1.00  0.00    -0.237 OA
ATOM     90  O   UNL A   1      52.657  35.216  26.302  1.00  0.00    -0.744 OA
ENDBRANCH  84  87
ENDBRANCH  56  80
BRANCH  68  91
ATOM     91  C   UNL A   1      44.958  37.943  32.723  1.00  0.00     0.023 A 
ATOM     92  C   UNL A   1      44.309  39.143  32.375  1.00  0.00     0.012 A 
ATOM     93  C   UNL A   1      45.826  37.916  33.831  1.00  0.00     0.148 A 
ATOM     94  C   UNL A   1      44.528  40.304  33.116  1.00  0.00     0.002 A 
ATOM     95  C   UNL A   1      46.013  39.068  34.586  1.00  0.00     0.091 A 
ATOM     96  F   UNL A   1      46.439  36.762  34.132  1.00  0.00    -0.205 F 
ATOM     97  C   UNL A   1      45.368  40.263  34.227  1.00  0.00     0.022 A 
BRANCH  95  98
ATOM     98  S   UNL A   1      47.018  39.098  36.074  1.00  0.00     0.127 S 
ATOM     99  O   UNL A   1      47.739  40.362  35.920  1.00  0.00    -0.237 OA
ATOM    100  O   UNL A   1      46.007  39.097  37.130  1.00  0.00    -0.237 OA
ATOM    101  O   UNL A   1      47.849  37.902  36.027  1.00  0.00    -0.744 OA
ENDBRANCH  95  98
ENDBRANCH  68  91
ENDBRANCH  42  43
ENDBRANCH  35  37
ENDBRANCH  34  35
ENDBRANCH  33  34
ENDBRANCH  32  33
ENDBRANCH  31  32
ENDBRANCH  30  31
ENDBRANCH   1  30
TORSDOF 25
ENDMDL
