MODEL 1
REMARK VINA RESULT:     -10.2      0.000      0.000
REMARK SMILES CS(=O)(=O)c1ccc(-c2cc(Cl)cc3c2O[C@@H](C(F)(F)F)C(C(=O)OCCOCCOCCOCCOC(=O)c2ccc(-c4c5nc(c(-c6cccc(S(=O)(=O)[O-])c6F)c6ccc([nH]6)c(-c6cccc(S(=O)(=O)[O-])c6F)c6nc(c(-c7cccc(S(=O)(=O)[O-])c7F)c7ccc4[nH]7)C=C6)C=C5)cc2)=C3)cc1
REMARK SMILES IDX 32 1 31 2 30 3 29 4 28 5 27 6 26 7 25 8 23 9 24 10 22 11
REMARK SMILES IDX 9 12 10 13 15 14 11 15 14 16 16 17 12 18 13 19 103 20 17 21
REMARK SMILES IDX 8 22 5 23 6 24 105 25 7 26 104 27 2 28 1 29 3 30 4 31 18 32
REMARK SMILES IDX 19 33 20 34 21 35 33 36 34 37 35 38 36 39 37 40 38 41 39 42
REMARK SMILES IDX 40 43 41 44 102 45 42 46 101 47 43 48 44 49 45 50 95 51
REMARK SMILES IDX 46 52 100 53 94 54 96 55 47 56 99 57 93 58 92 59 48 61 80 62
REMARK SMILES IDX 60 63 79 64 61 65 64 66 78 67 97 68 62 69 63 70 77 72 98 73
REMARK SMILES IDX 65 74 49 75 50 76 58 77 51 78 53 79 59 80 52 81 54 82 55 83
REMARK SMILES IDX 56 84 57 85 81 86 82 87 90 88 83 89 85 90 91 91 84 92 86 93
REMARK SMILES IDX 87 94 88 95 89 96 66 97 67 98 75 99 68 100 70 101 76 102
REMARK SMILES IDX 69 103 71 104 72 105 73 106 74 107
REMARK H PARENT 96 60 64 71
REMARK Flexibility Score: inf
ROOT
ATOM      1  C   UNL A   1      33.538  31.238  27.567  1.00  0.00     0.188 C 
ENDROOT
BRANCH   1   2
ATOM      2  O   UNL A   1      32.657  30.124  27.478  1.00  0.00    -0.377 OA
BRANCH   2   3
ATOM      3  C   UNL A   1      32.562  29.461  26.235  1.00  0.00     0.188 C 
BRANCH   3   4
ATOM      4  C   UNL A   1      31.614  30.171  25.258  1.00  0.00     0.188 C 
BRANCH   4   5
ATOM      5  O   UNL A   1      30.604  29.334  24.706  1.00  0.00    -0.376 OA
BRANCH   5   6
ATOM      6  C   UNL A   1      30.348  29.418  23.305  1.00  0.00     0.202 C 
BRANCH   6   7
ATOM      7  C   UNL A   1      30.491  28.148  22.453  1.00  0.00     0.261 C 
BRANCH   7   8
ATOM      8  O   UNL A   1      31.871  27.721  22.396  1.00  0.00    -0.460 OA
BRANCH   8   9
ATOM      9  C   UNL A   1      32.235  26.801  23.302  1.00  0.00     0.338 C 
ATOM     10  O   UNL A   1      33.066  26.978  24.184  1.00  0.00    -0.246 OA
BRANCH   9  11
ATOM     11  C   UNL A   1      31.381  25.586  23.256  1.00  0.00     0.087 C 
ATOM     12  C   UNL A   1      33.128  22.154  24.805  1.00  0.00     0.026 A 
ATOM     13  C   UNL A   1      34.525  22.350  24.704  1.00  0.00     0.033 A 
ATOM     14  C   UNL A   1      32.333  23.165  24.229  1.00  0.00     0.135 A 
ATOM     15  C   UNL A   1      35.055  23.248  23.778  1.00  0.00     0.042 A 
ATOM     16  C   UNL A   1      32.843  23.886  23.140  1.00  0.00     0.019 A 
ATOM     17  O   UNL A   1      31.228  23.671  24.913  1.00  0.00    -0.475 OA
ATOM     18  Cl  UNL A   1      36.758  23.424  23.643  1.00  0.00    -0.084 Cl
ATOM     19  C   UNL A   1      34.215  23.939  22.915  1.00  0.00     0.032 A 
ATOM     20  C   UNL A   1      31.904  24.723  22.363  1.00  0.00     0.027 C 
ATOM     21  C   UNL A   1      30.598  24.922  24.378  1.00  0.00     0.316 C 
BRANCH  12  22
ATOM     22  C   UNL A   1      32.736  20.696  24.811  1.00  0.00    -0.015 A 
ATOM     23  C   UNL A   1      33.025  17.873  24.589  1.00  0.00     0.067 A 
ATOM     24  C   UNL A   1      33.096  18.493  25.839  1.00  0.00     0.021 A 
ATOM     25  C   UNL A   1      32.701  18.627  23.463  1.00  0.00     0.021 A 
ATOM     26  C   UNL A   1      32.939  19.886  25.948  1.00  0.00     0.010 A 
ATOM     27  C   UNL A   1      32.549  20.021  23.581  1.00  0.00     0.010 A 
BRANCH  23  28
ATOM     28  S   UNL A   1      33.461  16.149  24.479  1.00  0.00     0.175 S 
ATOM     29  C   UNL A   1      34.966  15.913  25.379  1.00  0.00     0.163 C 
ATOM     30  O   UNL A   1      33.759  15.877  23.086  1.00  0.00    -0.224 OA
ATOM     31  O   UNL A   1      32.420  15.414  25.175  1.00  0.00    -0.224 OA
ENDBRANCH  23  28
ENDBRANCH  12  22
BRANCH  21  32
ATOM     32  C   UNL A   1      29.901  25.821  25.432  1.00  0.00     0.430 C 
ATOM     33  F   UNL A   1      28.957  26.583  24.817  1.00  0.00    -0.167 F 
ATOM     34  F   UNL A   1      29.246  25.068  26.350  1.00  0.00    -0.167 F 
ATOM     35  F   UNL A   1      30.692  26.663  26.107  1.00  0.00    -0.167 F 
ENDBRANCH  21  32
ENDBRANCH   9  11
ENDBRANCH   8   9
ENDBRANCH   7   8
ENDBRANCH   6   7
ENDBRANCH   5   6
ENDBRANCH   4   5
ENDBRANCH   3   4
ENDBRANCH   2   3
ENDBRANCH   1   2
BRANCH   1  36
ATOM     36  C   UNL A   1      35.071  31.050  27.592  1.00  0.00     0.188 C 
BRANCH  36  37
ATOM     37  O   UNL A   1      35.807  32.207  27.992  1.00  0.00    -0.376 OA
BRANCH  37  38
ATOM     38  C   UNL A   1      35.064  33.391  28.242  1.00  0.00     0.202 C 
BRANCH  38  39
ATOM     39  C   UNL A   1      35.013  33.805  29.718  1.00  0.00     0.261 C 
BRANCH  39  40
ATOM     40  O   UNL A   1      36.175  33.460  30.485  1.00  0.00    -0.460 OA
BRANCH  40  41
ATOM     41  C   UNL A   1      36.057  32.447  31.370  1.00  0.00     0.338 C 
ATOM     42  O   UNL A   1      35.070  32.151  32.024  1.00  0.00    -0.246 OA
BRANCH  41  43
ATOM     43  C   UNL A   1      37.273  31.618  31.263  1.00  0.00     0.060 A 
ATOM     44  C   UNL A   1      37.359  30.441  32.018  1.00  0.00     0.016 A 
ATOM     45  C   UNL A   1      38.303  31.982  30.392  1.00  0.00     0.016 A 
ATOM     46  C   UNL A   1      38.498  29.640  31.929  1.00  0.00     0.010 A 
ATOM     47  C   UNL A   1      39.448  31.190  30.318  1.00  0.00     0.010 A 
ATOM     48  C   UNL A   1      39.564  30.035  31.109  1.00  0.00    -0.014 A 
BRANCH  48  49
ATOM     49  C   UNL A   1      40.880  29.366  31.226  1.00  0.00     0.031 A 
ATOM     50  C   UNL A   1      41.809  29.826  32.315  1.00  0.00     0.074 A 
ATOM     51  C   UNL A   1      41.259  28.407  30.365  1.00  0.00     0.049 A 
ATOM     52  N   UNL A   1      43.029  29.443  32.579  1.00  0.00    -0.248 NA
ATOM     53  C   UNL A   1      41.292  30.865  33.223  1.00  0.00     0.031 C 
ATOM     54  C   UNL A   1      40.448  27.882  29.268  1.00  0.00     0.029 A 
ATOM     55  N   UNL A   1      42.447  27.726  30.264  1.00  0.00    -0.354 N 
ATOM     56  C   UNL A   1      43.436  30.209  33.665  1.00  0.00     0.074 A 
ATOM     57  C   UNL A   1      42.337  31.086  34.005  1.00  0.00     0.031 C 
ATOM     58  C   UNL A   1      41.176  26.984  28.581  1.00  0.00     0.029 A 
ATOM     59  C   UNL A   1      42.509  26.888  29.175  1.00  0.00     0.049 A 
ATOM     60  H   UNL A   1      43.184  27.828  30.908  1.00  0.00     0.167 HD
ATOM     61  C   UNL A   1      44.614  30.176  34.331  1.00  0.00     0.034 A 
ATOM     62  C   UNL A   1      43.535  26.151  28.702  1.00  0.00     0.034 A 
ATOM     63  C   UNL A   1      45.701  29.301  33.997  1.00  0.00     0.049 A 
ATOM     64  C   UNL A   1      44.850  26.157  29.444  1.00  0.00     0.074 A 
ATOM     65  C   UNL A   1      46.918  29.158  34.638  1.00  0.00     0.029 A 
ATOM     66  N   UNL A   1      45.711  28.431  32.918  1.00  0.00    -0.354 N 
ATOM     67  N   UNL A   1      45.175  26.785  30.548  1.00  0.00    -0.248 NA
ATOM     68  C   UNL A   1      45.930  25.326  28.889  1.00  0.00     0.031 C 
ATOM     69  C   UNL A   1      47.676  28.221  33.929  1.00  0.00     0.029 A 
ATOM     70  C   UNL A   1      46.919  27.758  32.865  1.00  0.00     0.049 A 
ATOM     71  H   UNL A   1      44.968  28.308  32.283  1.00  0.00     0.167 HD
ATOM     72  C   UNL A   1      46.480  26.398  30.840  1.00  0.00     0.074 A 
ATOM     73  C   UNL A   1      46.879  25.467  29.805  1.00  0.00     0.031 C 
ATOM     74  C   UNL A   1      47.281  26.789  31.862  1.00  0.00     0.034 A 
BRANCH  61  75
ATOM     75  C   UNL A   1      44.772  31.103  35.504  1.00  0.00     0.023 A 
ATOM     76  C   UNL A   1      44.414  30.662  36.794  1.00  0.00     0.012 A 
ATOM     77  C   UNL A   1      45.313  32.393  35.338  1.00  0.00     0.148 A 
ATOM     78  C   UNL A   1      44.564  31.501  37.897  1.00  0.00     0.002 A 
ATOM     79  C   UNL A   1      45.500  33.207  36.448  1.00  0.00     0.091 A 
ATOM     80  F   UNL A   1      45.621  32.802  34.099  1.00  0.00    -0.205 F 
ATOM     81  C   UNL A   1      45.117  32.767  37.726  1.00  0.00     0.022 A 
BRANCH  79  82
ATOM     82  S   UNL A   1      46.270  34.825  36.341  1.00  0.00     0.127 S 
ATOM     83  O   UNL A   1      46.710  35.035  37.720  1.00  0.00    -0.237 OA
ATOM     84  O   UNL A   1      47.353  34.590  35.386  1.00  0.00    -0.237 OA
ATOM     85  O   UNL A   1      45.232  35.733  35.872  1.00  0.00    -0.744 OA
ENDBRANCH  79  82
ENDBRANCH  61  75
BRANCH  62  86
ATOM     86  C   UNL A   1      43.358  25.318  27.479  1.00  0.00     0.023 A 
ATOM     87  C   UNL A   1      43.818  25.801  26.239  1.00  0.00     0.012 A 
ATOM     88  C   UNL A   1      42.741  24.053  27.537  1.00  0.00     0.148 A 
ATOM     89  C   UNL A   1      43.640  25.055  25.073  1.00  0.00     0.002 A 
ATOM     90  C   UNL A   1      42.614  23.291  26.380  1.00  0.00     0.091 A 
ATOM     91  F   UNL A   1      42.291  23.619  28.722  1.00  0.00    -0.205 F 
ATOM     92  C   UNL A   1      43.047  23.797  25.145  1.00  0.00     0.022 A 
BRANCH  90  93
ATOM     93  S   UNL A   1      41.970  21.614  26.395  1.00  0.00     0.127 S 
ATOM     94  O   UNL A   1      40.563  21.830  26.067  1.00  0.00    -0.237 OA
ATOM     95  O   UNL A   1      42.759  20.979  25.338  1.00  0.00    -0.237 OA
ATOM     96  O   UNL A   1      42.235  21.102  27.733  1.00  0.00    -0.744 OA
ENDBRANCH  90  93
ENDBRANCH  62  86
BRANCH  74  97
ATOM     97  C   UNL A   1      48.660  26.188  31.949  1.00  0.00     0.023 A 
ATOM     98  C   UNL A   1      49.738  26.808  31.287  1.00  0.00     0.012 A 
ATOM     99  C   UNL A   1      48.903  25.064  32.763  1.00  0.00     0.148 A 
ATOM    100  C   UNL A   1      51.031  26.301  31.413  1.00  0.00     0.002 A 
ATOM    101  C   UNL A   1      50.201  24.595  32.923  1.00  0.00     0.091 A 
ATOM    102  F   UNL A   1      47.861  24.478  33.373  1.00  0.00    -0.205 F 
ATOM    103  C   UNL A   1      51.265  25.205  32.239  1.00  0.00     0.022 A 
BRANCH 101 104
ATOM    104  S   UNL A   1      50.611  23.250  34.044  1.00  0.00     0.127 S 
ATOM    105  O   UNL A   1      52.071  23.245  33.981  1.00  0.00    -0.237 OA
ATOM    106  O   UNL A   1      50.056  23.723  35.312  1.00  0.00    -0.237 OA
ATOM    107  O   UNL A   1      49.958  22.064  33.503  1.00  0.00    -0.744 OA
ENDBRANCH 101 104
ENDBRANCH  74  97
ENDBRANCH  48  49
ENDBRANCH  41  43
ENDBRANCH  40  41
ENDBRANCH  39  40
ENDBRANCH  38  39
ENDBRANCH  37  38
ENDBRANCH  36  37
ENDBRANCH   1  36
TORSDOF 26
ENDMDL
MODEL 2
REMARK VINA RESULT:      -8.7      4.537     10.746
REMARK SMILES CS(=O)(=O)c1ccc(-c2cc(Cl)cc3c2O[C@@H](C(F)(F)F)C(C(=O)OCCOCCOCCOCCOC(=O)c2ccc(-c4c5nc(c(-c6cccc(S(=O)(=O)[O-])c6F)c6ccc([nH]6)c(-c6cccc(S(=O)(=O)[O-])c6F)c6nc(c(-c7cccc(S(=O)(=O)[O-])c7F)c7ccc4[nH]7)C=C6)C=C5)cc2)=C3)cc1
REMARK SMILES IDX 32 1 31 2 30 3 29 4 28 5 27 6 26 7 25 8 23 9 24 10 22 11
REMARK SMILES IDX 9 12 10 13 15 14 11 15 14 16 16 17 12 18 13 19 103 20 17 21
REMARK SMILES IDX 8 22 5 23 6 24 105 25 7 26 104 27 2 28 1 29 3 30 4 31 18 32
REMARK SMILES IDX 19 33 20 34 21 35 33 36 34 37 35 38 36 39 37 40 38 41 39 42
REMARK SMILES IDX 40 43 41 44 102 45 42 46 101 47 43 48 44 49 45 50 95 51
REMARK SMILES IDX 46 52 100 53 94 54 96 55 47 56 99 57 93 58 92 59 48 61 80 62
REMARK SMILES IDX 60 63 79 64 61 65 64 66 78 67 97 68 62 69 63 70 77 72 98 73
REMARK SMILES IDX 65 74 49 75 50 76 58 77 51 78 53 79 59 80 52 81 54 82 55 83
REMARK SMILES IDX 56 84 57 85 81 86 82 87 90 88 83 89 85 90 91 91 84 92 86 93
REMARK SMILES IDX 87 94 88 95 89 96 66 97 67 98 75 99 68 100 70 101 76 102
REMARK SMILES IDX 69 103 71 104 72 105 73 106 74 107
REMARK H PARENT 96 60 64 71
REMARK Flexibility Score: inf
ROOT
ATOM      1  C   UNL A   1      32.888  26.130  25.896  1.00  0.00     0.188 C 
ENDROOT
BRANCH   1   2
ATOM      2  O   UNL A   1      33.397  24.838  25.585  1.00  0.00    -0.377 OA
BRANCH   2   3
ATOM      3  C   UNL A   1      34.673  24.762  24.985  1.00  0.00     0.188 C 
BRANCH   3   4
ATOM      4  C   UNL A   1      35.593  23.749  25.680  1.00  0.00     0.188 C 
BRANCH   4   5
ATOM      5  O   UNL A   1      36.862  23.584  25.057  1.00  0.00    -0.376 OA
BRANCH   5   6
ATOM      6  C   UNL A   1      37.493  22.307  25.137  1.00  0.00     0.202 C 
BRANCH   6   7
ATOM      7  C   UNL A   1      38.756  22.162  25.999  1.00  0.00     0.261 C 
BRANCH   7   8
ATOM      8  O   UNL A   1      38.848  23.240  26.959  1.00  0.00    -0.460 OA
BRANCH   8   9
ATOM      9  C   UNL A   1      39.837  24.122  26.752  1.00  0.00     0.338 C 
ATOM     10  O   UNL A   1      39.963  24.808  25.746  1.00  0.00    -0.246 OA
BRANCH   9  11
ATOM     11  C   UNL A   1      40.675  24.333  27.961  1.00  0.00     0.087 C 
ATOM     12  C   UNL A   1      44.666  25.183  27.203  1.00  0.00     0.026 A 
ATOM     13  C   UNL A   1      44.943  24.641  25.925  1.00  0.00     0.033 A 
ATOM     14  C   UNL A   1      43.380  24.909  27.708  1.00  0.00     0.135 A 
ATOM     15  C   UNL A   1      44.164  23.608  25.403  1.00  0.00     0.042 A 
ATOM     16  C   UNL A   1      42.738  23.725  27.318  1.00  0.00     0.019 A 
ATOM     17  O   UNL A   1      42.624  25.920  28.302  1.00  0.00    -0.475 OA
ATOM     18  Cl  UNL A   1      44.558  22.936  23.873  1.00  0.00    -0.084 Cl
ATOM     19  C   UNL A   1      43.123  23.072  26.151  1.00  0.00     0.032 A 
ATOM     20  C   UNL A   1      41.539  23.306  28.073  1.00  0.00     0.027 C 
ATOM     21  C   UNL A   1      41.175  25.636  28.563  1.00  0.00     0.316 C 
BRANCH  12  22
ATOM     22  C   UNL A   1      45.893  25.291  28.075  1.00  0.00    -0.015 A 
ATOM     23  C   UNL A   1      47.853  26.491  29.755  1.00  0.00     0.067 A 
ATOM     24  C   UNL A   1      46.762  25.819  30.313  1.00  0.00     0.021 A 
ATOM     25  C   UNL A   1      48.039  26.476  28.375  1.00  0.00     0.021 A 
ATOM     26  C   UNL A   1      45.803  25.215  29.482  1.00  0.00     0.010 A 
ATOM     27  C   UNL A   1      47.072  25.872  27.550  1.00  0.00     0.010 A 
BRANCH  23  28
ATOM     28  S   UNL A   1      48.907  27.432  30.841  1.00  0.00     0.175 S 
ATOM     29  C   UNL A   1      48.100  27.546  32.412  1.00  0.00     0.163 C 
ATOM     30  O   UNL A   1      48.971  28.778  30.304  1.00  0.00    -0.224 OA
ATOM     31  O   UNL A   1      50.113  26.647  31.030  1.00  0.00    -0.224 OA
ENDBRANCH  23  28
ENDBRANCH  12  22
BRANCH  21  32
ATOM     32  C   UNL A   1      40.239  26.873  28.544  1.00  0.00     0.430 C 
ATOM     33  F   UNL A   1      40.853  27.908  29.176  1.00  0.00    -0.167 F 
ATOM     34  F   UNL A   1      40.009  27.284  27.273  1.00  0.00    -0.167 F 
ATOM     35  F   UNL A   1      39.046  26.720  29.130  1.00  0.00    -0.167 F 
ENDBRANCH  21  32
ENDBRANCH   9  11
ENDBRANCH   8   9
ENDBRANCH   7   8
ENDBRANCH   6   7
ENDBRANCH   5   6
ENDBRANCH   4   5
ENDBRANCH   3   4
ENDBRANCH   2   3
ENDBRANCH   1   2
BRANCH   1  36
ATOM     36  C   UNL A   1      33.543  27.409  25.329  1.00  0.00     0.188 C 
BRANCH  36  37
ATOM     37  O   UNL A   1      34.193  28.228  26.302  1.00  0.00    -0.376 OA
BRANCH  37  38
ATOM     38  C   UNL A   1      33.474  29.357  26.780  1.00  0.00     0.202 C 
BRANCH  38  39
ATOM     39  C   UNL A   1      34.355  30.550  27.167  1.00  0.00     0.261 C 
BRANCH  39  40
ATOM     40  O   UNL A   1      33.870  31.332  28.267  1.00  0.00    -0.460 OA
BRANCH  40  41
ATOM     41  C   UNL A   1      34.331  32.596  28.382  1.00  0.00     0.338 C 
ATOM     42  O   UNL A   1      33.887  33.595  27.841  1.00  0.00    -0.246 OA
BRANCH  41  43
ATOM     43  C   UNL A   1      35.353  32.601  29.448  1.00  0.00     0.060 A 
ATOM     44  C   UNL A   1      36.177  33.725  29.590  1.00  0.00     0.016 A 
ATOM     45  C   UNL A   1      35.467  31.518  30.323  1.00  0.00     0.016 A 
ATOM     46  C   UNL A   1      37.146  33.753  30.594  1.00  0.00     0.010 A 
ATOM     47  C   UNL A   1      36.448  31.540  31.314  1.00  0.00     0.010 A 
ATOM     48  C   UNL A   1      37.312  32.642  31.432  1.00  0.00    -0.014 A 
BRANCH  48  49
ATOM     49  C   UNL A   1      38.511  32.533  32.294  1.00  0.00     0.031 A 
ATOM     50  C   UNL A   1      39.777  32.009  31.677  1.00  0.00     0.074 A 
ATOM     51  C   UNL A   1      38.468  32.850  33.600  1.00  0.00     0.049 A 
ATOM     52  N   UNL A   1      40.932  31.764  32.235  1.00  0.00    -0.248 NA
ATOM     53  C   UNL A   1      39.730  31.713  30.234  1.00  0.00     0.031 C 
ATOM     54  C   UNL A   1      37.299  33.363  34.310  1.00  0.00     0.029 A 
ATOM     55  N   UNL A   1      39.437  32.752  34.567  1.00  0.00    -0.354 N 
ATOM     56  C   UNL A   1      41.740  31.263  31.222  1.00  0.00     0.074 A 
ATOM     57  C   UNL A   1      40.942  31.229  30.017  1.00  0.00     0.031 C 
ATOM     58  C   UNL A   1      37.609  33.503  35.611  1.00  0.00     0.029 A 
ATOM     59  C   UNL A   1      38.988  33.067  35.828  1.00  0.00     0.049 A 
ATOM     60  H   UNL A   1      40.364  32.481  34.377  1.00  0.00     0.167 HD
ATOM     61  C   UNL A   1      43.036  30.879  31.285  1.00  0.00     0.034 A 
ATOM     62  C   UNL A   1      39.615  32.988  37.020  1.00  0.00     0.034 A 
ATOM     63  C   UNL A   1      43.829  30.919  32.480  1.00  0.00     0.049 A 
ATOM     64  C   UNL A   1      41.051  32.525  37.068  1.00  0.00     0.074 A 
ATOM     65  C   UNL A   1      45.165  30.596  32.637  1.00  0.00     0.029 A 
ATOM     66  N   UNL A   1      43.356  31.291  33.729  1.00  0.00    -0.354 N 
ATOM     67  N   UNL A   1      41.844  32.181  36.081  1.00  0.00    -0.248 NA
ATOM     68  C   UNL A   1      41.688  32.467  38.393  1.00  0.00     0.031 C 
ATOM     69  C   UNL A   1      45.492  30.745  33.989  1.00  0.00     0.029 A 
ATOM     70  C   UNL A   1      44.368  31.190  34.667  1.00  0.00     0.049 A 
ATOM     71  H   UNL A   1      42.436  31.584  33.920  1.00  0.00     0.167 HD
ATOM     72  C   UNL A   1      43.079  31.904  36.659  1.00  0.00     0.074 A 
ATOM     73  C   UNL A   1      42.934  32.136  38.081  1.00  0.00     0.031 C 
ATOM     74  C   UNL A   1      44.225  31.482  36.070  1.00  0.00     0.034 A 
BRANCH  61  75
ATOM     75  C   UNL A   1      43.680  30.403  30.012  1.00  0.00     0.023 A 
ATOM     76  C   UNL A   1      43.841  29.020  29.789  1.00  0.00     0.012 A 
ATOM     77  C   UNL A   1      44.086  31.316  29.020  1.00  0.00     0.148 A 
ATOM     78  C   UNL A   1      44.424  28.555  28.611  1.00  0.00     0.002 A 
ATOM     79  C   UNL A   1      44.626  30.843  27.831  1.00  0.00     0.091 A 
ATOM     80  F   UNL A   1      43.949  32.627  29.265  1.00  0.00    -0.205 F 
ATOM     81  C   UNL A   1      44.805  29.464  27.629  1.00  0.00     0.022 A 
BRANCH  79  82
ATOM     82  S   UNL A   1      45.082  31.930  26.477  1.00  0.00     0.127 S 
ATOM     83  O   UNL A   1      43.779  32.214  25.875  1.00  0.00    -0.237 OA
ATOM     84  O   UNL A   1      45.687  33.062  27.180  1.00  0.00    -0.237 OA
ATOM     85  O   UNL A   1      46.002  31.170  25.644  1.00  0.00    -0.744 OA
ENDBRANCH  79  82
ENDBRANCH  61  75
BRANCH  62  86
ATOM     86  C   UNL A   1      38.903  33.383  38.269  1.00  0.00     0.023 A 
ATOM     87  C   UNL A   1      39.172  34.637  38.852  1.00  0.00     0.012 A 
ATOM     88  C   UNL A   1      37.963  32.529  38.878  1.00  0.00     0.148 A 
ATOM     89  C   UNL A   1      38.542  35.020  40.036  1.00  0.00     0.002 A 
ATOM     90  C   UNL A   1      37.300  32.940  40.029  1.00  0.00     0.091 A 
ATOM     91  F   UNL A   1      37.736  31.333  38.320  1.00  0.00    -0.205 F 
ATOM     92  C   UNL A   1      37.600  34.178  40.619  1.00  0.00     0.022 A 
BRANCH  90  93
ATOM     93  S   UNL A   1      35.988  31.972  40.785  1.00  0.00     0.127 S 
ATOM     94  O   UNL A   1      35.400  32.936  41.711  1.00  0.00    -0.237 OA
ATOM     95  O   UNL A   1      35.154  31.641  39.628  1.00  0.00    -0.237 OA
ATOM     96  O   UNL A   1      36.647  30.827  41.398  1.00  0.00    -0.744 OA
ENDBRANCH  90  93
ENDBRANCH  62  86
BRANCH  74  97
ATOM     97  C   UNL A   1      45.435  31.277  36.945  1.00  0.00     0.023 A 
ATOM     98  C   UNL A   1      46.333  32.341  37.161  1.00  0.00     0.012 A 
ATOM     99  C   UNL A   1      45.629  30.059  37.627  1.00  0.00     0.148 A 
ATOM    100  C   UNL A   1      47.419  32.186  38.021  1.00  0.00     0.002 A 
ATOM    101  C   UNL A   1      46.686  29.929  38.520  1.00  0.00     0.091 A 
ATOM    102  F   UNL A   1      44.772  29.052  37.396  1.00  0.00    -0.205 F 
ATOM    103  C   UNL A   1      47.589  30.988  38.710  1.00  0.00     0.022 A 
BRANCH 101 104
ATOM    104  S   UNL A   1      46.925  28.458  39.524  1.00  0.00     0.127 S 
ATOM    105  O   UNL A   1      47.240  27.453  38.510  1.00  0.00    -0.237 OA
ATOM    106  O   UNL A   1      48.052  28.841  40.375  1.00  0.00    -0.237 OA
ATOM    107  O   UNL A   1      45.672  28.252  40.240  1.00  0.00    -0.744 OA
ENDBRANCH 101 104
ENDBRANCH  74  97
ENDBRANCH  48  49
ENDBRANCH  41  43
ENDBRANCH  40  41
ENDBRANCH  39  40
ENDBRANCH  38  39
ENDBRANCH  37  38
ENDBRANCH  36  37
ENDBRANCH   1  36
TORSDOF 26
ENDMDL
MODEL 3
REMARK VINA RESULT:      -8.6      8.266     17.086
REMARK SMILES CS(=O)(=O)c1ccc(-c2cc(Cl)cc3c2O[C@@H](C(F)(F)F)C(C(=O)OCCOCCOCCOCCOC(=O)c2ccc(-c4c5nc(c(-c6cccc(S(=O)(=O)[O-])c6F)c6ccc([nH]6)c(-c6cccc(S(=O)(=O)[O-])c6F)c6nc(c(-c7cccc(S(=O)(=O)[O-])c7F)c7ccc4[nH]7)C=C6)C=C5)cc2)=C3)cc1
REMARK SMILES IDX 32 1 31 2 30 3 29 4 28 5 27 6 26 7 25 8 23 9 24 10 22 11
REMARK SMILES IDX 9 12 10 13 15 14 11 15 14 16 16 17 12 18 13 19 103 20 17 21
REMARK SMILES IDX 8 22 5 23 6 24 105 25 7 26 104 27 2 28 1 29 3 30 4 31 18 32
REMARK SMILES IDX 19 33 20 34 21 35 33 36 34 37 35 38 36 39 37 40 38 41 39 42
REMARK SMILES IDX 40 43 41 44 102 45 42 46 101 47 43 48 44 49 45 50 95 51
REMARK SMILES IDX 46 52 100 53 94 54 96 55 47 56 99 57 93 58 92 59 48 61 80 62
REMARK SMILES IDX 60 63 79 64 61 65 64 66 78 67 97 68 62 69 63 70 77 72 98 73
REMARK SMILES IDX 65 74 49 75 50 76 58 77 51 78 53 79 59 80 52 81 54 82 55 83
REMARK SMILES IDX 56 84 57 85 81 86 82 87 90 88 83 89 85 90 91 91 84 92 86 93
REMARK SMILES IDX 87 94 88 95 89 96 66 97 67 98 75 99 68 100 70 101 76 102
REMARK SMILES IDX 69 103 71 104 72 105 73 106 74 107
REMARK H PARENT 96 60 64 71
REMARK Flexibility Score: inf
ROOT
ATOM      1  C   UNL A   1      46.280  24.050  39.983  1.00  0.00     0.188 C 
ENDROOT
BRANCH   1   2
ATOM      2  O   UNL A   1      46.791  22.736  39.794  1.00  0.00    -0.377 OA
BRANCH   2   3
ATOM      3  C   UNL A   1      47.451  22.457  38.577  1.00  0.00     0.188 C 
BRANCH   3   4
ATOM      4  C   UNL A   1      48.908  22.022  38.782  1.00  0.00     0.188 C 
BRANCH   4   5
ATOM      5  O   UNL A   1      49.479  21.339  37.670  1.00  0.00    -0.376 OA
BRANCH   5   6
ATOM      6  C   UNL A   1      49.001  20.030  37.364  1.00  0.00     0.202 C 
BRANCH   6   7
ATOM      7  C   UNL A   1      47.602  19.624  37.853  1.00  0.00     0.261 C 
BRANCH   7   8
ATOM      8  O   UNL A   1      47.694  18.723  38.979  1.00  0.00    -0.460 OA
BRANCH   8   9
ATOM      9  C   UNL A   1      46.555  18.523  39.660  1.00  0.00     0.338 C 
ATOM     10  O   UNL A   1      45.716  19.386  39.887  1.00  0.00    -0.246 OA
BRANCH   9  11
ATOM     11  C   UNL A   1      46.310  17.088  39.953  1.00  0.00     0.087 C 
ATOM     12  C   UNL A   1      44.453  16.331  43.587  1.00  0.00     0.026 A 
ATOM     13  C   UNL A   1      44.745  17.443  44.411  1.00  0.00     0.033 A 
ATOM     14  C   UNL A   1      45.085  16.331  42.328  1.00  0.00     0.135 A 
ATOM     15  C   UNL A   1      45.857  18.248  44.159  1.00  0.00     0.042 A 
ATOM     16  C   UNL A   1      46.326  16.970  42.195  1.00  0.00     0.019 A 
ATOM     17  O   UNL A   1      44.366  16.012  41.177  1.00  0.00    -0.475 OA
ATOM     18  Cl  UNL A   1      46.214  19.558  45.209  1.00  0.00    -0.084 Cl
ATOM     19  C   UNL A   1      46.714  17.944  43.109  1.00  0.00     0.032 A 
ATOM     20  C   UNL A   1      47.110  16.711  40.969  1.00  0.00     0.027 C 
ATOM     21  C   UNL A   1      45.014  16.298  39.855  1.00  0.00     0.316 C 
BRANCH  12  22
ATOM     22  C   UNL A   1      44.172  15.073  44.372  1.00  0.00    -0.015 A 
ATOM     23  C   UNL A   1      44.553  12.439  45.382  1.00  0.00     0.067 A 
ATOM     24  C   UNL A   1      44.965  13.546  46.128  1.00  0.00     0.021 A 
ATOM     25  C   UNL A   1      43.853  12.630  44.193  1.00  0.00     0.021 A 
ATOM     26  C   UNL A   1      44.764  14.847  45.633  1.00  0.00     0.010 A 
ATOM     27  C   UNL A   1      43.659  13.936  43.704  1.00  0.00     0.010 A 
BRANCH  23  28
ATOM     28  S   UNL A   1      45.039  10.819  45.943  1.00  0.00     0.175 S 
ATOM     29  C   UNL A   1      45.220  10.887  47.702  1.00  0.00     0.163 C 
ATOM     30  O   UNL A   1      46.358  10.562  45.397  1.00  0.00    -0.224 OA
ATOM     31  O   UNL A   1      43.928   9.931  45.655  1.00  0.00    -0.224 OA
ENDBRANCH  23  28
ENDBRANCH  12  22
BRANCH  21  32
ATOM     32  C   UNL A   1      44.041  16.606  38.687  1.00  0.00     0.430 C 
ATOM     33  F   UNL A   1      42.867  17.069  39.193  1.00  0.00    -0.167 F 
ATOM     34  F   UNL A   1      44.532  17.593  37.898  1.00  0.00    -0.167 F 
ATOM     35  F   UNL A   1      43.735  15.579  37.887  1.00  0.00    -0.167 F 
ENDBRANCH  21  32
ENDBRANCH   9  11
ENDBRANCH   8   9
ENDBRANCH   7   8
ENDBRANCH   6   7
ENDBRANCH   5   6
ENDBRANCH   4   5
ENDBRANCH   3   4
ENDBRANCH   2   3
ENDBRANCH   1   2
BRANCH   1  36
ATOM     36  C   UNL A   1      46.293  25.090  38.840  1.00  0.00     0.188 C 
BRANCH  36  37
ATOM     37  O   UNL A   1      47.207  26.171  39.027  1.00  0.00    -0.376 OA
BRANCH  37  38
ATOM     38  C   UNL A   1      48.483  26.052  38.413  1.00  0.00     0.202 C 
BRANCH  38  39
ATOM     39  C   UNL A   1      48.437  25.647  36.935  1.00  0.00     0.261 C 
BRANCH  39  40
ATOM     40  O   UNL A   1      49.110  26.544  36.039  1.00  0.00    -0.460 OA
BRANCH  40  41
ATOM     41  C   UNL A   1      48.923  26.356  34.715  1.00  0.00     0.338 C 
ATOM     42  O   UNL A   1      49.625  25.708  33.957  1.00  0.00    -0.246 OA
BRANCH  41  43
ATOM     43  C   UNL A   1      47.597  26.904  34.370  1.00  0.00     0.060 A 
ATOM     44  C   UNL A   1      46.478  26.065  34.442  1.00  0.00     0.016 A 
ATOM     45  C   UNL A   1      47.458  28.249  34.017  1.00  0.00     0.016 A 
ATOM     46  C   UNL A   1      45.213  26.564  34.125  1.00  0.00     0.010 A 
ATOM     47  C   UNL A   1      46.196  28.741  33.682  1.00  0.00     0.010 A 
ATOM     48  C   UNL A   1      45.076  27.893  33.704  1.00  0.00    -0.014 A 
BRANCH  48  49
ATOM     49  C   UNL A   1      43.810  28.351  33.087  1.00  0.00     0.031 A 
ATOM     50  C   UNL A   1      43.542  27.966  31.659  1.00  0.00     0.074 A 
ATOM     51  C   UNL A   1      42.939  29.123  33.760  1.00  0.00     0.049 A 
ATOM     52  N   UNL A   1      42.544  28.295  30.884  1.00  0.00    -0.248 NA
ATOM     53  C   UNL A   1      44.545  27.098  31.015  1.00  0.00     0.031 C 
ATOM     54  C   UNL A   1      43.092  29.564  35.145  1.00  0.00     0.029 A 
ATOM     55  N   UNL A   1      41.764  29.700  33.348  1.00  0.00    -0.354 N 
ATOM     56  C   UNL A   1      42.807  27.698  29.658  1.00  0.00     0.074 A 
ATOM     57  C   UNL A   1      44.064  26.994  29.786  1.00  0.00     0.031 C 
ATOM     58  C   UNL A   1      42.064  30.373  35.458  1.00  0.00     0.029 A 
ATOM     59  C   UNL A   1      41.196  30.524  34.291  1.00  0.00     0.049 A 
ATOM     60  H   UNL A   1      41.366  29.539  32.462  1.00  0.00     0.167 HD
ATOM     61  C   UNL A   1      42.062  27.720  28.528  1.00  0.00     0.034 A 
ATOM     62  C   UNL A   1      40.115  31.326  34.207  1.00  0.00     0.034 A 
ATOM     63  C   UNL A   1      40.812  28.413  28.404  1.00  0.00     0.049 A 
ATOM     64  C   UNL A   1      39.319  31.359  32.925  1.00  0.00     0.074 A 
ATOM     65  C   UNL A   1      39.958  28.459  27.316  1.00  0.00     0.029 A 
ATOM     66  N   UNL A   1      40.242  29.198  29.394  1.00  0.00    -0.354 N 
ATOM     67  N   UNL A   1      39.507  30.683  31.816  1.00  0.00    -0.248 NA
ATOM     68  C   UNL A   1      38.143  32.243  32.893  1.00  0.00     0.031 C 
ATOM     69  C   UNL A   1      38.885  29.295  27.640  1.00  0.00     0.029 A 
ATOM     70  C   UNL A   1      39.056  29.745  28.940  1.00  0.00     0.049 A 
ATOM     71  H   UNL A   1      40.625  29.344  30.290  1.00  0.00     0.167 HD
ATOM     72  C   UNL A   1      38.456  31.031  30.972  1.00  0.00     0.074 A 
ATOM     73  C   UNL A   1      37.626  31.965  31.704  1.00  0.00     0.031 C 
ATOM     74  C   UNL A   1      38.208  30.627  29.701  1.00  0.00     0.034 A 
BRANCH  61  75
ATOM     75  C   UNL A   1      42.577  26.949  27.344  1.00  0.00     0.023 A 
ATOM     76  C   UNL A   1      43.239  27.633  26.304  1.00  0.00     0.012 A 
ATOM     77  C   UNL A   1      42.444  25.549  27.279  1.00  0.00     0.148 A 
ATOM     78  C   UNL A   1      43.735  26.937  25.202  1.00  0.00     0.002 A 
ATOM     79  C   UNL A   1      42.979  24.858  26.199  1.00  0.00     0.091 A 
ATOM     80  F   UNL A   1      41.786  24.923  28.265  1.00  0.00    -0.205 F 
ATOM     81  C   UNL A   1      43.615  25.551  25.155  1.00  0.00     0.022 A 
BRANCH  79  82
ATOM     82  S   UNL A   1      42.940  23.067  26.082  1.00  0.00     0.127 S 
ATOM     83  O   UNL A   1      43.740  22.832  24.881  1.00  0.00    -0.237 OA
ATOM     84  O   UNL A   1      43.584  22.661  27.331  1.00  0.00    -0.237 OA
ATOM     85  O   UNL A   1      41.534  22.702  25.977  1.00  0.00    -0.744 OA
ENDBRANCH  79  82
ENDBRANCH  61  75
BRANCH  62  86
ATOM     86  C   UNL A   1      39.697  32.145  35.380  1.00  0.00     0.023 A 
ATOM     87  C   UNL A   1      40.164  33.468  35.503  1.00  0.00     0.012 A 
ATOM     88  C   UNL A   1      38.840  31.625  36.369  1.00  0.00     0.148 A 
ATOM     89  C   UNL A   1      39.811  34.248  36.606  1.00  0.00     0.002 A 
ATOM     90  C   UNL A   1      38.450  32.424  37.438  1.00  0.00     0.091 A 
ATOM     91  F   UNL A   1      38.422  30.358  36.245  1.00  0.00    -0.205 F 
ATOM     92  C   UNL A   1      38.947  33.730  37.567  1.00  0.00     0.022 A 
BRANCH  90  93
ATOM     93  S   UNL A   1      37.251  31.883  38.662  1.00  0.00     0.127 S 
ATOM     94  O   UNL A   1      36.138  32.796  38.416  1.00  0.00    -0.237 OA
ATOM     95  O   UNL A   1      37.012  30.497  38.257  1.00  0.00    -0.237 OA
ATOM     96  O   UNL A   1      37.913  32.027  39.951  1.00  0.00    -0.744 OA
ENDBRANCH  90  93
ENDBRANCH  62  86
BRANCH  74  97
ATOM     97  C   UNL A   1      36.971  31.153  29.021  1.00  0.00     0.023 A 
ATOM     98  C   UNL A   1      36.837  32.534  28.780  1.00  0.00     0.012 A 
ATOM     99  C   UNL A   1      35.987  30.268  28.538  1.00  0.00     0.148 A 
ATOM    100  C   UNL A   1      35.729  33.028  28.092  1.00  0.00     0.002 A 
ATOM    101  C   UNL A   1      34.910  30.763  27.811  1.00  0.00     0.091 A 
ATOM    102  F   UNL A   1      36.124  28.957  28.792  1.00  0.00    -0.205 F 
ATOM    103  C   UNL A   1      34.774  32.144  27.596  1.00  0.00     0.022 A 
BRANCH 101 104
ATOM    104  S   UNL A   1      33.685  29.690  27.051  1.00  0.00     0.127 S 
ATOM    105  O   UNL A   1      33.284  28.849  28.178  1.00  0.00    -0.237 OA
ATOM    106  O   UNL A   1      32.667  30.644  26.609  1.00  0.00    -0.237 OA
ATOM    107  O   UNL A   1      34.373  28.998  25.968  1.00  0.00    -0.744 OA
ENDBRANCH 101 104
ENDBRANCH  74  97
ENDBRANCH  48  49
ENDBRANCH  41  43
ENDBRANCH  40  41
ENDBRANCH  39  40
ENDBRANCH  38  39
ENDBRANCH  37  38
ENDBRANCH  36  37
ENDBRANCH   1  36
TORSDOF 26
ENDMDL
