MODEL 1
REMARK VINA RESULT:      -8.1      0.000      0.000
REMARK SMILES CC[C@](O)(C(=O)OCCOCCOCCOCCOC(=O)c1ccc(-c2c3nc(c(-c4cccc(S(=O)(=O)[O-])c4F)c4ccc([nH]4)c(-c4cccc(S(=O)(=O)[O-])c4F)c4nc(c(-c5cccc(S(=O)(=O)[O-])c5F)c5ccc2[nH]5)C=C4)C=C3)cc1)[C@@H](C)c1ccc(C)s1
REMARK SMILES IDX 14 1 13 2 12 3 11 4 10 5 9 6 8 7 7 8 5 9 6 10 3 11 2 12 1 13
REMARK SMILES IDX 85 14 86 15 87 16 88 17 92 18 89 19 90 20 91 21 4 22 15 24
REMARK SMILES IDX 16 25 17 26 18 27 19 28 20 29 21 30 22 31 23 32 84 33 24 34
REMARK SMILES IDX 83 35 25 36 26 37 27 38 77 39 28 40 82 41 76 42 78 43 29 44
REMARK SMILES IDX 81 45 75 46 74 47 30 49 62 50 42 51 61 52 43 53 46 54 60 55
REMARK SMILES IDX 79 56 44 57 45 58 59 60 80 61 47 62 31 63 32 64 40 65 33 66
REMARK SMILES IDX 35 67 41 68 34 69 36 70 37 71 38 72 39 73 63 74 64 75 72 76
REMARK SMILES IDX 65 77 67 78 73 79 66 80 68 81 69 82 70 83 71 84 48 85 49 86
REMARK SMILES IDX 57 87 50 88 52 89 58 90 51 91 53 92 54 93 55 94 56 95
REMARK H PARENT 4 23 78 48 46 59
REMARK Flexibility Score: inf
ROOT
ATOM      1  C   UNL A   1      31.405  29.217  24.390  1.00  0.00     0.188 C 
ENDROOT
BRANCH   1   2
ATOM      2  O   UNL A   1      31.484  28.724  23.058  1.00  0.00    -0.377 OA
BRANCH   2   3
ATOM      3  C   UNL A   1      31.104  27.374  22.900  1.00  0.00     0.188 C 
BRANCH   3   4
ATOM      4  C   UNL A   1      31.624  26.452  24.017  1.00  0.00     0.188 C 
BRANCH   4   5
ATOM      5  O   UNL A   1      31.944  25.098  23.746  1.00  0.00    -0.376 OA
BRANCH   5   6
ATOM      6  C   UNL A   1      31.031  24.071  24.108  1.00  0.00     0.202 C 
BRANCH   6   7
ATOM      7  C   UNL A   1      31.093  23.309  25.451  1.00  0.00     0.261 C 
BRANCH   7   8
ATOM      8  O   UNL A   1      32.302  22.607  25.782  1.00  0.00    -0.461 OA
BRANCH   8   9
ATOM      9  C   UNL A   1      32.573  21.484  25.056  1.00  0.00     0.338 C 
ATOM     10  O   UNL A   1      31.800  20.973  24.253  1.00  0.00    -0.249 OA
BRANCH   9  11
ATOM     11  C   UNL A   1      33.974  20.898  25.420  1.00  0.00     0.168 C 
BRANCH  11  12
ATOM     12  C   UNL A   1      33.705  19.372  25.338  1.00  0.00     0.044 C 
ATOM     13  C   UNL A   1      34.626  18.526  24.478  1.00  0.00     0.007 C 
ENDBRANCH  11  12
BRANCH  11  14
ATOM     14  C   UNL A   1      35.025  21.504  24.410  1.00  0.00     0.070 C 
ATOM     15  C   UNL A   1      34.605  22.786  23.654  1.00  0.00     0.017 C 
BRANCH  14  16
ATOM     16  C   UNL A   1      36.354  21.844  25.041  1.00  0.00     0.011 A 
ATOM     17  C   UNL A   1      37.460  21.039  25.237  1.00  0.00     0.016 A 
ATOM     18  S   UNL A   1      36.573  23.395  25.729  1.00  0.00    -0.145 S 
ATOM     19  C   UNL A   1      38.546  21.762  25.803  1.00  0.00     0.015 A 
ATOM     20  C   UNL A   1      38.216  23.077  26.052  1.00  0.00     0.002 A 
ATOM     21  C   UNL A   1      39.093  24.177  26.528  1.00  0.00     0.056 C 
ENDBRANCH  14  16
ENDBRANCH  11  14
BRANCH  11  22
ATOM     22  O   UNL A   1      34.394  21.172  26.763  1.00  0.00    -0.378 OA
ATOM     23  H   UNL A   1      35.362  21.140  26.811  1.00  0.00     0.212 HD
ENDBRANCH  11  22
ENDBRANCH   9  11
ENDBRANCH   8   9
ENDBRANCH   7   8
ENDBRANCH   6   7
ENDBRANCH   5   6
ENDBRANCH   4   5
ENDBRANCH   3   4
ENDBRANCH   2   3
ENDBRANCH   1   2
BRANCH   1  24
ATOM     24  C   UNL A   1      30.642  30.542  24.621  1.00  0.00     0.188 C 
BRANCH  24  25
ATOM     25  O   UNL A   1      31.046  31.266  25.779  1.00  0.00    -0.376 OA
BRANCH  25  26
ATOM     26  C   UNL A   1      31.886  30.654  26.745  1.00  0.00     0.202 C 
BRANCH  26  27
ATOM     27  C   UNL A   1      33.268  31.267  27.024  1.00  0.00     0.261 C 
BRANCH  27  28
ATOM     28  O   UNL A   1      34.106  30.570  27.955  1.00  0.00    -0.460 OA
BRANCH  28  29
ATOM     29  C   UNL A   1      34.895  29.581  27.476  1.00  0.00     0.338 C 
ATOM     30  O   UNL A   1      34.709  28.912  26.485  1.00  0.00    -0.246 OA
BRANCH  29  31
ATOM     31  C   UNL A   1      36.156  29.618  28.255  1.00  0.00     0.060 A 
ATOM     32  C   UNL A   1      37.333  30.027  27.613  1.00  0.00     0.016 A 
ATOM     33  C   UNL A   1      36.167  29.293  29.614  1.00  0.00     0.016 A 
ATOM     34  C   UNL A   1      38.532  30.080  28.319  1.00  0.00     0.010 A 
ATOM     35  C   UNL A   1      37.377  29.314  30.312  1.00  0.00     0.010 A 
ATOM     36  C   UNL A   1      38.568  29.672  29.656  1.00  0.00    -0.014 A 
BRANCH  36  37
ATOM     37  C   UNL A   1      39.875  29.394  30.295  1.00  0.00     0.031 A 
ATOM     38  C   UNL A   1      40.645  28.190  29.823  1.00  0.00     0.074 A 
ATOM     39  C   UNL A   1      40.375  30.189  31.256  1.00  0.00     0.049 A 
ATOM     40  N   UNL A   1      41.780  27.711  30.254  1.00  0.00    -0.248 NA
ATOM     41  C   UNL A   1      40.047  27.422  28.717  1.00  0.00     0.031 C 
ATOM     42  C   UNL A   1      39.732  31.393  31.779  1.00  0.00     0.029 A 
ATOM     43  N   UNL A   1      41.533  30.081  31.983  1.00  0.00    -0.354 N 
ATOM     44  C   UNL A   1      42.019  26.571  29.496  1.00  0.00     0.074 A 
ATOM     45  C   UNL A   1      40.906  26.423  28.586  1.00  0.00     0.031 C 
ATOM     46  C   UNL A   1      40.489  31.893  32.772  1.00  0.00     0.029 A 
ATOM     47  C   UNL A   1      41.651  31.028  32.972  1.00  0.00     0.049 A 
ATOM     48  H   UNL A   1      42.214  29.390  31.813  1.00  0.00     0.167 HD
ATOM     49  C   UNL A   1      43.076  25.728  29.545  1.00  0.00     0.034 A 
ATOM     50  C   UNL A   1      42.575  31.158  33.945  1.00  0.00     0.034 A 
ATOM     51  C   UNL A   1      44.182  25.882  30.446  1.00  0.00     0.049 A 
ATOM     52  C   UNL A   1      43.722  30.181  34.007  1.00  0.00     0.074 A 
ATOM     53  C   UNL A   1      45.320  25.102  30.552  1.00  0.00     0.029 A 
ATOM     54  N   UNL A   1      44.284  26.872  31.411  1.00  0.00    -0.354 N 
ATOM     55  N   UNL A   1      43.988  29.166  33.220  1.00  0.00    -0.248 NA
ATOM     56  C   UNL A   1      44.714  30.385  35.074  1.00  0.00     0.031 C 
ATOM     57  C   UNL A   1      46.091  25.597  31.608  1.00  0.00     0.029 A 
ATOM     58  C   UNL A   1      45.457  26.714  32.128  1.00  0.00     0.049 A 
ATOM     59  H   UNL A   1      43.619  27.581  31.564  1.00  0.00     0.167 HD
ATOM     60  C   UNL A   1      45.195  28.639  33.669  1.00  0.00     0.074 A 
ATOM     61  C   UNL A   1      45.616  29.457  34.786  1.00  0.00     0.031 C 
ATOM     62  C   UNL A   1      45.887  27.568  33.205  1.00  0.00     0.034 A 
BRANCH  49  63
ATOM     63  C   UNL A   1      43.084  24.564  28.589  1.00  0.00     0.023 A 
ATOM     64  C   UNL A   1      42.296  23.427  28.859  1.00  0.00     0.012 A 
ATOM     65  C   UNL A   1      43.837  24.618  27.400  1.00  0.00     0.148 A 
ATOM     66  C   UNL A   1      42.283  22.348  27.977  1.00  0.00     0.002 A 
ATOM     67  C   UNL A   1      43.780  23.560  26.502  1.00  0.00     0.091 A 
ATOM     68  F   UNL A   1      44.599  25.698  27.176  1.00  0.00    -0.205 F 
ATOM     69  C   UNL A   1      43.014  22.419  26.794  1.00  0.00     0.022 A 
BRANCH  67  70
ATOM     70  S   UNL A   1      44.622  23.590  24.917  1.00  0.00     0.127 S 
ATOM     71  O   UNL A   1      43.882  22.573  24.170  1.00  0.00    -0.237 OA
ATOM     72  O   UNL A   1      44.385  24.965  24.472  1.00  0.00    -0.237 OA
ATOM     73  O   UNL A   1      46.015  23.269  25.193  1.00  0.00    -0.744 OA
ENDBRANCH  67  70
ENDBRANCH  49  63
BRANCH  50  74
ATOM     74  C   UNL A   1      42.463  32.262  34.941  1.00  0.00     0.023 A 
ATOM     75  C   UNL A   1      43.112  33.489  34.703  1.00  0.00     0.012 A 
ATOM     76  C   UNL A   1      41.718  32.098  36.125  1.00  0.00     0.148 A 
ATOM     77  C   UNL A   1      43.053  34.519  35.644  1.00  0.00     0.002 A 
ATOM     78  C   UNL A   1      41.614  33.148  37.030  1.00  0.00     0.091 A 
ATOM     79  F   UNL A   1      41.120  30.917  36.341  1.00  0.00    -0.205 F 
ATOM     80  C   UNL A   1      42.297  34.352  36.802  1.00  0.00     0.022 A 
BRANCH  78  81
ATOM     81  S   UNL A   1      40.562  33.068  38.483  1.00  0.00     0.127 S 
ATOM     82  O   UNL A   1      40.384  34.481  38.803  1.00  0.00    -0.237 OA
ATOM     83  O   UNL A   1      39.372  32.401  37.951  1.00  0.00    -0.237 OA
ATOM     84  O   UNL A   1      41.301  32.285  39.463  1.00  0.00    -0.744 OA
ENDBRANCH  78  81
ENDBRANCH  50  74
BRANCH  62  85
ATOM     85  C   UNL A   1      47.206  27.244  33.862  1.00  0.00     0.023 A 
ATOM     86  C   UNL A   1      48.392  27.856  33.410  1.00  0.00     0.012 A 
ATOM     87  C   UNL A   1      47.253  26.390  34.982  1.00  0.00     0.148 A 
ATOM     88  C   UNL A   1      49.608  27.591  34.039  1.00  0.00     0.002 A 
ATOM     89  C   UNL A   1      48.459  26.175  35.637  1.00  0.00     0.091 A 
ATOM     90  F   UNL A   1      46.116  25.807  35.388  1.00  0.00    -0.205 F 
ATOM     91  C   UNL A   1      49.640  26.763  35.158  1.00  0.00     0.022 A 
BRANCH  89  92
ATOM     92  S   UNL A   1      48.579  25.204  37.143  1.00  0.00     0.127 S 
ATOM     93  O   UNL A   1      50.022  25.202  37.383  1.00  0.00    -0.237 OA
ATOM     94  O   UNL A   1      47.805  26.008  38.090  1.00  0.00    -0.237 OA
ATOM     95  O   UNL A   1      47.997  23.904  36.834  1.00  0.00    -0.744 OA
ENDBRANCH  89  92
ENDBRANCH  62  85
ENDBRANCH  36  37
ENDBRANCH  29  31
ENDBRANCH  28  29
ENDBRANCH  27  28
ENDBRANCH  26  27
ENDBRANCH  25  26
ENDBRANCH  24  25
ENDBRANCH   1  24
TORSDOF 27
ENDMDL
MODEL 2
REMARK VINA RESULT:      -7.8      2.414      3.099
REMARK SMILES CC[C@](O)(C(=O)OCCOCCOCCOCCOC(=O)c1ccc(-c2c3nc(c(-c4cccc(S(=O)(=O)[O-])c4F)c4ccc([nH]4)c(-c4cccc(S(=O)(=O)[O-])c4F)c4nc(c(-c5cccc(S(=O)(=O)[O-])c5F)c5ccc2[nH]5)C=C4)C=C3)cc1)[C@@H](C)c1ccc(C)s1
REMARK SMILES IDX 14 1 13 2 12 3 11 4 10 5 9 6 8 7 7 8 5 9 6 10 3 11 2 12 1 13
REMARK SMILES IDX 85 14 86 15 87 16 88 17 92 18 89 19 90 20 91 21 4 22 15 24
REMARK SMILES IDX 16 25 17 26 18 27 19 28 20 29 21 30 22 31 23 32 84 33 24 34
REMARK SMILES IDX 83 35 25 36 26 37 27 38 77 39 28 40 82 41 76 42 78 43 29 44
REMARK SMILES IDX 81 45 75 46 74 47 30 49 62 50 42 51 61 52 43 53 46 54 60 55
REMARK SMILES IDX 79 56 44 57 45 58 59 60 80 61 47 62 31 63 32 64 40 65 33 66
REMARK SMILES IDX 35 67 41 68 34 69 36 70 37 71 38 72 39 73 63 74 64 75 72 76
REMARK SMILES IDX 65 77 67 78 73 79 66 80 68 81 69 82 70 83 71 84 48 85 49 86
REMARK SMILES IDX 57 87 50 88 52 89 58 90 51 91 53 92 54 93 55 94 56 95
REMARK H PARENT 4 23 78 48 46 59
REMARK Flexibility Score: inf
ROOT
ATOM      1  C   UNL A   1      31.418  28.800  24.550  1.00  0.00     0.188 C 
ENDROOT
BRANCH   1   2
ATOM      2  O   UNL A   1      31.725  28.179  23.308  1.00  0.00    -0.377 OA
BRANCH   2   3
ATOM      3  C   UNL A   1      30.809  27.188  22.897  1.00  0.00     0.188 C 
BRANCH   3   4
ATOM      4  C   UNL A   1      31.143  25.782  23.426  1.00  0.00     0.188 C 
BRANCH   4   5
ATOM      5  O   UNL A   1      30.295  25.142  24.364  1.00  0.00    -0.376 OA
BRANCH   5   6
ATOM      6  C   UNL A   1      30.629  25.159  25.745  1.00  0.00     0.202 C 
BRANCH   6   7
ATOM      7  C   UNL A   1      31.560  24.122  26.411  1.00  0.00     0.261 C 
BRANCH   7   8
ATOM      8  O   UNL A   1      32.437  23.354  25.571  1.00  0.00    -0.461 OA
BRANCH   8   9
ATOM      9  C   UNL A   1      31.988  22.125  25.182  1.00  0.00     0.338 C 
ATOM     10  O   UNL A   1      30.931  21.624  25.548  1.00  0.00    -0.249 OA
BRANCH   9  11
ATOM     11  C   UNL A   1      33.022  21.413  24.254  1.00  0.00     0.168 C 
BRANCH  11  12
ATOM     12  C   UNL A   1      33.606  22.611  23.461  1.00  0.00     0.044 C 
ATOM     13  C   UNL A   1      33.003  22.939  22.106  1.00  0.00     0.007 C 
ENDBRANCH  11  12
BRANCH  11  14
ATOM     14  C   UNL A   1      34.015  20.601  25.176  1.00  0.00     0.070 C 
ATOM     15  C   UNL A   1      33.867  20.801  26.702  1.00  0.00     0.017 C 
BRANCH  14  16
ATOM     16  C   UNL A   1      33.955  19.106  24.972  1.00  0.00     0.011 A 
ATOM     17  C   UNL A   1      34.842  18.278  24.311  1.00  0.00     0.016 A 
ATOM     18  S   UNL A   1      32.578  18.249  25.517  1.00  0.00    -0.145 S 
ATOM     19  C   UNL A   1      34.461  16.912  24.408  1.00  0.00     0.015 A 
ATOM     20  C   UNL A   1      33.282  16.753  25.104  1.00  0.00     0.002 A 
ATOM     21  C   UNL A   1      32.614  15.493  25.517  1.00  0.00     0.056 C 
ENDBRANCH  14  16
ENDBRANCH  11  14
BRANCH  11  22
ATOM     22  O   UNL A   1      32.436  20.527  23.293  1.00  0.00    -0.378 OA
ATOM     23  H   UNL A   1      32.311  19.652  23.694  1.00  0.00     0.212 HD
ENDBRANCH  11  22
ENDBRANCH   9  11
ENDBRANCH   8   9
ENDBRANCH   7   8
ENDBRANCH   6   7
ENDBRANCH   5   6
ENDBRANCH   4   5
ENDBRANCH   3   4
ENDBRANCH   2   3
ENDBRANCH   1   2
BRANCH   1  24
ATOM     24  C   UNL A   1      30.829  30.229  24.513  1.00  0.00     0.188 C 
BRANCH  24  25
ATOM     25  O   UNL A   1      31.025  30.985  25.705  1.00  0.00    -0.376 OA
BRANCH  25  26
ATOM     26  C   UNL A   1      31.856  30.481  26.739  1.00  0.00     0.202 C 
BRANCH  26  27
ATOM     27  C   UNL A   1      33.281  31.040  26.887  1.00  0.00     0.261 C 
BRANCH  27  28
ATOM     28  O   UNL A   1      34.126  30.401  27.852  1.00  0.00    -0.460 OA
BRANCH  28  29
ATOM     29  C   UNL A   1      34.904  29.378  27.431  1.00  0.00     0.338 C 
ATOM     30  O   UNL A   1      34.680  28.618  26.516  1.00  0.00    -0.246 OA
BRANCH  29  31
ATOM     31  C   UNL A   1      36.198  29.496  28.142  1.00  0.00     0.060 A 
ATOM     32  C   UNL A   1      37.352  29.787  27.401  1.00  0.00     0.016 A 
ATOM     33  C   UNL A   1      36.266  29.362  29.532  1.00  0.00     0.016 A 
ATOM     34  C   UNL A   1      38.581  29.912  28.041  1.00  0.00     0.010 A 
ATOM     35  C   UNL A   1      37.505  29.454  30.168  1.00  0.00     0.010 A 
ATOM     36  C   UNL A   1      38.671  29.693  29.420  1.00  0.00    -0.014 A 
BRANCH  36  37
ATOM     37  C   UNL A   1      40.001  29.479  30.035  1.00  0.00     0.031 A 
ATOM     38  C   UNL A   1      40.772  28.251  29.632  1.00  0.00     0.074 A 
ATOM     39  C   UNL A   1      40.520  30.351  30.917  1.00  0.00     0.049 A 
ATOM     40  N   UNL A   1      41.927  27.819  30.061  1.00  0.00    -0.248 NA
ATOM     41  C   UNL A   1      40.151  27.395  28.607  1.00  0.00     0.031 C 
ATOM     42  C   UNL A   1      39.877  31.583  31.367  1.00  0.00     0.029 A 
ATOM     43  N   UNL A   1      41.701  30.311  31.613  1.00  0.00    -0.354 N 
ATOM     44  C   UNL A   1      42.157  26.627  29.384  1.00  0.00     0.074 A 
ATOM     45  C   UNL A   1      41.018  26.398  28.524  1.00  0.00     0.031 C 
ATOM     46  C   UNL A   1      40.658  32.166  32.295  1.00  0.00     0.029 A 
ATOM     47  C   UNL A   1      41.838  31.331  32.522  1.00  0.00     0.049 A 
ATOM     48  H   UNL A   1      42.386  29.616  31.473  1.00  0.00     0.167 HD
ATOM     49  C   UNL A   1      43.227  25.803  29.462  1.00  0.00     0.034 A 
ATOM     50  C   UNL A   1      42.789  31.546  33.453  1.00  0.00     0.034 A 
ATOM     51  C   UNL A   1      44.358  26.037  30.314  1.00  0.00     0.049 A 
ATOM     52  C   UNL A   1      43.951  30.589  33.552  1.00  0.00     0.074 A 
ATOM     53  C   UNL A   1      45.509  25.280  30.441  1.00  0.00     0.029 A 
ATOM     54  N   UNL A   1      44.476  27.099  31.197  1.00  0.00    -0.354 N 
ATOM     55  N   UNL A   1      44.206  29.520  32.835  1.00  0.00    -0.248 NA
ATOM     56  C   UNL A   1      44.973  30.885  34.567  1.00  0.00     0.031 C 
ATOM     57  C   UNL A   1      46.306  25.863  31.432  1.00  0.00     0.029 A 
ATOM     58  C   UNL A   1      45.674  27.009  31.886  1.00  0.00     0.049 A 
ATOM     59  H   UNL A   1      43.808  27.810  31.317  1.00  0.00     0.167 HD
ATOM     60  C   UNL A   1      45.433  29.042  33.284  1.00  0.00     0.074 A 
ATOM     61  C   UNL A   1      45.878  29.948  34.322  1.00  0.00     0.031 C 
ATOM     62  C   UNL A   1      46.126  27.947  32.881  1.00  0.00     0.034 A 
BRANCH  49  63
ATOM     63  C   UNL A   1      43.221  24.569  28.598  1.00  0.00     0.023 A 
ATOM     64  C   UNL A   1      42.477  23.439  28.991  1.00  0.00     0.012 A 
ATOM     65  C   UNL A   1      43.915  24.550  27.372  1.00  0.00     0.148 A 
ATOM     66  C   UNL A   1      42.451  22.295  28.195  1.00  0.00     0.002 A 
ATOM     67  C   UNL A   1      43.844  23.425  26.561  1.00  0.00     0.091 A 
ATOM     68  F   UNL A   1      44.637  25.626  27.030  1.00  0.00    -0.205 F 
ATOM     69  C   UNL A   1      43.123  22.292  26.975  1.00  0.00     0.022 A 
BRANCH  67  70
ATOM     70  S   UNL A   1      44.609  23.353  24.938  1.00  0.00     0.127 S 
ATOM     71  O   UNL A   1      43.775  22.360  24.263  1.00  0.00    -0.237 OA
ATOM     72  O   UNL A   1      44.434  24.724  24.458  1.00  0.00    -0.237 OA
ATOM     73  O   UNL A   1      45.992  22.956  25.161  1.00  0.00    -0.744 OA
ENDBRANCH  67  70
ENDBRANCH  49  63
BRANCH  50  74
ATOM     74  C   UNL A   1      42.694  32.721  34.365  1.00  0.00     0.023 A 
ATOM     75  C   UNL A   1      42.082  32.581  35.627  1.00  0.00     0.012 A 
ATOM     76  C   UNL A   1      43.204  33.977  33.986  1.00  0.00     0.148 A 
ATOM     77  C   UNL A   1      41.947  33.681  36.477  1.00  0.00     0.002 A 
ATOM     78  C   UNL A   1      43.120  35.054  34.861  1.00  0.00     0.091 A 
ATOM     79  F   UNL A   1      43.769  34.094  32.775  1.00  0.00    -0.205 F 
ATOM     80  C   UNL A   1      42.473  34.913  36.098  1.00  0.00     0.022 A 
BRANCH  78  81
ATOM     81  S   UNL A   1      43.879  36.643  34.512  1.00  0.00     0.127 S 
ATOM     82  O   UNL A   1      45.289  36.281  34.388  1.00  0.00    -0.237 OA
ATOM     83  O   UNL A   1      43.225  37.015  33.256  1.00  0.00    -0.237 OA
ATOM     84  O   UNL A   1      43.544  37.499  35.641  1.00  0.00    -0.744 OA
ENDBRANCH  78  81
ENDBRANCH  50  74
BRANCH  62  85
ATOM     85  C   UNL A   1      47.469  27.689  33.517  1.00  0.00     0.023 A 
ATOM     86  C   UNL A   1      47.573  26.827  34.626  1.00  0.00     0.012 A 
ATOM     87  C   UNL A   1      48.639  28.244  32.960  1.00  0.00     0.148 A 
ATOM     88  C   UNL A   1      48.817  26.552  35.194  1.00  0.00     0.002 A 
ATOM     89  C   UNL A   1      49.879  27.922  33.497  1.00  0.00     0.091 A 
ATOM     90  F   UNL A   1      48.516  29.073  31.914  1.00  0.00    -0.205 F 
ATOM     91  C   UNL A   1      49.969  27.089  34.624  1.00  0.00     0.022 A 
BRANCH  89  92
ATOM     92  S   UNL A   1      51.421  28.485  32.768  1.00  0.00     0.127 S 
ATOM     93  O   UNL A   1      51.336  29.931  32.970  1.00  0.00    -0.237 OA
ATOM     94  O   UNL A   1      52.418  27.811  33.600  1.00  0.00    -0.237 OA
ATOM     95  O   UNL A   1      51.395  28.047  31.379  1.00  0.00    -0.744 OA
ENDBRANCH  89  92
ENDBRANCH  62  85
ENDBRANCH  36  37
ENDBRANCH  29  31
ENDBRANCH  28  29
ENDBRANCH  27  28
ENDBRANCH  26  27
ENDBRANCH  25  26
ENDBRANCH  24  25
ENDBRANCH   1  24
TORSDOF 27
ENDMDL
MODEL 3
REMARK VINA RESULT:      -7.3      8.052     10.911
REMARK SMILES CC[C@](O)(C(=O)OCCOCCOCCOCCOC(=O)c1ccc(-c2c3nc(c(-c4cccc(S(=O)(=O)[O-])c4F)c4ccc([nH]4)c(-c4cccc(S(=O)(=O)[O-])c4F)c4nc(c(-c5cccc(S(=O)(=O)[O-])c5F)c5ccc2[nH]5)C=C4)C=C3)cc1)[C@@H](C)c1ccc(C)s1
REMARK SMILES IDX 14 1 13 2 12 3 11 4 10 5 9 6 8 7 7 8 5 9 6 10 3 11 2 12 1 13
REMARK SMILES IDX 85 14 86 15 87 16 88 17 92 18 89 19 90 20 91 21 4 22 15 24
REMARK SMILES IDX 16 25 17 26 18 27 19 28 20 29 21 30 22 31 23 32 84 33 24 34
REMARK SMILES IDX 83 35 25 36 26 37 27 38 77 39 28 40 82 41 76 42 78 43 29 44
REMARK SMILES IDX 81 45 75 46 74 47 30 49 62 50 42 51 61 52 43 53 46 54 60 55
REMARK SMILES IDX 79 56 44 57 45 58 59 60 80 61 47 62 31 63 32 64 40 65 33 66
REMARK SMILES IDX 35 67 41 68 34 69 36 70 37 71 38 72 39 73 63 74 64 75 72 76
REMARK SMILES IDX 65 77 67 78 73 79 66 80 68 81 69 82 70 83 71 84 48 85 49 86
REMARK SMILES IDX 57 87 50 88 52 89 58 90 51 91 53 92 54 93 55 94 56 95
REMARK H PARENT 4 23 78 48 46 59
REMARK Flexibility Score: inf
ROOT
ATOM      1  C   UNL A   1      42.361  19.230  25.747  1.00  0.00     0.188 C 
ENDROOT
BRANCH   1   2
ATOM      2  O   UNL A   1      41.253  19.281  26.638  1.00  0.00    -0.377 OA
BRANCH   2   3
ATOM      3  C   UNL A   1      41.081  20.513  27.303  1.00  0.00     0.188 C 
BRANCH   3   4
ATOM      4  C   UNL A   1      40.090  21.459  26.603  1.00  0.00     0.188 C 
BRANCH   4   5
ATOM      5  O   UNL A   1      39.630  22.633  27.250  1.00  0.00    -0.376 OA
BRANCH   5   6
ATOM      6  C   UNL A   1      39.226  23.754  26.477  1.00  0.00     0.202 C 
BRANCH   6   7
ATOM      7  C   UNL A   1      37.761  24.027  26.069  1.00  0.00     0.261 C 
BRANCH   7   8
ATOM      8  O   UNL A   1      36.877  22.905  25.911  1.00  0.00    -0.461 OA
BRANCH   8   9
ATOM      9  C   UNL A   1      36.336  22.724  24.671  1.00  0.00     0.338 C 
ATOM     10  O   UNL A   1      36.988  22.565  23.645  1.00  0.00    -0.249 OA
BRANCH   9  11
ATOM     11  C   UNL A   1      34.777  22.804  24.717  1.00  0.00     0.168 C 
BRANCH  11  12
ATOM     12  C   UNL A   1      34.408  22.551  23.231  1.00  0.00     0.044 C 
ATOM     13  C   UNL A   1      33.041  22.998  22.744  1.00  0.00     0.007 C 
ENDBRANCH  11  12
BRANCH  11  14
ATOM     14  C   UNL A   1      34.273  21.748  25.778  1.00  0.00     0.070 C 
ATOM     15  C   UNL A   1      33.141  22.203  26.727  1.00  0.00     0.017 C 
BRANCH  14  16
ATOM     16  C   UNL A   1      33.775  20.459  25.168  1.00  0.00     0.011 A 
ATOM     17  C   UNL A   1      32.478  20.051  24.927  1.00  0.00     0.016 A 
ATOM     18  S   UNL A   1      34.904  19.232  24.786  1.00  0.00    -0.145 S 
ATOM     19  C   UNL A   1      32.434  18.793  24.266  1.00  0.00     0.015 A 
ATOM     20  C   UNL A   1      33.694  18.272  24.065  1.00  0.00     0.002 A 
ATOM     21  C   UNL A   1      34.080  17.047  23.320  1.00  0.00     0.056 C 
ENDBRANCH  14  16
ENDBRANCH  11  14
BRANCH  11  22
ATOM     22  O   UNL A   1      34.264  24.098  25.055  1.00  0.00    -0.378 OA
ATOM     23  H   UNL A   1      34.953  24.610  25.509  1.00  0.00     0.212 HD
ENDBRANCH  11  22
ENDBRANCH   9  11
ENDBRANCH   8   9
ENDBRANCH   7   8
ENDBRANCH   6   7
ENDBRANCH   5   6
ENDBRANCH   4   5
ENDBRANCH   3   4
ENDBRANCH   2   3
ENDBRANCH   1   2
BRANCH   1  24
ATOM     24  C   UNL A   1      43.486  18.216  26.056  1.00  0.00     0.188 C 
BRANCH  24  25
ATOM     25  O   UNL A   1      44.638  18.335  25.226  1.00  0.00    -0.376 OA
BRANCH  25  26
ATOM     26  C   UNL A   1      44.852  19.515  24.469  1.00  0.00     0.202 C 
BRANCH  26  27
ATOM     27  C   UNL A   1      46.158  20.302  24.670  1.00  0.00     0.261 C 
BRANCH  27  28
ATOM     28  O   UNL A   1      46.213  21.182  25.799  1.00  0.00    -0.460 OA
BRANCH  28  29
ATOM     29  C   UNL A   1      45.349  22.223  25.831  1.00  0.00     0.338 C 
ATOM     30  O   UNL A   1      44.157  22.178  26.036  1.00  0.00    -0.246 OA
BRANCH  29  31
ATOM     31  C   UNL A   1      46.163  23.461  25.801  1.00  0.00     0.060 A 
ATOM     32  C   UNL A   1      46.560  24.037  27.015  1.00  0.00     0.016 A 
ATOM     33  C   UNL A   1      46.564  24.024  24.586  1.00  0.00     0.016 A 
ATOM     34  C   UNL A   1      47.331  25.196  27.020  1.00  0.00     0.010 A 
ATOM     35  C   UNL A   1      47.310  25.205  24.593  1.00  0.00     0.010 A 
ATOM     36  C   UNL A   1      47.663  25.814  25.810  1.00  0.00    -0.014 A 
BRANCH  36  37
ATOM     37  C   UNL A   1      48.168  27.206  25.821  1.00  0.00     0.031 A 
ATOM     38  C   UNL A   1      49.499  27.475  25.172  1.00  0.00     0.074 A 
ATOM     39  C   UNL A   1      47.466  28.208  26.377  1.00  0.00     0.049 A 
ATOM     40  N   UNL A   1      50.173  28.590  25.094  1.00  0.00    -0.248 NA
ATOM     41  C   UNL A   1      50.159  26.326  24.528  1.00  0.00     0.031 C 
ATOM     42  C   UNL A   1      46.157  28.073  27.014  1.00  0.00     0.029 A 
ATOM     43  N   UNL A   1      47.775  29.537  26.517  1.00  0.00    -0.354 N 
ATOM     44  C   UNL A   1      51.347  28.273  24.422  1.00  0.00     0.074 A 
ATOM     45  C   UNL A   1      51.300  26.860  24.124  1.00  0.00     0.031 C 
ATOM     46  C   UNL A   1      45.792  29.268  27.512  1.00  0.00     0.029 A 
ATOM     47  C   UNL A   1      46.854  30.241  27.253  1.00  0.00     0.049 A 
ATOM     48  H   UNL A   1      48.582  29.947  26.127  1.00  0.00     0.167 HD
ATOM     49  C   UNL A   1      52.369  29.088  24.074  1.00  0.00     0.034 A 
ATOM     50  C   UNL A   1      46.882  31.514  27.695  1.00  0.00     0.034 A 
ATOM     51  C   UNL A   1      52.409  30.493  24.367  1.00  0.00     0.049 A 
ATOM     52  C   UNL A   1      48.053  32.393  27.331  1.00  0.00     0.074 A 
ATOM     53  C   UNL A   1      53.384  31.414  24.028  1.00  0.00     0.029 A 
ATOM     54  N   UNL A   1      51.442  31.179  25.086  1.00  0.00    -0.354 N 
ATOM     55  N   UNL A   1      49.110  32.106  26.608  1.00  0.00    -0.248 NA
ATOM     56  C   UNL A   1      48.021  33.780  27.817  1.00  0.00     0.031 C 
ATOM     57  C   UNL A   1      53.025  32.650  24.576  1.00  0.00     0.029 A 
ATOM     58  C   UNL A   1      51.804  32.508  25.215  1.00  0.00     0.049 A 
ATOM     59  H   UNL A   1      50.621  30.778  25.451  1.00  0.00     0.167 HD
ATOM     60  C   UNL A   1      49.844  33.285  26.519  1.00  0.00     0.074 A 
ATOM     61  C   UNL A   1      49.103  34.293  27.246  1.00  0.00     0.031 C 
ATOM     62  C   UNL A   1      51.029  33.511  25.900  1.00  0.00     0.034 A 
BRANCH  49  63
ATOM     63  C   UNL A   1      53.528  28.476  23.331  1.00  0.00     0.023 A 
ATOM     64  C   UNL A   1      53.527  28.456  21.921  1.00  0.00     0.012 A 
ATOM     65  C   UNL A   1      54.637  27.964  24.030  1.00  0.00     0.148 A 
ATOM     66  C   UNL A   1      54.599  27.905  21.220  1.00  0.00     0.002 A 
ATOM     67  C   UNL A   1      55.723  27.462  23.324  1.00  0.00     0.091 A 
ATOM     68  F   UNL A   1      54.605  27.969  25.370  1.00  0.00    -0.205 F 
ATOM     69  C   UNL A   1      55.700  27.420  21.920  1.00  0.00     0.022 A 
BRANCH  67  70
ATOM     70  S   UNL A   1      57.220  26.887  24.131  1.00  0.00     0.127 S 
ATOM     71  O   UNL A   1      57.842  26.097  23.070  1.00  0.00    -0.237 OA
ATOM     72  O   UNL A   1      57.904  28.145  24.435  1.00  0.00    -0.237 OA
ATOM     73  O   UNL A   1      56.786  26.131  25.297  1.00  0.00    -0.744 OA
ENDBRANCH  67  70
ENDBRANCH  49  63
BRANCH  50  74
ATOM     74  C   UNL A   1      45.764  32.045  28.525  1.00  0.00     0.023 A 
ATOM     75  C   UNL A   1      44.690  32.716  27.908  1.00  0.00     0.012 A 
ATOM     76  C   UNL A   1      45.763  31.890  29.924  1.00  0.00     0.148 A 
ATOM     77  C   UNL A   1      43.655  33.256  28.674  1.00  0.00     0.002 A 
ATOM     78  C   UNL A   1      44.700  32.377  30.676  1.00  0.00     0.091 A 
ATOM     79  F   UNL A   1      46.801  31.262  30.495  1.00  0.00    -0.205 F 
ATOM     80  C   UNL A   1      43.655  33.079  30.055  1.00  0.00     0.022 A 
BRANCH  78  81
ATOM     81  S   UNL A   1      44.553  32.086  32.441  1.00  0.00     0.127 S 
ATOM     82  O   UNL A   1      45.668  32.869  32.968  1.00  0.00    -0.237 OA
ATOM     83  O   UNL A   1      43.226  32.635  32.724  1.00  0.00    -0.237 OA
ATOM     84  O   UNL A   1      44.656  30.644  32.615  1.00  0.00    -0.744 OA
ENDBRANCH  78  81
ENDBRANCH  50  74
BRANCH  62  85
ATOM     85  C   UNL A   1      51.582  34.915  25.926  1.00  0.00     0.023 A 
ATOM     86  C   UNL A   1      51.238  35.831  24.912  1.00  0.00     0.012 A 
ATOM     87  C   UNL A   1      52.381  35.346  27.004  1.00  0.00     0.148 A 
ATOM     88  C   UNL A   1      51.712  37.141  24.952  1.00  0.00     0.002 A 
ATOM     89  C   UNL A   1      52.803  36.667  27.065  1.00  0.00     0.091 A 
ATOM     90  F   UNL A   1      52.708  34.455  27.951  1.00  0.00    -0.205 F 
ATOM     91  C   UNL A   1      52.483  37.563  26.032  1.00  0.00     0.022 A 
BRANCH  89  92
ATOM     92  S   UNL A   1      53.715  37.324  28.466  1.00  0.00     0.127 S 
ATOM     93  O   UNL A   1      55.032  37.566  27.878  1.00  0.00    -0.237 OA
ATOM     94  O   UNL A   1      52.958  38.535  28.786  1.00  0.00    -0.237 OA
ATOM     95  O   UNL A   1      53.672  36.294  29.496  1.00  0.00    -0.744 OA
ENDBRANCH  89  92
ENDBRANCH  62  85
ENDBRANCH  36  37
ENDBRANCH  29  31
ENDBRANCH  28  29
ENDBRANCH  27  28
ENDBRANCH  26  27
ENDBRANCH  25  26
ENDBRANCH  24  25
ENDBRANCH   1  24
TORSDOF 27
ENDMDL
