MODEL 1
REMARK VINA RESULT:     -10.9      0.000      0.000
REMARK SMILES O=C(OCCOCCOCCOCCOC(=O)c1ccc(-c2c3nc(c(-c4cccc(S(=O)(=O)[O-])c4F)c4ccc([nH]4)c(-c4cccc(S(=O)(=O)[O-])c4F)c4nc(c(-c5cccc(S(=O)(=O)[O-])c5F)c5ccc2[nH]5)C=C4)C=C3)cc1)C1=Cc2cc(S(F)(F)(F)(F)F)cc(Br)c2O[C@H]1C(F)(F)F
REMARK SMILES IDX 10 1 9 2 8 3 7 4 6 5 5 6 4 7 3 8 2 9 1 10 81 11 82 12 97 13
REMARK SMILES IDX 83 14 96 15 84 16 95 17 85 18 93 19 92 20 94 21 98 22 99 23
REMARK SMILES IDX 100 24 101 25 86 26 87 27 88 28 89 29 90 30 91 31 11 32
REMARK SMILES IDX 12 33 13 34 14 35 15 36 16 37 17 38 18 39 19 40 80 41 20 42
REMARK SMILES IDX 79 43 21 44 22 45 23 46 73 47 24 48 78 49 72 50 74 51 25 52
REMARK SMILES IDX 77 53 71 54 70 55 26 57 58 58 38 59 57 60 39 61 42 62 56 63
REMARK SMILES IDX 75 64 40 65 41 66 55 68 76 69 43 70 27 71 28 72 36 73 29 74
REMARK SMILES IDX 31 75 37 76 30 77 32 78 33 79 34 80 35 81 59 82 60 83 68 84
REMARK SMILES IDX 61 85 63 86 69 87 62 88 64 89 65 90 66 91 67 92 44 93 45 94
REMARK SMILES IDX 53 95 46 96 48 97 54 98 47 99 49 100 50 101 51 102 52 103
REMARK H PARENT 74 56 42 67
REMARK Flexibility Score: inf
ROOT
ATOM      1  C   UNL A   1      33.530  20.718  26.731  1.00  0.00     0.188 C 
ENDROOT
BRANCH   1   2
ATOM      2  O   UNL A   1      34.428  21.810  26.865  1.00  0.00    -0.377 OA
BRANCH   2   3
ATOM      3  C   UNL A   1      33.700  22.983  27.196  1.00  0.00     0.188 C 
BRANCH   3   4
ATOM      4  C   UNL A   1      32.216  22.660  27.253  1.00  0.00     0.188 C 
BRANCH   4   5
ATOM      5  O   UNL A   1      31.470  23.867  27.302  1.00  0.00    -0.376 OA
BRANCH   5   6
ATOM      6  C   UNL A   1      30.375  23.785  26.402  1.00  0.00     0.202 C 
BRANCH   6   7
ATOM      7  C   UNL A   1      30.740  24.470  25.095  1.00  0.00     0.261 C 
BRANCH   7   8
ATOM      8  O   UNL A   1      31.487  25.647  25.370  1.00  0.00    -0.460 OA
BRANCH   8   9
ATOM      9  C   UNL A   1      32.715  25.882  24.697  1.00  0.00     0.338 C 
ATOM     10  O   UNL A   1      33.783  26.049  25.365  1.00  0.00    -0.246 OA
BRANCH   9  11
ATOM     11  C   UNL A   1      32.753  25.933  23.179  1.00  0.00     0.087 C 
ATOM     12  C   UNL A   1      32.152  26.958  22.518  1.00  0.00     0.027 C 
ATOM     13  C   UNL A   1      33.462  24.838  22.399  1.00  0.00     0.316 C 
ATOM     14  C   UNL A   1      31.442  28.053  23.298  1.00  0.00     0.020 A 
ATOM     15  O   UNL A   1      33.229  27.997  24.865  1.00  0.00    -0.474 OA
ATOM     16  C   UNL A   1      30.199  28.494  22.876  1.00  0.00     0.036 A 
ATOM     17  C   UNL A   1      32.033  28.578  24.364  1.00  0.00     0.142 A 
ATOM     18  C   UNL A   1      29.782  29.703  23.482  1.00  0.00     0.109 A 
ATOM     19  C   UNL A   1      31.497  29.678  24.991  1.00  0.00     0.062 A 
ATOM     20  C   UNL A   1      30.301  30.203  24.588  1.00  0.00     0.044 A 
ATOM     21  Br  UNL A   1      32.464  30.507  26.480  1.00  0.00    -0.047 Br
BRANCH  13  22
ATOM     22  C   UNL A   1      34.043  23.821  23.368  1.00  0.00     0.430 C 
ATOM     23  F   UNL A   1      34.937  24.417  24.153  1.00  0.00    -0.167 F 
ATOM     24  F   UNL A   1      33.067  23.311  24.113  1.00  0.00    -0.167 F 
ATOM     25  F   UNL A   1      34.635  22.844  22.684  1.00  0.00    -0.167 F 
ENDBRANCH  13  22
BRANCH  18  26
ATOM     26  S   UNL A   1      28.445  30.627  22.685  1.00  0.00     0.310 S 
ATOM     27  F   UNL A   1      28.381  31.677  23.872  1.00  0.00    -0.094 F 
ATOM     28  F   UNL A   1      27.404  29.759  23.487  1.00  0.00    -0.094 F 
ATOM     29  F   UNL A   1      27.299  31.422  22.000  1.00  0.00    -0.094 F 
ATOM     30  F   UNL A   1      29.504  31.578  21.997  1.00  0.00    -0.094 F 
ATOM     31  F   UNL A   1      29.620  29.905  23.458  1.00  0.00    -0.094 F 
ENDBRANCH  18  26
ENDBRANCH   9  11
ENDBRANCH   8   9
ENDBRANCH   7   8
ENDBRANCH   6   7
ENDBRANCH   5   6
ENDBRANCH   4   5
ENDBRANCH   3   4
ENDBRANCH   2   3
ENDBRANCH   1   2
BRANCH   1  32
ATOM     32  C   UNL A   1      33.727  20.063  25.373  1.00  0.00     0.188 C 
BRANCH  32  33
ATOM     33  O   UNL A   1      34.932  20.536  24.791  1.00  0.00    -0.376 OA
BRANCH  33  34
ATOM     34  C   UNL A   1      35.957  19.569  24.970  1.00  0.00     0.202 C 
BRANCH  34  35
ATOM     35  C   UNL A   1      37.303  20.190  24.632  1.00  0.00     0.261 C 
BRANCH  35  36
ATOM     36  O   UNL A   1      37.695  21.066  25.676  1.00  0.00    -0.460 OA
BRANCH  36  37
ATOM     37  C   UNL A   1      39.043  21.082  26.122  1.00  0.00     0.338 C 
ATOM     38  O   UNL A   1      39.710  20.000  26.166  1.00  0.00    -0.246 OA
BRANCH  37  39
ATOM     39  C   UNL A   1      39.690  22.390  26.547  1.00  0.00     0.060 A 
ATOM     40  C   UNL A   1      39.185  23.587  26.065  1.00  0.00     0.016 A 
ATOM     41  C   UNL A   1      40.741  22.362  27.357  1.00  0.00     0.016 A 
ATOM     42  C   UNL A   1      40.044  24.693  26.268  1.00  0.00     0.010 A 
ATOM     43  C   UNL A   1      41.454  23.507  27.618  1.00  0.00     0.010 A 
ATOM     44  C   UNL A   1      41.047  24.716  27.126  1.00  0.00    -0.014 A 
BRANCH  44  45
ATOM     45  C   UNL A   1      41.712  26.017  27.545  1.00  0.00     0.031 A 
ATOM     46  C   UNL A   1      43.051  26.209  27.195  1.00  0.00     0.074 A 
ATOM     47  C   UNL A   1      40.952  26.944  28.236  1.00  0.00     0.049 A 
ATOM     48  N   UNL A   1      43.802  27.288  27.418  1.00  0.00    -0.248 NA
ATOM     49  C   UNL A   1      43.870  25.212  26.491  1.00  0.00     0.031 C 
ATOM     50  C   UNL A   1      39.600  26.761  28.586  1.00  0.00     0.029 A 
ATOM     51  N   UNL A   1      41.344  28.180  28.702  1.00  0.00    -0.354 N 
ATOM     52  C   UNL A   1      45.027  27.107  26.919  1.00  0.00     0.074 A 
ATOM     53  C   UNL A   1      45.090  25.767  26.321  1.00  0.00     0.031 C 
ATOM     54  C   UNL A   1      39.187  27.864  29.262  1.00  0.00     0.029 A 
ATOM     55  C   UNL A   1      40.273  28.757  29.347  1.00  0.00     0.049 A 
ATOM     56  H   UNL A   1      42.236  28.582  28.593  1.00  0.00     0.167 HD
ATOM     57  C   UNL A   1      46.093  28.009  26.937  1.00  0.00     0.034 A 
ATOM     58  C   UNL A   1      40.225  29.988  29.980  1.00  0.00     0.034 A 
ATOM     59  C   UNL A   1      46.033  29.258  27.533  1.00  0.00     0.049 A 
ATOM     60  C   UNL A   1      41.310  30.866  30.049  1.00  0.00     0.074 A 
ATOM     61  C   UNL A   1      47.095  30.181  27.554  1.00  0.00     0.029 A 
ATOM     62  N   UNL A   1      44.969  29.824  28.199  1.00  0.00    -0.354 N 
ATOM     63  N   UNL A   1      42.521  30.702  29.516  1.00  0.00    -0.248 NA
ATOM     64  C   UNL A   1      41.281  32.159  30.744  1.00  0.00     0.031 C 
ATOM     65  C   UNL A   1      46.682  31.286  28.232  1.00  0.00     0.029 A 
ATOM     66  C   UNL A   1      45.353  31.069  28.645  1.00  0.00     0.049 A 
ATOM     67  H   UNL A   1      44.085  29.411  28.334  1.00  0.00     0.167 HD
ATOM     68  C   UNL A   1      43.286  31.764  29.776  1.00  0.00     0.074 A 
ATOM     69  C   UNL A   1      42.502  32.714  30.577  1.00  0.00     0.031 C 
ATOM     70  C   UNL A   1      44.606  31.981  29.375  1.00  0.00     0.034 A 
BRANCH  57  71
ATOM     71  C   UNL A   1      47.393  27.596  26.267  1.00  0.00     0.023 A 
ATOM     72  C   UNL A   1      47.625  27.922  24.940  1.00  0.00     0.012 A 
ATOM     73  C   UNL A   1      48.296  26.937  26.982  1.00  0.00     0.148 A 
ATOM     74  C   UNL A   1      48.733  27.251  24.370  1.00  0.00     0.002 A 
ATOM     75  C   UNL A   1      49.424  26.425  26.386  1.00  0.00     0.091 A 
ATOM     76  F   UNL A   1      48.109  26.771  28.289  1.00  0.00    -0.205 F 
ATOM     77  C   UNL A   1      49.688  26.658  25.065  1.00  0.00     0.022 A 
BRANCH  75  78
ATOM     78  S   UNL A   1      50.576  25.428  27.363  1.00  0.00     0.127 S 
ATOM     79  O   UNL A   1      49.826  24.256  27.998  1.00  0.00    -0.237 OA
ATOM     80  O   UNL A   1      51.685  24.893  26.455  1.00  0.00    -0.237 OA
ATOM     81  O   UNL A   1      51.265  26.397  28.593  1.00  0.00    -0.744 OA
ENDBRANCH  75  78
ENDBRANCH  57  71
BRANCH  58  82
ATOM     82  C   UNL A   1      38.921  30.408  30.636  1.00  0.00     0.023 A 
ATOM     83  C   UNL A   1      38.604  29.973  31.912  1.00  0.00     0.012 A 
ATOM     84  C   UNL A   1      38.102  31.204  29.957  1.00  0.00     0.148 A 
ATOM     85  C   UNL A   1      37.256  30.200  32.278  1.00  0.00     0.002 A 
ATOM     86  C   UNL A   1      36.848  31.493  30.440  1.00  0.00     0.091 A 
ATOM     87  F   UNL A   1      38.499  31.726  28.800  1.00  0.00    -0.205 F 
ATOM     88  C   UNL A   1      36.447  31.046  31.668  1.00  0.00     0.022 A 
BRANCH  86  89
ATOM     89  S   UNL A   1      35.711  32.480  29.435  1.00  0.00     0.127 S 
ATOM     90  O   UNL A   1      36.329  33.856  29.168  1.00  0.00    -0.237 OA
ATOM     91  O   UNL A   1      35.458  31.768  28.104  1.00  0.00    -0.237 OA
ATOM     92  O   UNL A   1      34.232  32.672  30.270  1.00  0.00    -0.744 OA
ENDBRANCH  86  89
ENDBRANCH  58  82
BRANCH  70  93
ATOM     93  C   UNL A   1      45.262  33.296  29.762  1.00  0.00     0.023 A 
ATOM     94  C   UNL A   1      45.973  33.379  30.946  1.00  0.00     0.012 A 
ATOM     95  C   UNL A   1      45.128  34.349  28.962  1.00  0.00     0.148 A 
ATOM     96  C   UNL A   1      46.267  34.705  31.348  1.00  0.00     0.002 A 
ATOM     97  C   UNL A   1      45.560  35.590  29.362  1.00  0.00     0.091 A 
ATOM     98  F   UNL A   1      44.570  34.200  27.764  1.00  0.00    -0.205 F 
ATOM     99  C   UNL A   1      46.219  35.756  30.550  1.00  0.00     0.022 A 
BRANCH  97 100
ATOM    100  S   UNL A   1      45.253  37.026  28.304  1.00  0.00     0.127 S 
ATOM    101  O   UNL A   1      43.748  37.171  28.067  1.00  0.00    -0.237 OA
ATOM    102  O   UNL A   1      45.787  38.286  28.987  1.00  0.00    -0.237 OA
ATOM    103  O   UNL A   1      46.049  36.809  26.805  1.00  0.00    -0.744 OA
ENDBRANCH  97 100
ENDBRANCH  70  93
ENDBRANCH  44  45
ENDBRANCH  37  39
ENDBRANCH  36  37
ENDBRANCH  35  36
ENDBRANCH  34  35
ENDBRANCH  33  34
ENDBRANCH  32  33
ENDBRANCH   1  32
TORSDOF 25
ENDMDL
MODEL 2
REMARK VINA RESULT:     -10.8      0.477      7.214
REMARK SMILES O=C(OCCOCCOCCOCCOC(=O)c1ccc(-c2c3nc(c(-c4cccc(S(=O)(=O)[O-])c4F)c4ccc([nH]4)c(-c4cccc(S(=O)(=O)[O-])c4F)c4nc(c(-c5cccc(S(=O)(=O)[O-])c5F)c5ccc2[nH]5)C=C4)C=C3)cc1)C1=Cc2cc(S(F)(F)(F)(F)F)cc(Br)c2O[C@H]1C(F)(F)F
REMARK SMILES IDX 10 1 9 2 8 3 7 4 6 5 5 6 4 7 3 8 2 9 1 10 81 11 82 12 97 13
REMARK SMILES IDX 83 14 96 15 84 16 95 17 85 18 93 19 92 20 94 21 98 22 99 23
REMARK SMILES IDX 100 24 101 25 86 26 87 27 88 28 89 29 90 30 91 31 11 32
REMARK SMILES IDX 12 33 13 34 14 35 15 36 16 37 17 38 18 39 19 40 80 41 20 42
REMARK SMILES IDX 79 43 21 44 22 45 23 46 73 47 24 48 78 49 72 50 74 51 25 52
REMARK SMILES IDX 77 53 71 54 70 55 26 57 58 58 38 59 57 60 39 61 42 62 56 63
REMARK SMILES IDX 75 64 40 65 41 66 55 68 76 69 43 70 27 71 28 72 36 73 29 74
REMARK SMILES IDX 31 75 37 76 30 77 32 78 33 79 34 80 35 81 59 82 60 83 68 84
REMARK SMILES IDX 61 85 63 86 69 87 62 88 64 89 65 90 66 91 67 92 44 93 45 94
REMARK SMILES IDX 53 95 46 96 48 97 54 98 47 99 49 100 50 101 51 102 52 103
REMARK H PARENT 74 56 42 67
REMARK Flexibility Score: inf
ROOT
ATOM      1  C   UNL A   1      33.514  20.755  26.430  1.00  0.00     0.188 C 
ENDROOT
BRANCH   1   2
ATOM      2  O   UNL A   1      34.451  21.758  26.792  1.00  0.00    -0.377 OA
BRANCH   2   3
ATOM      3  C   UNL A   1      33.758  22.920  27.221  1.00  0.00     0.188 C 
BRANCH   3   4
ATOM      4  C   UNL A   1      32.284  22.594  27.401  1.00  0.00     0.188 C 
BRANCH   4   5
ATOM      5  O   UNL A   1      31.509  23.757  27.154  1.00  0.00    -0.376 OA
BRANCH   5   6
ATOM      6  C   UNL A   1      30.621  23.514  26.074  1.00  0.00     0.202 C 
BRANCH   6   7
ATOM      7  C   UNL A   1      30.734  24.642  25.061  1.00  0.00     0.261 C 
BRANCH   7   8
ATOM      8  O   UNL A   1      31.728  25.563  25.486  1.00  0.00    -0.460 OA
BRANCH   8   9
ATOM      9  C   UNL A   1      32.881  25.782  24.686  1.00  0.00     0.338 C 
ATOM     10  O   UNL A   1      34.007  25.990  25.238  1.00  0.00    -0.246 OA
BRANCH   9  11
ATOM     11  C   UNL A   1      32.769  25.768  23.171  1.00  0.00     0.087 C 
ATOM     12  C   UNL A   1      32.116  26.773  22.528  1.00  0.00     0.027 C 
ATOM     13  C   UNL A   1      33.386  24.630  22.373  1.00  0.00     0.316 C 
ATOM     14  C   UNL A   1      31.499  27.910  23.325  1.00  0.00     0.020 A 
ATOM     15  O   UNL A   1      33.431  27.895  24.709  1.00  0.00    -0.474 OA
ATOM     16  C   UNL A   1      30.225  28.351  23.009  1.00  0.00     0.036 A 
ATOM     17  C   UNL A   1      32.198  28.472  24.304  1.00  0.00     0.142 A 
ATOM     18  C   UNL A   1      29.883  29.591  23.599  1.00  0.00     0.109 A 
ATOM     19  C   UNL A   1      31.739  29.605  24.931  1.00  0.00     0.062 A 
ATOM     20  C   UNL A   1      30.514  30.130  24.626  1.00  0.00     0.044 A 
ATOM     21  Br  UNL A   1      32.857  30.483  26.281  1.00  0.00    -0.047 Br
BRANCH  13  22
ATOM     22  C   UNL A   1      34.049  23.647  23.324  1.00  0.00     0.430 C 
ATOM     23  F   UNL A   1      33.157  23.215  24.210  1.00  0.00    -0.167 F 
ATOM     24  F   UNL A   1      34.525  22.615  22.633  1.00  0.00    -0.167 F 
ATOM     25  F   UNL A   1      35.049  24.252  23.961  1.00  0.00    -0.167 F 
ENDBRANCH  13  22
BRANCH  18  26
ATOM     26  S   UNL A   1      28.484  30.501  22.898  1.00  0.00     0.310 S 
ATOM     27  F   UNL A   1      28.275  31.331  24.233  1.00  0.00    -0.094 F 
ATOM     28  F   UNL A   1      27.513  29.416  23.500  1.00  0.00    -0.094 F 
ATOM     29  F   UNL A   1      27.283  31.283  22.295  1.00  0.00    -0.094 F 
ATOM     30  F   UNL A   1      29.460  31.649  22.423  1.00  0.00    -0.094 F 
ATOM     31  F   UNL A   1      29.702  29.777  23.600  1.00  0.00    -0.094 F 
ENDBRANCH  18  26
ENDBRANCH   9  11
ENDBRANCH   8   9
ENDBRANCH   7   8
ENDBRANCH   6   7
ENDBRANCH   5   6
ENDBRANCH   4   5
ENDBRANCH   3   4
ENDBRANCH   2   3
ENDBRANCH   1   2
BRANCH   1  32
ATOM     32  C   UNL A   1      33.972  20.070  25.152  1.00  0.00     0.188 C 
BRANCH  32  33
ATOM     33  O   UNL A   1      35.249  20.567  24.781  1.00  0.00    -0.376 OA
BRANCH  33  34
ATOM     34  C   UNL A   1      36.210  19.526  24.880  1.00  0.00     0.202 C 
BRANCH  34  35
ATOM     35  C   UNL A   1      37.604  20.104  24.693  1.00  0.00     0.261 C 
BRANCH  35  36
ATOM     36  O   UNL A   1      37.889  21.003  25.754  1.00  0.00    -0.460 OA
BRANCH  36  37
ATOM     37  C   UNL A   1      39.192  21.049  26.315  1.00  0.00     0.338 C 
ATOM     38  O   UNL A   1      39.819  19.969  26.555  1.00  0.00    -0.246 OA
BRANCH  37  39
ATOM     39  C   UNL A   1      39.839  22.388  26.629  1.00  0.00     0.060 A 
ATOM     40  C   UNL A   1      40.924  22.436  27.489  1.00  0.00     0.016 A 
ATOM     41  C   UNL A   1      39.340  23.493  26.088  1.00  0.00     0.016 A 
ATOM     42  C   UNL A   1      41.233  23.738  27.948  1.00  0.00     0.010 A 
ATOM     43  C   UNL A   1      39.785  24.730  26.487  1.00  0.00     0.010 A 
ATOM     44  C   UNL A   1      40.813  24.853  27.378  1.00  0.00    -0.014 A 
BRANCH  44  45
ATOM     45  C   UNL A   1      41.441  26.200  27.698  1.00  0.00     0.031 A 
ATOM     46  C   UNL A   1      40.687  27.113  28.439  1.00  0.00     0.074 A 
ATOM     47  C   UNL A   1      42.728  26.442  27.250  1.00  0.00     0.049 A 
ATOM     48  N   UNL A   1      41.063  28.319  28.867  1.00  0.00    -0.248 NA
ATOM     49  C   UNL A   1      39.308  26.872  28.886  1.00  0.00     0.031 C 
ATOM     50  C   UNL A   1      43.497  25.523  26.509  1.00  0.00     0.029 A 
ATOM     51  N   UNL A   1      43.486  27.578  27.429  1.00  0.00    -0.354 N 
ATOM     52  C   UNL A   1      40.076  28.889  29.562  1.00  0.00     0.074 A 
ATOM     53  C   UNL A   1      38.931  27.969  29.579  1.00  0.00     0.031 C 
ATOM     54  C   UNL A   1      44.696  26.101  26.236  1.00  0.00     0.029 A 
ATOM     55  C   UNL A   1      44.697  27.391  26.802  1.00  0.00     0.049 A 
ATOM     56  H   UNL A   1      43.209  28.384  27.921  1.00  0.00     0.167 HD
ATOM     57  C   UNL A   1      40.088  30.139  30.184  1.00  0.00     0.034 A 
ATOM     58  C   UNL A   1      45.755  28.281  26.715  1.00  0.00     0.034 A 
ATOM     59  C   UNL A   1      41.162  31.012  30.134  1.00  0.00     0.049 A 
ATOM     60  C   UNL A   1      45.745  29.556  27.288  1.00  0.00     0.074 A 
ATOM     61  C   UNL A   1      41.192  32.272  30.761  1.00  0.00     0.029 A 
ATOM     62  N   UNL A   1      42.364  30.835  29.485  1.00  0.00    -0.354 N 
ATOM     63  N   UNL A   1      44.774  30.109  28.016  1.00  0.00    -0.248 NA
ATOM     64  C   UNL A   1      46.846  30.520  27.175  1.00  0.00     0.031 C 
ATOM     65  C   UNL A   1      42.392  32.851  30.487  1.00  0.00     0.029 A 
ATOM     66  C   UNL A   1      43.131  31.961  29.683  1.00  0.00     0.049 A 
ATOM     67  H   UNL A   1      42.629  30.040  28.968  1.00  0.00     0.167 HD
ATOM     68  C   UNL A   1      45.134  31.333  28.408  1.00  0.00     0.074 A 
ATOM     69  C   UNL A   1      46.469  31.617  27.866  1.00  0.00     0.031 C 
ATOM     70  C   UNL A   1      44.403  32.222  29.199  1.00  0.00     0.034 A 
BRANCH  57  71
ATOM     71  C   UNL A   1      38.852  30.565  30.960  1.00  0.00     0.023 A 
ATOM     72  C   UNL A   1      38.700  30.192  32.285  1.00  0.00     0.012 A 
ATOM     73  C   UNL A   1      37.941  31.310  30.345  1.00  0.00     0.148 A 
ATOM     74  C   UNL A   1      37.401  30.416  32.799  1.00  0.00     0.002 A 
ATOM     75  C   UNL A   1      36.748  31.605  30.960  1.00  0.00     0.091 A 
ATOM     76  F   UNL A   1      38.186  31.776  29.123  1.00  0.00    -0.205 F 
ATOM     77  C   UNL A   1      36.506  31.217  32.249  1.00  0.00     0.022 A 
BRANCH  75  78
ATOM     78  S   UNL A   1      35.478  32.520  30.051  1.00  0.00     0.127 S 
ATOM     79  O   UNL A   1      36.107  33.750  29.394  1.00  0.00    -0.237 OA
ATOM     80  O   UNL A   1      34.872  31.619  28.973  1.00  0.00    -0.237 OA
ATOM     81  O   UNL A   1      34.251  33.018  31.134  1.00  0.00    -0.744 OA
ENDBRANCH  75  78
ENDBRANCH  57  71
BRANCH  58  82
ATOM     82  C   UNL A   1      46.997  27.849  25.954  1.00  0.00     0.023 A 
ATOM     83  C   UNL A   1      47.115  28.106  24.598  1.00  0.00     0.012 A 
ATOM     84  C   UNL A   1      47.961  27.227  26.623  1.00  0.00     0.148 A 
ATOM     85  C   UNL A   1      48.173  27.406  23.971  1.00  0.00     0.002 A 
ATOM     86  C   UNL A   1      49.036  26.684  25.959  1.00  0.00     0.091 A 
ATOM     87  F   UNL A   1      47.887  27.129  27.947  1.00  0.00    -0.205 F 
ATOM     88  C   UNL A   1      49.185  26.849  24.610  1.00  0.00     0.022 A 
BRANCH  86  89
ATOM     89  S   UNL A   1      50.270  25.738  26.884  1.00  0.00     0.127 S 
ATOM     90  O   UNL A   1      50.783  26.579  28.057  1.00  0.00    -0.237 OA
ATOM     91  O   UNL A   1      49.633  24.453  27.418  1.00  0.00    -0.237 OA
ATOM     92  O   UNL A   1      51.576  25.342  25.854  1.00  0.00    -0.744 OA
ENDBRANCH  86  89
ENDBRANCH  58  82
BRANCH  70  93
ATOM     93  C   UNL A   1      45.042  33.555  29.550  1.00  0.00     0.023 A 
ATOM     94  C   UNL A   1      45.763  33.676  30.725  1.00  0.00     0.012 A 
ATOM     95  C   UNL A   1      44.884  34.588  28.729  1.00  0.00     0.148 A 
ATOM     96  C   UNL A   1      46.039  35.014  31.094  1.00  0.00     0.002 A 
ATOM     97  C   UNL A   1      45.300  35.844  29.097  1.00  0.00     0.091 A 
ATOM     98  F   UNL A   1      44.317  34.404  27.540  1.00  0.00    -0.205 F 
ATOM     99  C   UNL A   1      45.967  36.047  30.274  1.00  0.00     0.022 A 
BRANCH  97 100
ATOM    100  S   UNL A   1      44.961  37.251  28.010  1.00  0.00     0.127 S 
ATOM    101  O   UNL A   1      44.021  36.811  26.885  1.00  0.00    -0.237 OA
ATOM    102  O   UNL A   1      44.301  38.371  28.816  1.00  0.00    -0.237 OA
ATOM    103  O   UNL A   1      46.428  37.819  27.339  1.00  0.00    -0.744 OA
ENDBRANCH  97 100
ENDBRANCH  70  93
ENDBRANCH  44  45
ENDBRANCH  37  39
ENDBRANCH  36  37
ENDBRANCH  35  36
ENDBRANCH  34  35
ENDBRANCH  33  34
ENDBRANCH  32  33
ENDBRANCH   1  32
TORSDOF 25
ENDMDL
MODEL 3
REMARK VINA RESULT:     -10.8      2.060      2.403
REMARK SMILES O=C(OCCOCCOCCOCCOC(=O)c1ccc(-c2c3nc(c(-c4cccc(S(=O)(=O)[O-])c4F)c4ccc([nH]4)c(-c4cccc(S(=O)(=O)[O-])c4F)c4nc(c(-c5cccc(S(=O)(=O)[O-])c5F)c5ccc2[nH]5)C=C4)C=C3)cc1)C1=Cc2cc(S(F)(F)(F)(F)F)cc(Br)c2O[C@H]1C(F)(F)F
REMARK SMILES IDX 10 1 9 2 8 3 7 4 6 5 5 6 4 7 3 8 2 9 1 10 81 11 82 12 97 13
REMARK SMILES IDX 83 14 96 15 84 16 95 17 85 18 93 19 92 20 94 21 98 22 99 23
REMARK SMILES IDX 100 24 101 25 86 26 87 27 88 28 89 29 90 30 91 31 11 32
REMARK SMILES IDX 12 33 13 34 14 35 15 36 16 37 17 38 18 39 19 40 80 41 20 42
REMARK SMILES IDX 79 43 21 44 22 45 23 46 73 47 24 48 78 49 72 50 74 51 25 52
REMARK SMILES IDX 77 53 71 54 70 55 26 57 58 58 38 59 57 60 39 61 42 62 56 63
REMARK SMILES IDX 75 64 40 65 41 66 55 68 76 69 43 70 27 71 28 72 36 73 29 74
REMARK SMILES IDX 31 75 37 76 30 77 32 78 33 79 34 80 35 81 59 82 60 83 68 84
REMARK SMILES IDX 61 85 63 86 69 87 62 88 64 89 65 90 66 91 67 92 44 93 45 94
REMARK SMILES IDX 53 95 46 96 48 97 54 98 47 99 49 100 50 101 51 102 52 103
REMARK H PARENT 74 56 42 67
REMARK Flexibility Score: inf
ROOT
ATOM      1  C   UNL A   1      33.290  20.681  26.442  1.00  0.00     0.188 C 
ENDROOT
BRANCH   1   2
ATOM      2  O   UNL A   1      34.057  21.784  26.904  1.00  0.00    -0.377 OA
BRANCH   2   3
ATOM      3  C   UNL A   1      33.224  22.659  27.651  1.00  0.00     0.188 C 
BRANCH   3   4
ATOM      4  C   UNL A   1      31.810  22.607  27.098  1.00  0.00     0.188 C 
BRANCH   4   5
ATOM      5  O   UNL A   1      31.259  23.916  27.086  1.00  0.00    -0.376 OA
BRANCH   5   6
ATOM      6  C   UNL A   1      30.337  24.033  26.013  1.00  0.00     0.202 C 
BRANCH   6   7
ATOM      7  C   UNL A   1      30.822  25.097  25.042  1.00  0.00     0.261 C 
BRANCH   7   8
ATOM      8  O   UNL A   1      31.776  25.927  25.687  1.00  0.00    -0.460 OA
BRANCH   8   9
ATOM      9  C   UNL A   1      32.992  26.254  25.030  1.00  0.00     0.338 C 
ATOM     10  O   UNL A   1      34.032  26.520  25.712  1.00  0.00    -0.246 OA
BRANCH   9  11
ATOM     11  C   UNL A   1      33.050  26.287  23.512  1.00  0.00     0.087 C 
ATOM     12  C   UNL A   1      32.418  27.278  22.828  1.00  0.00     0.027 C 
ATOM     13  C   UNL A   1      33.816  25.212  22.757  1.00  0.00     0.316 C 
ATOM     14  C   UNL A   1      31.652  28.353  23.583  1.00  0.00     0.020 A 
ATOM     15  O   UNL A   1      33.415  28.392  25.176  1.00  0.00    -0.474 OA
ATOM     16  C   UNL A   1      30.398  28.736  23.137  1.00  0.00     0.036 A 
ATOM     17  C   UNL A   1      32.205  28.916  24.651  1.00  0.00     0.142 A 
ATOM     18  C   UNL A   1      29.923  29.934  23.720  1.00  0.00     0.109 A 
ATOM     19  C   UNL A   1      31.614  30.000  25.254  1.00  0.00     0.062 A 
ATOM     20  C   UNL A   1      30.403  30.470  24.827  1.00  0.00     0.044 A 
ATOM     21  Br  UNL A   1      32.523  30.888  26.746  1.00  0.00    -0.047 Br
BRANCH  13  22
ATOM     22  C   UNL A   1      34.424  24.234  23.748  1.00  0.00     0.430 C 
ATOM     23  F   UNL A   1      35.072  23.278  23.087  1.00  0.00    -0.167 F 
ATOM     24  F   UNL A   1      35.275  24.879  24.542  1.00  0.00    -0.167 F 
ATOM     25  F   UNL A   1      33.458  23.689  24.483  1.00  0.00    -0.167 F 
ENDBRANCH  13  22
BRANCH  18  26
ATOM     26  S   UNL A   1      28.561  30.792  22.892  1.00  0.00     0.310 S 
ATOM     27  F   UNL A   1      28.532  31.936  23.990  1.00  0.00    -0.094 F 
ATOM     28  F   UNL A   1      27.546  29.994  23.794  1.00  0.00    -0.094 F 
ATOM     29  F   UNL A   1      27.393  31.530  22.179  1.00  0.00    -0.094 F 
ATOM     30  F   UNL A   1      29.596  31.682  22.097  1.00  0.00    -0.094 F 
ATOM     31  F   UNL A   1      29.760  30.134  23.685  1.00  0.00    -0.094 F 
ENDBRANCH  18  26
ENDBRANCH   9  11
ENDBRANCH   8   9
ENDBRANCH   7   8
ENDBRANCH   6   7
ENDBRANCH   5   6
ENDBRANCH   4   5
ENDBRANCH   3   4
ENDBRANCH   2   3
ENDBRANCH   1   2
BRANCH   1  32
ATOM     32  C   UNL A   1      33.890  20.152  25.149  1.00  0.00     0.188 C 
BRANCH  32  33
ATOM     33  O   UNL A   1      35.025  20.931  24.801  1.00  0.00    -0.376 OA
BRANCH  33  34
ATOM     34  C   UNL A   1      36.202  20.153  24.960  1.00  0.00     0.202 C 
BRANCH  34  35
ATOM     35  C   UNL A   1      37.423  21.026  24.719  1.00  0.00     0.261 C 
BRANCH  35  36
ATOM     36  O   UNL A   1      37.760  21.708  25.917  1.00  0.00    -0.460 OA
BRANCH  36  37
ATOM     37  C   UNL A   1      39.085  21.641  26.424  1.00  0.00     0.338 C 
ATOM     38  O   UNL A   1      39.624  20.511  26.645  1.00  0.00    -0.246 OA
BRANCH  37  39
ATOM     39  C   UNL A   1      39.858  22.919  26.703  1.00  0.00     0.060 A 
ATOM     40  C   UNL A   1      40.930  22.889  27.581  1.00  0.00     0.016 A 
ATOM     41  C   UNL A   1      39.480  24.048  26.116  1.00  0.00     0.016 A 
ATOM     42  C   UNL A   1      41.362  24.170  28.000  1.00  0.00     0.010 A 
ATOM     43  C   UNL A   1      40.042  25.248  26.480  1.00  0.00     0.010 A 
ATOM     44  C   UNL A   1      41.065  25.300  27.385  1.00  0.00    -0.014 A 
BRANCH  44  45
ATOM     45  C   UNL A   1      41.821  26.588  27.668  1.00  0.00     0.031 A 
ATOM     46  C   UNL A   1      43.135  26.691  27.205  1.00  0.00     0.074 A 
ATOM     47  C   UNL A   1      41.162  27.592  28.355  1.00  0.00     0.049 A 
ATOM     48  N   UNL A   1      43.950  27.741  27.301  1.00  0.00    -0.248 NA
ATOM     49  C   UNL A   1      43.848  25.612  26.505  1.00  0.00     0.031 C 
ATOM     50  C   UNL A   1      39.834  27.499  28.817  1.00  0.00     0.029 A 
ATOM     51  N   UNL A   1      41.646  28.832  28.710  1.00  0.00    -0.354 N 
ATOM     52  C   UNL A   1      45.122  27.469  26.723  1.00  0.00     0.074 A 
ATOM     53  C   UNL A   1      45.075  26.094  26.208  1.00  0.00     0.031 C 
ATOM     54  C   UNL A   1      39.527  28.661  29.452  1.00  0.00     0.029 A 
ATOM     55  C   UNL A   1      40.656  29.500  29.397  1.00  0.00     0.049 A 
ATOM     56  H   UNL A   1      42.544  29.181  28.508  1.00  0.00     0.167 HD
ATOM     57  C   UNL A   1      46.226  28.314  26.603  1.00  0.00     0.034 A 
ATOM     58  C   UNL A   1      40.716  30.768  29.952  1.00  0.00     0.034 A 
ATOM     59  C   UNL A   1      46.271  29.598  27.121  1.00  0.00     0.049 A 
ATOM     60  C   UNL A   1      41.842  31.592  29.883  1.00  0.00     0.074 A 
ATOM     61  C   UNL A   1      47.374  30.466  27.002  1.00  0.00     0.029 A 
ATOM     62  N   UNL A   1      45.291  30.257  27.829  1.00  0.00    -0.354 N 
ATOM     63  N   UNL A   1      42.999  31.335  29.270  1.00  0.00    -0.248 NA
ATOM     64  C   UNL A   1      41.928  32.924  30.494  1.00  0.00     0.031 C 
ATOM     65  C   UNL A   1      47.066  31.628  27.637  1.00  0.00     0.029 A 
ATOM     66  C   UNL A   1      45.766  31.505  28.164  1.00  0.00     0.049 A 
ATOM     67  H   UNL A   1      44.403  29.898  28.057  1.00  0.00     0.167 HD
ATOM     68  C   UNL A   1      43.830  32.370  29.403  1.00  0.00     0.074 A 
ATOM     69  C   UNL A   1      43.156  33.405  30.199  1.00  0.00     0.031 C 
ATOM     70  C   UNL A   1      45.122  32.495  28.890  1.00  0.00     0.034 A 
BRANCH  57  71
ATOM     71  C   UNL A   1      47.449  27.796  25.862  1.00  0.00     0.023 A 
ATOM     72  C   UNL A   1      48.523  27.280  26.569  1.00  0.00     0.012 A 
ATOM     73  C   UNL A   1      47.452  27.836  24.535  1.00  0.00     0.148 A 
ATOM     74  C   UNL A   1      49.687  27.091  25.786  1.00  0.00     0.002 A 
ATOM     75  C   UNL A   1      48.584  27.507  23.828  1.00  0.00     0.091 A 
ATOM     76  F   UNL A   1      46.350  28.197  23.883  1.00  0.00    -0.205 F 
ATOM     77  C   UNL A   1      49.702  27.046  24.466  1.00  0.00     0.022 A 
BRANCH  75  78
ATOM     78  S   UNL A   1      48.595  27.687  22.027  1.00  0.00     0.127 S 
ATOM     79  O   UNL A   1      47.258  28.268  21.564  1.00  0.00    -0.237 OA
ATOM     80  O   UNL A   1      49.730  28.627  21.614  1.00  0.00    -0.237 OA
ATOM     81  O   UNL A   1      48.832  26.155  21.304  1.00  0.00    -0.744 OA
ENDBRANCH  75  78
ENDBRANCH  57  71
BRANCH  58  82
ATOM     82  C   UNL A   1      39.488  31.292  30.678  1.00  0.00     0.023 A 
ATOM     83  C   UNL A   1      38.480  31.935  29.978  1.00  0.00     0.012 A 
ATOM     84  C   UNL A   1      39.407  31.112  31.991  1.00  0.00     0.148 A 
ATOM     85  C   UNL A   1      37.552  32.614  30.803  1.00  0.00     0.002 A 
ATOM     86  C   UNL A   1      38.395  31.693  32.716  1.00  0.00     0.091 A 
ATOM     87  F   UNL A   1      40.314  30.361  32.611  1.00  0.00    -0.205 F 
ATOM     88  C   UNL A   1      37.398  32.394  32.096  1.00  0.00     0.022 A 
BRANCH  86  89
ATOM     89  S   UNL A   1      38.382  31.530  34.519  1.00  0.00     0.127 S 
ATOM     90  O   UNL A   1      37.127  32.202  35.083  1.00  0.00    -0.237 OA
ATOM     91  O   UNL A   1      38.380  30.047  34.896  1.00  0.00    -0.237 OA
ATOM     92  O   UNL A   1      39.773  32.282  35.170  1.00  0.00    -0.744 OA
ENDBRANCH  86  89
ENDBRANCH  58  82
BRANCH  70  93
ATOM     93  C   UNL A   1      45.867  33.796  29.141  1.00  0.00     0.023 A 
ATOM     94  C   UNL A   1      46.637  33.930  30.283  1.00  0.00     0.012 A 
ATOM     95  C   UNL A   1      45.752  34.790  28.266  1.00  0.00     0.148 A 
ATOM     96  C   UNL A   1      47.021  35.263  30.563  1.00  0.00     0.002 A 
ATOM     97  C   UNL A   1      46.270  36.031  28.546  1.00  0.00     0.091 A 
ATOM     98  F   UNL A   1      45.130  34.581  27.109  1.00  0.00    -0.205 F 
ATOM     99  C   UNL A   1      46.993  36.250  29.687  1.00  0.00     0.022 A 
BRANCH  97 100
ATOM    100  S   UNL A   1      45.992  37.396  27.390  1.00  0.00     0.127 S 
ATOM    101  O   UNL A   1      46.699  37.094  26.066  1.00  0.00    -0.237 OA
ATOM    102  O   UNL A   1      44.491  37.556  27.142  1.00  0.00    -0.237 OA
ATOM    103  O   UNL A   1      46.618  38.842  28.055  1.00  0.00    -0.744 OA
ENDBRANCH  97 100
ENDBRANCH  70  93
ENDBRANCH  44  45
ENDBRANCH  37  39
ENDBRANCH  36  37
ENDBRANCH  35  36
ENDBRANCH  34  35
ENDBRANCH  33  34
ENDBRANCH  32  33
ENDBRANCH   1  32
TORSDOF 25
ENDMDL
