MODEL 1
REMARK VINA RESULT:      -7.2      0.000      0.000
REMARK SMILES CC[C@@H](C)[C@H](NC(=O)[C@H](C)N1C(=O)N2CCC3=c4cc(OC)ccc4=N[C@@H]3[C@@]2(C)C1=O)C(=O)OCCOCCOCCOCCOC(=O)c1ccc(-c2c3nc(c(-c4cccc(S(=O)(=O)[O-])c4F)c4ccc([nH]4)c(-c4cccc(S(=O)(=O)[O-])c4F)c4nc(c(-c5cccc(S(=O)(=O)[O-])c5F)c5ccc2[nH]5)C=C4)C=C3)cc1
REMARK SMILES IDX 39 1 38 2 37 3 36 4 35 5 34 6 32 7 33 8 5 9 3 10 4 11 2 12
REMARK SMILES IDX 1 13 6 14 7 15 8 17 9 18 10 19 11 20 12 21 30 22 14 23 13 24
REMARK SMILES IDX 28 25 31 26 15 27 27 28 29 29 16 30 17 31 26 32 18 33 25 34
REMARK SMILES IDX 19 35 24 36 20 37 23 38 21 39 22 40 40 41 41 42 42 43 43 44
REMARK SMILES IDX 44 45 45 46 46 47 47 48 48 49 49 50 50 51 111 52 51 53
REMARK SMILES IDX 110 54 52 55 53 56 54 57 104 58 55 59 109 60 103 61 105 62
REMARK SMILES IDX 56 63 108 64 102 65 101 66 57 68 89 69 69 70 88 71 70 72
REMARK SMILES IDX 73 73 87 74 106 75 71 76 72 77 86 79 107 80 74 81 58 82
REMARK SMILES IDX 59 83 67 84 60 85 62 86 68 87 61 88 63 89 64 90 65 91 66 92
REMARK SMILES IDX 90 93 91 94 99 95 92 96 94 97 100 98 93 99 95 100 96 101
REMARK SMILES IDX 97 102 98 103 75 104 76 105 84 106 77 107 79 108 85 109
REMARK SMILES IDX 78 110 80 111 81 112 82 113 83 114
REMARK H PARENT 6 16 105 67 73 78
REMARK Flexibility Score: inf
ROOT
ATOM      1  C   UNL A   1      44.411  27.549  28.481  1.00  0.00     0.188 C 
ENDROOT
BRANCH   1   2
ATOM      2  C   UNL A   1      43.113  27.635  27.653  1.00  0.00     0.188 C 
BRANCH   2   3
ATOM      3  O   UNL A   1      42.829  26.612  26.704  1.00  0.00    -0.376 OA
BRANCH   3   4
ATOM      4  C   UNL A   1      41.635  26.743  25.936  1.00  0.00     0.202 C 
BRANCH   4   5
ATOM      5  C   UNL A   1      40.370  26.100  26.517  1.00  0.00     0.261 C 
BRANCH   5   6
ATOM      6  O   UNL A   1      39.934  24.873  25.860  1.00  0.00    -0.462 OA
BRANCH   6   7
ATOM      7  C   UNL A   1      38.973  24.170  26.511  1.00  0.00     0.328 C 
ATOM      8  O   UNL A   1      37.938  24.714  26.901  1.00  0.00    -0.250 OA
BRANCH   7   9
ATOM      9  C   UNL A   1      39.164  22.602  26.692  1.00  0.00     0.195 C 
BRANCH   9  10
ATOM     10  C   UNL A   1      40.640  22.146  26.872  1.00  0.00     0.019 C 
ATOM     11  C   UNL A   1      40.670  20.606  26.871  1.00  0.00     0.010 C 
BRANCH  10  12
ATOM     12  C   UNL A   1      41.413  22.734  28.058  1.00  0.00     0.002 C 
ATOM     13  C   UNL A   1      42.861  22.272  28.075  1.00  0.00     0.004 C 
ENDBRANCH  10  12
ENDBRANCH   9  10
BRANCH   9  14
ATOM     14  N   UNL A   1      38.416  21.456  26.100  1.00  0.00    -0.341 N 
ATOM     15  C   UNL A   1      37.525  21.293  25.067  1.00  0.00     0.243 C 
ATOM     16  H   UNL A   1      38.609  20.608  26.562  1.00  0.00     0.164 HD
ATOM     17  O   UNL A   1      37.593  20.180  24.515  1.00  0.00    -0.273 OA
BRANCH  15  18
ATOM     18  C   UNL A   1      36.442  22.341  24.530  1.00  0.00     0.181 C 
ATOM     19  C   UNL A   1      36.902  23.065  23.275  1.00  0.00     0.042 C 
BRANCH  18  20
ATOM     20  N   UNL A   1      35.671  23.133  25.504  1.00  0.00    -0.250 N 
ATOM     21  C   UNL A   1      34.865  24.317  25.284  1.00  0.00     0.328 C 
ATOM     22  C   UNL A   1      34.985  22.294  26.323  1.00  0.00     0.259 C 
ATOM     23  N   UNL A   1      33.756  24.282  26.257  1.00  0.00    -0.307 N 
ATOM     24  O   UNL A   1      34.953  25.099  24.351  1.00  0.00    -0.248 OA
ATOM     25  C   UNL A   1      33.729  22.931  26.578  1.00  0.00     0.147 C 
ATOM     26  O   UNL A   1      35.141  21.114  26.594  1.00  0.00    -0.271 OA
ATOM     27  C   UNL A   1      32.227  24.716  26.233  1.00  0.00     0.127 C 
ATOM     28  C   UNL A   1      32.914  22.457  25.353  1.00  0.00     0.168 C 
ATOM     29  C   UNL A   1      33.448  22.810  28.079  1.00  0.00     0.048 C 
ATOM     30  C   UNL A   1      31.117  23.261  26.348  1.00  0.00     0.055 C 
ATOM     31  C   UNL A   1      31.727  21.816  25.852  1.00  0.00    -0.032 C 
ATOM     32  N   UNL A   1      33.397  21.976  24.041  1.00  0.00    -0.274 NA
ATOM     33  C   UNL A   1      31.662  20.742  25.004  1.00  0.00     0.005 A 
ATOM     34  C   UNL A   1      32.341  21.264  23.764  1.00  0.00     0.066 A 
ATOM     35  C   UNL A   1      32.491  19.465  25.195  1.00  0.00     0.056 A 
ATOM     36  C   UNL A   1      32.162  20.480  22.545  1.00  0.00     0.032 A 
ATOM     37  C   UNL A   1      33.003  18.827  24.097  1.00  0.00     0.119 A 
ATOM     38  C   UNL A   1      32.539  19.213  22.761  1.00  0.00     0.048 A 
BRANCH  37  39
ATOM     39  O   UNL A   1      34.077  17.950  24.161  1.00  0.00    -0.497 OA
ATOM     40  C   UNL A   1      34.155  17.003  23.073  1.00  0.00     0.278 C 
ENDBRANCH  37  39
ENDBRANCH  18  20
ENDBRANCH  15  18
ENDBRANCH   9  14
ENDBRANCH   7   9
ENDBRANCH   6   7
ENDBRANCH   5   6
ENDBRANCH   4   5
ENDBRANCH   3   4
ENDBRANCH   2   3
ENDBRANCH   1   2
BRANCH   1  41
ATOM     41  O   UNL A   1      44.520  28.536  29.495  1.00  0.00    -0.377 OA
BRANCH  41  42
ATOM     42  C   UNL A   1      45.100  28.082  30.712  1.00  0.00     0.188 C 
BRANCH  42  43
ATOM     43  C   UNL A   1      44.467  26.818  31.298  1.00  0.00     0.188 C 
BRANCH  43  44
ATOM     44  O   UNL A   1      43.429  27.118  32.234  1.00  0.00    -0.376 OA
BRANCH  44  45
ATOM     45  C   UNL A   1      42.265  27.733  31.687  1.00  0.00     0.202 C 
BRANCH  45  46
ATOM     46  C   UNL A   1      41.377  28.447  32.718  1.00  0.00     0.261 C 
BRANCH  46  47
ATOM     47  O   UNL A   1      40.724  29.649  32.275  1.00  0.00    -0.460 OA
BRANCH  47  48
ATOM     48  C   UNL A   1      40.913  30.780  33.004  1.00  0.00     0.338 C 
ATOM     49  O   UNL A   1      40.473  31.020  34.091  1.00  0.00    -0.246 OA
BRANCH  48  50
ATOM     50  C   UNL A   1      41.918  31.617  32.292  1.00  0.00     0.060 A 
ATOM     51  C   UNL A   1      42.699  32.546  32.978  1.00  0.00     0.016 A 
ATOM     52  C   UNL A   1      42.090  31.431  30.915  1.00  0.00     0.016 A 
ATOM     53  C   UNL A   1      43.691  33.255  32.289  1.00  0.00     0.010 A 
ATOM     54  C   UNL A   1      43.072  32.154  30.226  1.00  0.00     0.010 A 
ATOM     55  C   UNL A   1      43.898  33.056  30.912  1.00  0.00    -0.014 A 
BRANCH  55  56
ATOM     56  C   UNL A   1      45.119  33.609  30.274  1.00  0.00     0.031 A 
ATOM     57  C   UNL A   1      46.425  32.890  30.194  1.00  0.00     0.074 A 
ATOM     58  C   UNL A   1      45.055  34.851  29.767  1.00  0.00     0.049 A 
ATOM     59  N   UNL A   1      47.435  33.091  29.384  1.00  0.00    -0.248 NA
ATOM     60  C   UNL A   1      46.630  31.801  31.144  1.00  0.00     0.031 C 
ATOM     61  C   UNL A   1      43.895  35.735  29.855  1.00  0.00     0.029 A 
ATOM     62  N   UNL A   1      45.999  35.583  29.100  1.00  0.00    -0.354 N 
ATOM     63  C   UNL A   1      48.343  32.077  29.652  1.00  0.00     0.074 A 
ATOM     64  C   UNL A   1      47.793  31.312  30.735  1.00  0.00     0.031 C 
ATOM     65  C   UNL A   1      44.201  36.903  29.272  1.00  0.00     0.029 A 
ATOM     66  C   UNL A   1      45.570  36.837  28.764  1.00  0.00     0.049 A 
ATOM     67  H   UNL A   1      46.896  35.240  28.884  1.00  0.00     0.167 HD
ATOM     68  C   UNL A   1      49.531  31.799  29.066  1.00  0.00     0.034 A 
ATOM     69  C   UNL A   1      46.205  37.825  28.107  1.00  0.00     0.034 A 
ATOM     70  C   UNL A   1      50.200  32.698  28.174  1.00  0.00     0.049 A 
ATOM     71  C   UNL A   1      47.580  37.587  27.556  1.00  0.00     0.074 A 
ATOM     72  C   UNL A   1      51.420  32.544  27.542  1.00  0.00     0.029 A 
ATOM     73  N   UNL A   1      49.742  33.969  27.873  1.00  0.00    -0.354 N 
ATOM     74  N   UNL A   1      48.301  36.493  27.588  1.00  0.00    -0.248 NA
ATOM     75  C   UNL A   1      48.212  38.708  26.849  1.00  0.00     0.031 C 
ATOM     76  C   UNL A   1      51.720  33.746  26.889  1.00  0.00     0.029 A 
ATOM     77  C   UNL A   1      50.673  34.630  27.098  1.00  0.00     0.049 A 
ATOM     78  H   UNL A   1      48.883  34.345  28.169  1.00  0.00     0.167 HD
ATOM     79  C   UNL A   1      49.466  36.785  26.888  1.00  0.00     0.074 A 
ATOM     80  C   UNL A   1      49.349  38.158  26.437  1.00  0.00     0.031 C 
ATOM     81  C   UNL A   1      50.536  35.989  26.645  1.00  0.00     0.034 A 
BRANCH  68  82
ATOM     82  C   UNL A   1      50.169  30.462  29.342  1.00  0.00     0.023 A 
ATOM     83  C   UNL A   1      51.010  30.349  30.470  1.00  0.00     0.012 A 
ATOM     84  C   UNL A   1      49.888  29.319  28.573  1.00  0.00     0.148 A 
ATOM     85  C   UNL A   1      51.557  29.117  30.831  1.00  0.00     0.002 A 
ATOM     86  C   UNL A   1      50.429  28.092  28.946  1.00  0.00     0.091 A 
ATOM     87  F   UNL A   1      49.110  29.455  27.490  1.00  0.00    -0.205 F 
ATOM     88  C   UNL A   1      51.259  27.989  30.076  1.00  0.00     0.022 A 
BRANCH  86  89
ATOM     89  S   UNL A   1      50.129  26.574  28.034  1.00  0.00     0.127 S 
ATOM     90  O   UNL A   1      50.984  26.773  26.863  1.00  0.00    -0.237 OA
ATOM     91  O   UNL A   1      50.598  25.553  28.970  1.00  0.00    -0.237 OA
ATOM     92  O   UNL A   1      48.700  26.548  27.756  1.00  0.00    -0.744 OA
ENDBRANCH  86  89
ENDBRANCH  68  82
BRANCH  69  93
ATOM     93  C   UNL A   1      45.471  39.092  27.883  1.00  0.00     0.023 A 
ATOM     94  C   UNL A   1      44.688  39.234  26.724  1.00  0.00     0.012 A 
ATOM     95  C   UNL A   1      45.434  40.087  28.880  1.00  0.00     0.148 A 
ATOM     96  C   UNL A   1      43.873  40.352  26.560  1.00  0.00     0.002 A 
ATOM     97  C   UNL A   1      44.591  41.178  28.726  1.00  0.00     0.091 A 
ATOM     98  F   UNL A   1      46.185  39.911  29.976  1.00  0.00    -0.205 F 
ATOM     99  C   UNL A   1      43.816  41.317  27.564  1.00  0.00     0.022 A 
BRANCH  97 100
ATOM    100  S   UNL A   1      44.361  42.409  30.013  1.00  0.00     0.127 S 
ATOM    101  O   UNL A   1      44.626  43.650  29.287  1.00  0.00    -0.237 OA
ATOM    102  O   UNL A   1      42.960  42.196  30.379  1.00  0.00    -0.237 OA
ATOM    103  O   UNL A   1      45.320  42.081  31.057  1.00  0.00    -0.744 OA
ENDBRANCH  97 100
ENDBRANCH  69  93
BRANCH  81 104
ATOM    104  C   UNL A   1      51.688  36.565  25.874  1.00  0.00     0.023 A 
ATOM    105  C   UNL A   1      51.757  36.360  24.483  1.00  0.00     0.012 A 
ATOM    106  C   UNL A   1      52.615  37.419  26.502  1.00  0.00     0.148 A 
ATOM    107  C   UNL A   1      52.740  36.993  23.726  1.00  0.00     0.002 A 
ATOM    108  C   UNL A   1      53.569  38.074  25.737  1.00  0.00     0.091 A 
ATOM    109  F   UNL A   1      52.526  37.589  27.829  1.00  0.00    -0.205 F 
ATOM    110  C   UNL A   1      53.637  37.859  24.350  1.00  0.00     0.022 A 
BRANCH 108 111
ATOM    111  S   UNL A   1      54.713  39.270  26.435  1.00  0.00     0.127 S 
ATOM    112  O   UNL A   1      53.809  40.150  27.173  1.00  0.00    -0.237 OA
ATOM    113  O   UNL A   1      55.566  38.427  27.272  1.00  0.00    -0.237 OA
ATOM    114  O   UNL A   1      55.392  39.887  25.303  1.00  0.00    -0.744 OA
ENDBRANCH 108 111
ENDBRANCH  81 104
ENDBRANCH  55  56
ENDBRANCH  48  50
ENDBRANCH  47  48
ENDBRANCH  46  47
ENDBRANCH  45  46
ENDBRANCH  44  45
ENDBRANCH  43  44
ENDBRANCH  42  43
ENDBRANCH  41  42
ENDBRANCH   1  41
TORSDOF 29
ENDMDL
MODEL 2
REMARK VINA RESULT:      -7.1      5.906     12.184
REMARK SMILES CC[C@@H](C)[C@H](NC(=O)[C@H](C)N1C(=O)N2CCC3=c4cc(OC)ccc4=N[C@@H]3[C@@]2(C)C1=O)C(=O)OCCOCCOCCOCCOC(=O)c1ccc(-c2c3nc(c(-c4cccc(S(=O)(=O)[O-])c4F)c4ccc([nH]4)c(-c4cccc(S(=O)(=O)[O-])c4F)c4nc(c(-c5cccc(S(=O)(=O)[O-])c5F)c5ccc2[nH]5)C=C4)C=C3)cc1
REMARK SMILES IDX 39 1 38 2 37 3 36 4 35 5 34 6 32 7 33 8 5 9 3 10 4 11 2 12
REMARK SMILES IDX 1 13 6 14 7 15 8 17 9 18 10 19 11 20 12 21 30 22 14 23 13 24
REMARK SMILES IDX 28 25 31 26 15 27 27 28 29 29 16 30 17 31 26 32 18 33 25 34
REMARK SMILES IDX 19 35 24 36 20 37 23 38 21 39 22 40 40 41 41 42 42 43 43 44
REMARK SMILES IDX 44 45 45 46 46 47 47 48 48 49 49 50 50 51 111 52 51 53
REMARK SMILES IDX 110 54 52 55 53 56 54 57 104 58 55 59 109 60 103 61 105 62
REMARK SMILES IDX 56 63 108 64 102 65 101 66 57 68 89 69 69 70 88 71 70 72
REMARK SMILES IDX 73 73 87 74 106 75 71 76 72 77 86 79 107 80 74 81 58 82
REMARK SMILES IDX 59 83 67 84 60 85 62 86 68 87 61 88 63 89 64 90 65 91 66 92
REMARK SMILES IDX 90 93 91 94 99 95 92 96 94 97 100 98 93 99 95 100 96 101
REMARK SMILES IDX 97 102 98 103 75 104 76 105 84 106 77 107 79 108 85 109
REMARK SMILES IDX 78 110 80 111 81 112 82 113 83 114
REMARK H PARENT 6 16 105 67 73 78
REMARK Flexibility Score: inf
ROOT
ATOM      1  C   UNL A   1      40.820  27.095  29.072  1.00  0.00     0.188 C 
ENDROOT
BRANCH   1   2
ATOM      2  C   UNL A   1      40.244  27.884  30.265  1.00  0.00     0.188 C 
BRANCH   2   3
ATOM      3  O   UNL A   1      39.424  29.021  30.011  1.00  0.00    -0.376 OA
BRANCH   3   4
ATOM      4  C   UNL A   1      40.045  30.303  30.066  1.00  0.00     0.202 C 
BRANCH   4   5
ATOM      5  C   UNL A   1      39.895  31.084  31.377  1.00  0.00     0.261 C 
BRANCH   5   6
ATOM      6  O   UNL A   1      40.642  30.552  32.511  1.00  0.00    -0.462 OA
BRANCH   6   7
ATOM      7  C   UNL A   1      41.549  31.397  33.063  1.00  0.00     0.328 C 
ATOM      8  O   UNL A   1      41.349  32.614  33.097  1.00  0.00    -0.250 OA
BRANCH   7   9
ATOM      9  C   UNL A   1      42.846  30.785  33.749  1.00  0.00     0.195 C 
BRANCH   9  10
ATOM     10  C   UNL A   1      43.321  31.539  35.024  1.00  0.00     0.019 C 
ATOM     11  C   UNL A   1      42.216  31.422  36.090  1.00  0.00     0.010 C 
BRANCH  10  12
ATOM     12  C   UNL A   1      43.795  32.985  34.844  1.00  0.00     0.002 C 
ATOM     13  C   UNL A   1      44.757  33.407  35.943  1.00  0.00     0.004 C 
ENDBRANCH  10  12
ENDBRANCH   9  10
BRANCH   9  14
ATOM     14  N   UNL A   1      44.044  30.127  33.152  1.00  0.00    -0.341 N 
ATOM     15  C   UNL A   1      45.201  30.555  32.548  1.00  0.00     0.243 C 
ATOM     16  H   UNL A   1      43.993  29.146  33.205  1.00  0.00     0.164 HD
ATOM     17  O   UNL A   1      46.172  29.801  32.731  1.00  0.00    -0.273 OA
BRANCH  15  18
ATOM     18  C   UNL A   1      45.416  31.867  31.657  1.00  0.00     0.181 C 
ATOM     19  C   UNL A   1      46.825  32.426  31.772  1.00  0.00     0.042 C 
BRANCH  18  20
ATOM     20  N   UNL A   1      44.322  32.849  31.557  1.00  0.00    -0.250 N 
ATOM     21  C   UNL A   1      44.379  34.293  31.670  1.00  0.00     0.328 C 
ATOM     22  C   UNL A   1      43.529  32.532  30.501  1.00  0.00     0.259 C 
ATOM     23  N   UNL A   1      43.331  34.844  30.787  1.00  0.00    -0.307 N 
ATOM     24  O   UNL A   1      45.245  34.951  32.223  1.00  0.00    -0.248 OA
ATOM     25  C   UNL A   1      43.127  33.777  29.922  1.00  0.00     0.147 C 
ATOM     26  O   UNL A   1      43.373  31.490  29.885  1.00  0.00    -0.271 OA
ATOM     27  C   UNL A   1      43.202  36.134  29.868  1.00  0.00     0.127 C 
ATOM     28  C   UNL A   1      44.323  34.057  28.984  1.00  0.00     0.168 C 
ATOM     29  C   UNL A   1      41.624  33.687  29.634  1.00  0.00     0.048 C 
ATOM     30  C   UNL A   1      43.129  35.683  28.091  1.00  0.00     0.055 C 
ATOM     31  C   UNL A   1      43.792  34.241  27.660  1.00  0.00    -0.032 C 
ATOM     32  N   UNL A   1      45.703  33.534  29.052  1.00  0.00    -0.274 NA
ATOM     33  C   UNL A   1      44.722  33.547  26.932  1.00  0.00     0.005 A 
ATOM     34  C   UNL A   1      45.960  33.670  27.782  1.00  0.00     0.066 A 
ATOM     35  C   UNL A   1      44.704  32.020  26.779  1.00  0.00     0.056 A 
ATOM     36  C   UNL A   1      47.226  33.313  27.145  1.00  0.00     0.032 A 
ATOM     37  C   UNL A   1      45.889  31.332  26.774  1.00  0.00     0.119 A 
ATOM     38  C   UNL A   1      47.148  32.072  26.647  1.00  0.00     0.048 A 
BRANCH  37  39
ATOM     39  O   UNL A   1      45.982  29.977  27.062  1.00  0.00    -0.497 OA
ATOM     40  C   UNL A   1      44.793  29.212  26.768  1.00  0.00     0.278 C 
ENDBRANCH  37  39
ENDBRANCH  18  20
ENDBRANCH  15  18
ENDBRANCH   9  14
ENDBRANCH   7   9
ENDBRANCH   6   7
ENDBRANCH   5   6
ENDBRANCH   4   5
ENDBRANCH   3   4
ENDBRANCH   2   3
ENDBRANCH   1   2
BRANCH   1  41
ATOM     41  O   UNL A   1      40.002  27.118  27.912  1.00  0.00    -0.377 OA
BRANCH  41  42
ATOM     42  C   UNL A   1      40.214  26.040  27.009  1.00  0.00     0.188 C 
BRANCH  42  43
ATOM     43  C   UNL A   1      40.940  24.831  27.603  1.00  0.00     0.188 C 
BRANCH  43  44
ATOM     44  O   UNL A   1      41.078  23.767  26.659  1.00  0.00    -0.376 OA
BRANCH  44  45
ATOM     45  C   UNL A   1      42.013  22.749  27.008  1.00  0.00     0.202 C 
BRANCH  45  46
ATOM     46  C   UNL A   1      42.566  21.954  25.815  1.00  0.00     0.261 C 
BRANCH  46  47
ATOM     47  O   UNL A   1      42.814  22.700  24.611  1.00  0.00    -0.460 OA
BRANCH  47  48
ATOM     48  C   UNL A   1      44.089  22.743  24.143  1.00  0.00     0.338 C 
ATOM     49  O   UNL A   1      44.494  22.296  23.108  1.00  0.00    -0.246 OA
BRANCH  48  50
ATOM     50  C   UNL A   1      44.882  23.604  25.063  1.00  0.00     0.060 A 
ATOM     51  C   UNL A   1      44.562  24.949  25.248  1.00  0.00     0.016 A 
ATOM     52  C   UNL A   1      45.943  23.029  25.771  1.00  0.00     0.016 A 
ATOM     53  C   UNL A   1      45.278  25.706  26.183  1.00  0.00     0.010 A 
ATOM     54  C   UNL A   1      46.668  23.794  26.695  1.00  0.00     0.010 A 
ATOM     55  C   UNL A   1      46.326  25.134  26.926  1.00  0.00    -0.014 A 
BRANCH  55  56
ATOM     56  C   UNL A   1      46.878  25.872  28.091  1.00  0.00     0.031 A 
ATOM     57  C   UNL A   1      46.284  25.846  29.460  1.00  0.00     0.074 A 
ATOM     58  C   UNL A   1      47.961  26.640  27.890  1.00  0.00     0.049 A 
ATOM     59  N   UNL A   1      46.839  26.139  30.610  1.00  0.00    -0.248 NA
ATOM     60  C   UNL A   1      44.886  25.438  29.558  1.00  0.00     0.031 C 
ATOM     61  C   UNL A   1      48.603  26.867  26.598  1.00  0.00     0.029 A 
ATOM     62  N   UNL A   1      48.690  27.386  28.775  1.00  0.00    -0.354 N 
ATOM     63  C   UNL A   1      45.889  25.836  31.576  1.00  0.00     0.074 A 
ATOM     64  C   UNL A   1      44.715  25.404  30.873  1.00  0.00     0.031 C 
ATOM     65  C   UNL A   1      49.630  27.711  26.771  1.00  0.00     0.029 A 
ATOM     66  C   UNL A   1      49.718  28.070  28.186  1.00  0.00     0.049 A 
ATOM     67  H   UNL A   1      48.495  27.426  29.739  1.00  0.00     0.167 HD
ATOM     68  C   UNL A   1      45.969  25.913  32.925  1.00  0.00     0.034 A 
ATOM     69  C   UNL A   1      50.639  28.887  28.726  1.00  0.00     0.034 A 
ATOM     70  C   UNL A   1      47.031  26.581  33.615  1.00  0.00     0.049 A 
ATOM     71  C   UNL A   1      50.671  29.093  30.211  1.00  0.00     0.074 A 
ATOM     72  C   UNL A   1      47.207  26.753  34.976  1.00  0.00     0.029 A 
ATOM     73  N   UNL A   1      48.045  27.278  32.982  1.00  0.00    -0.354 N 
ATOM     74  N   UNL A   1      49.915  28.550  31.134  1.00  0.00    -0.248 NA
ATOM     75  C   UNL A   1      51.705  29.997  30.732  1.00  0.00     0.031 C 
ATOM     76  C   UNL A   1      48.311  27.595  35.163  1.00  0.00     0.029 A 
ATOM     77  C   UNL A   1      48.829  27.919  33.919  1.00  0.00     0.049 A 
ATOM     78  H   UNL A   1      48.184  27.313  32.009  1.00  0.00     0.167 HD
ATOM     79  C   UNL A   1      50.393  29.028  32.348  1.00  0.00     0.074 A 
ATOM     80  C   UNL A   1      51.510  29.900  32.042  1.00  0.00     0.031 C 
ATOM     81  C   UNL A   1      49.945  28.771  33.601  1.00  0.00     0.034 A 
BRANCH  68  82
ATOM     82  C   UNL A   1      44.904  25.233  33.744  1.00  0.00     0.023 A 
ATOM     83  C   UNL A   1      44.997  23.836  33.925  1.00  0.00     0.012 A 
ATOM     84  C   UNL A   1      43.884  25.946  34.398  1.00  0.00     0.148 A 
ATOM     85  C   UNL A   1      44.095  23.161  34.749  1.00  0.00     0.002 A 
ATOM     86  C   UNL A   1      42.994  25.268  35.226  1.00  0.00     0.091 A 
ATOM     87  F   UNL A   1      43.797  27.268  34.190  1.00  0.00    -0.205 F 
ATOM     88  C   UNL A   1      43.101  23.878  35.405  1.00  0.00     0.022 A 
BRANCH  86  89
ATOM     89  S   UNL A   1      41.660  26.087  36.107  1.00  0.00     0.127 S 
ATOM     90  O   UNL A   1      40.947  26.735  35.005  1.00  0.00    -0.237 OA
ATOM     91  O   UNL A   1      40.954  24.960  36.716  1.00  0.00    -0.237 OA
ATOM     92  O   UNL A   1      42.299  26.997  37.047  1.00  0.00    -0.744 OA
ENDBRANCH  86  89
ENDBRANCH  68  82
BRANCH  69  93
ATOM     93  C   UNL A   1      51.648  29.489  27.822  1.00  0.00     0.023 A 
ATOM     94  C   UNL A   1      52.888  28.848  27.657  1.00  0.00     0.012 A 
ATOM     95  C   UNL A   1      51.323  30.603  27.024  1.00  0.00     0.148 A 
ATOM     96  C   UNL A   1      53.795  29.308  26.704  1.00  0.00     0.002 A 
ATOM     97  C   UNL A   1      52.215  31.032  26.052  1.00  0.00     0.091 A 
ATOM     98  F   UNL A   1      50.126  31.180  27.201  1.00  0.00    -0.205 F 
ATOM     99  C   UNL A   1      53.455  30.391  25.895  1.00  0.00     0.022 A 
BRANCH  97 100
ATOM    100  S   UNL A   1      51.820  32.339  24.886  1.00  0.00     0.127 S 
ATOM    101  O   UNL A   1      51.680  31.591  23.638  1.00  0.00    -0.237 OA
ATOM    102  O   UNL A   1      50.568  32.859  25.437  1.00  0.00    -0.237 OA
ATOM    103  O   UNL A   1      52.938  33.269  24.934  1.00  0.00    -0.744 OA
ENDBRANCH  97 100
ENDBRANCH  69  93
BRANCH  81 104
ATOM    104  C   UNL A   1      50.633  29.444  34.753  1.00  0.00     0.023 A 
ATOM    105  C   UNL A   1      51.760  28.833  35.333  1.00  0.00     0.012 A 
ATOM    106  C   UNL A   1      50.249  30.735  35.160  1.00  0.00     0.148 A 
ATOM    107  C   UNL A   1      52.494  29.498  36.313  1.00  0.00     0.002 A 
ATOM    108  C   UNL A   1      51.007  31.406  36.111  1.00  0.00     0.091 A 
ATOM    109  F   UNL A   1      49.168  31.288  34.592  1.00  0.00    -0.205 F 
ATOM    110  C   UNL A   1      52.126  30.787  36.693  1.00  0.00     0.022 A 
BRANCH 108 111
ATOM    111  S   UNL A   1      50.661  33.099  36.603  1.00  0.00     0.127 S 
ATOM    112  O   UNL A   1      51.741  33.358  37.554  1.00  0.00    -0.237 OA
ATOM    113  O   UNL A   1      50.777  33.818  35.335  1.00  0.00    -0.237 OA
ATOM    114  O   UNL A   1      49.321  33.087  37.175  1.00  0.00    -0.744 OA
ENDBRANCH 108 111
ENDBRANCH  81 104
ENDBRANCH  55  56
ENDBRANCH  48  50
ENDBRANCH  47  48
ENDBRANCH  46  47
ENDBRANCH  45  46
ENDBRANCH  44  45
ENDBRANCH  43  44
ENDBRANCH  42  43
ENDBRANCH  41  42
ENDBRANCH   1  41
TORSDOF 29
ENDMDL
MODEL 3
REMARK VINA RESULT:      -6.9      2.046      2.740
REMARK SMILES CC[C@@H](C)[C@H](NC(=O)[C@H](C)N1C(=O)N2CCC3=c4cc(OC)ccc4=N[C@@H]3[C@@]2(C)C1=O)C(=O)OCCOCCOCCOCCOC(=O)c1ccc(-c2c3nc(c(-c4cccc(S(=O)(=O)[O-])c4F)c4ccc([nH]4)c(-c4cccc(S(=O)(=O)[O-])c4F)c4nc(c(-c5cccc(S(=O)(=O)[O-])c5F)c5ccc2[nH]5)C=C4)C=C3)cc1
REMARK SMILES IDX 39 1 38 2 37 3 36 4 35 5 34 6 32 7 33 8 5 9 3 10 4 11 2 12
REMARK SMILES IDX 1 13 6 14 7 15 8 17 9 18 10 19 11 20 12 21 30 22 14 23 13 24
REMARK SMILES IDX 28 25 31 26 15 27 27 28 29 29 16 30 17 31 26 32 18 33 25 34
REMARK SMILES IDX 19 35 24 36 20 37 23 38 21 39 22 40 40 41 41 42 42 43 43 44
REMARK SMILES IDX 44 45 45 46 46 47 47 48 48 49 49 50 50 51 111 52 51 53
REMARK SMILES IDX 110 54 52 55 53 56 54 57 104 58 55 59 109 60 103 61 105 62
REMARK SMILES IDX 56 63 108 64 102 65 101 66 57 68 89 69 69 70 88 71 70 72
REMARK SMILES IDX 73 73 87 74 106 75 71 76 72 77 86 79 107 80 74 81 58 82
REMARK SMILES IDX 59 83 67 84 60 85 62 86 68 87 61 88 63 89 64 90 65 91 66 92
REMARK SMILES IDX 90 93 91 94 99 95 92 96 94 97 100 98 93 99 95 100 96 101
REMARK SMILES IDX 97 102 98 103 75 104 76 105 84 106 77 107 79 108 85 109
REMARK SMILES IDX 78 110 80 111 81 112 82 113 83 114
REMARK H PARENT 6 16 105 67 73 78
REMARK Flexibility Score: inf
ROOT
ATOM      1  C   UNL A   1      44.552  27.603  28.463  1.00  0.00     0.188 C 
ENDROOT
BRANCH   1   2
ATOM      2  C   UNL A   1      43.253  27.640  27.633  1.00  0.00     0.188 C 
BRANCH   2   3
ATOM      3  O   UNL A   1      42.999  26.594  26.700  1.00  0.00    -0.376 OA
BRANCH   3   4
ATOM      4  C   UNL A   1      41.826  26.701  25.898  1.00  0.00     0.202 C 
BRANCH   4   5
ATOM      5  C   UNL A   1      40.551  26.055  26.453  1.00  0.00     0.261 C 
BRANCH   5   6
ATOM      6  O   UNL A   1      40.186  24.777  25.854  1.00  0.00    -0.462 OA
BRANCH   6   7
ATOM      7  C   UNL A   1      39.125  24.147  26.419  1.00  0.00     0.328 C 
ATOM      8  O   UNL A   1      38.086  24.756  26.679  1.00  0.00    -0.250 OA
BRANCH   7   9
ATOM      9  C   UNL A   1      39.210  22.579  26.666  1.00  0.00     0.195 C 
BRANCH   9  10
ATOM     10  C   UNL A   1      40.642  22.046  26.962  1.00  0.00     0.019 C 
ATOM     11  C   UNL A   1      41.540  22.396  25.761  1.00  0.00     0.010 C 
BRANCH  10  12
ATOM     12  C   UNL A   1      40.769  20.574  27.365  1.00  0.00     0.002 C 
ATOM     13  C   UNL A   1      42.219  20.166  27.571  1.00  0.00     0.004 C 
ENDBRANCH  10  12
ENDBRANCH   9  10
BRANCH   9  14
ATOM     14  N   UNL A   1      38.437  21.455  26.064  1.00  0.00    -0.341 N 
ATOM     15  C   UNL A   1      37.517  21.327  25.052  1.00  0.00     0.243 C 
ATOM     16  H   UNL A   1      38.633  20.594  26.499  1.00  0.00     0.164 HD
ATOM     17  O   UNL A   1      37.561  20.229  24.469  1.00  0.00    -0.273 OA
BRANCH  15  18
ATOM     18  C   UNL A   1      36.431  22.399  24.570  1.00  0.00     0.181 C 
ATOM     19  C   UNL A   1      36.883  23.178  23.346  1.00  0.00     0.042 C 
BRANCH  18  20
ATOM     20  N   UNL A   1      35.667  23.145  25.584  1.00  0.00    -0.250 N 
ATOM     21  C   UNL A   1      34.875  24.349  25.427  1.00  0.00     0.328 C 
ATOM     22  C   UNL A   1      34.971  22.272  26.357  1.00  0.00     0.259 C 
ATOM     23  N   UNL A   1      33.764  24.274  26.396  1.00  0.00    -0.307 N 
ATOM     24  O   UNL A   1      34.972  25.179  24.537  1.00  0.00    -0.248 OA
ATOM     25  C   UNL A   1      33.721  22.908  26.644  1.00  0.00     0.147 C 
ATOM     26  O   UNL A   1      35.113  21.078  26.564  1.00  0.00    -0.271 OA
ATOM     27  C   UNL A   1      32.240  24.726  26.394  1.00  0.00     0.127 C 
ATOM     28  C   UNL A   1      32.904  22.510  25.395  1.00  0.00     0.168 C 
ATOM     29  C   UNL A   1      33.437  22.710  28.137  1.00  0.00     0.048 C 
ATOM     30  C   UNL A   1      31.113  23.279  26.430  1.00  0.00     0.055 C 
ATOM     31  C   UNL A   1      31.709  21.856  25.858  1.00  0.00    -0.032 C 
ATOM     32  N   UNL A   1      33.382  22.094  24.060  1.00  0.00    -0.274 NA
ATOM     33  C   UNL A   1      31.633  20.830  24.953  1.00  0.00     0.005 A 
ATOM     34  C   UNL A   1      32.319  21.410  23.744  1.00  0.00     0.066 A 
ATOM     35  C   UNL A   1      32.447  19.535  25.077  1.00  0.00     0.056 A 
ATOM     36  C   UNL A   1      32.133  20.694  22.484  1.00  0.00     0.032 A 
ATOM     37  C   UNL A   1      32.954  18.951  23.946  1.00  0.00     0.119 A 
ATOM     38  C   UNL A   1      32.497  19.413  22.633  1.00  0.00     0.048 A 
BRANCH  37  39
ATOM     39  O   UNL A   1      34.019  18.060  23.965  1.00  0.00    -0.497 OA
ATOM     40  C   UNL A   1      33.833  16.911  24.819  1.00  0.00     0.278 C 
ENDBRANCH  37  39
ENDBRANCH  18  20
ENDBRANCH  15  18
ENDBRANCH   9  14
ENDBRANCH   7   9
ENDBRANCH   6   7
ENDBRANCH   5   6
ENDBRANCH   4   5
ENDBRANCH   3   4
ENDBRANCH   2   3
ENDBRANCH   1   2
BRANCH   1  41
ATOM     41  O   UNL A   1      44.665  28.654  29.410  1.00  0.00    -0.377 OA
BRANCH  41  42
ATOM     42  C   UNL A   1      45.358  28.311  30.604  1.00  0.00     0.188 C 
BRANCH  42  43
ATOM     43  C   UNL A   1      44.756  27.143  31.389  1.00  0.00     0.188 C 
BRANCH  43  44
ATOM     44  O   UNL A   1      43.956  27.586  32.487  1.00  0.00    -0.376 OA
BRANCH  44  45
ATOM     45  C   UNL A   1      42.961  28.557  32.173  1.00  0.00     0.202 C 
BRANCH  45  46
ATOM     46  C   UNL A   1      42.727  29.609  33.268  1.00  0.00     0.261 C 
BRANCH  46  47
ATOM     47  O   UNL A   1      42.556  30.966  32.824  1.00  0.00    -0.460 OA
BRANCH  47  48
ATOM     48  C   UNL A   1      43.326  31.925  33.402  1.00  0.00     0.338 C 
ATOM     49  O   UNL A   1      43.334  32.247  34.555  1.00  0.00    -0.246 OA
BRANCH  48  50
ATOM     50  C   UNL A   1      44.300  32.401  32.382  1.00  0.00     0.060 A 
ATOM     51  C   UNL A   1      45.465  33.072  32.754  1.00  0.00     0.016 A 
ATOM     52  C   UNL A   1      44.044  32.132  31.033  1.00  0.00     0.016 A 
ATOM     53  C   UNL A   1      46.397  33.431  31.774  1.00  0.00     0.010 A 
ATOM     54  C   UNL A   1      44.972  32.506  30.052  1.00  0.00     0.010 A 
ATOM     55  C   UNL A   1      46.169  33.139  30.417  1.00  0.00    -0.014 A 
BRANCH  55  56
ATOM     56  C   UNL A   1      47.283  33.281  29.445  1.00  0.00     0.031 A 
ATOM     57  C   UNL A   1      48.301  32.223  29.173  1.00  0.00     0.074 A 
ATOM     58  C   UNL A   1      47.403  34.450  28.795  1.00  0.00     0.049 A 
ATOM     59  N   UNL A   1      49.084  32.074  28.134  1.00  0.00    -0.248 NA
ATOM     60  C   UNL A   1      48.464  31.195  30.196  1.00  0.00     0.031 C 
ATOM     61  C   UNL A   1      46.565  35.625  29.019  1.00  0.00     0.029 A 
ATOM     62  N   UNL A   1      48.296  34.838  27.835  1.00  0.00    -0.354 N 
ATOM     63  C   UNL A   1      49.747  30.871  28.330  1.00  0.00     0.074 A 
ATOM     64  C   UNL A   1      49.322  30.373  29.607  1.00  0.00     0.031 C 
ATOM     65  C   UNL A   1      46.993  36.615  28.223  1.00  0.00     0.029 A 
ATOM     66  C   UNL A   1      48.124  36.134  27.431  1.00  0.00     0.049 A 
ATOM     67  H   UNL A   1      48.991  34.245  27.470  1.00  0.00     0.167 HD
ATOM     68  C   UNL A   1      50.635  30.231  27.534  1.00  0.00     0.034 A 
ATOM     69  C   UNL A   1      48.795  36.853  26.513  1.00  0.00     0.034 A 
ATOM     70  C   UNL A   1      51.255  30.839  26.395  1.00  0.00     0.049 A 
ATOM     71  C   UNL A   1      49.876  36.202  25.704  1.00  0.00     0.074 A 
ATOM     72  C   UNL A   1      52.193  30.304  25.530  1.00  0.00     0.029 A 
ATOM     73  N   UNL A   1      51.069  32.160  26.029  1.00  0.00    -0.354 N 
ATOM     74  N   UNL A   1      50.284  34.957  25.725  1.00  0.00    -0.248 NA
ATOM     75  C   UNL A   1      50.565  37.047  24.719  1.00  0.00     0.031 C 
ATOM     76  C   UNL A   1      52.605  31.323  24.662  1.00  0.00     0.029 A 
ATOM     77  C   UNL A   1      51.903  32.476  24.977  1.00  0.00     0.049 A 
ATOM     78  H   UNL A   1      50.437  32.781  26.456  1.00  0.00     0.167 HD
ATOM     79  C   UNL A   1      51.263  34.860  24.743  1.00  0.00     0.074 A 
ATOM     80  C   UNL A   1      51.382  36.173  24.141  1.00  0.00     0.031 C 
ATOM     81  C   UNL A   1      51.999  33.782  24.378  1.00  0.00     0.034 A 
BRANCH  68  82
ATOM     82  C   UNL A   1      50.967  28.794  27.843  1.00  0.00     0.023 A 
ATOM     83  C   UNL A   1      52.220  28.514  28.431  1.00  0.00     0.012 A 
ATOM     84  C   UNL A   1      50.047  27.748  27.649  1.00  0.00     0.148 A 
ATOM     85  C   UNL A   1      52.549  27.217  28.826  1.00  0.00     0.002 A 
ATOM     86  C   UNL A   1      50.378  26.459  28.055  1.00  0.00     0.091 A 
ATOM     87  F   UNL A   1      48.874  28.032  27.065  1.00  0.00    -0.205 F 
ATOM     88  C   UNL A   1      51.626  26.193  28.647  1.00  0.00     0.022 A 
BRANCH  86  89
ATOM     89  S   UNL A   1      49.274  25.056  27.855  1.00  0.00     0.127 S 
ATOM     90  O   UNL A   1      49.283  24.893  26.401  1.00  0.00    -0.237 OA
ATOM     91  O   UNL A   1      49.971  24.006  28.596  1.00  0.00    -0.237 OA
ATOM     92  O   UNL A   1      47.997  25.467  28.421  1.00  0.00    -0.744 OA
ENDBRANCH  86  89
ENDBRANCH  68  82
BRANCH  69  93
ATOM     93  C   UNL A   1      48.370  38.254  26.285  1.00  0.00     0.023 A 
ATOM     94  C   UNL A   1      47.370  38.520  25.333  1.00  0.00     0.012 A 
ATOM     95  C   UNL A   1      48.848  39.293  27.107  1.00  0.00     0.148 A 
ATOM     96  C   UNL A   1      46.847  39.805  25.203  1.00  0.00     0.002 A 
ATOM     97  C   UNL A   1      48.296  40.561  26.998  1.00  0.00     0.091 A 
ATOM     98  F   UNL A   1      49.792  38.999  28.012  1.00  0.00    -0.205 F 
ATOM     99  C   UNL A   1      47.301  40.822  26.041  1.00  0.00     0.022 A 
BRANCH  97 100
ATOM    100  S   UNL A   1      48.730  41.903  28.110  1.00  0.00     0.127 S 
ATOM    101  O   UNL A   1      47.936  41.576  29.293  1.00  0.00    -0.237 OA
ATOM    102  O   UNL A   1      50.171  41.708  28.261  1.00  0.00    -0.237 OA
ATOM    103  O   UNL A   1      48.350  43.129  27.423  1.00  0.00    -0.744 OA
ENDBRANCH  97 100
ENDBRANCH  69  93
BRANCH  81 104
ATOM    104  C   UNL A   1      53.021  33.955  23.292  1.00  0.00     0.023 A 
ATOM    105  C   UNL A   1      52.665  33.665  21.961  1.00  0.00     0.012 A 
ATOM    106  C   UNL A   1      54.273  34.534  23.572  1.00  0.00     0.148 A 
ATOM    107  C   UNL A   1      53.549  33.944  20.921  1.00  0.00     0.002 A 
ATOM    108  C   UNL A   1      55.133  34.841  22.527  1.00  0.00     0.091 A 
ATOM    109  F   UNL A   1      54.584  34.794  24.850  1.00  0.00    -0.205 F 
ATOM    110  C   UNL A   1      54.776  34.542  21.201  1.00  0.00     0.022 A 
BRANCH 108 111
ATOM    111  S   UNL A   1      56.698  35.688  22.780  1.00  0.00     0.127 S 
ATOM    112  O   UNL A   1      57.495  34.649  23.430  1.00  0.00    -0.237 OA
ATOM    113  O   UNL A   1      57.102  36.003  21.410  1.00  0.00    -0.237 OA
ATOM    114  O   UNL A   1      56.398  36.848  23.608  1.00  0.00    -0.744 OA
ENDBRANCH 108 111
ENDBRANCH  81 104
ENDBRANCH  55  56
ENDBRANCH  48  50
ENDBRANCH  47  48
ENDBRANCH  46  47
ENDBRANCH  45  46
ENDBRANCH  44  45
ENDBRANCH  43  44
ENDBRANCH  42  43
ENDBRANCH  41  42
ENDBRANCH   1  41
TORSDOF 29
ENDMDL
