MODEL 1
REMARK VINA RESULT:      -6.2      0.000      0.000
REMARK SMILES O=C(OCCOCCOCCOCCOC(=O)[C@H]1CCC[N@@H+]1Cc1ccccc1[N+](=O)[O-])c1ccc(-c2c3nc(c(-c4cccc(S(=O)(=O)[O-])c4F)c4ccc([nH]4)c(-c4cccc(S(=O)(=O)[O-])c4F)c4nc(c(-c5cccc(S(=O)(=O)[O-])c5F)c5ccc2[nH]5)C=C4)C=C3)cc1
REMARK SMILES IDX 9 1 8 2 7 3 6 4 5 5 4 6 3 7 2 8 1 9 33 10 34 11 95 12 35 13
REMARK SMILES IDX 94 14 36 15 37 16 38 17 88 18 39 19 93 20 87 21 89 22 40 23
REMARK SMILES IDX 92 24 86 25 85 26 41 28 73 29 53 30 72 31 54 32 57 33 71 34
REMARK SMILES IDX 90 35 55 36 56 37 70 39 91 40 58 41 42 42 43 43 51 44 44 45
REMARK SMILES IDX 46 46 52 47 45 48 47 49 48 50 49 51 50 52 74 53 75 54 83 55
REMARK SMILES IDX 76 56 78 57 84 58 77 59 79 60 80 61 81 62 82 63 59 64 60 65
REMARK SMILES IDX 68 66 61 67 63 68 69 69 62 70 64 71 65 72 66 73 67 74 10 75
REMARK SMILES IDX 11 76 12 77 13 78 14 79 15 80 16 81 17 82 18 83 19 84 22 85
REMARK SMILES IDX 20 86 21 87 23 89 24 90 25 91 29 92 26 93 28 94 27 95 30 96
REMARK SMILES IDX 31 97 32 98
REMARK H PARENT 89 27 57 38 22 88
REMARK Flexibility Score: inf
ROOT
ATOM      1  O   UNL A   1      46.054  44.580  28.901  1.00  0.00    -0.377 OA
ENDROOT
BRANCH   1   2
ATOM      2  C   UNL A   1      45.146  43.516  29.051  1.00  0.00     0.188 C 
BRANCH   2   3
ATOM      3  C   UNL A   1      44.217  43.536  30.253  1.00  0.00     0.188 C 
BRANCH   3   4
ATOM      4  O   UNL A   1      44.720  44.319  31.330  1.00  0.00    -0.376 OA
BRANCH   4   5
ATOM      5  C   UNL A   1      43.741  44.932  32.174  1.00  0.00     0.202 C 
BRANCH   5   6
ATOM      6  C   UNL A   1      44.160  45.151  33.633  1.00  0.00     0.261 C 
BRANCH   6   7
ATOM      7  O   UNL A   1      43.850  44.070  34.532  1.00  0.00    -0.460 OA
BRANCH   7   8
ATOM      8  C   UNL A   1      43.106  42.948  34.345  1.00  0.00     0.338 C 
ATOM      9  O   UNL A   1      41.983  42.917  34.849  1.00  0.00    -0.246 OA
BRANCH   8  10
ATOM     10  C   UNL A   1      43.592  41.715  33.647  1.00  0.00     0.060 A 
ATOM     11  C   UNL A   1      43.062  41.226  32.459  1.00  0.00     0.016 A 
ATOM     12  C   UNL A   1      44.679  41.016  34.205  1.00  0.00     0.016 A 
ATOM     13  C   UNL A   1      43.535  40.093  31.844  1.00  0.00     0.010 A 
ATOM     14  C   UNL A   1      45.144  39.831  33.622  1.00  0.00     0.010 A 
ATOM     15  C   UNL A   1      44.525  39.354  32.463  1.00  0.00    -0.014 A 
BRANCH  15  16
ATOM     16  C   UNL A   1      44.568  37.955  32.026  1.00  0.00     0.031 A 
ATOM     17  C   UNL A   1      45.679  37.587  31.087  1.00  0.00     0.074 A 
ATOM     18  C   UNL A   1      43.850  37.037  32.692  1.00  0.00     0.049 A 
ATOM     19  N   UNL A   1      45.998  36.424  30.598  1.00  0.00    -0.248 NA
ATOM     20  C   UNL A   1      46.586  38.678  30.672  1.00  0.00     0.031 C 
ATOM     21  C   UNL A   1      42.928  37.326  33.796  1.00  0.00     0.029 A 
ATOM     22  N   UNL A   1      43.819  35.677  32.580  1.00  0.00    -0.354 N 
ATOM     23  C   UNL A   1      47.083  36.657  29.763  1.00  0.00     0.074 A 
ATOM     24  C   UNL A   1      47.405  38.060  29.841  1.00  0.00     0.031 C 
ATOM     25  C   UNL A   1      42.412  36.173  34.251  1.00  0.00     0.029 A 
ATOM     26  C   UNL A   1      42.913  35.083  33.425  1.00  0.00     0.049 A 
ATOM     27  H   UNL A   1      44.389  35.173  31.956  1.00  0.00     0.167 HD
ATOM     28  C   UNL A   1      47.729  35.770  28.978  1.00  0.00     0.034 A 
ATOM     29  C   UNL A   1      42.512  33.801  33.469  1.00  0.00     0.034 A 
ATOM     30  C   UNL A   1      47.366  34.385  28.937  1.00  0.00     0.049 A 
ATOM     31  C   UNL A   1      43.169  32.852  32.504  1.00  0.00     0.074 A 
ATOM     32  C   UNL A   1      47.864  33.381  28.133  1.00  0.00     0.029 A 
ATOM     33  N   UNL A   1      46.384  33.819  29.741  1.00  0.00    -0.354 N 
ATOM     34  N   UNL A   1      44.154  33.080  31.666  1.00  0.00    -0.248 NA
ATOM     35  C   UNL A   1      42.678  31.472  32.495  1.00  0.00     0.031 C 
ATOM     36  C   UNL A   1      47.146  32.215  28.420  1.00  0.00     0.029 A 
ATOM     37  C   UNL A   1      46.246  32.480  29.445  1.00  0.00     0.049 A 
ATOM     38  H   UNL A   1      45.863  34.303  30.422  1.00  0.00     0.167 HD
ATOM     39  C   UNL A   1      44.429  31.867  31.056  1.00  0.00     0.074 A 
ATOM     40  C   UNL A   1      43.512  30.901  31.637  1.00  0.00     0.031 C 
ATOM     41  C   UNL A   1      45.342  31.564  30.098  1.00  0.00     0.034 A 
BRANCH  28  42
ATOM     42  C   UNL A   1      48.777  36.316  28.050  1.00  0.00     0.023 A 
ATOM     43  C   UNL A   1      48.430  36.842  26.789  1.00  0.00     0.012 A 
ATOM     44  C   UNL A   1      50.136  36.237  28.416  1.00  0.00     0.148 A 
ATOM     45  C   UNL A   1      49.423  37.239  25.891  1.00  0.00     0.002 A 
ATOM     46  C   UNL A   1      51.114  36.679  27.537  1.00  0.00     0.091 A 
ATOM     47  F   UNL A   1      50.445  35.691  29.601  1.00  0.00    -0.205 F 
ATOM     48  C   UNL A   1      50.762  37.165  26.267  1.00  0.00     0.022 A 
BRANCH  46  49
ATOM     49  S   UNL A   1      52.859  36.680  27.952  1.00  0.00     0.127 S 
ATOM     50  O   UNL A   1      53.427  37.453  26.853  1.00  0.00    -0.237 OA
ATOM     51  O   UNL A   1      52.864  37.356  29.246  1.00  0.00    -0.237 OA
ATOM     52  O   UNL A   1      53.264  35.275  27.997  1.00  0.00    -0.744 OA
ENDBRANCH  46  49
ENDBRANCH  28  42
BRANCH  29  53
ATOM     53  C   UNL A   1      41.436  33.366  34.406  1.00  0.00     0.023 A 
ATOM     54  C   UNL A   1      41.772  32.819  35.658  1.00  0.00     0.012 A 
ATOM     55  C   UNL A   1      40.074  33.488  34.058  1.00  0.00     0.148 A 
ATOM     56  C   UNL A   1      40.777  32.367  36.528  1.00  0.00     0.002 A 
ATOM     57  C   UNL A   1      39.087  33.085  34.949  1.00  0.00     0.091 A 
ATOM     58  F   UNL A   1      39.769  33.997  32.856  1.00  0.00    -0.205 F 
ATOM     59  C   UNL A   1      39.437  32.506  36.178  1.00  0.00     0.022 A 
BRANCH  57  60
ATOM     60  S   UNL A   1      37.335  33.324  34.625  1.00  0.00     0.127 S 
ATOM     61  O   UNL A   1      36.748  33.024  35.928  1.00  0.00    -0.237 OA
ATOM     62  O   UNL A   1      37.289  34.733  34.238  1.00  0.00    -0.237 OA
ATOM     63  O   UNL A   1      37.001  32.394  33.554  1.00  0.00    -0.744 OA
ENDBRANCH  57  60
ENDBRANCH  29  53
BRANCH  41  64
ATOM     64  C   UNL A   1      45.434  30.127  29.679  1.00  0.00     0.023 A 
ATOM     65  C   UNL A   1      46.210  29.219  30.423  1.00  0.00     0.012 A 
ATOM     66  C   UNL A   1      44.666  29.670  28.592  1.00  0.00     0.148 A 
ATOM     67  C   UNL A   1      46.249  27.874  30.063  1.00  0.00     0.002 A 
ATOM     68  C   UNL A   1      44.660  28.320  28.281  1.00  0.00     0.091 A 
ATOM     69  F   UNL A   1      43.951  30.563  27.891  1.00  0.00    -0.205 F 
ATOM     70  C   UNL A   1      45.463  27.423  29.003  1.00  0.00     0.022 A 
BRANCH  68  71
ATOM     71  S   UNL A   1      43.582  27.642  27.017  1.00  0.00     0.127 S 
ATOM     72  O   UNL A   1      44.279  28.031  25.792  1.00  0.00    -0.237 OA
ATOM     73  O   UNL A   1      43.618  26.210  27.315  1.00  0.00    -0.237 OA
ATOM     74  O   UNL A   1      42.281  28.265  27.223  1.00  0.00    -0.744 OA
ENDBRANCH  68  71
ENDBRANCH  41  64
ENDBRANCH  15  16
ENDBRANCH   8  10
ENDBRANCH   7   8
ENDBRANCH   6   7
ENDBRANCH   5   6
ENDBRANCH   4   5
ENDBRANCH   3   4
ENDBRANCH   2   3
ENDBRANCH   1   2
BRANCH   1  75
ATOM     75  C   UNL A   1      45.660  45.708  28.160  1.00  0.00     0.188 C 
BRANCH  75  76
ATOM     76  C   UNL A   1      45.586  45.777  26.622  1.00  0.00     0.188 C 
BRANCH  76  77
ATOM     77  O   UNL A   1      45.656  44.617  25.817  1.00  0.00    -0.376 OA
BRANCH  77  78
ATOM     78  C   UNL A   1      44.641  44.401  24.859  1.00  0.00     0.202 C 
BRANCH  78  79
ATOM     79  C   UNL A   1      43.937  43.029  24.922  1.00  0.00     0.261 C 
BRANCH  79  80
ATOM     80  O   UNL A   1      44.108  42.232  26.127  1.00  0.00    -0.459 OA
BRANCH  80  81
ATOM     81  C   UNL A   1      44.573  40.953  26.013  1.00  0.00     0.365 C 
ATOM     82  O   UNL A   1      45.222  40.553  25.049  1.00  0.00    -0.245 OA
BRANCH  81  83
ATOM     83  C   UNL A   1      44.255  40.007  27.233  1.00  0.00     0.295 C 
ATOM     84  C   UNL A   1      43.176  40.429  28.240  1.00  0.00     0.083 C 
ATOM     85  N   UNL A   1      43.810  38.658  26.800  1.00  0.00    -0.319 N 
ATOM     86  C   UNL A   1      41.906  39.665  27.837  1.00  0.00     0.068 C 
ATOM     87  C   UNL A   1      42.350  38.745  26.707  1.00  0.00     0.263 C 
ATOM     88  H   UNL A   1      44.200  38.403  25.892  1.00  0.00     0.349 HD
BRANCH  85  89
ATOM     89  C   UNL A   1      44.337  37.556  27.637  1.00  0.00     0.307 C 
BRANCH  89  90
ATOM     90  C   UNL A   1      44.301  36.132  27.090  1.00  0.00     0.084 A 
ATOM     91  C   UNL A   1      45.206  35.774  26.067  1.00  0.00     0.017 A 
ATOM     92  C   UNL A   1      43.491  35.099  27.606  1.00  0.00     0.278 A 
ATOM     93  C   UNL A   1      45.372  34.439  25.670  1.00  0.00     0.001 A 
ATOM     94  C   UNL A   1      43.667  33.756  27.221  1.00  0.00     0.086 A 
ATOM     95  C   UNL A   1      44.623  33.430  26.266  1.00  0.00     0.007 A 
BRANCH  92  96
ATOM     96  N   UNL A   1      42.444  35.359  28.587  1.00  0.00     0.063 N 
ATOM     97  O   UNL A   1      42.759  35.287  29.785  1.00  0.00    -0.258 OA
ATOM     98  O   UNL A   1      41.306  35.592  28.163  1.00  0.00    -0.258 OA
ENDBRANCH  92  96
ENDBRANCH  89  90
ENDBRANCH  85  89
ENDBRANCH  81  83
ENDBRANCH  80  81
ENDBRANCH  79  80
ENDBRANCH  78  79
ENDBRANCH  77  78
ENDBRANCH  76  77
ENDBRANCH  75  76
ENDBRANCH   1  75
TORSDOF 26
ENDMDL
MODEL 2
REMARK VINA RESULT:      -5.9      4.558     10.130
REMARK SMILES O=C(OCCOCCOCCOCCOC(=O)[C@H]1CCC[N@@H+]1Cc1ccccc1[N+](=O)[O-])c1ccc(-c2c3nc(c(-c4cccc(S(=O)(=O)[O-])c4F)c4ccc([nH]4)c(-c4cccc(S(=O)(=O)[O-])c4F)c4nc(c(-c5cccc(S(=O)(=O)[O-])c5F)c5ccc2[nH]5)C=C4)C=C3)cc1
REMARK SMILES IDX 9 1 8 2 7 3 6 4 5 5 4 6 3 7 2 8 1 9 33 10 34 11 95 12 35 13
REMARK SMILES IDX 94 14 36 15 37 16 38 17 88 18 39 19 93 20 87 21 89 22 40 23
REMARK SMILES IDX 92 24 86 25 85 26 41 28 73 29 53 30 72 31 54 32 57 33 71 34
REMARK SMILES IDX 90 35 55 36 56 37 70 39 91 40 58 41 42 42 43 43 51 44 44 45
REMARK SMILES IDX 46 46 52 47 45 48 47 49 48 50 49 51 50 52 74 53 75 54 83 55
REMARK SMILES IDX 76 56 78 57 84 58 77 59 79 60 80 61 81 62 82 63 59 64 60 65
REMARK SMILES IDX 68 66 61 67 63 68 69 69 62 70 64 71 65 72 66 73 67 74 10 75
REMARK SMILES IDX 11 76 12 77 13 78 14 79 15 80 16 81 17 82 18 83 19 84 22 85
REMARK SMILES IDX 20 86 21 87 23 89 24 90 25 91 29 92 26 93 28 94 27 95 30 96
REMARK SMILES IDX 31 97 32 98
REMARK H PARENT 89 27 57 38 22 88
REMARK Flexibility Score: inf
ROOT
ATOM      1  O   UNL A   1      38.432  33.954  38.967  1.00  0.00    -0.377 OA
ENDROOT
BRANCH   1   2
ATOM      2  C   UNL A   1      39.522  33.311  39.582  1.00  0.00     0.188 C 
BRANCH   2   3
ATOM      3  C   UNL A   1      40.700  34.164  40.019  1.00  0.00     0.188 C 
BRANCH   3   4
ATOM      4  O   UNL A   1      40.311  35.281  40.813  1.00  0.00    -0.376 OA
BRANCH   4   5
ATOM      5  C   UNL A   1      40.526  36.571  40.232  1.00  0.00     0.202 C 
BRANCH   5   6
ATOM      6  C   UNL A   1      41.848  37.256  40.600  1.00  0.00     0.261 C 
BRANCH   6   7
ATOM      7  O   UNL A   1      42.980  36.887  39.790  1.00  0.00    -0.460 OA
BRANCH   7   8
ATOM      8  C   UNL A   1      43.187  37.001  38.451  1.00  0.00     0.338 C 
ATOM      9  O   UNL A   1      43.338  38.134  37.992  1.00  0.00    -0.246 OA
BRANCH   8  10
ATOM     10  C   UNL A   1      43.153  35.856  37.486  1.00  0.00     0.060 A 
ATOM     11  C   UNL A   1      44.244  35.045  37.193  1.00  0.00     0.016 A 
ATOM     12  C   UNL A   1      41.933  35.551  36.853  1.00  0.00     0.016 A 
ATOM     13  C   UNL A   1      44.176  34.001  36.305  1.00  0.00     0.010 A 
ATOM     14  C   UNL A   1      41.855  34.523  35.906  1.00  0.00     0.010 A 
ATOM     15  C   UNL A   1      43.004  33.785  35.605  1.00  0.00    -0.014 A 
BRANCH  15  16
ATOM     16  C   UNL A   1      43.197  33.040  34.357  1.00  0.00     0.031 A 
ATOM     17  C   UNL A   1      43.065  31.548  34.447  1.00  0.00     0.074 A 
ATOM     18  C   UNL A   1      43.168  33.700  33.188  1.00  0.00     0.049 A 
ATOM     19  N   UNL A   1      43.116  30.655  33.503  1.00  0.00    -0.248 NA
ATOM     20  C   UNL A   1      42.793  30.986  35.788  1.00  0.00     0.031 C 
ATOM     21  C   UNL A   1      43.046  35.155  33.044  1.00  0.00     0.029 A 
ATOM     22  N   UNL A   1      43.184  33.237  31.905  1.00  0.00    -0.354 N 
ATOM     23  C   UNL A   1      42.966  29.431  34.143  1.00  0.00     0.074 A 
ATOM     24  C   UNL A   1      42.772  29.688  35.547  1.00  0.00     0.031 C 
ATOM     25  C   UNL A   1      43.011  35.465  31.738  1.00  0.00     0.029 A 
ATOM     26  C   UNL A   1      43.180  34.241  30.966  1.00  0.00     0.049 A 
ATOM     27  H   UNL A   1      43.198  32.281  31.675  1.00  0.00     0.167 HD
ATOM     28  C   UNL A   1      43.015  28.199  33.594  1.00  0.00     0.034 A 
ATOM     29  C   UNL A   1      43.349  34.156  29.635  1.00  0.00     0.034 A 
ATOM     30  C   UNL A   1      43.213  27.999  32.189  1.00  0.00     0.049 A 
ATOM     31  C   UNL A   1      43.516  32.776  29.060  1.00  0.00     0.074 A 
ATOM     32  C   UNL A   1      43.373  26.819  31.494  1.00  0.00     0.029 A 
ATOM     33  N   UNL A   1      43.292  29.033  31.265  1.00  0.00    -0.354 N 
ATOM     34  N   UNL A   1      43.437  31.614  29.670  1.00  0.00    -0.248 NA
ATOM     35  C   UNL A   1      43.780  32.685  27.622  1.00  0.00     0.031 C 
ATOM     36  C   UNL A   1      43.598  27.145  30.153  1.00  0.00     0.029 A 
ATOM     37  C   UNL A   1      43.516  28.525  30.004  1.00  0.00     0.049 A 
ATOM     38  H   UNL A   1      43.203  29.991  31.479  1.00  0.00     0.167 HD
ATOM     39  C   UNL A   1      43.603  30.652  28.687  1.00  0.00     0.074 A 
ATOM     40  C   UNL A   1      43.771  31.372  27.436  1.00  0.00     0.031 C 
ATOM     41  C   UNL A   1      43.626  29.299  28.792  1.00  0.00     0.034 A 
BRANCH  28  42
ATOM     42  C   UNL A   1      42.977  27.029  34.537  1.00  0.00     0.023 A 
ATOM     43  C   UNL A   1      41.753  26.455  34.935  1.00  0.00     0.012 A 
ATOM     44  C   UNL A   1      44.180  26.544  35.086  1.00  0.00     0.148 A 
ATOM     45  C   UNL A   1      41.727  25.446  35.899  1.00  0.00     0.002 A 
ATOM     46  C   UNL A   1      44.149  25.507  36.007  1.00  0.00     0.091 A 
ATOM     47  F   UNL A   1      45.329  27.135  34.726  1.00  0.00    -0.205 F 
ATOM     48  C   UNL A   1      42.922  24.967  36.429  1.00  0.00     0.022 A 
BRANCH  46  49
ATOM     49  S   UNL A   1      45.637  24.783  36.700  1.00  0.00     0.127 S 
ATOM     50  O   UNL A   1      46.077  25.828  37.618  1.00  0.00    -0.237 OA
ATOM     51  O   UNL A   1      45.118  23.578  37.343  1.00  0.00    -0.237 OA
ATOM     52  O   UNL A   1      46.530  24.534  35.569  1.00  0.00    -0.744 OA
ENDBRANCH  46  49
ENDBRANCH  28  42
BRANCH  29  53
ATOM     53  C   UNL A   1      43.408  35.383  28.790  1.00  0.00     0.023 A 
ATOM     54  C   UNL A   1      42.232  35.900  28.216  1.00  0.00     0.012 A 
ATOM     55  C   UNL A   1      44.633  36.040  28.545  1.00  0.00     0.148 A 
ATOM     56  C   UNL A   1      42.278  37.023  27.387  1.00  0.00     0.002 A 
ATOM     57  C   UNL A   1      44.664  37.188  27.762  1.00  0.00     0.091 A 
ATOM     58  F   UNL A   1      45.748  35.529  29.086  1.00  0.00    -0.205 F 
ATOM     59  C   UNL A   1      43.490  37.670  27.166  1.00  0.00     0.022 A 
BRANCH  57  60
ATOM     60  S   UNL A   1      46.165  38.145  27.510  1.00  0.00     0.127 S 
ATOM     61  O   UNL A   1      45.825  38.922  26.321  1.00  0.00    -0.237 OA
ATOM     62  O   UNL A   1      46.242  38.918  28.749  1.00  0.00    -0.237 OA
ATOM     63  O   UNL A   1      47.233  37.169  27.341  1.00  0.00    -0.744 OA
ENDBRANCH  57  60
ENDBRANCH  29  53
BRANCH  41  64
ATOM     64  C   UNL A   1      43.770  28.523  27.517  1.00  0.00     0.023 A 
ATOM     65  C   UNL A   1      42.629  28.093  26.814  1.00  0.00     0.012 A 
ATOM     66  C   UNL A   1      45.051  28.305  26.976  1.00  0.00     0.148 A 
ATOM     67  C   UNL A   1      42.766  27.420  25.603  1.00  0.00     0.002 A 
ATOM     68  C   UNL A   1      45.175  27.693  25.740  1.00  0.00     0.091 A 
ATOM     69  F   UNL A   1      46.121  28.710  27.679  1.00  0.00    -0.205 F 
ATOM     70  C   UNL A   1      44.036  27.234  25.059  1.00  0.00     0.022 A 
BRANCH  68  71
ATOM     71  S   UNL A   1      46.761  27.530  24.916  1.00  0.00     0.127 S 
ATOM     72  O   UNL A   1      46.805  28.753  24.115  1.00  0.00    -0.237 OA
ATOM     73  O   UNL A   1      47.694  27.501  26.042  1.00  0.00    -0.237 OA
ATOM     74  O   UNL A   1      46.693  26.287  24.158  1.00  0.00    -0.744 OA
ENDBRANCH  68  71
ENDBRANCH  41  64
ENDBRANCH  15  16
ENDBRANCH   8  10
ENDBRANCH   7   8
ENDBRANCH   6   7
ENDBRANCH   5   6
ENDBRANCH   4   5
ENDBRANCH   3   4
ENDBRANCH   2   3
ENDBRANCH   1   2
BRANCH   1  75
ATOM     75  C   UNL A   1      37.491  33.176  38.270  1.00  0.00     0.188 C 
BRANCH  75  76
ATOM     76  C   UNL A   1      37.787  31.823  37.593  1.00  0.00     0.188 C 
BRANCH  76  77
ATOM     77  O   UNL A   1      37.525  31.599  36.222  1.00  0.00    -0.376 OA
BRANCH  77  78
ATOM     78  C   UNL A   1      37.614  32.693  35.333  1.00  0.00     0.202 C 
BRANCH  78  79
ATOM     79  C   UNL A   1      37.056  32.454  33.914  1.00  0.00     0.261 C 
BRANCH  79  80
ATOM     80  O   UNL A   1      37.375  33.431  32.885  1.00  0.00    -0.459 OA
BRANCH  80  81
ATOM     81  C   UNL A   1      36.750  33.342  31.674  1.00  0.00     0.365 C 
ATOM     82  O   UNL A   1      35.563  33.606  31.504  1.00  0.00    -0.245 OA
BRANCH  81  83
ATOM     83  C   UNL A   1      37.670  32.906  30.470  1.00  0.00     0.295 C 
ATOM     84  C   UNL A   1      37.744  33.804  29.227  1.00  0.00     0.083 C 
ATOM     85  N   UNL A   1      39.092  32.758  30.871  1.00  0.00    -0.319 N 
ATOM     86  C   UNL A   1      39.031  34.629  29.384  1.00  0.00     0.068 C 
ATOM     87  C   UNL A   1      39.699  34.072  30.634  1.00  0.00     0.263 C 
ATOM     88  H   UNL A   1      39.185  32.507  31.855  1.00  0.00     0.349 HD
BRANCH  85  89
ATOM     89  C   UNL A   1      39.778  31.609  30.235  1.00  0.00     0.307 C 
BRANCH  89  90
ATOM     90  C   UNL A   1      39.552  30.210  30.800  1.00  0.00     0.084 A 
ATOM     91  C   UNL A   1      39.872  29.965  32.154  1.00  0.00     0.017 A 
ATOM     92  C   UNL A   1      38.942  29.152  30.095  1.00  0.00     0.278 A 
ATOM     93  C   UNL A   1      39.495  28.774  32.792  1.00  0.00     0.001 A 
ATOM     94  C   UNL A   1      38.548  27.963  30.736  1.00  0.00     0.086 A 
ATOM     95  C   UNL A   1      38.810  27.787  32.090  1.00  0.00     0.007 A 
BRANCH  92  96
ATOM     96  N   UNL A   1      38.661  29.241  28.666  1.00  0.00     0.063 N 
ATOM     97  O   UNL A   1      39.634  29.344  27.903  1.00  0.00    -0.258 OA
ATOM     98  O   UNL A   1      37.476  29.252  28.316  1.00  0.00    -0.258 OA
ENDBRANCH  92  96
ENDBRANCH  89  90
ENDBRANCH  85  89
ENDBRANCH  81  83
ENDBRANCH  80  81
ENDBRANCH  79  80
ENDBRANCH  78  79
ENDBRANCH  77  78
ENDBRANCH  76  77
ENDBRANCH  75  76
ENDBRANCH   1  75
TORSDOF 26
ENDMDL
MODEL 3
REMARK VINA RESULT:      -5.7      2.498      3.358
REMARK SMILES O=C(OCCOCCOCCOCCOC(=O)[C@H]1CCC[N@@H+]1Cc1ccccc1[N+](=O)[O-])c1ccc(-c2c3nc(c(-c4cccc(S(=O)(=O)[O-])c4F)c4ccc([nH]4)c(-c4cccc(S(=O)(=O)[O-])c4F)c4nc(c(-c5cccc(S(=O)(=O)[O-])c5F)c5ccc2[nH]5)C=C4)C=C3)cc1
REMARK SMILES IDX 9 1 8 2 7 3 6 4 5 5 4 6 3 7 2 8 1 9 33 10 34 11 95 12 35 13
REMARK SMILES IDX 94 14 36 15 37 16 38 17 88 18 39 19 93 20 87 21 89 22 40 23
REMARK SMILES IDX 92 24 86 25 85 26 41 28 73 29 53 30 72 31 54 32 57 33 71 34
REMARK SMILES IDX 90 35 55 36 56 37 70 39 91 40 58 41 42 42 43 43 51 44 44 45
REMARK SMILES IDX 46 46 52 47 45 48 47 49 48 50 49 51 50 52 74 53 75 54 83 55
REMARK SMILES IDX 76 56 78 57 84 58 77 59 79 60 80 61 81 62 82 63 59 64 60 65
REMARK SMILES IDX 68 66 61 67 63 68 69 69 62 70 64 71 65 72 66 73 67 74 10 75
REMARK SMILES IDX 11 76 12 77 13 78 14 79 15 80 16 81 17 82 18 83 19 84 22 85
REMARK SMILES IDX 20 86 21 87 23 89 24 90 25 91 29 92 26 93 28 94 27 95 30 96
REMARK SMILES IDX 31 97 32 98
REMARK H PARENT 89 27 57 38 22 88
REMARK Flexibility Score: inf
ROOT
ATOM      1  O   UNL A   1      46.746  44.747  28.436  1.00  0.00    -0.377 OA
ENDROOT
BRANCH   1   2
ATOM      2  C   UNL A   1      46.664  43.423  28.903  1.00  0.00     0.188 C 
BRANCH   2   3
ATOM      3  C   UNL A   1      45.407  43.006  29.648  1.00  0.00     0.188 C 
BRANCH   3   4
ATOM      4  O   UNL A   1      45.493  43.233  31.051  1.00  0.00    -0.376 OA
BRANCH   4   5
ATOM      5  C   UNL A   1      44.261  43.172  31.775  1.00  0.00     0.202 C 
BRANCH   5   6
ATOM      6  C   UNL A   1      44.385  42.924  33.283  1.00  0.00     0.261 C 
BRANCH   6   7
ATOM      7  O   UNL A   1      44.325  41.544  33.689  1.00  0.00    -0.460 OA
BRANCH   7   8
ATOM      8  C   UNL A   1      43.419  40.573  33.398  1.00  0.00     0.338 C 
ATOM      9  O   UNL A   1      42.231  40.822  33.605  1.00  0.00    -0.246 OA
BRANCH   8  10
ATOM     10  C   UNL A   1      43.772  39.195  32.930  1.00  0.00     0.060 A 
ATOM     11  C   UNL A   1      43.866  38.820  31.594  1.00  0.00     0.016 A 
ATOM     12  C   UNL A   1      44.062  38.215  33.897  1.00  0.00     0.016 A 
ATOM     13  C   UNL A   1      44.196  37.547  31.200  1.00  0.00     0.010 A 
ATOM     14  C   UNL A   1      44.351  36.898  33.519  1.00  0.00     0.010 A 
ATOM     15  C   UNL A   1      44.365  36.567  32.160  1.00  0.00    -0.014 A 
BRANCH  15  16
ATOM     16  C   UNL A   1      44.181  35.207  31.645  1.00  0.00     0.031 A 
ATOM     17  C   UNL A   1      45.421  34.496  31.190  1.00  0.00     0.074 A 
ATOM     18  C   UNL A   1      43.025  34.566  31.883  1.00  0.00     0.049 A 
ATOM     19  N   UNL A   1      45.564  33.277  30.759  1.00  0.00    -0.248 NA
ATOM     20  C   UNL A   1      46.689  35.253  31.273  1.00  0.00     0.031 C 
ATOM     21  C   UNL A   1      41.860  35.151  32.556  1.00  0.00     0.029 A 
ATOM     22  N   UNL A   1      42.657  33.276  31.639  1.00  0.00    -0.354 N 
ATOM     23  C   UNL A   1      46.912  33.150  30.445  1.00  0.00     0.074 A 
ATOM     24  C   UNL A   1      47.560  34.393  30.777  1.00  0.00     0.031 C 
ATOM     25  C   UNL A   1      40.899  34.219  32.659  1.00  0.00     0.029 A 
ATOM     26  C   UNL A   1      41.358  33.005  31.998  1.00  0.00     0.049 A 
ATOM     27  H   UNL A   1      43.261  32.606  31.246  1.00  0.00     0.167 HD
ATOM     28  C   UNL A   1      47.538  32.086  29.900  1.00  0.00     0.034 A 
ATOM     29  C   UNL A   1      40.626  31.904  31.758  1.00  0.00     0.034 A 
ATOM     30  C   UNL A   1      46.844  30.873  29.586  1.00  0.00     0.049 A 
ATOM     31  C   UNL A   1      41.316  30.773  31.045  1.00  0.00     0.074 A 
ATOM     32  C   UNL A   1      47.315  29.742  28.953  1.00  0.00     0.029 A 
ATOM     33  N   UNL A   1      45.504  30.651  29.880  1.00  0.00    -0.354 N 
ATOM     34  N   UNL A   1      42.577  30.671  30.689  1.00  0.00    -0.248 NA
ATOM     35  C   UNL A   1      40.499  29.604  30.712  1.00  0.00     0.031 C 
ATOM     36  C   UNL A   1      46.243  28.854  28.821  1.00  0.00     0.029 A 
ATOM     37  C   UNL A   1      45.121  29.407  29.428  1.00  0.00     0.049 A 
ATOM     38  H   UNL A   1      44.914  31.289  30.343  1.00  0.00     0.167 HD
ATOM     39  C   UNL A   1      42.716  29.413  30.125  1.00  0.00     0.074 A 
ATOM     40  C   UNL A   1      41.409  28.784  30.202  1.00  0.00     0.031 C 
ATOM     41  C   UNL A   1      43.811  28.823  29.581  1.00  0.00     0.034 A 
BRANCH  28  42
ATOM     42  C   UNL A   1      48.980  32.266  29.516  1.00  0.00     0.023 A 
ATOM     43  C   UNL A   1      50.004  32.191  30.481  1.00  0.00     0.012 A 
ATOM     44  C   UNL A   1      49.307  32.584  28.183  1.00  0.00     0.148 A 
ATOM     45  C   UNL A   1      51.326  32.475  30.131  1.00  0.00     0.002 A 
ATOM     46  C   UNL A   1      50.629  32.815  27.833  1.00  0.00     0.091 A 
ATOM     47  F   UNL A   1      48.311  32.693  27.291  1.00  0.00    -0.205 F 
ATOM     48  C   UNL A   1      51.639  32.779  28.809  1.00  0.00     0.022 A 
BRANCH  46  49
ATOM     49  S   UNL A   1      51.140  33.155  26.147  1.00  0.00     0.127 S 
ATOM     50  O   UNL A   1      52.562  33.433  26.316  1.00  0.00    -0.237 OA
ATOM     51  O   UNL A   1      50.835  31.893  25.478  1.00  0.00    -0.237 OA
ATOM     52  O   UNL A   1      50.334  34.292  25.702  1.00  0.00    -0.744 OA
ENDBRANCH  46  49
ENDBRANCH  28  42
BRANCH  29  53
ATOM     53  C   UNL A   1      39.188  31.839  32.149  1.00  0.00     0.023 A 
ATOM     54  C   UNL A   1      38.829  31.438  33.449  1.00  0.00     0.012 A 
ATOM     55  C   UNL A   1      38.168  32.168  31.230  1.00  0.00     0.148 A 
ATOM     56  C   UNL A   1      37.486  31.331  33.815  1.00  0.00     0.002 A 
ATOM     57  C   UNL A   1      36.835  32.110  31.617  1.00  0.00     0.091 A 
ATOM     58  F   UNL A   1      38.524  32.533  29.990  1.00  0.00    -0.205 F 
ATOM     59  C   UNL A   1      36.490  31.673  32.904  1.00  0.00     0.022 A 
BRANCH  57  60
ATOM     60  S   UNL A   1      35.492  32.632  30.542  1.00  0.00     0.127 S 
ATOM     61  O   UNL A   1      35.530  31.607  29.502  1.00  0.00    -0.237 OA
ATOM     62  O   UNL A   1      34.340  32.557  31.439  1.00  0.00    -0.237 OA
ATOM     63  O   UNL A   1      35.833  33.981  30.110  1.00  0.00    -0.744 OA
ENDBRANCH  57  60
ENDBRANCH  29  53
BRANCH  41  64
ATOM     64  C   UNL A   1      43.650  27.412  29.098  1.00  0.00     0.023 A 
ATOM     65  C   UNL A   1      43.792  26.335  29.992  1.00  0.00     0.012 A 
ATOM     66  C   UNL A   1      43.266  27.174  27.765  1.00  0.00     0.148 A 
ATOM     67  C   UNL A   1      43.589  25.030  29.551  1.00  0.00     0.002 A 
ATOM     68  C   UNL A   1      43.002  25.878  27.352  1.00  0.00     0.091 A 
ATOM     69  F   UNL A   1      43.157  28.220  26.932  1.00  0.00    -0.205 F 
ATOM     70  C   UNL A   1      43.179  24.803  28.238  1.00  0.00     0.022 A 
BRANCH  68  71
ATOM     71  S   UNL A   1      42.351  25.515  25.720  1.00  0.00     0.127 S 
ATOM     72  O   UNL A   1      43.477  25.882  24.863  1.00  0.00    -0.237 OA
ATOM     73  O   UNL A   1      42.087  24.079  25.805  1.00  0.00    -0.237 OA
ATOM     74  O   UNL A   1      41.158  26.338  25.572  1.00  0.00    -0.744 OA
ENDBRANCH  68  71
ENDBRANCH  41  64
ENDBRANCH  15  16
ENDBRANCH   8  10
ENDBRANCH   7   8
ENDBRANCH   6   7
ENDBRANCH   5   6
ENDBRANCH   4   5
ENDBRANCH   3   4
ENDBRANCH   2   3
ENDBRANCH   1   2
BRANCH   1  75
ATOM     75  C   UNL A   1      45.687  45.263  27.668  1.00  0.00     0.188 C 
BRANCH  75  76
ATOM     76  C   UNL A   1      45.588  45.188  26.132  1.00  0.00     0.188 C 
BRANCH  76  77
ATOM     77  O   UNL A   1      46.179  44.136  25.395  1.00  0.00    -0.376 OA
BRANCH  77  78
ATOM     78  C   UNL A   1      45.359  43.376  24.533  1.00  0.00     0.202 C 
BRANCH  78  79
ATOM     79  C   UNL A   1      44.312  42.475  25.221  1.00  0.00     0.261 C 
BRANCH  79  80
ATOM     80  O   UNL A   1      44.720  41.746  26.410  1.00  0.00    -0.459 OA
BRANCH  80  81
ATOM     81  C   UNL A   1      44.923  40.398  26.321  1.00  0.00     0.365 C 
ATOM     82  O   UNL A   1      45.529  39.865  25.394  1.00  0.00    -0.245 OA
BRANCH  81  83
ATOM     83  C   UNL A   1      44.356  39.548  27.521  1.00  0.00     0.295 C 
ATOM     84  C   UNL A   1      43.020  39.958  28.158  1.00  0.00     0.083 C 
ATOM     85  N   UNL A   1      44.137  38.126  27.152  1.00  0.00    -0.319 N 
ATOM     86  C   UNL A   1      41.960  39.038  27.534  1.00  0.00     0.068 C 
ATOM     87  C   UNL A   1      42.752  38.060  26.676  1.00  0.00     0.263 C 
ATOM     88  H   UNL A   1      44.772  37.824  26.413  1.00  0.00     0.349 HD
BRANCH  85  89
ATOM     89  C   UNL A   1      44.495  37.167  28.223  1.00  0.00     0.307 C 
BRANCH  89  90
ATOM     90  C   UNL A   1      44.677  35.695  27.864  1.00  0.00     0.084 A 
ATOM     91  C   UNL A   1      43.647  34.784  28.187  1.00  0.00     0.017 A 
ATOM     92  C   UNL A   1      45.765  35.181  27.129  1.00  0.00     0.278 A 
ATOM     93  C   UNL A   1      43.652  33.469  27.702  1.00  0.00     0.001 A 
ATOM     94  C   UNL A   1      45.766  33.866  26.626  1.00  0.00     0.086 A 
ATOM     95  C   UNL A   1      44.697  33.020  26.900  1.00  0.00     0.007 A 
BRANCH  92  96
ATOM     96  N   UNL A   1      46.940  35.991  26.826  1.00  0.00     0.063 N 
ATOM     97  O   UNL A   1      46.863  36.759  25.855  1.00  0.00    -0.258 OA
ATOM     98  O   UNL A   1      47.945  35.827  27.527  1.00  0.00    -0.258 OA
ENDBRANCH  92  96
ENDBRANCH  89  90
ENDBRANCH  85  89
ENDBRANCH  81  83
ENDBRANCH  80  81
ENDBRANCH  79  80
ENDBRANCH  78  79
ENDBRANCH  77  78
ENDBRANCH  76  77
ENDBRANCH  75  76
ENDBRANCH   1  75
TORSDOF 26
ENDMDL
