MODEL 1
REMARK VINA RESULT:      -9.1      0.000      0.000
REMARK SMILES NS(=O)(=O)c1ccc(-n2nc(C(=O)OCCOCCOCCOCCOC(=O)c3ccc(-c4c5nc(c(-c6cccc(S(=O)(=O)[O-])c6F)c6ccc([nH]6)c(-c6cccc(S(=O)(=O)[O-])c6F)c6nc(c(-c7cccc(S(=O)(=O)[O-])c7F)c7ccc4[nH]7)C=C6)C=C5)cc3)cc2-c2ccc(Cl)s2)cc1
REMARK SMILES IDX 20 1 19 2 18 3 17 4 16 5 15 6 14 7 12 8 13 9 11 10 9 11
REMARK SMILES IDX 10 12 93 13 92 14 8 15 5 16 6 17 101 18 7 19 100 20 2 21
REMARK SMILES IDX 3 22 4 23 1 24 94 27 95 28 99 29 96 30 97 31 98 32 21 33
REMARK SMILES IDX 22 34 23 35 24 36 25 37 26 38 27 39 28 40 29 41 30 42 91 43
REMARK SMILES IDX 31 44 90 45 32 46 33 47 34 48 84 49 35 50 89 51 83 52 85 53
REMARK SMILES IDX 36 54 88 55 82 56 81 57 37 59 69 60 49 61 68 62 50 63 53 64
REMARK SMILES IDX 67 65 86 66 51 67 52 68 66 70 87 71 54 72 38 73 39 74 47 75
REMARK SMILES IDX 40 76 42 77 48 78 41 79 43 80 44 81 45 82 46 83 70 84 71 85
REMARK SMILES IDX 79 86 72 87 74 88 80 89 73 90 75 91 76 92 77 93 78 94 55 95
REMARK SMILES IDX 56 96 64 97 57 98 59 99 65 100 58 101 60 102 61 103 62 104
REMARK SMILES IDX 63 105
REMARK H PARENT 1 25 1 26 85 58 53 69
REMARK Flexibility Score: inf
ROOT
ATOM      1  O   UNL A   1      32.743  27.917  27.081  1.00  0.00    -0.377 OA
ENDROOT
BRANCH   1   2
ATOM      2  C   UNL A   1      32.981  26.706  26.388  1.00  0.00     0.188 C 
BRANCH   2   3
ATOM      3  C   UNL A   1      33.418  26.903  24.919  1.00  0.00     0.188 C 
BRANCH   3   4
ATOM      4  O   UNL A   1      34.202  25.932  24.245  1.00  0.00    -0.376 OA
BRANCH   4   5
ATOM      5  C   UNL A   1      34.444  24.628  24.737  1.00  0.00     0.202 C 
BRANCH   5   6
ATOM      6  C   UNL A   1      35.743  23.826  24.536  1.00  0.00     0.261 C 
BRANCH   6   7
ATOM      7  O   UNL A   1      36.697  23.837  25.588  1.00  0.00    -0.458 OA
BRANCH   7   8
ATOM      8  C   UNL A   1      37.223  22.630  25.933  1.00  0.00     0.358 C 
ATOM      9  O   UNL A   1      36.602  21.574  25.945  1.00  0.00    -0.244 OA
BRANCH   8  10
ATOM     10  C   UNL A   1      38.661  22.759  26.195  1.00  0.00     0.171 A 
ATOM     11  N   UNL A   1      40.767  22.381  26.123  1.00  0.00    -0.231 N 
ATOM     12  N   UNL A   1      39.580  21.940  25.645  1.00  0.00    -0.160 NA
ATOM     13  C   UNL A   1      40.620  23.465  26.970  1.00  0.00     0.085 A 
ATOM     14  C   UNL A   1      39.280  23.783  26.946  1.00  0.00     0.068 A 
BRANCH  11  15
ATOM     15  C   UNL A   1      41.929  21.609  25.908  1.00  0.00     0.065 A 
ATOM     16  C   UNL A   1      44.169  20.098  25.301  1.00  0.00     0.082 A 
ATOM     17  C   UNL A   1      44.199  21.484  25.111  1.00  0.00     0.024 A 
ATOM     18  C   UNL A   1      43.028  19.464  25.810  1.00  0.00     0.024 A 
ATOM     19  C   UNL A   1      43.071  22.241  25.404  1.00  0.00     0.030 A 
ATOM     20  C   UNL A   1      41.905  20.229  26.144  1.00  0.00     0.030 A 
BRANCH  16  21
ATOM     21  S   UNL A   1      45.589  19.146  24.844  1.00  0.00     0.238 S 
ATOM     22  O   UNL A   1      46.786  19.872  25.177  1.00  0.00    -0.207 OA
ATOM     23  O   UNL A   1      45.367  18.567  23.534  1.00  0.00    -0.207 OA
BRANCH  21  24
ATOM     24  N   UNL A   1      45.535  17.866  25.930  1.00  0.00    -0.225 NA
ATOM     25  H   UNL A   1      44.604  17.811  26.343  1.00  0.00     0.137 HD
ATOM     26  H   UNL A   1      46.225  18.017  26.666  1.00  0.00     0.137 HD
ENDBRANCH  21  24
ENDBRANCH  16  21
ENDBRANCH  11  15
BRANCH  13  27
ATOM     27  C   UNL A   1      41.648  24.110  27.731  1.00  0.00     0.054 A 
ATOM     28  C   UNL A   1      42.199  23.613  28.897  1.00  0.00     0.024 A 
ATOM     29  S   UNL A   1      42.324  25.627  27.312  1.00  0.00    -0.122 S 
ATOM     30  C   UNL A   1      43.214  24.464  29.422  1.00  0.00     0.033 A 
ATOM     31  C   UNL A   1      43.369  25.580  28.642  1.00  0.00     0.094 A 
ATOM     32  Cl  UNL A   1      44.488  26.855  28.902  1.00  0.00    -0.072 Cl
ENDBRANCH  13  27
ENDBRANCH   8  10
ENDBRANCH   7   8
ENDBRANCH   6   7
ENDBRANCH   5   6
ENDBRANCH   4   5
ENDBRANCH   3   4
ENDBRANCH   2   3
ENDBRANCH   1   2
BRANCH   1  33
ATOM     33  C   UNL A   1      33.602  29.015  26.776  1.00  0.00     0.188 C 
BRANCH  33  34
ATOM     34  C   UNL A   1      35.067  29.017  27.285  1.00  0.00     0.188 C 
BRANCH  34  35
ATOM     35  O   UNL A   1      35.675  30.294  27.385  1.00  0.00    -0.376 OA
BRANCH  35  36
ATOM     36  C   UNL A   1      34.982  31.469  27.758  1.00  0.00     0.202 C 
BRANCH  36  37
ATOM     37  C   UNL A   1      35.745  32.774  27.943  1.00  0.00     0.261 C 
BRANCH  37  38
ATOM     38  O   UNL A   1      35.217  33.621  28.939  1.00  0.00    -0.460 OA
BRANCH  38  39
ATOM     39  C   UNL A   1      35.103  33.034  30.145  1.00  0.00     0.338 C 
ATOM     40  O   UNL A   1      34.109  32.972  30.847  1.00  0.00    -0.246 OA
BRANCH  39  41
ATOM     41  C   UNL A   1      36.436  32.611  30.557  1.00  0.00     0.060 A 
ATOM     42  C   UNL A   1      36.514  31.450  31.322  1.00  0.00     0.016 A 
ATOM     43  C   UNL A   1      37.486  33.540  30.469  1.00  0.00     0.016 A 
ATOM     44  C   UNL A   1      37.573  31.331  32.186  1.00  0.00     0.010 A 
ATOM     45  C   UNL A   1      38.529  33.430  31.350  1.00  0.00     0.010 A 
ATOM     46  C   UNL A   1      38.509  32.373  32.250  1.00  0.00    -0.014 A 
BRANCH  46  47
ATOM     47  C   UNL A   1      39.600  32.237  33.185  1.00  0.00     0.031 A 
ATOM     48  C   UNL A   1      39.539  33.306  34.199  1.00  0.00     0.074 A 
ATOM     49  C   UNL A   1      40.479  31.219  33.132  1.00  0.00     0.049 A 
ATOM     50  N   UNL A   1      40.290  34.356  34.252  1.00  0.00    -0.248 NA
ATOM     51  C   UNL A   1      38.356  33.372  35.074  1.00  0.00     0.031 C 
ATOM     52  C   UNL A   1      40.406  30.027  32.281  1.00  0.00     0.029 A 
ATOM     53  N   UNL A   1      41.554  30.961  33.927  1.00  0.00    -0.354 N 
ATOM     54  C   UNL A   1      39.865  35.022  35.394  1.00  0.00     0.074 A 
ATOM     55  C   UNL A   1      38.533  34.557  35.661  1.00  0.00     0.031 C 
ATOM     56  C   UNL A   1      41.226  29.076  32.780  1.00  0.00     0.029 A 
ATOM     57  C   UNL A   1      41.961  29.627  33.905  1.00  0.00     0.049 A 
ATOM     58  H   UNL A   1      42.003  31.652  34.466  1.00  0.00     0.167 HD
ATOM     59  C   UNL A   1      40.794  35.551  36.235  1.00  0.00     0.034 A 
ATOM     60  C   UNL A   1      42.768  29.013  34.809  1.00  0.00     0.034 A 
ATOM     61  C   UNL A   1      42.063  35.710  35.562  1.00  0.00     0.049 A 
ATOM     62  C   UNL A   1      43.533  30.074  35.499  1.00  0.00     0.074 A 
ATOM     63  C   UNL A   1      42.509  36.354  34.425  1.00  0.00     0.029 A 
ATOM     64  N   UNL A   1      43.012  34.770  35.875  1.00  0.00    -0.354 N 
ATOM     65  N   UNL A   1      44.440  30.800  34.914  1.00  0.00    -0.248 NA
ATOM     66  C   UNL A   1      43.001  30.615  36.739  1.00  0.00     0.031 C 
ATOM     67  C   UNL A   1      43.531  35.515  33.891  1.00  0.00     0.029 A 
ATOM     68  C   UNL A   1      43.722  34.438  34.759  1.00  0.00     0.049 A 
ATOM     69  H   UNL A   1      43.157  34.390  36.772  1.00  0.00     0.167 HD
ATOM     70  C   UNL A   1      44.212  32.076  35.407  1.00  0.00     0.074 A 
ATOM     71  C   UNL A   1      43.439  31.872  36.631  1.00  0.00     0.031 C 
ATOM     72  C   UNL A   1      44.397  33.167  34.605  1.00  0.00     0.034 A 
BRANCH  59  73
ATOM     73  C   UNL A   1      40.720  35.426  37.747  1.00  0.00     0.023 A 
ATOM     74  C   UNL A   1      41.008  36.591  38.492  1.00  0.00     0.012 A 
ATOM     75  C   UNL A   1      40.693  34.206  38.467  1.00  0.00     0.148 A 
ATOM     76  C   UNL A   1      41.315  36.534  39.856  1.00  0.00     0.002 A 
ATOM     77  C   UNL A   1      40.912  34.164  39.837  1.00  0.00     0.091 A 
ATOM     78  F   UNL A   1      40.598  33.041  37.827  1.00  0.00    -0.205 F 
ATOM     79  C   UNL A   1      41.259  35.322  40.532  1.00  0.00     0.022 A 
BRANCH  77  80
ATOM     80  S   UNL A   1      40.807  32.624  40.761  1.00  0.00     0.127 S 
ATOM     81  O   UNL A   1      41.868  31.840  40.137  1.00  0.00    -0.237 OA
ATOM     82  O   UNL A   1      41.087  33.081  42.123  1.00  0.00    -0.237 OA
ATOM     83  O   UNL A   1      39.449  32.133  40.565  1.00  0.00    -0.744 OA
ENDBRANCH  77  80
ENDBRANCH  59  73
BRANCH  60  84
ATOM     84  C   UNL A   1      42.743  27.625  35.335  1.00  0.00     0.023 A 
ATOM     85  C   UNL A   1      41.665  27.210  36.149  1.00  0.00     0.012 A 
ATOM     86  C   UNL A   1      43.585  26.628  34.799  1.00  0.00     0.148 A 
ATOM     87  C   UNL A   1      41.405  25.853  36.373  1.00  0.00     0.002 A 
ATOM     88  C   UNL A   1      43.326  25.280  35.029  1.00  0.00     0.091 A 
ATOM     89  F   UNL A   1      44.581  26.994  33.982  1.00  0.00    -0.205 F 
ATOM     90  C   UNL A   1      42.229  24.887  35.803  1.00  0.00     0.022 A 
BRANCH  88  91
ATOM     91  S   UNL A   1      44.329  23.980  34.295  1.00  0.00     0.127 S 
ATOM     92  O   UNL A   1      44.158  24.238  32.864  1.00  0.00    -0.237 OA
ATOM     93  O   UNL A   1      45.656  24.290  34.820  1.00  0.00    -0.237 OA
ATOM     94  O   UNL A   1      43.748  22.723  34.749  1.00  0.00    -0.744 OA
ENDBRANCH  88  91
ENDBRANCH  60  84
BRANCH  72  95
ATOM     95  C   UNL A   1      45.226  32.983  33.359  1.00  0.00     0.023 A 
ATOM     96  C   UNL A   1      46.636  33.012  33.345  1.00  0.00     0.012 A 
ATOM     97  C   UNL A   1      44.543  32.675  32.171  1.00  0.00     0.148 A 
ATOM     98  C   UNL A   1      47.344  32.777  32.162  1.00  0.00     0.002 A 
ATOM     99  C   UNL A   1      45.249  32.395  31.010  1.00  0.00     0.091 A 
ATOM    100  F   UNL A   1      43.201  32.654  32.199  1.00  0.00    -0.205 F 
ATOM    101  C   UNL A   1      46.650  32.458  30.996  1.00  0.00     0.022 A 
BRANCH  99 102
ATOM    102  S   UNL A   1      44.402  31.876  29.519  1.00  0.00     0.127 S 
ATOM    103  O   UNL A   1      45.313  32.335  28.474  1.00  0.00    -0.237 OA
ATOM    104  O   UNL A   1      44.335  30.422  29.681  1.00  0.00    -0.237 OA
ATOM    105  O   UNL A   1      43.100  32.532  29.554  1.00  0.00    -0.744 OA
ENDBRANCH  99 102
ENDBRANCH  72  95
ENDBRANCH  46  47
ENDBRANCH  39  41
ENDBRANCH  38  39
ENDBRANCH  37  38
ENDBRANCH  36  37
ENDBRANCH  35  36
ENDBRANCH  34  35
ENDBRANCH  33  34
ENDBRANCH   1  33
TORSDOF 27
ENDMDL
MODEL 2
REMARK VINA RESULT:      -8.3      5.576     13.850
REMARK SMILES NS(=O)(=O)c1ccc(-n2nc(C(=O)OCCOCCOCCOCCOC(=O)c3ccc(-c4c5nc(c(-c6cccc(S(=O)(=O)[O-])c6F)c6ccc([nH]6)c(-c6cccc(S(=O)(=O)[O-])c6F)c6nc(c(-c7cccc(S(=O)(=O)[O-])c7F)c7ccc4[nH]7)C=C6)C=C5)cc3)cc2-c2ccc(Cl)s2)cc1
REMARK SMILES IDX 20 1 19 2 18 3 17 4 16 5 15 6 14 7 12 8 13 9 11 10 9 11
REMARK SMILES IDX 10 12 93 13 92 14 8 15 5 16 6 17 101 18 7 19 100 20 2 21
REMARK SMILES IDX 3 22 4 23 1 24 94 27 95 28 99 29 96 30 97 31 98 32 21 33
REMARK SMILES IDX 22 34 23 35 24 36 25 37 26 38 27 39 28 40 29 41 30 42 91 43
REMARK SMILES IDX 31 44 90 45 32 46 33 47 34 48 84 49 35 50 89 51 83 52 85 53
REMARK SMILES IDX 36 54 88 55 82 56 81 57 37 59 69 60 49 61 68 62 50 63 53 64
REMARK SMILES IDX 67 65 86 66 51 67 52 68 66 70 87 71 54 72 38 73 39 74 47 75
REMARK SMILES IDX 40 76 42 77 48 78 41 79 43 80 44 81 45 82 46 83 70 84 71 85
REMARK SMILES IDX 79 86 72 87 74 88 80 89 73 90 75 91 76 92 77 93 78 94 55 95
REMARK SMILES IDX 56 96 64 97 57 98 59 99 65 100 58 101 60 102 61 103 62 104
REMARK SMILES IDX 63 105
REMARK H PARENT 1 25 1 26 85 58 53 69
REMARK Flexibility Score: inf
ROOT
ATOM      1  O   UNL A   1      41.529  33.722  31.444  1.00  0.00    -0.377 OA
ENDROOT
BRANCH   1   2
ATOM      2  C   UNL A   1      42.244  34.725  30.745  1.00  0.00     0.188 C 
BRANCH   2   3
ATOM      3  C   UNL A   1      42.666  34.309  29.319  1.00  0.00     0.188 C 
BRANCH   3   4
ATOM      4  O   UNL A   1      42.427  35.151  28.202  1.00  0.00    -0.376 OA
BRANCH   4   5
ATOM      5  C   UNL A   1      42.885  36.487  28.104  1.00  0.00     0.202 C 
BRANCH   5   6
ATOM      6  C   UNL A   1      42.598  37.444  26.932  1.00  0.00     0.261 C 
BRANCH   6   7
ATOM      7  O   UNL A   1      41.384  38.180  26.961  1.00  0.00    -0.458 OA
BRANCH   7   8
ATOM      8  C   UNL A   1      41.476  39.499  26.639  1.00  0.00     0.358 C 
ATOM      9  O   UNL A   1      40.942  40.021  25.668  1.00  0.00    -0.244 OA
BRANCH   8  10
ATOM     10  C   UNL A   1      42.226  40.222  27.673  1.00  0.00     0.171 A 
ATOM     11  N   UNL A   1      43.770  41.368  28.616  1.00  0.00    -0.231 N 
ATOM     12  N   UNL A   1      43.412  40.817  27.432  1.00  0.00    -0.160 NA
ATOM     13  C   UNL A   1      42.834  41.130  29.607  1.00  0.00     0.085 A 
ATOM     14  C   UNL A   1      41.788  40.482  28.990  1.00  0.00     0.068 A 
BRANCH  11  15
ATOM     15  C   UNL A   1      45.070  41.893  28.769  1.00  0.00     0.065 A 
ATOM     16  C   UNL A   1      47.655  42.883  28.887  1.00  0.00     0.082 A 
ATOM     17  C   UNL A   1      46.644  43.661  28.314  1.00  0.00     0.024 A 
ATOM     18  C   UNL A   1      47.377  41.616  29.419  1.00  0.00     0.024 A 
ATOM     19  C   UNL A   1      45.349  43.159  28.243  1.00  0.00     0.030 A 
ATOM     20  C   UNL A   1      46.067  41.126  29.386  1.00  0.00     0.030 A 
BRANCH  16  21
ATOM     21  S   UNL A   1      49.310  43.508  28.892  1.00  0.00     0.238 S 
ATOM     22  O   UNL A   1      49.846  43.467  27.556  1.00  0.00    -0.207 OA
ATOM     23  O   UNL A   1      50.018  42.962  30.032  1.00  0.00    -0.207 OA
BRANCH  21  24
ATOM     24  N   UNL A   1      49.084  45.139  29.223  1.00  0.00    -0.225 NA
ATOM     25  H   UNL A   1      49.677  45.695  28.607  1.00  0.00     0.137 HD
ATOM     26  H   UNL A   1      49.333  45.325  30.195  1.00  0.00     0.137 HD
ENDBRANCH  21  24
ENDBRANCH  16  21
ENDBRANCH  11  15
BRANCH  13  27
ATOM     27  C   UNL A   1      42.942  41.472  30.994  1.00  0.00     0.054 A 
ATOM     28  C   UNL A   1      42.475  42.645  31.559  1.00  0.00     0.024 A 
ATOM     29  S   UNL A   1      43.709  40.475  32.157  1.00  0.00    -0.122 S 
ATOM     30  C   UNL A   1      42.710  42.701  32.962  1.00  0.00     0.033 A 
ATOM     31  C   UNL A   1      43.366  41.577  33.394  1.00  0.00     0.094 A 
ATOM     32  Cl  UNL A   1      43.831  41.230  35.009  1.00  0.00    -0.072 Cl
ENDBRANCH  13  27
ENDBRANCH   8  10
ENDBRANCH   7   8
ENDBRANCH   6   7
ENDBRANCH   5   6
ENDBRANCH   4   5
ENDBRANCH   3   4
ENDBRANCH   2   3
ENDBRANCH   1   2
BRANCH   1  33
ATOM     33  C   UNL A   1      40.377  34.142  32.174  1.00  0.00     0.188 C 
BRANCH  33  34
ATOM     34  C   UNL A   1      39.075  33.302  32.116  1.00  0.00     0.188 C 
BRANCH  34  35
ATOM     35  O   UNL A   1      38.054  33.819  31.278  1.00  0.00    -0.376 OA
BRANCH  35  36
ATOM     36  C   UNL A   1      36.909  33.088  30.887  1.00  0.00     0.202 C 
BRANCH  36  37
ATOM     37  C   UNL A   1      36.987  32.127  29.710  1.00  0.00     0.261 C 
BRANCH  37  38
ATOM     38  O   UNL A   1      36.859  30.766  30.060  1.00  0.00    -0.460 OA
BRANCH  38  39
ATOM     39  C   UNL A   1      36.556  29.965  29.022  1.00  0.00     0.338 C 
ATOM     40  O   UNL A   1      35.476  29.845  28.471  1.00  0.00    -0.246 OA
BRANCH  39  41
ATOM     41  C   UNL A   1      37.719  29.127  28.757  1.00  0.00     0.060 A 
ATOM     42  C   UNL A   1      38.124  28.278  29.785  1.00  0.00     0.016 A 
ATOM     43  C   UNL A   1      38.544  29.457  27.669  1.00  0.00     0.016 A 
ATOM     44  C   UNL A   1      39.452  27.936  29.836  1.00  0.00     0.010 A 
ATOM     45  C   UNL A   1      39.872  29.133  27.736  1.00  0.00     0.010 A 
ATOM     46  C   UNL A   1      40.317  28.451  28.862  1.00  0.00    -0.014 A 
BRANCH  46  47
ATOM     47  C   UNL A   1      41.713  28.097  28.951  1.00  0.00     0.031 A 
ATOM     48  C   UNL A   1      42.014  26.974  28.043  1.00  0.00     0.074 A 
ATOM     49  C   UNL A   1      42.587  28.775  29.718  1.00  0.00     0.049 A 
ATOM     50  N   UNL A   1      42.199  25.741  28.383  1.00  0.00    -0.248 NA
ATOM     51  C   UNL A   1      41.810  27.171  26.597  1.00  0.00     0.031 C 
ATOM     52  C   UNL A   1      42.349  30.033  30.433  1.00  0.00     0.029 A 
ATOM     53  N   UNL A   1      43.917  28.560  29.912  1.00  0.00    -0.354 N 
ATOM     54  C   UNL A   1      42.480  25.096  27.187  1.00  0.00     0.074 A 
ATOM     55  C   UNL A   1      41.939  25.922  26.145  1.00  0.00     0.031 C 
ATOM     56  C   UNL A   1      43.538  30.590  30.755  1.00  0.00     0.029 A 
ATOM     57  C   UNL A   1      44.605  29.681  30.376  1.00  0.00     0.049 A 
ATOM     58  H   UNL A   1      44.353  27.693  29.742  1.00  0.00     0.167 HD
ATOM     59  C   UNL A   1      43.489  24.184  27.148  1.00  0.00     0.034 A 
ATOM     60  C   UNL A   1      45.950  29.871  30.354  1.00  0.00     0.034 A 
ATOM     61  C   UNL A   1      43.812  23.721  28.478  1.00  0.00     0.049 A 
ATOM     62  C   UNL A   1      46.575  28.535  30.244  1.00  0.00     0.074 A 
ATOM     63  C   UNL A   1      43.122  23.132  29.519  1.00  0.00     0.029 A 
ATOM     64  N   UNL A   1      44.955  24.252  29.019  1.00  0.00    -0.354 N 
ATOM     65  N   UNL A   1      46.536  27.644  31.192  1.00  0.00    -0.248 NA
ATOM     66  C   UNL A   1      46.892  28.027  28.920  1.00  0.00     0.031 C 
ATOM     67  C   UNL A   1      43.704  23.664  30.707  1.00  0.00     0.029 A 
ATOM     68  C   UNL A   1      44.771  24.489  30.350  1.00  0.00     0.049 A 
ATOM     69  H   UNL A   1      45.785  24.436  28.522  1.00  0.00     0.167 HD
ATOM     70  C   UNL A   1      46.304  26.454  30.518  1.00  0.00     0.074 A 
ATOM     71  C   UNL A   1      46.696  26.724  29.136  1.00  0.00     0.031 C 
ATOM     72  C   UNL A   1      45.525  25.485  31.083  1.00  0.00     0.034 A 
BRANCH  59  73
ATOM     73  C   UNL A   1      44.509  24.114  26.024  1.00  0.00     0.023 A 
ATOM     74  C   UNL A   1      44.774  22.834  25.491  1.00  0.00     0.012 A 
ATOM     75  C   UNL A   1      45.422  25.143  25.683  1.00  0.00     0.148 A 
ATOM     76  C   UNL A   1      45.914  22.581  24.720  1.00  0.00     0.002 A 
ATOM     77  C   UNL A   1      46.504  24.908  24.846  1.00  0.00     0.091 A 
ATOM     78  F   UNL A   1      45.351  26.337  26.271  1.00  0.00    -0.205 F 
ATOM     79  C   UNL A   1      46.776  23.619  24.390  1.00  0.00     0.022 A 
BRANCH  77  80
ATOM     80  S   UNL A   1      47.621  26.230  24.357  1.00  0.00     0.127 S 
ATOM     81  O   UNL A   1      46.685  27.319  24.096  1.00  0.00    -0.237 OA
ATOM     82  O   UNL A   1      48.438  26.383  25.561  1.00  0.00    -0.237 OA
ATOM     83  O   UNL A   1      48.353  25.727  23.200  1.00  0.00    -0.744 OA
ENDBRANCH  77  80
ENDBRANCH  59  73
BRANCH  60  84
ATOM     84  C   UNL A   1      46.745  31.106  30.135  1.00  0.00     0.023 A 
ATOM     85  C   UNL A   1      47.909  31.327  30.903  1.00  0.00     0.012 A 
ATOM     86  C   UNL A   1      46.555  31.899  28.984  1.00  0.00     0.148 A 
ATOM     87  C   UNL A   1      48.873  32.264  30.509  1.00  0.00     0.002 A 
ATOM     88  C   UNL A   1      47.512  32.833  28.598  1.00  0.00     0.091 A 
ATOM     89  F   UNL A   1      45.485  31.670  28.211  1.00  0.00    -0.205 F 
ATOM     90  C   UNL A   1      48.679  33.009  29.349  1.00  0.00     0.022 A 
BRANCH  88  91
ATOM     91  S   UNL A   1      47.342  33.804  27.094  1.00  0.00     0.127 S 
ATOM     92  O   UNL A   1      47.232  32.761  26.073  1.00  0.00    -0.237 OA
ATOM     93  O   UNL A   1      46.109  34.543  27.350  1.00  0.00    -0.237 OA
ATOM     94  O   UNL A   1      48.553  34.609  26.999  1.00  0.00    -0.744 OA
ENDBRANCH  88  91
ENDBRANCH  60  84
BRANCH  72  95
ATOM     95  C   UNL A   1      45.282  25.564  32.569  1.00  0.00     0.023 A 
ATOM     96  C   UNL A   1      46.164  25.039  33.536  1.00  0.00     0.012 A 
ATOM     97  C   UNL A   1      44.155  26.284  33.000  1.00  0.00     0.148 A 
ATOM     98  C   UNL A   1      45.904  25.197  34.902  1.00  0.00     0.002 A 
ATOM     99  C   UNL A   1      43.926  26.481  34.354  1.00  0.00     0.091 A 
ATOM    100  F   UNL A   1      43.323  26.775  32.069  1.00  0.00    -0.205 F 
ATOM    101  C   UNL A   1      44.790  25.928  35.311  1.00  0.00     0.022 A 
BRANCH  99 102
ATOM    102  S   UNL A   1      42.567  27.504  34.919  1.00  0.00     0.127 S 
ATOM    103  O   UNL A   1      42.833  27.600  36.353  1.00  0.00    -0.237 OA
ATOM    104  O   UNL A   1      42.773  28.746  34.173  1.00  0.00    -0.237 OA
ATOM    105  O   UNL A   1      41.352  26.788  34.549  1.00  0.00    -0.744 OA
ENDBRANCH  99 102
ENDBRANCH  72  95
ENDBRANCH  46  47
ENDBRANCH  39  41
ENDBRANCH  38  39
ENDBRANCH  37  38
ENDBRANCH  36  37
ENDBRANCH  35  36
ENDBRANCH  34  35
ENDBRANCH  33  34
ENDBRANCH   1  33
TORSDOF 27
ENDMDL
MODEL 3
REMARK VINA RESULT:      -8.0      5.661     13.232
REMARK SMILES NS(=O)(=O)c1ccc(-n2nc(C(=O)OCCOCCOCCOCCOC(=O)c3ccc(-c4c5nc(c(-c6cccc(S(=O)(=O)[O-])c6F)c6ccc([nH]6)c(-c6cccc(S(=O)(=O)[O-])c6F)c6nc(c(-c7cccc(S(=O)(=O)[O-])c7F)c7ccc4[nH]7)C=C6)C=C5)cc3)cc2-c2ccc(Cl)s2)cc1
REMARK SMILES IDX 20 1 19 2 18 3 17 4 16 5 15 6 14 7 12 8 13 9 11 10 9 11
REMARK SMILES IDX 10 12 93 13 92 14 8 15 5 16 6 17 101 18 7 19 100 20 2 21
REMARK SMILES IDX 3 22 4 23 1 24 94 27 95 28 99 29 96 30 97 31 98 32 21 33
REMARK SMILES IDX 22 34 23 35 24 36 25 37 26 38 27 39 28 40 29 41 30 42 91 43
REMARK SMILES IDX 31 44 90 45 32 46 33 47 34 48 84 49 35 50 89 51 83 52 85 53
REMARK SMILES IDX 36 54 88 55 82 56 81 57 37 59 69 60 49 61 68 62 50 63 53 64
REMARK SMILES IDX 67 65 86 66 51 67 52 68 66 70 87 71 54 72 38 73 39 74 47 75
REMARK SMILES IDX 40 76 42 77 48 78 41 79 43 80 44 81 45 82 46 83 70 84 71 85
REMARK SMILES IDX 79 86 72 87 74 88 80 89 73 90 75 91 76 92 77 93 78 94 55 95
REMARK SMILES IDX 56 96 64 97 57 98 59 99 65 100 58 101 60 102 61 103 62 104
REMARK SMILES IDX 63 105
REMARK H PARENT 1 25 1 26 85 58 53 69
REMARK Flexibility Score: inf
ROOT
ATOM      1  O   UNL A   1      51.985  23.793  42.071  1.00  0.00    -0.377 OA
ENDROOT
BRANCH   1   2
ATOM      2  C   UNL A   1      51.414  23.007  43.101  1.00  0.00     0.188 C 
BRANCH   2   3
ATOM      3  C   UNL A   1      51.447  21.489  42.818  1.00  0.00     0.188 C 
BRANCH   3   4
ATOM      4  O   UNL A   1      50.269  20.700  42.880  1.00  0.00    -0.376 OA
BRANCH   4   5
ATOM      5  C   UNL A   1      50.257  19.286  42.815  1.00  0.00     0.202 C 
BRANCH   5   6
ATOM      6  C   UNL A   1      49.213  18.436  42.068  1.00  0.00     0.261 C 
BRANCH   6   7
ATOM      7  O   UNL A   1      48.280  19.113  41.238  1.00  0.00    -0.458 OA
BRANCH   7   8
ATOM      8  C   UNL A   1      47.708  18.371  40.251  1.00  0.00     0.358 C 
ATOM      9  O   UNL A   1      47.282  17.230  40.391  1.00  0.00    -0.244 OA
BRANCH   8  10
ATOM     10  C   UNL A   1      47.588  19.166  39.023  1.00  0.00     0.171 A 
ATOM     11  N   UNL A   1      48.108  20.119  37.178  1.00  0.00    -0.231 N 
ATOM     12  N   UNL A   1      48.614  19.344  38.167  1.00  0.00    -0.160 NA
ATOM     13  C   UNL A   1      46.779  20.439  37.393  1.00  0.00     0.085 A 
ATOM     14  C   UNL A   1      46.403  19.750  38.523  1.00  0.00     0.068 A 
BRANCH  11  15
ATOM     15  C   UNL A   1      48.982  20.670  36.217  1.00  0.00     0.065 A 
ATOM     16  C   UNL A   1      50.567  21.887  34.299  1.00  0.00     0.082 A 
ATOM     17  C   UNL A   1      50.509  22.424  35.589  1.00  0.00     0.024 A 
ATOM     18  C   UNL A   1      49.849  20.730  33.966  1.00  0.00     0.024 A 
ATOM     19  C   UNL A   1      49.704  21.821  36.548  1.00  0.00     0.030 A 
ATOM     20  C   UNL A   1      49.070  20.098  34.941  1.00  0.00     0.030 A 
BRANCH  16  21
ATOM     21  S   UNL A   1      51.535  22.718  33.073  1.00  0.00     0.238 S 
ATOM     22  O   UNL A   1      52.769  23.173  33.658  1.00  0.00    -0.207 OA
ATOM     23  O   UNL A   1      50.671  23.588  32.300  1.00  0.00    -0.207 OA
BRANCH  21  24
ATOM     24  N   UNL A   1      51.973  21.466  32.042  1.00  0.00    -0.225 NA
ATOM     25  H   UNL A   1      52.305  21.855  31.159  1.00  0.00     0.137 HD
ATOM     26  H   UNL A   1      51.164  20.871  31.869  1.00  0.00     0.137 HD
ENDBRANCH  21  24
ENDBRANCH  16  21
ENDBRANCH  11  15
BRANCH  13  27
ATOM     27  C   UNL A   1      45.969  21.323  36.609  1.00  0.00     0.054 A 
ATOM     28  C   UNL A   1      45.618  22.609  36.975  1.00  0.00     0.024 A 
ATOM     29  S   UNL A   1      45.284  20.890  35.100  1.00  0.00    -0.122 S 
ATOM     30  C   UNL A   1      44.820  23.255  35.988  1.00  0.00     0.033 A 
ATOM     31  C   UNL A   1      44.582  22.420  34.928  1.00  0.00     0.094 A 
ATOM     32  Cl  UNL A   1      43.678  22.798  33.519  1.00  0.00    -0.072 Cl
ENDBRANCH  13  27
ENDBRANCH   8  10
ENDBRANCH   7   8
ENDBRANCH   6   7
ENDBRANCH   5   6
ENDBRANCH   4   5
ENDBRANCH   3   4
ENDBRANCH   2   3
ENDBRANCH   1   2
BRANCH   1  33
ATOM     33  C   UNL A   1      51.328  23.773  40.804  1.00  0.00     0.188 C 
BRANCH  33  34
ATOM     34  C   UNL A   1      49.961  24.482  40.630  1.00  0.00     0.188 C 
BRANCH  34  35
ATOM     35  O   UNL A   1      49.498  24.591  39.294  1.00  0.00    -0.376 OA
BRANCH  35  36
ATOM     36  C   UNL A   1      48.157  24.869  38.944  1.00  0.00     0.202 C 
BRANCH  36  37
ATOM     37  C   UNL A   1      47.819  26.143  38.183  1.00  0.00     0.261 C 
BRANCH  37  38
ATOM     38  O   UNL A   1      47.027  25.942  37.033  1.00  0.00    -0.460 OA
BRANCH  38  39
ATOM     39  C   UNL A   1      47.678  26.177  35.878  1.00  0.00     0.338 C 
ATOM     40  O   UNL A   1      48.852  25.965  35.634  1.00  0.00    -0.246 OA
BRANCH  39  41
ATOM     41  C   UNL A   1      46.764  26.890  34.995  1.00  0.00     0.060 A 
ATOM     42  C   UNL A   1      45.428  26.497  35.029  1.00  0.00     0.016 A 
ATOM     43  C   UNL A   1      47.309  27.656  33.950  1.00  0.00     0.016 A 
ATOM     44  C   UNL A   1      44.684  26.684  33.891  1.00  0.00     0.010 A 
ATOM     45  C   UNL A   1      46.571  27.818  32.809  1.00  0.00     0.010 A 
ATOM     46  C   UNL A   1      45.302  27.254  32.770  1.00  0.00    -0.014 A 
BRANCH  46  47
ATOM     47  C   UNL A   1      44.507  27.417  31.577  1.00  0.00     0.031 A 
ATOM     48  C   UNL A   1      44.844  26.371  30.593  1.00  0.00     0.074 A 
ATOM     49  C   UNL A   1      43.558  28.363  31.460  1.00  0.00     0.049 A 
ATOM     50  N   UNL A   1      45.559  26.521  29.528  1.00  0.00    -0.248 NA
ATOM     51  C   UNL A   1      44.609  24.963  30.962  1.00  0.00     0.031 C 
ATOM     52  C   UNL A   1      43.053  29.249  32.515  1.00  0.00     0.029 A 
ATOM     53  N   UNL A   1      42.741  28.646  30.408  1.00  0.00    -0.354 N 
ATOM     54  C   UNL A   1      45.552  25.268  28.932  1.00  0.00     0.074 A 
ATOM     55  C   UNL A   1      45.236  24.328  29.970  1.00  0.00     0.031 C 
ATOM     56  C   UNL A   1      41.867  29.768  32.126  1.00  0.00     0.029 A 
ATOM     57  C   UNL A   1      41.590  29.350  30.764  1.00  0.00     0.049 A 
ATOM     58  H   UNL A   1      42.944  28.379  29.482  1.00  0.00     0.167 HD
ATOM     59  C   UNL A   1      45.381  25.176  27.586  1.00  0.00     0.034 A 
ATOM     60  C   UNL A   1      40.463  29.487  30.018  1.00  0.00     0.034 A 
ATOM     61  C   UNL A   1      45.676  26.438  26.945  1.00  0.00     0.049 A 
ATOM     62  C   UNL A   1      40.838  29.220  28.612  1.00  0.00     0.074 A 
ATOM     63  C   UNL A   1      46.755  27.298  26.899  1.00  0.00     0.029 A 
ATOM     64  N   UNL A   1      44.580  27.165  26.555  1.00  0.00    -0.354 N 
ATOM     65  N   UNL A   1      41.611  30.002  27.915  1.00  0.00    -0.248 NA
ATOM     66  C   UNL A   1      40.692  27.867  28.103  1.00  0.00     0.031 C 
ATOM     67  C   UNL A   1      46.193  28.607  26.840  1.00  0.00     0.029 A 
ATOM     68  C   UNL A   1      44.803  28.493  26.773  1.00  0.00     0.049 A 
ATOM     69  H   UNL A   1      43.756  26.785  26.173  1.00  0.00     0.167 HD
ATOM     70  C   UNL A   1      42.428  29.124  27.219  1.00  0.00     0.074 A 
ATOM     71  C   UNL A   1      41.715  27.848  27.245  1.00  0.00     0.031 C 
ATOM     72  C   UNL A   1      43.733  29.447  26.975  1.00  0.00     0.034 A 
BRANCH  59  73
ATOM     73  C   UNL A   1      44.465  24.159  26.927  1.00  0.00     0.023 A 
ATOM     74  C   UNL A   1      44.884  23.648  25.678  1.00  0.00     0.012 A 
ATOM     75  C   UNL A   1      43.118  23.914  27.290  1.00  0.00     0.148 A 
ATOM     76  C   UNL A   1      43.996  22.992  24.818  1.00  0.00     0.002 A 
ATOM     77  C   UNL A   1      42.263  23.186  26.473  1.00  0.00     0.091 A 
ATOM     78  F   UNL A   1      42.587  24.497  28.365  1.00  0.00    -0.205 F 
ATOM     79  C   UNL A   1      42.687  22.753  25.217  1.00  0.00     0.022 A 
BRANCH  77  80
ATOM     80  S   UNL A   1      40.574  22.816  26.968  1.00  0.00     0.127 S 
ATOM     81  O   UNL A   1      40.125  21.979  25.859  1.00  0.00    -0.237 OA
ATOM     82  O   UNL A   1      40.788  22.114  28.233  1.00  0.00    -0.237 OA
ATOM     83  O   UNL A   1      39.907  24.104  27.106  1.00  0.00    -0.744 OA
ENDBRANCH  77  80
ENDBRANCH  59  73
BRANCH  60  84
ATOM     84  C   UNL A   1      39.037  29.549  30.429  1.00  0.00     0.023 A 
ATOM     85  C   UNL A   1      38.550  28.629  31.383  1.00  0.00     0.012 A 
ATOM     86  C   UNL A   1      38.245  30.679  30.138  1.00  0.00     0.148 A 
ATOM     87  C   UNL A   1      37.346  28.856  32.061  1.00  0.00     0.002 A 
ATOM     88  C   UNL A   1      37.046  30.898  30.811  1.00  0.00     0.091 A 
ATOM     89  F   UNL A   1      38.712  31.592  29.276  1.00  0.00    -0.205 F 
ATOM     90  C   UNL A   1      36.600  29.997  31.783  1.00  0.00     0.022 A 
BRANCH  88  91
ATOM     91  S   UNL A   1      36.051  32.369  30.525  1.00  0.00     0.127 S 
ATOM     92  O   UNL A   1      34.980  32.203  31.509  1.00  0.00    -0.237 OA
ATOM     93  O   UNL A   1      36.999  33.438  30.826  1.00  0.00    -0.237 OA
ATOM     94  O   UNL A   1      35.608  32.288  29.139  1.00  0.00    -0.744 OA
ENDBRANCH  88  91
ENDBRANCH  60  84
BRANCH  72  95
ATOM     95  C   UNL A   1      44.129  30.896  27.105  1.00  0.00     0.023 A 
ATOM     96  C   UNL A   1      43.993  31.841  26.068  1.00  0.00     0.012 A 
ATOM     97  C   UNL A   1      44.570  31.332  28.366  1.00  0.00     0.148 A 
ATOM     98  C   UNL A   1      44.328  33.184  26.275  1.00  0.00     0.002 A 
ATOM     99  C   UNL A   1      44.855  32.672  28.583  1.00  0.00     0.091 A 
ATOM    100  F   UNL A   1      44.698  30.421  29.343  1.00  0.00    -0.205 F 
ATOM    101  C   UNL A   1      44.749  33.601  27.537  1.00  0.00     0.022 A 
BRANCH  99 102
ATOM    102  S   UNL A   1      45.296  33.268  30.214  1.00  0.00     0.127 S 
ATOM    103  O   UNL A   1      44.655  32.284  31.083  1.00  0.00    -0.237 OA
ATOM    104  O   UNL A   1      46.758  33.207  30.190  1.00  0.00    -0.237 OA
ATOM    105  O   UNL A   1      44.764  34.624  30.297  1.00  0.00    -0.744 OA
ENDBRANCH  99 102
ENDBRANCH  72  95
ENDBRANCH  46  47
ENDBRANCH  39  41
ENDBRANCH  38  39
ENDBRANCH  37  38
ENDBRANCH  36  37
ENDBRANCH  35  36
ENDBRANCH  34  35
ENDBRANCH  33  34
ENDBRANCH   1  33
TORSDOF 27
ENDMDL
