MODEL 1
REMARK VINA RESULT:     -10.1      0.000      0.000
REMARK SMILES CC1=C[C@H](C)[C@@H](C(=O)OCCOCCOCCOCCOC(=O)c2ccc(-c3c4nc(c(-c5cccc(S(=O)(=O)[O-])c5F)c5ccc([nH]5)c(-c5cccc(S(=O)(=O)[O-])c5F)c5nc(c(-c6cccc(S(=O)(=O)[O-])c6F)c6ccc3[nH]6)C=C5)C=C4)cc2)[C@H](C(=O)Nc2cccnc2)C1
REMARK SMILES IDX 16 1 15 2 14 3 13 4 12 5 11 6 10 7 9 8 7 9 8 10 6 11 1 12
REMARK SMILES IDX 2 13 3 14 97 15 4 16 87 17 5 18 88 19 89 20 90 21 91 23
REMARK SMILES IDX 92 24 96 25 93 26 95 27 94 28 17 29 18 30 19 31 20 32 21 33
REMARK SMILES IDX 22 34 23 35 24 36 25 37 86 38 26 39 85 40 27 41 28 42 29 43
REMARK SMILES IDX 79 44 30 45 84 46 78 47 80 48 31 49 83 50 77 51 76 52 32 54
REMARK SMILES IDX 64 55 44 56 63 57 45 58 48 59 62 60 81 61 46 62 47 63 61 65
REMARK SMILES IDX 82 66 49 67 33 68 34 69 42 70 35 71 37 72 43 73 36 74 38 75
REMARK SMILES IDX 39 76 40 77 41 78 65 79 66 80 74 81 67 82 69 83 75 84 68 85
REMARK SMILES IDX 70 86 71 87 72 88 73 89 50 90 51 91 59 92 52 93 54 94 60 95
REMARK SMILES IDX 53 96 55 97 56 98 57 99 58 100
REMARK H PARENT 90 22 80 53 48 64
REMARK Flexibility Score: inf
ROOT
ATOM      1  C   UNL A   1      33.830  28.737  26.803  1.00  0.00     0.188 C 
ENDROOT
BRANCH   1   2
ATOM      2  O   UNL A   1      33.938  28.502  25.406  1.00  0.00    -0.377 OA
BRANCH   2   3
ATOM      3  C   UNL A   1      33.040  29.160  24.539  1.00  0.00     0.188 C 
BRANCH   3   4
ATOM      4  C   UNL A   1      31.550  28.903  24.791  1.00  0.00     0.188 C 
BRANCH   4   5
ATOM      5  O   UNL A   1      30.641  28.470  23.788  1.00  0.00    -0.376 OA
BRANCH   5   6
ATOM      6  C   UNL A   1      30.310  27.114  23.546  1.00  0.00     0.202 C 
BRANCH   6   7
ATOM      7  C   UNL A   1      29.646  26.219  24.602  1.00  0.00     0.261 C 
BRANCH   7   8
ATOM      8  O   UNL A   1      30.304  24.992  24.940  1.00  0.00    -0.463 OA
BRANCH   8   9
ATOM      9  C   UNL A   1      31.228  25.088  25.923  1.00  0.00     0.310 C 
ATOM     10  O   UNL A   1      31.277  26.002  26.744  1.00  0.00    -0.252 OA
BRANCH   9  11
ATOM     11  C   UNL A   1      32.369  24.092  25.787  1.00  0.00     0.118 C 
ATOM     12  C   UNL A   1      32.477  20.470  23.177  1.00  0.00     0.039 C 
ATOM     13  C   UNL A   1      32.495  21.709  24.029  1.00  0.00    -0.076 C 
ATOM     14  C   UNL A   1      32.862  22.906  23.545  1.00  0.00    -0.024 C 
ATOM     15  C   UNL A   1      31.989  21.507  25.422  1.00  0.00     0.044 C 
ATOM     16  C   UNL A   1      32.688  24.203  24.277  1.00  0.00     0.023 C 
ATOM     17  C   UNL A   1      32.193  22.677  26.386  1.00  0.00     0.097 C 
ATOM     18  C   UNL A   1      33.779  25.268  24.051  1.00  0.00     0.013 C 
BRANCH  17  19
ATOM     19  C   UNL A   1      33.188  22.341  27.540  1.00  0.00     0.228 C 
ATOM     20  O   UNL A   1      32.793  22.369  28.713  1.00  0.00    -0.274 OA
ATOM     21  N   UNL A   1      34.473  21.911  27.338  1.00  0.00    -0.324 N 
ATOM     22  H   UNL A   1      34.844  21.349  28.056  1.00  0.00     0.169 HD
BRANCH  21  23
ATOM     23  C   UNL A   1      35.339  22.148  26.265  1.00  0.00     0.059 A 
ATOM     24  C   UNL A   1      35.940  23.381  26.094  1.00  0.00     0.029 A 
ATOM     25  C   UNL A   1      35.695  21.148  25.372  1.00  0.00     0.137 A 
ATOM     26  C   UNL A   1      36.694  23.647  24.957  1.00  0.00     0.022 A 
ATOM     27  N   UNL A   1      36.453  21.357  24.265  1.00  0.00    -0.263 NA
ATOM     28  C   UNL A   1      36.889  22.619  24.057  1.00  0.00     0.111 A 
ENDBRANCH  21  23
ENDBRANCH  17  19
ENDBRANCH   9  11
ENDBRANCH   8   9
ENDBRANCH   7   8
ENDBRANCH   6   7
ENDBRANCH   5   6
ENDBRANCH   4   5
ENDBRANCH   3   4
ENDBRANCH   2   3
ENDBRANCH   1   2
BRANCH   1  29
ATOM     29  C   UNL A   1      34.468  30.019  27.360  1.00  0.00     0.188 C 
BRANCH  29  30
ATOM     30  O   UNL A   1      33.572  31.116  27.433  1.00  0.00    -0.376 OA
BRANCH  30  31
ATOM     31  C   UNL A   1      34.025  32.365  27.933  1.00  0.00     0.202 C 
BRANCH  31  32
ATOM     32  C   UNL A   1      33.151  33.622  27.792  1.00  0.00     0.261 C 
BRANCH  32  33
ATOM     33  O   UNL A   1      32.526  34.146  28.977  1.00  0.00    -0.460 OA
BRANCH  33  34
ATOM     34  C   UNL A   1      33.107  35.161  29.642  1.00  0.00     0.338 C 
ATOM     35  O   UNL A   1      32.694  36.306  29.747  1.00  0.00    -0.246 OA
BRANCH  34  36
ATOM     36  C   UNL A   1      34.238  34.597  30.411  1.00  0.00     0.060 A 
ATOM     37  C   UNL A   1      35.551  34.894  30.020  1.00  0.00     0.016 A 
ATOM     38  C   UNL A   1      33.999  33.775  31.514  1.00  0.00     0.016 A 
ATOM     39  C   UNL A   1      36.629  34.332  30.703  1.00  0.00     0.010 A 
ATOM     40  C   UNL A   1      35.079  33.195  32.184  1.00  0.00     0.010 A 
ATOM     41  C   UNL A   1      36.396  33.439  31.755  1.00  0.00    -0.014 A 
BRANCH  41  42
ATOM     42  C   UNL A   1      37.507  32.610  32.280  1.00  0.00     0.031 A 
ATOM     43  C   UNL A   1      38.108  32.982  33.607  1.00  0.00     0.074 A 
ATOM     44  C   UNL A   1      37.981  31.558  31.590  1.00  0.00     0.049 A 
ATOM     45  N   UNL A   1      39.128  32.458  34.234  1.00  0.00    -0.248 NA
ATOM     46  C   UNL A   1      37.474  34.104  34.324  1.00  0.00     0.031 C 
ATOM     47  C   UNL A   1      37.469  31.090  30.304  1.00  0.00     0.029 A 
ATOM     48  N   UNL A   1      39.026  30.712  31.868  1.00  0.00    -0.354 N 
ATOM     49  C   UNL A   1      39.283  33.205  35.395  1.00  0.00     0.074 A 
ATOM     50  C   UNL A   1      38.256  34.225  35.385  1.00  0.00     0.031 C 
ATOM     51  C   UNL A   1      38.226  30.060  29.885  1.00  0.00     0.029 A 
ATOM     52  C   UNL A   1      39.292  29.820  30.856  1.00  0.00     0.049 A 
ATOM     53  H   UNL A   1      39.535  30.741  32.710  1.00  0.00     0.167 HD
ATOM     54  C   UNL A   1      40.190  33.051  36.387  1.00  0.00     0.034 A 
ATOM     55  C   UNL A   1      40.303  28.939  30.716  1.00  0.00     0.034 A 
ATOM     56  C   UNL A   1      41.203  32.031  36.396  1.00  0.00     0.049 A 
ATOM     57  C   UNL A   1      41.329  28.815  31.814  1.00  0.00     0.074 A 
ATOM     58  C   UNL A   1      42.142  31.762  37.375  1.00  0.00     0.029 A 
ATOM     59  N   UNL A   1      41.423  31.125  35.370  1.00  0.00    -0.354 N 
ATOM     60  N   UNL A   1      41.399  29.454  32.956  1.00  0.00    -0.248 NA
ATOM     61  C   UNL A   1      42.399  27.825  31.616  1.00  0.00     0.031 C 
ATOM     62  C   UNL A   1      42.958  30.721  36.921  1.00  0.00     0.029 A 
ATOM     63  C   UNL A   1      42.496  30.309  35.681  1.00  0.00     0.049 A 
ATOM     64  H   UNL A   1      40.893  31.070  34.543  1.00  0.00     0.167 HD
ATOM     65  C   UNL A   1      42.495  28.920  33.628  1.00  0.00     0.074 A 
ATOM     66  C   UNL A   1      43.046  27.891  32.772  1.00  0.00     0.031 C 
ATOM     67  C   UNL A   1      43.005  29.257  34.839  1.00  0.00     0.034 A 
BRANCH  54  68
ATOM     68  C   UNL A   1      40.130  34.010  37.547  1.00  0.00     0.023 A 
ATOM     69  C   UNL A   1      40.801  35.248  37.474  1.00  0.00     0.012 A 
ATOM     70  C   UNL A   1      39.367  33.704  38.691  1.00  0.00     0.148 A 
ATOM     71  C   UNL A   1      40.742  36.151  38.535  1.00  0.00     0.002 A 
ATOM     72  C   UNL A   1      39.272  34.629  39.723  1.00  0.00     0.091 A 
ATOM     73  F   UNL A   1      38.756  32.512  38.751  1.00  0.00    -0.205 F 
ATOM     74  C   UNL A   1      39.970  35.846  39.653  1.00  0.00     0.022 A 
BRANCH  72  75
ATOM     75  S   UNL A   1      38.242  34.366  41.169  1.00  0.00     0.127 S 
ATOM     76  O   UNL A   1      39.138  33.603  42.037  1.00  0.00    -0.237 OA
ATOM     77  O   UNL A   1      37.982  35.736  41.613  1.00  0.00    -0.237 OA
ATOM     78  O   UNL A   1      37.066  33.645  40.701  1.00  0.00    -0.744 OA
ENDBRANCH  72  75
ENDBRANCH  54  68
BRANCH  55  79
ATOM     79  C   UNL A   1      40.392  28.092  29.492  1.00  0.00     0.023 A 
ATOM     80  C   UNL A   1      39.544  26.976  29.352  1.00  0.00     0.012 A 
ATOM     81  C   UNL A   1      41.310  28.389  28.466  1.00  0.00     0.148 A 
ATOM     82  C   UNL A   1      39.632  26.153  28.229  1.00  0.00     0.002 A 
ATOM     83  C   UNL A   1      41.352  27.600  27.322  1.00  0.00     0.091 A 
ATOM     84  F   UNL A   1      42.119  29.446  28.624  1.00  0.00    -0.205 F 
ATOM     85  C   UNL A   1      40.527  26.470  27.210  1.00  0.00     0.022 A 
BRANCH  83  86
ATOM     86  S   UNL A   1      42.383  28.002  25.908  1.00  0.00     0.127 S 
ATOM     87  O   UNL A   1      43.725  27.851  26.463  1.00  0.00    -0.237 OA
ATOM     88  O   UNL A   1      41.991  26.967  24.950  1.00  0.00    -0.237 OA
ATOM     89  O   UNL A   1      42.010  29.355  25.518  1.00  0.00    -0.744 OA
ENDBRANCH  83  86
ENDBRANCH  55  79
BRANCH  67  90
ATOM     90  C   UNL A   1      44.195  28.478  35.342  1.00  0.00     0.023 A 
ATOM     91  C   UNL A   1      45.501  28.948  35.102  1.00  0.00     0.012 A 
ATOM     92  C   UNL A   1      44.011  27.319  36.122  1.00  0.00     0.148 A 
ATOM     93  C   UNL A   1      46.606  28.257  35.600  1.00  0.00     0.002 A 
ATOM     94  C   UNL A   1      45.113  26.666  36.660  1.00  0.00     0.091 A 
ATOM     95  F   UNL A   1      42.760  26.880  36.328  1.00  0.00    -0.205 F 
ATOM     96  C   UNL A   1      46.411  27.125  36.387  1.00  0.00     0.022 A 
BRANCH  94  97
ATOM     97  S   UNL A   1      44.957  25.260  37.767  1.00  0.00     0.127 S 
ATOM     98  O   UNL A   1      44.012  24.413  37.041  1.00  0.00    -0.237 OA
ATOM     99  O   UNL A   1      46.327  24.748  37.810  1.00  0.00    -0.237 OA
ATOM    100  O   UNL A   1      44.469  25.793  39.032  1.00  0.00    -0.744 OA
ENDBRANCH  94  97
ENDBRANCH  67  90
ENDBRANCH  41  42
ENDBRANCH  34  36
ENDBRANCH  33  34
ENDBRANCH  32  33
ENDBRANCH  31  32
ENDBRANCH  30  31
ENDBRANCH  29  30
ENDBRANCH   1  29
TORSDOF 25
ENDMDL
MODEL 2
REMARK VINA RESULT:      -9.9      1.104      2.064
REMARK SMILES CC1=C[C@H](C)[C@@H](C(=O)OCCOCCOCCOCCOC(=O)c2ccc(-c3c4nc(c(-c5cccc(S(=O)(=O)[O-])c5F)c5ccc([nH]5)c(-c5cccc(S(=O)(=O)[O-])c5F)c5nc(c(-c6cccc(S(=O)(=O)[O-])c6F)c6ccc3[nH]6)C=C5)C=C4)cc2)[C@H](C(=O)Nc2cccnc2)C1
REMARK SMILES IDX 16 1 15 2 14 3 13 4 12 5 11 6 10 7 9 8 7 9 8 10 6 11 1 12
REMARK SMILES IDX 2 13 3 14 97 15 4 16 87 17 5 18 88 19 89 20 90 21 91 23
REMARK SMILES IDX 92 24 96 25 93 26 95 27 94 28 17 29 18 30 19 31 20 32 21 33
REMARK SMILES IDX 22 34 23 35 24 36 25 37 86 38 26 39 85 40 27 41 28 42 29 43
REMARK SMILES IDX 79 44 30 45 84 46 78 47 80 48 31 49 83 50 77 51 76 52 32 54
REMARK SMILES IDX 64 55 44 56 63 57 45 58 48 59 62 60 81 61 46 62 47 63 61 65
REMARK SMILES IDX 82 66 49 67 33 68 34 69 42 70 35 71 37 72 43 73 36 74 38 75
REMARK SMILES IDX 39 76 40 77 41 78 65 79 66 80 74 81 67 82 69 83 75 84 68 85
REMARK SMILES IDX 70 86 71 87 72 88 73 89 50 90 51 91 59 92 52 93 54 94 60 95
REMARK SMILES IDX 53 96 55 97 56 98 57 99 58 100
REMARK H PARENT 90 22 80 53 48 64
REMARK Flexibility Score: inf
ROOT
ATOM      1  C   UNL A   1      33.508  28.346  26.606  1.00  0.00     0.188 C 
ENDROOT
BRANCH   1   2
ATOM      2  O   UNL A   1      33.881  28.122  25.254  1.00  0.00    -0.377 OA
BRANCH   2   3
ATOM      3  C   UNL A   1      33.454  29.042  24.273  1.00  0.00     0.188 C 
BRANCH   3   4
ATOM      4  C   UNL A   1      31.943  29.103  24.019  1.00  0.00     0.188 C 
BRANCH   4   5
ATOM      5  O   UNL A   1      31.330  28.725  22.795  1.00  0.00    -0.376 OA
BRANCH   5   6
ATOM      6  C   UNL A   1      30.377  27.685  22.669  1.00  0.00     0.202 C 
BRANCH   6   7
ATOM      7  C   UNL A   1      29.585  27.134  23.864  1.00  0.00     0.261 C 
BRANCH   7   8
ATOM      8  O   UNL A   1      29.831  25.777  24.254  1.00  0.00    -0.463 OA
BRANCH   8   9
ATOM      9  C   UNL A   1      30.785  25.614  25.197  1.00  0.00     0.310 C 
ATOM     10  O   UNL A   1      30.968  26.380  26.140  1.00  0.00    -0.252 OA
BRANCH   9  11
ATOM     11  C   UNL A   1      31.791  24.523  24.864  1.00  0.00     0.118 C 
ATOM     12  C   UNL A   1      36.066  24.326  26.139  1.00  0.00     0.039 C 
ATOM     13  C   UNL A   1      34.617  24.334  25.734  1.00  0.00    -0.076 C 
ATOM     14  C   UNL A   1      33.649  23.848  26.526  1.00  0.00    -0.024 C 
ATOM     15  C   UNL A   1      34.347  25.004  24.425  1.00  0.00     0.044 C 
ATOM     16  C   UNL A   1      32.181  24.030  26.277  1.00  0.00     0.023 C 
ATOM     17  C   UNL A   1      32.931  24.844  23.870  1.00  0.00     0.097 C 
ATOM     18  C   UNL A   1      31.267  22.862  26.695  1.00  0.00     0.013 C 
BRANCH  17  19
ATOM     19  C   UNL A   1      32.890  24.007  22.554  1.00  0.00     0.228 C 
ATOM     20  O   UNL A   1      32.585  24.559  21.488  1.00  0.00    -0.274 OA
ATOM     21  N   UNL A   1      33.272  22.694  22.474  1.00  0.00    -0.324 N 
ATOM     22  H   UNL A   1      33.603  22.407  21.592  1.00  0.00     0.169 HD
BRANCH  21  23
ATOM     23  C   UNL A   1      33.265  21.697  23.456  1.00  0.00     0.059 A 
ATOM     24  C   UNL A   1      34.401  21.414  24.192  1.00  0.00     0.029 A 
ATOM     25  C   UNL A   1      32.112  21.003  23.792  1.00  0.00     0.137 A 
ATOM     26  C   UNL A   1      34.422  20.339  25.072  1.00  0.00     0.022 A 
ATOM     27  N   UNL A   1      32.082  19.965  24.667  1.00  0.00    -0.263 NA
ATOM     28  C   UNL A   1      33.254  19.624  25.245  1.00  0.00     0.111 A 
ENDBRANCH  21  23
ENDBRANCH  17  19
ENDBRANCH   9  11
ENDBRANCH   8   9
ENDBRANCH   7   8
ENDBRANCH   6   7
ENDBRANCH   5   6
ENDBRANCH   4   5
ENDBRANCH   3   4
ENDBRANCH   2   3
ENDBRANCH   1   2
BRANCH   1  29
ATOM     29  C   UNL A   1      34.036  29.618  27.289  1.00  0.00     0.188 C 
BRANCH  29  30
ATOM     30  O   UNL A   1      33.198  30.748  27.114  1.00  0.00    -0.376 OA
BRANCH  30  31
ATOM     31  C   UNL A   1      33.567  31.995  27.681  1.00  0.00     0.202 C 
BRANCH  31  32
ATOM     32  C   UNL A   1      32.702  33.245  27.446  1.00  0.00     0.261 C 
BRANCH  32  33
ATOM     33  O   UNL A   1      32.345  34.044  28.586  1.00  0.00    -0.460 OA
BRANCH  33  34
ATOM     34  C   UNL A   1      33.106  35.101  28.923  1.00  0.00     0.338 C 
ATOM     35  O   UNL A   1      32.830  36.283  28.785  1.00  0.00    -0.246 OA
BRANCH  34  36
ATOM     36  C   UNL A   1      34.261  34.588  29.692  1.00  0.00     0.060 A 
ATOM     37  C   UNL A   1      35.543  34.644  29.127  1.00  0.00     0.016 A 
ATOM     38  C   UNL A   1      34.075  34.050  30.967  1.00  0.00     0.016 A 
ATOM     39  C   UNL A   1      36.636  34.121  29.818  1.00  0.00     0.010 A 
ATOM     40  C   UNL A   1      35.167  33.506  31.648  1.00  0.00     0.010 A 
ATOM     41  C   UNL A   1      36.443  33.503  31.058  1.00  0.00    -0.014 A 
BRANCH  41  42
ATOM     42  C   UNL A   1      37.527  32.682  31.651  1.00  0.00     0.031 A 
ATOM     43  C   UNL A   1      38.088  33.099  32.982  1.00  0.00     0.074 A 
ATOM     44  C   UNL A   1      38.011  31.600  31.017  1.00  0.00     0.049 A 
ATOM     45  N   UNL A   1      39.080  32.589  33.662  1.00  0.00    -0.248 NA
ATOM     46  C   UNL A   1      37.444  34.254  33.634  1.00  0.00     0.031 C 
ATOM     47  C   UNL A   1      37.536  31.088  29.734  1.00  0.00     0.029 A 
ATOM     48  N   UNL A   1      39.036  30.754  31.362  1.00  0.00    -0.354 N 
ATOM     49  C   UNL A   1      39.206  33.378  34.799  1.00  0.00     0.074 A 
ATOM     50  C   UNL A   1      38.192  34.407  34.715  1.00  0.00     0.031 C 
ATOM     51  C   UNL A   1      38.294  30.035  29.379  1.00  0.00     0.029 A 
ATOM     52  C   UNL A   1      39.325  29.822  30.394  1.00  0.00     0.049 A 
ATOM     53  H   UNL A   1      39.518  30.810  32.219  1.00  0.00     0.167 HD
ATOM     54  C   UNL A   1      40.078  33.253  35.825  1.00  0.00     0.034 A 
ATOM     55  C   UNL A   1      40.329  28.925  30.321  1.00  0.00     0.034 A 
ATOM     56  C   UNL A   1      41.078  32.223  35.907  1.00  0.00     0.049 A 
ATOM     57  C   UNL A   1      41.316  28.832  31.458  1.00  0.00     0.074 A 
ATOM     58  C   UNL A   1      41.981  31.981  36.927  1.00  0.00     0.029 A 
ATOM     59  N   UNL A   1      41.321  31.276  34.924  1.00  0.00    -0.354 N 
ATOM     60  N   UNL A   1      41.357  29.514  32.576  1.00  0.00    -0.248 NA
ATOM     61  C   UNL A   1      42.381  27.825  31.333  1.00  0.00     0.031 C 
ATOM     62  C   UNL A   1      42.799  30.915  36.540  1.00  0.00     0.029 A 
ATOM     63  C   UNL A   1      42.373  30.461  35.302  1.00  0.00     0.049 A 
ATOM     64  H   UNL A   1      40.817  31.195  34.082  1.00  0.00     0.167 HD
ATOM     65  C   UNL A   1      42.424  28.995  33.304  1.00  0.00     0.074 A 
ATOM     66  C   UNL A   1      42.990  27.928  32.506  1.00  0.00     0.031 C 
ATOM     67  C   UNL A   1      42.898  29.372  34.518  1.00  0.00     0.034 A 
BRANCH  54  68
ATOM     68  C   UNL A   1      39.991  34.256  36.945  1.00  0.00     0.023 A 
ATOM     69  C   UNL A   1      40.409  35.586  36.735  1.00  0.00     0.012 A 
ATOM     70  C   UNL A   1      39.449  33.891  38.194  1.00  0.00     0.148 A 
ATOM     71  C   UNL A   1      40.321  36.528  37.759  1.00  0.00     0.002 A 
ATOM     72  C   UNL A   1      39.318  34.847  39.193  1.00  0.00     0.091 A 
ATOM     73  F   UNL A   1      39.079  32.616  38.382  1.00  0.00    -0.205 F 
ATOM     74  C   UNL A   1      39.766  36.162  38.983  1.00  0.00     0.022 A 
BRANCH  72  75
ATOM     75  S   UNL A   1      38.544  34.497  40.775  1.00  0.00     0.127 S 
ATOM     76  O   UNL A   1      38.372  35.841  41.324  1.00  0.00    -0.237 OA
ATOM     77  O   UNL A   1      37.301  33.840  40.368  1.00  0.00    -0.237 OA
ATOM     78  O   UNL A   1      39.476  33.643  41.499  1.00  0.00    -0.744 OA
ENDBRANCH  72  75
ENDBRANCH  54  68
BRANCH  55  79
ATOM     79  C   UNL A   1      40.448  28.031  29.134  1.00  0.00     0.023 A 
ATOM     80  C   UNL A   1      39.599  26.914  29.013  1.00  0.00     0.012 A 
ATOM     81  C   UNL A   1      41.397  28.284  28.124  1.00  0.00     0.148 A 
ATOM     82  C   UNL A   1      39.714  26.047  27.925  1.00  0.00     0.002 A 
ATOM     83  C   UNL A   1      41.467  27.451  27.014  1.00  0.00     0.091 A 
ATOM     84  F   UNL A   1      42.207  29.343  28.265  1.00  0.00    -0.205 F 
ATOM     85  C   UNL A   1      40.640  26.321  26.922  1.00  0.00     0.022 A 
BRANCH  83  86
ATOM     86  S   UNL A   1      42.540  27.793  25.615  1.00  0.00     0.127 S 
ATOM     87  O   UNL A   1      41.941  29.007  25.067  1.00  0.00    -0.237 OA
ATOM     88  O   UNL A   1      43.833  27.986  26.271  1.00  0.00    -0.237 OA
ATOM     89  O   UNL A   1      42.468  26.615  24.762  1.00  0.00    -0.744 OA
ENDBRANCH  83  86
ENDBRANCH  55  79
BRANCH  67  90
ATOM     90  C   UNL A   1      44.061  28.601  35.090  1.00  0.00     0.023 A 
ATOM     91  C   UNL A   1      45.381  28.968  34.764  1.00  0.00     0.012 A 
ATOM     92  C   UNL A   1      43.841  27.559  36.013  1.00  0.00     0.148 A 
ATOM     93  C   UNL A   1      46.464  28.286  35.321  1.00  0.00     0.002 A 
ATOM     94  C   UNL A   1      44.924  26.922  36.605  1.00  0.00     0.091 A 
ATOM     95  F   UNL A   1      42.576  27.216  36.300  1.00  0.00    -0.205 F 
ATOM     96  C   UNL A   1      46.236  27.273  36.249  1.00  0.00     0.022 A 
BRANCH  94  97
ATOM     97  S   UNL A   1      44.730  25.675  37.884  1.00  0.00     0.127 S 
ATOM     98  O   UNL A   1      46.118  25.425  38.270  1.00  0.00    -0.237 OA
ATOM     99  O   UNL A   1      43.936  26.385  38.888  1.00  0.00    -0.237 OA
ATOM    100  O   UNL A   1      44.048  24.553  37.256  1.00  0.00    -0.744 OA
ENDBRANCH  94  97
ENDBRANCH  67  90
ENDBRANCH  41  42
ENDBRANCH  34  36
ENDBRANCH  33  34
ENDBRANCH  32  33
ENDBRANCH  31  32
ENDBRANCH  30  31
ENDBRANCH  29  30
ENDBRANCH   1  29
TORSDOF 25
ENDMDL
MODEL 3
REMARK VINA RESULT:      -9.0      1.894      2.380
REMARK SMILES CC1=C[C@H](C)[C@@H](C(=O)OCCOCCOCCOCCOC(=O)c2ccc(-c3c4nc(c(-c5cccc(S(=O)(=O)[O-])c5F)c5ccc([nH]5)c(-c5cccc(S(=O)(=O)[O-])c5F)c5nc(c(-c6cccc(S(=O)(=O)[O-])c6F)c6ccc3[nH]6)C=C5)C=C4)cc2)[C@H](C(=O)Nc2cccnc2)C1
REMARK SMILES IDX 16 1 15 2 14 3 13 4 12 5 11 6 10 7 9 8 7 9 8 10 6 11 1 12
REMARK SMILES IDX 2 13 3 14 97 15 4 16 87 17 5 18 88 19 89 20 90 21 91 23
REMARK SMILES IDX 92 24 96 25 93 26 95 27 94 28 17 29 18 30 19 31 20 32 21 33
REMARK SMILES IDX 22 34 23 35 24 36 25 37 86 38 26 39 85 40 27 41 28 42 29 43
REMARK SMILES IDX 79 44 30 45 84 46 78 47 80 48 31 49 83 50 77 51 76 52 32 54
REMARK SMILES IDX 64 55 44 56 63 57 45 58 48 59 62 60 81 61 46 62 47 63 61 65
REMARK SMILES IDX 82 66 49 67 33 68 34 69 42 70 35 71 37 72 43 73 36 74 38 75
REMARK SMILES IDX 39 76 40 77 41 78 65 79 66 80 74 81 67 82 69 83 75 84 68 85
REMARK SMILES IDX 70 86 71 87 72 88 73 89 50 90 51 91 59 92 52 93 54 94 60 95
REMARK SMILES IDX 53 96 55 97 56 98 57 99 58 100
REMARK H PARENT 90 22 80 53 48 64
REMARK Flexibility Score: inf
ROOT
ATOM      1  C   UNL A   1      33.066  28.168  24.065  1.00  0.00     0.188 C 
ENDROOT
BRANCH   1   2
ATOM      2  O   UNL A   1      32.979  29.158  23.051  1.00  0.00    -0.377 OA
BRANCH   2   3
ATOM      3  C   UNL A   1      31.723  29.414  22.461  1.00  0.00     0.188 C 
BRANCH   3   4
ATOM      4  C   UNL A   1      30.497  28.984  23.274  1.00  0.00     0.188 C 
BRANCH   4   5
ATOM      5  O   UNL A   1      29.694  27.856  22.957  1.00  0.00    -0.376 OA
BRANCH   5   6
ATOM      6  C   UNL A   1      29.150  26.970  23.920  1.00  0.00     0.202 C 
BRANCH   6   7
ATOM      7  C   UNL A   1      29.882  25.706  24.394  1.00  0.00     0.261 C 
BRANCH   7   8
ATOM      8  O   UNL A   1      31.035  25.290  23.652  1.00  0.00    -0.463 OA
BRANCH   8   9
ATOM      9  C   UNL A   1      31.112  23.963  23.407  1.00  0.00     0.310 C 
ATOM     10  O   UNL A   1      30.282  23.327  22.761  1.00  0.00    -0.252 OA
BRANCH   9  11
ATOM     11  C   UNL A   1      32.195  23.257  24.208  1.00  0.00     0.118 C 
ATOM     12  C   UNL A   1      32.790  18.851  24.625  1.00  0.00     0.039 C 
ATOM     13  C   UNL A   1      32.651  20.340  24.465  1.00  0.00    -0.076 C 
ATOM     14  C   UNL A   1      33.194  21.004  23.432  1.00  0.00    -0.024 C 
ATOM     15  C   UNL A   1      31.789  20.993  25.499  1.00  0.00     0.044 C 
ATOM     16  C   UNL A   1      32.903  22.438  23.102  1.00  0.00     0.023 C 
ATOM     17  C   UNL A   1      31.796  22.522  25.508  1.00  0.00     0.097 C 
ATOM     18  C   UNL A   1      34.069  23.254  22.512  1.00  0.00     0.013 C 
BRANCH  17  19
ATOM     19  C   UNL A   1      32.435  23.115  26.802  1.00  0.00     0.228 C 
ATOM     20  O   UNL A   1      31.719  23.705  27.622  1.00  0.00    -0.274 OA
ATOM     21  N   UNL A   1      33.748  22.938  27.152  1.00  0.00    -0.324 N 
ATOM     22  H   UNL A   1      33.931  22.970  28.119  1.00  0.00     0.169 HD
BRANCH  21  23
ATOM     23  C   UNL A   1      34.870  22.719  26.345  1.00  0.00     0.059 A 
ATOM     24  C   UNL A   1      35.538  23.775  25.753  1.00  0.00     0.029 A 
ATOM     25  C   UNL A   1      35.408  21.454  26.161  1.00  0.00     0.137 A 
ATOM     26  C   UNL A   1      36.569  23.541  24.851  1.00  0.00     0.022 A 
ATOM     27  N   UNL A   1      36.433  21.185  25.312  1.00  0.00    -0.263 NA
ATOM     28  C   UNL A   1      36.952  22.232  24.634  1.00  0.00     0.111 A 
ENDBRANCH  21  23
ENDBRANCH  17  19
ENDBRANCH   9  11
ENDBRANCH   8   9
ENDBRANCH   7   8
ENDBRANCH   6   7
ENDBRANCH   5   6
ENDBRANCH   4   5
ENDBRANCH   3   4
ENDBRANCH   2   3
ENDBRANCH   1   2
BRANCH   1  29
ATOM     29  C   UNL A   1      33.446  28.630  25.481  1.00  0.00     0.188 C 
BRANCH  29  30
ATOM     30  O   UNL A   1      32.784  29.816  25.890  1.00  0.00    -0.376 OA
BRANCH  30  31
ATOM     31  C   UNL A   1      33.382  30.657  26.864  1.00  0.00     0.202 C 
BRANCH  31  32
ATOM     32  C   UNL A   1      32.797  32.050  27.154  1.00  0.00     0.261 C 
BRANCH  32  33
ATOM     33  O   UNL A   1      33.388  32.824  28.212  1.00  0.00    -0.460 OA
BRANCH  33  34
ATOM     34  C   UNL A   1      34.518  33.515  27.980  1.00  0.00     0.338 C 
ATOM     35  O   UNL A   1      34.650  34.495  27.263  1.00  0.00    -0.246 OA
BRANCH  34  36
ATOM     36  C   UNL A   1      35.547  33.009  28.915  1.00  0.00     0.060 A 
ATOM     37  C   UNL A   1      36.874  33.438  28.775  1.00  0.00     0.016 A 
ATOM     38  C   UNL A   1      35.199  32.110  29.924  1.00  0.00     0.016 A 
ATOM     39  C   UNL A   1      37.865  32.934  29.618  1.00  0.00     0.010 A 
ATOM     40  C   UNL A   1      36.196  31.589  30.753  1.00  0.00     0.010 A 
ATOM     41  C   UNL A   1      37.537  31.968  30.576  1.00  0.00    -0.014 A 
BRANCH  41  42
ATOM     42  C   UNL A   1      38.614  31.209  31.257  1.00  0.00     0.031 A 
ATOM     43  C   UNL A   1      39.027  31.644  32.636  1.00  0.00     0.074 A 
ATOM     44  C   UNL A   1      39.220  30.167  30.662  1.00  0.00     0.049 A 
ATOM     45  N   UNL A   1      39.985  31.188  33.398  1.00  0.00    -0.248 NA
ATOM     46  C   UNL A   1      38.256  32.748  33.236  1.00  0.00     0.031 C 
ATOM     47  C   UNL A   1      38.895  29.644  29.338  1.00  0.00     0.029 A 
ATOM     48  N   UNL A   1      40.262  29.383  31.091  1.00  0.00    -0.354 N 
ATOM     49  C   UNL A   1      39.959  31.969  34.548  1.00  0.00     0.074 A 
ATOM     50  C   UNL A   1      38.894  32.934  34.381  1.00  0.00     0.031 C 
ATOM     51  C   UNL A   1      39.746  28.644  29.045  1.00  0.00     0.029 A 
ATOM     52  C   UNL A   1      40.694  28.483  30.146  1.00  0.00     0.049 A 
ATOM     53  H   UNL A   1      40.661  29.458  31.988  1.00  0.00     0.167 HD
ATOM     54  C   UNL A   1      40.743  31.885  35.647  1.00  0.00     0.034 A 
ATOM     55  C   UNL A   1      41.756  27.651  30.157  1.00  0.00     0.034 A 
ATOM     56  C   UNL A   1      41.795  30.919  35.811  1.00  0.00     0.049 A 
ATOM     57  C   UNL A   1      42.642  27.606  31.377  1.00  0.00     0.074 A 
ATOM     58  C   UNL A   1      42.617  30.721  36.905  1.00  0.00     0.029 A 
ATOM     59  N   UNL A   1      42.184  30.001  34.847  1.00  0.00    -0.354 N 
ATOM     60  N   UNL A   1      42.540  28.275  32.499  1.00  0.00    -0.248 NA
ATOM     61  C   UNL A   1      43.775  26.669  31.341  1.00  0.00     0.031 C 
ATOM     62  C   UNL A   1      43.533  29.714  36.586  1.00  0.00     0.029 A 
ATOM     63  C   UNL A   1      43.247  29.249  35.311  1.00  0.00     0.049 A 
ATOM     64  H   UNL A   1      41.763  29.900  33.963  1.00  0.00     0.167 HD
ATOM     65  C   UNL A   1      43.568  27.814  33.316  1.00  0.00     0.074 A 
ATOM     66  C   UNL A   1      44.270  26.795  32.564  1.00  0.00     0.031 C 
ATOM     67  C   UNL A   1      43.908  28.205  34.570  1.00  0.00     0.034 A 
BRANCH  54  68
ATOM     68  C   UNL A   1      40.494  32.867  36.762  1.00  0.00     0.023 A 
ATOM     69  C   UNL A   1      39.458  32.633  37.689  1.00  0.00     0.012 A 
ATOM     70  C   UNL A   1      41.319  33.998  36.918  1.00  0.00     0.148 A 
ATOM     71  C   UNL A   1      39.225  33.526  38.734  1.00  0.00     0.002 A 
ATOM     72  C   UNL A   1      41.112  34.858  37.991  1.00  0.00     0.091 A 
ATOM     73  F   UNL A   1      42.283  34.216  36.013  1.00  0.00    -0.205 F 
ATOM     74  C   UNL A   1      40.058  34.631  38.891  1.00  0.00     0.022 A 
BRANCH  72  75
ATOM     75  S   UNL A   1      42.178  36.263  38.326  1.00  0.00     0.127 S 
ATOM     76  O   UNL A   1      41.380  37.015  39.294  1.00  0.00    -0.237 OA
ATOM     77  O   UNL A   1      43.367  35.618  38.884  1.00  0.00    -0.237 OA
ATOM     78  O   UNL A   1      42.388  36.924  37.046  1.00  0.00    -0.744 OA
ENDBRANCH  72  75
ENDBRANCH  54  68
BRANCH  55  79
ATOM     79  C   UNL A   1      42.036  26.782  28.979  1.00  0.00     0.023 A 
ATOM     80  C   UNL A   1      41.259  25.627  28.763  1.00  0.00     0.012 A 
ATOM     81  C   UNL A   1      43.067  27.095  28.071  1.00  0.00     0.148 A 
ATOM     82  C   UNL A   1      41.525  24.783  27.684  1.00  0.00     0.002 A 
ATOM     83  C   UNL A   1      43.288  26.283  26.966  1.00  0.00     0.091 A 
ATOM     84  F   UNL A   1      43.805  28.190  28.303  1.00  0.00    -0.205 F 
ATOM     85  C   UNL A   1      42.531  25.116  26.781  1.00  0.00     0.022 A 
BRANCH  83  86
ATOM     86  S   UNL A   1      44.476  26.697  25.684  1.00  0.00     0.127 S 
ATOM     87  O   UNL A   1      45.682  26.955  26.466  1.00  0.00    -0.237 OA
ATOM     88  O   UNL A   1      44.504  25.466  24.895  1.00  0.00    -0.237 OA
ATOM     89  O   UNL A   1      43.920  27.847  24.985  1.00  0.00    -0.744 OA
ENDBRANCH  83  86
ENDBRANCH  55  79
BRANCH  67  90
ATOM     90  C   UNL A   1      45.062  27.501  35.238  1.00  0.00     0.023 A 
ATOM     91  C   UNL A   1      46.348  28.074  35.216  1.00  0.00     0.012 A 
ATOM     92  C   UNL A   1      44.850  26.306  35.956  1.00  0.00     0.148 A 
ATOM     93  C   UNL A   1      47.413  27.450  35.867  1.00  0.00     0.002 A 
ATOM     94  C   UNL A   1      45.903  25.720  36.647  1.00  0.00     0.091 A 
ATOM     95  F   UNL A   1      43.621  25.770  35.953  1.00  0.00    -0.205 F 
ATOM     96  C   UNL A   1      47.188  26.282  36.591  1.00  0.00     0.022 A 
BRANCH  94  97
ATOM     97  S   UNL A   1      45.687  24.272  37.687  1.00  0.00     0.127 S 
ATOM     98  O   UNL A   1      47.071  23.935  38.019  1.00  0.00    -0.237 OA
ATOM     99  O   UNL A   1      44.905  24.806  38.802  1.00  0.00    -0.237 OA
ATOM    100  O   UNL A   1      44.987  23.289  36.872  1.00  0.00    -0.744 OA
ENDBRANCH  94  97
ENDBRANCH  67  90
ENDBRANCH  41  42
ENDBRANCH  34  36
ENDBRANCH  33  34
ENDBRANCH  32  33
ENDBRANCH  31  32
ENDBRANCH  30  31
ENDBRANCH  29  30
ENDBRANCH   1  29
TORSDOF 25
ENDMDL
