MODEL 1
REMARK VINA RESULT:      -9.4      0.000      0.000
REMARK SMILES O=C(OCCOCCOCCOCCOC(=O)c1ccc(-c2c3nc(c(-c4cccc(S(=O)(=O)[O-])c4F)c4ccc([nH]4)c(-c4cccc(S(=O)(=O)[O-])c4F)c4nc(c(-c5cccc(S(=O)(=O)[O-])c5F)c5ccc2[nH]5)C=C4)C=C3)cc1)C1=Cc2c(cc(Cl)c(Cl)c2Cl)O[C@H]1C(F)(F)F
REMARK SMILES IDX 10 1 9 2 8 3 7 4 6 5 5 6 4 7 3 8 2 9 1 10 81 11 82 12 93 13
REMARK SMILES IDX 83 14 92 15 84 16 90 17 85 18 88 19 91 20 86 21 89 22 87 23
REMARK SMILES IDX 94 24 95 25 96 26 97 27 11 28 12 29 13 30 14 31 15 32 16 33
REMARK SMILES IDX 17 34 18 35 19 36 80 37 20 38 79 39 21 40 22 41 23 42 73 43
REMARK SMILES IDX 24 44 78 45 72 46 74 47 25 48 77 49 71 50 70 51 26 53 58 54
REMARK SMILES IDX 38 55 57 56 39 57 42 58 56 59 75 60 40 61 41 62 55 64 76 65
REMARK SMILES IDX 43 66 27 67 28 68 36 69 29 70 31 71 37 72 30 73 32 74 33 75
REMARK SMILES IDX 34 76 35 77 59 78 60 79 68 80 61 81 63 82 69 83 62 84 64 85
REMARK SMILES IDX 65 86 66 87 67 88 44 89 45 90 53 91 46 92 48 93 54 94 47 95
REMARK SMILES IDX 49 96 50 97 51 98 52 99
REMARK H PARENT 74 52 42 63
REMARK Flexibility Score: inf
ROOT
ATOM      1  C   UNL A   1      38.927  22.083  26.158  1.00  0.00     0.188 C 
ENDROOT
BRANCH   1   2
ATOM      2  O   UNL A   1      37.900  22.042  25.169  1.00  0.00    -0.377 OA
BRANCH   2   3
ATOM      3  C   UNL A   1      37.251  20.803  24.928  1.00  0.00     0.188 C 
BRANCH   3   4
ATOM      4  C   UNL A   1      35.730  20.820  25.087  1.00  0.00     0.188 C 
BRANCH   4   5
ATOM      5  O   UNL A   1      35.320  21.451  26.291  1.00  0.00    -0.376 OA
BRANCH   5   6
ATOM      6  C   UNL A   1      33.910  21.463  26.491  1.00  0.00     0.202 C 
BRANCH   6   7
ATOM      7  C   UNL A   1      33.213  22.417  25.521  1.00  0.00     0.261 C 
BRANCH   7   8
ATOM      8  O   UNL A   1      33.081  23.771  26.035  1.00  0.00    -0.460 OA
BRANCH   8   9
ATOM      9  C   UNL A   1      33.785  24.894  25.751  1.00  0.00     0.338 C 
ATOM     10  O   UNL A   1      34.940  24.788  25.348  1.00  0.00    -0.246 OA
BRANCH   9  11
ATOM     11  C   UNL A   1      33.178  26.246  25.784  1.00  0.00     0.087 C 
ATOM     12  C   UNL A   1      33.858  27.343  26.091  1.00  0.00     0.029 C 
ATOM     13  C   UNL A   1      31.847  26.453  25.080  1.00  0.00     0.316 C 
ATOM     14  C   UNL A   1      33.244  28.613  26.345  1.00  0.00     0.038 A 
ATOM     15  O   UNL A   1      31.287  27.818  25.173  1.00  0.00    -0.475 OA
ATOM     16  C   UNL A   1      31.994  28.814  25.791  1.00  0.00     0.131 A 
ATOM     17  C   UNL A   1      33.904  29.619  27.086  1.00  0.00     0.072 A 
ATOM     18  C   UNL A   1      31.440  30.086  25.870  1.00  0.00     0.069 A 
ATOM     19  C   UNL A   1      33.367  30.903  27.137  1.00  0.00     0.079 A 
ATOM     20  Cl  UNL A   1      35.338  29.227  27.997  1.00  0.00    -0.082 Cl
ATOM     21  C   UNL A   1      32.135  31.131  26.511  1.00  0.00     0.064 A 
ATOM     22  Cl  UNL A   1      34.233  32.188  27.920  1.00  0.00    -0.081 Cl
ATOM     23  Cl  UNL A   1      31.399  32.695  26.499  1.00  0.00    -0.083 Cl
BRANCH  13  24
ATOM     24  C   UNL A   1      32.012  26.089  23.571  1.00  0.00     0.430 C 
ATOM     25  F   UNL A   1      31.630  24.814  23.301  1.00  0.00    -0.167 F 
ATOM     26  F   UNL A   1      31.298  26.908  22.766  1.00  0.00    -0.167 F 
ATOM     27  F   UNL A   1      33.303  26.190  23.166  1.00  0.00    -0.167 F 
ENDBRANCH  13  24
ENDBRANCH   9  11
ENDBRANCH   8   9
ENDBRANCH   7   8
ENDBRANCH   6   7
ENDBRANCH   5   6
ENDBRANCH   4   5
ENDBRANCH   3   4
ENDBRANCH   2   3
ENDBRANCH   1   2
BRANCH   1  28
ATOM     28  C   UNL A   1      39.871  20.858  26.126  1.00  0.00     0.188 C 
BRANCH  28  29
ATOM     29  O   UNL A   1      40.526  20.419  27.320  1.00  0.00    -0.376 OA
BRANCH  29  30
ATOM     30  C   UNL A   1      41.864  19.957  27.206  1.00  0.00     0.202 C 
BRANCH  30  31
ATOM     31  C   UNL A   1      42.588  20.507  25.959  1.00  0.00     0.261 C 
BRANCH  31  32
ATOM     32  O   UNL A   1      43.440  21.642  26.216  1.00  0.00    -0.460 OA
BRANCH  32  33
ATOM     33  C   UNL A   1      43.126  22.767  25.518  1.00  0.00     0.338 C 
ATOM     34  O   UNL A   1      43.027  22.864  24.315  1.00  0.00    -0.246 OA
BRANCH  33  35
ATOM     35  C   UNL A   1      42.774  23.874  26.458  1.00  0.00     0.060 A 
ATOM     36  C   UNL A   1      43.567  25.029  26.424  1.00  0.00     0.016 A 
ATOM     37  C   UNL A   1      41.718  23.790  27.373  1.00  0.00     0.016 A 
ATOM     38  C   UNL A   1      43.379  26.047  27.364  1.00  0.00     0.010 A 
ATOM     39  C   UNL A   1      41.526  24.814  28.315  1.00  0.00     0.010 A 
ATOM     40  C   UNL A   1      42.406  25.913  28.361  1.00  0.00    -0.014 A 
BRANCH  40  41
ATOM     41  C   UNL A   1      42.521  26.745  29.594  1.00  0.00     0.031 A 
ATOM     42  C   UNL A   1      43.498  26.293  30.655  1.00  0.00     0.074 A 
ATOM     43  C   UNL A   1      41.846  27.898  29.766  1.00  0.00     0.049 A 
ATOM     44  N   UNL A   1      43.826  26.862  31.786  1.00  0.00    -0.248 NA
ATOM     45  C   UNL A   1      44.201  25.024  30.401  1.00  0.00     0.031 C 
ATOM     46  C   UNL A   1      40.892  28.475  28.824  1.00  0.00     0.029 A 
ATOM     47  N   UNL A   1      41.867  28.792  30.813  1.00  0.00    -0.354 N 
ATOM     48  C   UNL A   1      44.743  26.007  32.390  1.00  0.00     0.074 A 
ATOM     49  C   UNL A   1      44.905  24.872  31.511  1.00  0.00     0.031 C 
ATOM     50  C   UNL A   1      40.408  29.621  29.338  1.00  0.00     0.029 A 
ATOM     51  C   UNL A   1      41.004  29.852  30.655  1.00  0.00     0.049 A 
ATOM     52  H   UNL A   1      42.444  28.682  31.602  1.00  0.00     0.167 HD
ATOM     53  C   UNL A   1      45.408  26.151  33.559  1.00  0.00     0.034 A 
ATOM     54  C   UNL A   1      40.726  30.886  31.478  1.00  0.00     0.034 A 
ATOM     55  C   UNL A   1      45.274  27.286  34.430  1.00  0.00     0.049 A 
ATOM     56  C   UNL A   1      41.458  31.010  32.794  1.00  0.00     0.074 A 
ATOM     57  C   UNL A   1      45.946  27.545  35.612  1.00  0.00     0.029 A 
ATOM     58  N   UNL A   1      44.399  28.339  34.228  1.00  0.00    -0.354 N 
ATOM     59  N   UNL A   1      42.405  30.251  33.292  1.00  0.00    -0.248 NA
ATOM     60  C   UNL A   1      41.107  32.159  33.646  1.00  0.00     0.031 C 
ATOM     61  C   UNL A   1      45.442  28.734  36.149  1.00  0.00     0.029 A 
ATOM     62  C   UNL A   1      44.495  29.241  35.273  1.00  0.00     0.049 A 
ATOM     63  H   UNL A   1      43.796  28.433  33.454  1.00  0.00     0.167 HD
ATOM     64  C   UNL A   1      42.794  30.857  34.486  1.00  0.00     0.074 A 
ATOM     65  C   UNL A   1      41.990  32.051  34.629  1.00  0.00     0.031 C 
ATOM     66  C   UNL A   1      43.729  30.456  35.384  1.00  0.00     0.034 A 
BRANCH  53  67
ATOM     67  C   UNL A   1      46.343  25.042  33.969  1.00  0.00     0.023 A 
ATOM     68  C   UNL A   1      47.714  25.115  33.649  1.00  0.00     0.012 A 
ATOM     69  C   UNL A   1      45.863  23.939  34.702  1.00  0.00     0.148 A 
ATOM     70  C   UNL A   1      48.583  24.087  34.012  1.00  0.00     0.002 A 
ATOM     71  C   UNL A   1      46.744  22.945  35.106  1.00  0.00     0.091 A 
ATOM     72  F   UNL A   1      44.552  23.876  34.975  1.00  0.00    -0.205 F 
ATOM     73  C   UNL A   1      48.101  23.008  34.750  1.00  0.00     0.022 A 
BRANCH  71  74
ATOM     74  S   UNL A   1      46.234  21.562  36.131  1.00  0.00     0.127 S 
ATOM     75  O   UNL A   1      47.510  20.889  36.374  1.00  0.00    -0.237 OA
ATOM     76  O   UNL A   1      45.669  22.236  37.299  1.00  0.00    -0.237 OA
ATOM     77  O   UNL A   1      45.272  20.807  35.340  1.00  0.00    -0.744 OA
ENDBRANCH  71  74
ENDBRANCH  53  67
BRANCH  54  78
ATOM     78  C   UNL A   1      39.730  31.924  31.076  1.00  0.00     0.023 A 
ATOM     79  C   UNL A   1      40.127  32.984  30.236  1.00  0.00     0.012 A 
ATOM     80  C   UNL A   1      38.400  31.878  31.538  1.00  0.00     0.148 A 
ATOM     81  C   UNL A   1      39.229  33.998  29.893  1.00  0.00     0.002 A 
ATOM     82  C   UNL A   1      37.495  32.859  31.145  1.00  0.00     0.091 A 
ATOM     83  F   UNL A   1      38.046  30.875  32.352  1.00  0.00    -0.205 F 
ATOM     84  C   UNL A   1      37.913  33.930  30.339  1.00  0.00     0.022 A 
BRANCH  82  85
ATOM     85  S   UNL A   1      35.752  32.792  31.571  1.00  0.00     0.127 S 
ATOM     86  O   UNL A   1      35.232  33.977  30.896  1.00  0.00    -0.237 OA
ATOM     87  O   UNL A   1      35.348  31.517  30.978  1.00  0.00    -0.237 OA
ATOM     88  O   UNL A   1      35.698  32.822  33.027  1.00  0.00    -0.744 OA
ENDBRANCH  82  85
ENDBRANCH  54  78
BRANCH  66  89
ATOM     89  C   UNL A   1      43.990  31.341  36.580  1.00  0.00     0.023 A 
ATOM     90  C   UNL A   1      43.224  31.195  37.754  1.00  0.00     0.012 A 
ATOM     91  C   UNL A   1      45.045  32.275  36.557  1.00  0.00     0.148 A 
ATOM     92  C   UNL A   1      43.477  31.996  38.869  1.00  0.00     0.002 A 
ATOM     93  C   UNL A   1      45.327  33.029  37.691  1.00  0.00     0.091 A 
ATOM     94  F   UNL A   1      45.756  32.411  35.428  1.00  0.00    -0.205 F 
ATOM     95  C   UNL A   1      44.533  32.903  38.841  1.00  0.00     0.022 A 
BRANCH  93  96
ATOM     96  S   UNL A   1      46.731  34.146  37.779  1.00  0.00     0.127 S 
ATOM     97  O   UNL A   1      46.609  34.672  39.137  1.00  0.00    -0.237 OA
ATOM     98  O   UNL A   1      47.862  33.239  37.577  1.00  0.00    -0.237 OA
ATOM     99  O   UNL A   1      46.539  35.119  36.711  1.00  0.00    -0.744 OA
ENDBRANCH  93  96
ENDBRANCH  66  89
ENDBRANCH  40  41
ENDBRANCH  33  35
ENDBRANCH  32  33
ENDBRANCH  31  32
ENDBRANCH  30  31
ENDBRANCH  29  30
ENDBRANCH  28  29
ENDBRANCH   1  28
TORSDOF 24
ENDMDL
MODEL 2
REMARK VINA RESULT:      -9.4      2.081      2.446
REMARK SMILES O=C(OCCOCCOCCOCCOC(=O)c1ccc(-c2c3nc(c(-c4cccc(S(=O)(=O)[O-])c4F)c4ccc([nH]4)c(-c4cccc(S(=O)(=O)[O-])c4F)c4nc(c(-c5cccc(S(=O)(=O)[O-])c5F)c5ccc2[nH]5)C=C4)C=C3)cc1)C1=Cc2c(cc(Cl)c(Cl)c2Cl)O[C@H]1C(F)(F)F
REMARK SMILES IDX 10 1 9 2 8 3 7 4 6 5 5 6 4 7 3 8 2 9 1 10 81 11 82 12 93 13
REMARK SMILES IDX 83 14 92 15 84 16 90 17 85 18 88 19 91 20 86 21 89 22 87 23
REMARK SMILES IDX 94 24 95 25 96 26 97 27 11 28 12 29 13 30 14 31 15 32 16 33
REMARK SMILES IDX 17 34 18 35 19 36 80 37 20 38 79 39 21 40 22 41 23 42 73 43
REMARK SMILES IDX 24 44 78 45 72 46 74 47 25 48 77 49 71 50 70 51 26 53 58 54
REMARK SMILES IDX 38 55 57 56 39 57 42 58 56 59 75 60 40 61 41 62 55 64 76 65
REMARK SMILES IDX 43 66 27 67 28 68 36 69 29 70 31 71 37 72 30 73 32 74 33 75
REMARK SMILES IDX 34 76 35 77 59 78 60 79 68 80 61 81 63 82 69 83 62 84 64 85
REMARK SMILES IDX 65 86 66 87 67 88 44 89 45 90 53 91 46 92 48 93 54 94 47 95
REMARK SMILES IDX 49 96 50 97 51 98 52 99
REMARK H PARENT 74 52 42 63
REMARK Flexibility Score: inf
ROOT
ATOM      1  C   UNL A   1      39.264  22.193  26.453  1.00  0.00     0.188 C 
ENDROOT
BRANCH   1   2
ATOM      2  O   UNL A   1      38.027  22.263  25.748  1.00  0.00    -0.377 OA
BRANCH   2   3
ATOM      3  C   UNL A   1      37.686  21.188  24.885  1.00  0.00     0.188 C 
BRANCH   3   4
ATOM      4  C   UNL A   1      36.275  20.627  25.067  1.00  0.00     0.188 C 
BRANCH   4   5
ATOM      5  O   UNL A   1      35.397  21.560  25.678  1.00  0.00    -0.376 OA
BRANCH   5   6
ATOM      6  C   UNL A   1      34.018  21.223  25.561  1.00  0.00     0.202 C 
BRANCH   6   7
ATOM      7  C   UNL A   1      33.388  21.856  24.320  1.00  0.00     0.261 C 
BRANCH   7   8
ATOM      8  O   UNL A   1      32.860  23.189  24.556  1.00  0.00    -0.460 OA
BRANCH   8   9
ATOM      9  C   UNL A   1      33.414  24.408  24.344  1.00  0.00     0.338 C 
ATOM     10  O   UNL A   1      34.633  24.494  24.216  1.00  0.00    -0.246 OA
BRANCH   9  11
ATOM     11  C   UNL A   1      32.602  25.630  24.132  1.00  0.00     0.087 C 
ATOM     12  C   UNL A   1      32.878  26.797  24.697  1.00  0.00     0.029 C 
ATOM     13  C   UNL A   1      31.654  25.664  22.943  1.00  0.00     0.316 C 
ATOM     14  C   UNL A   1      31.986  27.919  24.683  1.00  0.00     0.038 A 
ATOM     15  O   UNL A   1      30.857  26.902  22.805  1.00  0.00    -0.475 OA
ATOM     16  C   UNL A   1      31.053  27.948  23.664  1.00  0.00     0.131 A 
ATOM     17  C   UNL A   1      32.087  28.957  25.635  1.00  0.00     0.072 A 
ATOM     18  C   UNL A   1      30.284  29.096  23.516  1.00  0.00     0.069 A 
ATOM     19  C   UNL A   1      31.343  30.122  25.468  1.00  0.00     0.079 A 
ATOM     20  Cl  UNL A   1      33.078  28.741  27.053  1.00  0.00    -0.082 Cl
ATOM     21  C   UNL A   1      30.449  30.188  24.391  1.00  0.00     0.064 A 
ATOM     22  Cl  UNL A   1      31.559  31.466  26.545  1.00  0.00    -0.081 Cl
ATOM     23  Cl  UNL A   1      29.499  31.599  24.086  1.00  0.00    -0.083 Cl
BRANCH  13  24
ATOM     24  C   UNL A   1      32.480  25.460  21.634  1.00  0.00     0.430 C 
ATOM     25  F   UNL A   1      33.616  26.202  21.616  1.00  0.00    -0.167 F 
ATOM     26  F   UNL A   1      32.833  24.167  21.449  1.00  0.00    -0.167 F 
ATOM     27  F   UNL A   1      31.775  25.822  20.532  1.00  0.00    -0.167 F 
ENDBRANCH  13  24
ENDBRANCH   9  11
ENDBRANCH   8   9
ENDBRANCH   7   8
ENDBRANCH   6   7
ENDBRANCH   5   6
ENDBRANCH   4   5
ENDBRANCH   3   4
ENDBRANCH   2   3
ENDBRANCH   1   2
BRANCH   1  28
ATOM     28  C   UNL A   1      40.007  20.848  26.276  1.00  0.00     0.188 C 
BRANCH  28  29
ATOM     29  O   UNL A   1      40.739  20.278  27.367  1.00  0.00    -0.376 OA
BRANCH  29  30
ATOM     30  C   UNL A   1      42.071  19.855  27.117  1.00  0.00     0.202 C 
BRANCH  30  31
ATOM     31  C   UNL A   1      42.718  20.576  25.916  1.00  0.00     0.261 C 
BRANCH  31  32
ATOM     32  O   UNL A   1      43.529  21.714  26.270  1.00  0.00    -0.460 OA
BRANCH  32  33
ATOM     33  C   UNL A   1      43.325  22.825  25.512  1.00  0.00     0.338 C 
ATOM     34  O   UNL A   1      43.372  22.891  24.303  1.00  0.00    -0.246 OA
BRANCH  33  35
ATOM     35  C   UNL A   1      42.887  23.963  26.375  1.00  0.00     0.060 A 
ATOM     36  C   UNL A   1      43.610  25.161  26.284  1.00  0.00     0.016 A 
ATOM     37  C   UNL A   1      41.818  23.871  27.274  1.00  0.00     0.016 A 
ATOM     38  C   UNL A   1      43.342  26.220  27.156  1.00  0.00     0.010 A 
ATOM     39  C   UNL A   1      41.545  24.936  28.147  1.00  0.00     0.010 A 
ATOM     40  C   UNL A   1      42.356  26.088  28.141  1.00  0.00    -0.014 A 
BRANCH  40  41
ATOM     41  C   UNL A   1      42.394  26.999  29.322  1.00  0.00     0.031 A 
ATOM     42  C   UNL A   1      43.360  26.661  30.436  1.00  0.00     0.074 A 
ATOM     43  C   UNL A   1      41.661  28.125  29.404  1.00  0.00     0.049 A 
ATOM     44  N   UNL A   1      43.626  27.314  31.538  1.00  0.00    -0.248 NA
ATOM     45  C   UNL A   1      44.130  25.415  30.281  1.00  0.00     0.031 C 
ATOM     46  C   UNL A   1      40.708  28.595  28.402  1.00  0.00     0.029 A 
ATOM     47  N   UNL A   1      41.607  29.081  30.393  1.00  0.00    -0.354 N 
ATOM     48  C   UNL A   1      44.564  26.544  32.218  1.00  0.00     0.074 A 
ATOM     49  C   UNL A   1      44.806  25.366  31.417  1.00  0.00     0.031 C 
ATOM     50  C   UNL A   1      40.155  29.745  28.830  1.00  0.00     0.029 A 
ATOM     51  C   UNL A   1      40.700  30.086  30.145  1.00  0.00     0.049 A 
ATOM     52  H   UNL A   1      42.165  29.049  31.202  1.00  0.00     0.167 HD
ATOM     53  C   UNL A   1      45.186  26.792  33.394  1.00  0.00     0.034 A 
ATOM     54  C   UNL A   1      40.348  31.153  30.894  1.00  0.00     0.034 A 
ATOM     55  C   UNL A   1      44.973  27.970  34.188  1.00  0.00     0.049 A 
ATOM     56  C   UNL A   1      41.034  31.394  32.219  1.00  0.00     0.074 A 
ATOM     57  C   UNL A   1      45.595  28.334  35.370  1.00  0.00     0.029 A 
ATOM     58  N   UNL A   1      44.055  28.964  33.897  1.00  0.00    -0.354 N 
ATOM     59  N   UNL A   1      42.000  30.715  32.790  1.00  0.00    -0.248 NA
ATOM     60  C   UNL A   1      40.603  32.573  32.988  1.00  0.00     0.031 C 
ATOM     61  C   UNL A   1      45.019  29.527  35.817  1.00  0.00     0.029 A 
ATOM     62  C   UNL A   1      44.076  29.932  34.886  1.00  0.00     0.049 A 
ATOM     63  H   UNL A   1      43.471  28.980  33.102  1.00  0.00     0.167 HD
ATOM     64  C   UNL A   1      42.324  31.410  33.953  1.00  0.00     0.074 A 
ATOM     65  C   UNL A   1      41.460  32.570  33.999  1.00  0.00     0.031 C 
ATOM     66  C   UNL A   1      43.250  31.112  34.900  1.00  0.00     0.034 A 
BRANCH  53  67
ATOM     67  C   UNL A   1      46.160  25.758  33.898  1.00  0.00     0.023 A 
ATOM     68  C   UNL A   1      45.727  24.742  34.775  1.00  0.00     0.012 A 
ATOM     69  C   UNL A   1      47.503  25.777  33.475  1.00  0.00     0.148 A 
ATOM     70  C   UNL A   1      46.624  23.790  35.256  1.00  0.00     0.002 A 
ATOM     71  C   UNL A   1      48.379  24.795  33.917  1.00  0.00     0.091 A 
ATOM     72  F   UNL A   1      47.902  26.765  32.661  1.00  0.00    -0.205 F 
ATOM     73  C   UNL A   1      47.946  23.809  34.820  1.00  0.00     0.022 A 
BRANCH  71  74
ATOM     74  S   UNL A   1      50.077  24.686  33.344  1.00  0.00     0.127 S 
ATOM     75  O   UNL A   1      50.665  25.887  33.936  1.00  0.00    -0.237 OA
ATOM     76  O   UNL A   1      50.523  23.429  33.944  1.00  0.00    -0.237 OA
ATOM     77  O   UNL A   1      50.012  24.674  31.889  1.00  0.00    -0.744 OA
ENDBRANCH  71  74
ENDBRANCH  53  67
BRANCH  54  78
ATOM     78  C   UNL A   1      39.316  32.114  30.402  1.00  0.00     0.023 A 
ATOM     79  C   UNL A   1      39.719  33.302  29.758  1.00  0.00     0.012 A 
ATOM     80  C   UNL A   1      37.942  31.868  30.585  1.00  0.00     0.148 A 
ATOM     81  C   UNL A   1      38.775  34.243  29.340  1.00  0.00     0.002 A 
ATOM     82  C   UNL A   1      37.005  32.781  30.114  1.00  0.00     0.091 A 
ATOM     83  F   UNL A   1      37.578  30.744  31.217  1.00  0.00    -0.205 F 
ATOM     84  C   UNL A   1      37.420  33.979  29.509  1.00  0.00     0.022 A 
BRANCH  82  85
ATOM     85  S   UNL A   1      35.237  32.473  30.179  1.00  0.00     0.127 S 
ATOM     86  O   UNL A   1      34.690  33.782  29.834  1.00  0.00    -0.237 OA
ATOM     87  O   UNL A   1      35.074  31.446  29.149  1.00  0.00    -0.237 OA
ATOM     88  O   UNL A   1      34.964  32.013  31.534  1.00  0.00    -0.744 OA
ENDBRANCH  82  85
ENDBRANCH  54  78
BRANCH  66  89
ATOM     89  C   UNL A   1      43.432  32.080  36.044  1.00  0.00     0.023 A 
ATOM     90  C   UNL A   1      44.282  33.195  35.905  1.00  0.00     0.012 A 
ATOM     91  C   UNL A   1      42.700  31.916  37.238  1.00  0.00     0.148 A 
ATOM     92  C   UNL A   1      44.435  34.105  36.953  1.00  0.00     0.002 A 
ATOM     93  C   UNL A   1      42.815  32.857  38.255  1.00  0.00     0.091 A 
ATOM     94  F   UNL A   1      41.906  30.843  37.360  1.00  0.00    -0.205 F 
ATOM     95  C   UNL A   1      43.694  33.943  38.121  1.00  0.00     0.022 A 
BRANCH  93  96
ATOM     96  S   UNL A   1      41.823  32.783  39.751  1.00  0.00     0.127 S 
ATOM     97  O   UNL A   1      42.173  34.043  40.404  1.00  0.00    -0.237 OA
ATOM     98  O   UNL A   1      40.461  32.732  39.217  1.00  0.00    -0.237 OA
ATOM     99  O   UNL A   1      42.242  31.576  40.452  1.00  0.00    -0.744 OA
ENDBRANCH  93  96
ENDBRANCH  66  89
ENDBRANCH  40  41
ENDBRANCH  33  35
ENDBRANCH  32  33
ENDBRANCH  31  32
ENDBRANCH  30  31
ENDBRANCH  29  30
ENDBRANCH  28  29
ENDBRANCH   1  28
TORSDOF 24
ENDMDL
MODEL 3
REMARK VINA RESULT:      -9.1      5.279      6.867
REMARK SMILES O=C(OCCOCCOCCOCCOC(=O)c1ccc(-c2c3nc(c(-c4cccc(S(=O)(=O)[O-])c4F)c4ccc([nH]4)c(-c4cccc(S(=O)(=O)[O-])c4F)c4nc(c(-c5cccc(S(=O)(=O)[O-])c5F)c5ccc2[nH]5)C=C4)C=C3)cc1)C1=Cc2c(cc(Cl)c(Cl)c2Cl)O[C@H]1C(F)(F)F
REMARK SMILES IDX 10 1 9 2 8 3 7 4 6 5 5 6 4 7 3 8 2 9 1 10 81 11 82 12 93 13
REMARK SMILES IDX 83 14 92 15 84 16 90 17 85 18 88 19 91 20 86 21 89 22 87 23
REMARK SMILES IDX 94 24 95 25 96 26 97 27 11 28 12 29 13 30 14 31 15 32 16 33
REMARK SMILES IDX 17 34 18 35 19 36 80 37 20 38 79 39 21 40 22 41 23 42 73 43
REMARK SMILES IDX 24 44 78 45 72 46 74 47 25 48 77 49 71 50 70 51 26 53 58 54
REMARK SMILES IDX 38 55 57 56 39 57 42 58 56 59 75 60 40 61 41 62 55 64 76 65
REMARK SMILES IDX 43 66 27 67 28 68 36 69 29 70 31 71 37 72 30 73 32 74 33 75
REMARK SMILES IDX 34 76 35 77 59 78 60 79 68 80 61 81 63 82 69 83 62 84 64 85
REMARK SMILES IDX 65 86 66 87 67 88 44 89 45 90 53 91 46 92 48 93 54 94 47 95
REMARK SMILES IDX 49 96 50 97 51 98 52 99
REMARK H PARENT 74 52 42 63
REMARK Flexibility Score: inf
ROOT
ATOM      1  C   UNL A   1      39.643  23.342  26.859  1.00  0.00     0.188 C 
ENDROOT
BRANCH   1   2
ATOM      2  O   UNL A   1      38.245  23.606  26.771  1.00  0.00    -0.377 OA
BRANCH   2   3
ATOM      3  C   UNL A   1      37.569  23.247  25.576  1.00  0.00     0.188 C 
BRANCH   3   4
ATOM      4  C   UNL A   1      36.198  22.598  25.771  1.00  0.00     0.188 C 
BRANCH   4   5
ATOM      5  O   UNL A   1      35.205  23.537  26.156  1.00  0.00    -0.376 OA
BRANCH   5   6
ATOM      6  C   UNL A   1      34.263  23.034  27.098  1.00  0.00     0.202 C 
BRANCH   6   7
ATOM      7  C   UNL A   1      33.824  21.612  26.750  1.00  0.00     0.261 C 
BRANCH   7   8
ATOM      8  O   UNL A   1      32.847  21.555  25.675  1.00  0.00    -0.460 OA
BRANCH   8   9
ATOM      9  C   UNL A   1      31.663  22.198  25.523  1.00  0.00     0.338 C 
ATOM     10  O   UNL A   1      30.688  21.810  26.162  1.00  0.00    -0.246 OA
BRANCH   9  11
ATOM     11  C   UNL A   1      31.523  23.432  24.715  1.00  0.00     0.087 C 
ATOM     12  C   UNL A   1      31.834  24.640  25.168  1.00  0.00     0.029 C 
ATOM     13  C   UNL A   1      31.390  23.292  23.207  1.00  0.00     0.316 C 
ATOM     14  C   UNL A   1      31.497  25.855  24.486  1.00  0.00     0.038 A 
ATOM     15  O   UNL A   1      31.229  24.560  22.465  1.00  0.00    -0.475 OA
ATOM     16  C   UNL A   1      31.286  25.758  23.124  1.00  0.00     0.131 A 
ATOM     17  C   UNL A   1      31.428  27.090  25.168  1.00  0.00     0.072 A 
ATOM     18  C   UNL A   1      31.124  26.934  22.403  1.00  0.00     0.069 A 
ATOM     19  C   UNL A   1      31.301  28.273  24.443  1.00  0.00     0.079 A 
ATOM     20  Cl  UNL A   1      31.419  27.122  26.911  1.00  0.00    -0.082 Cl
ATOM     21  C   UNL A   1      31.163  28.184  23.052  1.00  0.00     0.064 A 
ATOM     22  Cl  UNL A   1      31.359  29.809  25.248  1.00  0.00    -0.081 Cl
ATOM     23  Cl  UNL A   1      31.023  29.595  22.063  1.00  0.00    -0.083 Cl
BRANCH  13  24
ATOM     24  C   UNL A   1      32.650  22.553  22.655  1.00  0.00     0.430 C 
ATOM     25  F   UNL A   1      32.527  21.202  22.717  1.00  0.00    -0.167 F 
ATOM     26  F   UNL A   1      32.912  22.881  21.369  1.00  0.00    -0.167 F 
ATOM     27  F   UNL A   1      33.766  22.863  23.362  1.00  0.00    -0.167 F 
ENDBRANCH  13  24
ENDBRANCH   9  11
ENDBRANCH   8   9
ENDBRANCH   7   8
ENDBRANCH   6   7
ENDBRANCH   5   6
ENDBRANCH   4   5
ENDBRANCH   3   4
ENDBRANCH   2   3
ENDBRANCH   1   2
BRANCH   1  28
ATOM     28  C   UNL A   1      40.013  21.860  26.613  1.00  0.00     0.188 C 
BRANCH  28  29
ATOM     29  O   UNL A   1      40.486  21.045  27.691  1.00  0.00    -0.376 OA
BRANCH  29  30
ATOM     30  C   UNL A   1      41.733  20.387  27.523  1.00  0.00     0.202 C 
BRANCH  30  31
ATOM     31  C   UNL A   1      42.137  20.230  26.041  1.00  0.00     0.261 C 
BRANCH  31  32
ATOM     32  O   UNL A   1      43.360  19.497  25.831  1.00  0.00    -0.460 OA
BRANCH  32  33
ATOM     33  C   UNL A   1      44.081  19.880  24.741  1.00  0.00     0.338 C 
ATOM     34  O   UNL A   1      44.163  19.288  23.688  1.00  0.00    -0.246 OA
BRANCH  33  35
ATOM     35  C   UNL A   1      44.668  21.236  24.964  1.00  0.00     0.060 A 
ATOM     36  C   UNL A   1      45.274  21.483  26.204  1.00  0.00     0.016 A 
ATOM     37  C   UNL A   1      44.614  22.257  24.008  1.00  0.00     0.016 A 
ATOM     38  C   UNL A   1      45.725  22.765  26.531  1.00  0.00     0.010 A 
ATOM     39  C   UNL A   1      45.070  23.544  24.335  1.00  0.00     0.010 A 
ATOM     40  C   UNL A   1      45.560  23.821  25.626  1.00  0.00    -0.014 A 
BRANCH  40  41
ATOM     41  C   UNL A   1      45.606  25.221  26.140  1.00  0.00     0.031 A 
ATOM     42  C   UNL A   1      46.950  25.913  26.167  1.00  0.00     0.074 A 
ATOM     43  C   UNL A   1      44.505  25.901  26.513  1.00  0.00     0.049 A 
ATOM     44  N   UNL A   1      47.252  27.138  26.512  1.00  0.00    -0.248 NA
ATOM     45  C   UNL A   1      48.110  25.109  25.745  1.00  0.00     0.031 C 
ATOM     46  C   UNL A   1      43.142  25.379  26.518  1.00  0.00     0.029 A 
ATOM     47  N   UNL A   1      44.371  27.193  26.968  1.00  0.00    -0.354 N 
ATOM     48  C   UNL A   1      48.634  27.239  26.382  1.00  0.00     0.074 A 
ATOM     49  C   UNL A   1      49.113  25.948  25.946  1.00  0.00     0.031 C 
ATOM     50  C   UNL A   1      42.308  26.337  26.964  1.00  0.00     0.029 A 
ATOM     51  C   UNL A   1      43.080  27.536  27.295  1.00  0.00     0.049 A 
ATOM     52  H   UNL A   1      45.129  27.814  27.053  1.00  0.00     0.167 HD
ATOM     53  C   UNL A   1      49.438  28.308  26.587  1.00  0.00     0.034 A 
ATOM     54  C   UNL A   1      42.579  28.682  27.805  1.00  0.00     0.034 A 
ATOM     55  C   UNL A   1      48.971  29.603  26.997  1.00  0.00     0.049 A 
ATOM     56  C   UNL A   1      43.501  29.853  28.055  1.00  0.00     0.074 A 
ATOM     57  C   UNL A   1      49.706  30.762  27.181  1.00  0.00     0.029 A 
ATOM     58  N   UNL A   1      47.657  29.908  27.306  1.00  0.00    -0.354 N 
ATOM     59  N   UNL A   1      44.785  29.964  27.817  1.00  0.00    -0.248 NA
ATOM     60  C   UNL A   1      42.892  31.072  28.614  1.00  0.00     0.031 C 
ATOM     61  C   UNL A   1      48.841  31.757  27.648  1.00  0.00     0.029 A 
ATOM     62  C   UNL A   1      47.559  31.231  27.703  1.00  0.00     0.049 A 
ATOM     63  H   UNL A   1      46.902  29.277  27.254  1.00  0.00     0.167 HD
ATOM     64  C   UNL A   1      45.126  31.274  28.147  1.00  0.00     0.074 A 
ATOM     65  C   UNL A   1      43.910  31.922  28.591  1.00  0.00     0.031 C 
ATOM     66  C   UNL A   1      46.337  31.885  28.093  1.00  0.00     0.034 A 
BRANCH  53  67
ATOM     67  C   UNL A   1      50.918  28.116  26.374  1.00  0.00     0.023 A 
ATOM     68  C   UNL A   1      51.769  27.884  27.474  1.00  0.00     0.012 A 
ATOM     69  C   UNL A   1      51.460  28.137  25.074  1.00  0.00     0.148 A 
ATOM     70  C   UNL A   1      53.141  27.719  27.288  1.00  0.00     0.002 A 
ATOM     71  C   UNL A   1      52.819  27.919  24.892  1.00  0.00     0.091 A 
ATOM     72  F   UNL A   1      50.639  28.383  24.044  1.00  0.00    -0.205 F 
ATOM     73  C   UNL A   1      53.664  27.726  25.997  1.00  0.00     0.022 A 
BRANCH  71  74
ATOM     74  S   UNL A   1      53.572  27.824  23.264  1.00  0.00     0.127 S 
ATOM     75  O   UNL A   1      54.995  27.801  23.599  1.00  0.00    -0.237 OA
ATOM     76  O   UNL A   1      53.045  26.558  22.756  1.00  0.00    -0.237 OA
ATOM     77  O   UNL A   1      53.120  29.005  22.542  1.00  0.00    -0.744 OA
ENDBRANCH  71  74
ENDBRANCH  53  67
BRANCH  54  78
ATOM     78  C   UNL A   1      41.117  28.809  28.083  1.00  0.00     0.023 A 
ATOM     79  C   UNL A   1      40.233  29.140  27.036  1.00  0.00     0.012 A 
ATOM     80  C   UNL A   1      40.601  28.625  29.381  1.00  0.00     0.148 A 
ATOM     81  C   UNL A   1      38.870  29.321  27.283  1.00  0.00     0.002 A 
ATOM     82  C   UNL A   1      39.235  28.749  29.609  1.00  0.00     0.091 A 
ATOM     83  F   UNL A   1      41.459  28.331  30.368  1.00  0.00    -0.205 F 
ATOM     84  C   UNL A   1      38.370  29.116  28.565  1.00  0.00     0.022 A 
BRANCH  82  85
ATOM     85  S   UNL A   1      38.483  28.388  31.199  1.00  0.00     0.127 S 
ATOM     86  O   UNL A   1      38.741  26.958  31.337  1.00  0.00    -0.237 OA
ATOM     87  O   UNL A   1      39.260  29.244  32.098  1.00  0.00    -0.237 OA
ATOM     88  O   UNL A   1      37.083  28.767  31.071  1.00  0.00    -0.744 OA
ENDBRANCH  82  85
ENDBRANCH  54  78
BRANCH  66  89
ATOM     89  C   UNL A   1      46.412  33.346  28.464  1.00  0.00     0.023 A 
ATOM     90  C   UNL A   1      46.234  34.340  27.481  1.00  0.00     0.012 A 
ATOM     91  C   UNL A   1      46.593  33.731  29.808  1.00  0.00     0.148 A 
ATOM     92  C   UNL A   1      46.280  35.693  27.823  1.00  0.00     0.002 A 
ATOM     93  C   UNL A   1      46.581  35.079  30.149  1.00  0.00     0.091 A 
ATOM     94  F   UNL A   1      46.774  32.775  30.729  1.00  0.00    -0.205 F 
ATOM     95  C   UNL A   1      46.442  36.061  29.156  1.00  0.00     0.022 A 
BRANCH  93  96
ATOM     96  S   UNL A   1      46.680  35.641  31.853  1.00  0.00     0.127 S 
ATOM     97  O   UNL A   1      46.587  37.091  31.695  1.00  0.00    -0.237 OA
ATOM     98  O   UNL A   1      45.500  35.017  32.454  1.00  0.00    -0.237 OA
ATOM     99  O   UNL A   1      47.951  35.147  32.367  1.00  0.00    -0.744 OA
ENDBRANCH  93  96
ENDBRANCH  66  89
ENDBRANCH  40  41
ENDBRANCH  33  35
ENDBRANCH  32  33
ENDBRANCH  31  32
ENDBRANCH  30  31
ENDBRANCH  29  30
ENDBRANCH  28  29
ENDBRANCH   1  28
TORSDOF 24
ENDMDL
