MODEL 1
REMARK VINA RESULT:      -9.4      0.000      0.000
REMARK SMILES CC[C@@H]1CCC[C@](CCCCCO)(C(=O)OCCOCCOCCOCCOC(=O)c2ccc(-c3c4nc(c(-c5cccc(S(=O)(=O)[O-])c5F)c5ccc([nH]5)c(-c5cccc(S(=O)(=O)[O-])c5F)c5nc(c(-c6cccc(S(=O)(=O)[O-])c6F)c6ccc3[nH]6)C=C5)C=C4)cc2)C1
REMARK SMILES IDX 20 1 19 2 18 3 17 4 16 5 14 6 15 7 7 8 3 9 4 10 94 11 5 12
REMARK SMILES IDX 6 13 2 14 1 15 8 16 9 17 10 18 11 19 12 20 13 21 21 23 22 24
REMARK SMILES IDX 23 25 24 26 25 27 26 28 27 29 28 30 29 31 30 32 31 33 32 34
REMARK SMILES IDX 93 35 33 36 92 37 34 38 35 39 36 40 86 41 37 42 91 43 85 44
REMARK SMILES IDX 87 45 38 46 90 47 84 48 83 49 39 51 71 52 51 53 70 54 52 55
REMARK SMILES IDX 55 56 69 57 88 58 53 59 54 60 68 62 89 63 56 64 40 65 41 66
REMARK SMILES IDX 49 67 42 68 44 69 50 70 43 71 45 72 46 73 47 74 48 75 72 76
REMARK SMILES IDX 73 77 81 78 74 79 76 80 82 81 75 82 77 83 78 84 79 85 80 86
REMARK SMILES IDX 57 87 58 88 66 89 59 90 61 91 67 92 60 93 62 94 63 95 64 96
REMARK SMILES IDX 65 97
REMARK H PARENT 13 22 87 50 55 61
REMARK Flexibility Score: inf
ROOT
ATOM      1  C   UNL A   1      35.005  23.108  26.265  1.00  0.00     0.188 C 
ENDROOT
BRANCH   1   2
ATOM      2  O   UNL A   1      36.051  23.154  25.309  1.00  0.00    -0.376 OA
BRANCH   2   3
ATOM      3  C   UNL A   1      35.791  23.368  23.926  1.00  0.00     0.202 C 
BRANCH   3   4
ATOM      4  C   UNL A   1      34.433  23.815  23.342  1.00  0.00     0.261 C 
BRANCH   4   5
ATOM      5  O   UNL A   1      34.414  24.995  22.529  1.00  0.00    -0.463 OA
BRANCH   5   6
ATOM      6  C   UNL A   1      33.186  25.384  22.118  1.00  0.00     0.312 C 
ATOM      7  O   UNL A   1      32.761  25.147  20.990  1.00  0.00    -0.252 OA
BRANCH   6   8
ATOM      8  C   UNL A   1      32.383  26.170  23.220  1.00  0.00     0.068 C 
ATOM      9  C   UNL A   1      31.545  25.645  25.672  1.00  0.00    -0.010 C 
ATOM     10  C   UNL A   1      30.090  25.895  25.245  1.00  0.00     0.003 C 
ATOM     11  C   UNL A   1      32.500  25.310  24.507  1.00  0.00     0.022 C 
ATOM     12  C   UNL A   1      29.952  26.750  23.996  1.00  0.00     0.001 C 
ATOM     13  C   UNL A   1      30.887  26.263  22.902  1.00  0.00     0.019 C 
BRANCH   9  14
ATOM     14  C   UNL A   1      31.561  24.582  26.789  1.00  0.00     0.000 C 
ATOM     15  C   UNL A   1      30.586  23.439  26.555  1.00  0.00     0.004 C 
ENDBRANCH   9  14
BRANCH   8  16
ATOM     16  C   UNL A   1      33.076  27.564  23.163  1.00  0.00     0.019 C 
BRANCH  16  17
ATOM     17  C   UNL A   1      33.666  28.295  24.361  1.00  0.00     0.001 C 
BRANCH  17  18
ATOM     18  C   UNL A   1      32.764  29.260  25.115  1.00  0.00     0.002 C 
BRANCH  18  19
ATOM     19  C   UNL A   1      33.324  29.768  26.451  1.00  0.00     0.028 C 
BRANCH  19  20
ATOM     20  C   UNL A   1      34.493  28.951  26.976  1.00  0.00     0.156 C 
BRANCH  20  21
ATOM     21  O   UNL A   1      34.805  29.332  28.309  1.00  0.00    -0.396 OA
ATOM     22  H   UNL A   1      35.715  29.064  28.517  1.00  0.00     0.210 HD
ENDBRANCH  20  21
ENDBRANCH  19  20
ENDBRANCH  18  19
ENDBRANCH  17  18
ENDBRANCH  16  17
ENDBRANCH   8  16
ENDBRANCH   6   8
ENDBRANCH   5   6
ENDBRANCH   4   5
ENDBRANCH   3   4
ENDBRANCH   2   3
ENDBRANCH   1   2
BRANCH   1  23
ATOM     23  C   UNL A   1      34.435  21.755  26.706  1.00  0.00     0.188 C 
BRANCH  23  24
ATOM     24  O   UNL A   1      33.351  21.319  25.923  1.00  0.00    -0.377 OA
BRANCH  24  25
ATOM     25  C   UNL A   1      33.715  20.621  24.743  1.00  0.00     0.188 C 
BRANCH  25  26
ATOM     26  C   UNL A   1      34.135  19.134  24.877  1.00  0.00     0.188 C 
BRANCH  26  27
ATOM     27  O   UNL A   1      35.528  18.876  25.032  1.00  0.00    -0.376 OA
BRANCH  27  28
ATOM     28  C   UNL A   1      36.499  19.811  24.581  1.00  0.00     0.202 C 
BRANCH  28  29
ATOM     29  C   UNL A   1      37.971  19.693  25.037  1.00  0.00     0.261 C 
BRANCH  29  30
ATOM     30  O   UNL A   1      38.581  20.889  25.529  1.00  0.00    -0.460 OA
BRANCH  30  31
ATOM     31  C   UNL A   1      39.746  20.739  26.192  1.00  0.00     0.338 C 
ATOM     32  O   UNL A   1      40.488  19.768  26.148  1.00  0.00    -0.246 OA
BRANCH  31  33
ATOM     33  C   UNL A   1      40.102  22.034  26.802  1.00  0.00     0.060 A 
ATOM     34  C   UNL A   1      39.427  23.179  26.359  1.00  0.00     0.016 A 
ATOM     35  C   UNL A   1      41.078  22.127  27.800  1.00  0.00     0.016 A 
ATOM     36  C   UNL A   1      39.771  24.428  26.857  1.00  0.00     0.010 A 
ATOM     37  C   UNL A   1      41.449  23.388  28.275  1.00  0.00     0.010 A 
ATOM     38  C   UNL A   1      40.837  24.543  27.755  1.00  0.00    -0.014 A 
BRANCH  38  39
ATOM     39  C   UNL A   1      41.487  25.866  27.886  1.00  0.00     0.031 A 
ATOM     40  C   UNL A   1      40.722  26.949  28.600  1.00  0.00     0.074 A 
ATOM     41  C   UNL A   1      42.742  26.083  27.459  1.00  0.00     0.049 A 
ATOM     42  N   UNL A   1      41.082  28.171  28.886  1.00  0.00    -0.248 NA
ATOM     43  C   UNL A   1      39.364  26.601  29.058  1.00  0.00     0.031 C 
ATOM     44  C   UNL A   1      43.593  25.102  26.791  1.00  0.00     0.029 A 
ATOM     45  N   UNL A   1      43.514  27.215  27.524  1.00  0.00    -0.354 N 
ATOM     46  C   UNL A   1      39.987  28.747  29.519  1.00  0.00     0.074 A 
ATOM     47  C   UNL A   1      38.946  27.747  29.568  1.00  0.00     0.031 C 
ATOM     48  C   UNL A   1      44.768  25.682  26.489  1.00  0.00     0.029 A 
ATOM     49  C   UNL A   1      44.742  27.078  26.923  1.00  0.00     0.049 A 
ATOM     50  H   UNL A   1      43.217  28.046  27.960  1.00  0.00     0.167 HD
ATOM     51  C   UNL A   1      39.861  29.995  30.025  1.00  0.00     0.034 A 
ATOM     52  C   UNL A   1      45.721  27.985  26.736  1.00  0.00     0.034 A 
ATOM     53  C   UNL A   1      40.904  30.981  29.988  1.00  0.00     0.049 A 
ATOM     54  C   UNL A   1      45.542  29.380  27.281  1.00  0.00     0.074 A 
ATOM     55  C   UNL A   1      40.894  32.263  30.506  1.00  0.00     0.029 A 
ATOM     56  N   UNL A   1      42.137  30.802  29.381  1.00  0.00    -0.354 N 
ATOM     57  N   UNL A   1      44.540  29.883  27.961  1.00  0.00    -0.248 NA
ATOM     58  C   UNL A   1      46.651  30.322  27.064  1.00  0.00     0.031 C 
ATOM     59  C   UNL A   1      42.105  32.876  30.172  1.00  0.00     0.029 A 
ATOM     60  C   UNL A   1      42.892  31.955  29.497  1.00  0.00     0.049 A 
ATOM     61  H   UNL A   1      42.432  29.977  28.932  1.00  0.00     0.167 HD
ATOM     62  C   UNL A   1      44.920  31.179  28.300  1.00  0.00     0.074 A 
ATOM     63  C   UNL A   1      46.248  31.378  27.756  1.00  0.00     0.031 C 
ATOM     64  C   UNL A   1      44.233  32.119  28.997  1.00  0.00     0.034 A 
BRANCH  51  65
ATOM     65  C   UNL A   1      38.540  30.364  30.646  1.00  0.00     0.023 A 
ATOM     66  C   UNL A   1      38.181  29.856  31.912  1.00  0.00     0.012 A 
ATOM     67  C   UNL A   1      37.662  31.240  29.979  1.00  0.00     0.148 A 
ATOM     68  C   UNL A   1      36.952  30.184  32.485  1.00  0.00     0.002 A 
ATOM     69  C   UNL A   1      36.464  31.603  30.578  1.00  0.00     0.091 A 
ATOM     70  F   UNL A   1      38.007  31.687  28.763  1.00  0.00    -0.205 F 
ATOM     71  C   UNL A   1      36.100  31.066  31.824  1.00  0.00     0.022 A 
BRANCH  69  72
ATOM     72  S   UNL A   1      35.341  32.797  29.846  1.00  0.00     0.127 S 
ATOM     73  O   UNL A   1      34.688  31.992  28.814  1.00  0.00    -0.237 OA
ATOM     74  O   UNL A   1      34.484  33.147  30.979  1.00  0.00    -0.237 OA
ATOM     75  O   UNL A   1      36.174  33.884  29.355  1.00  0.00    -0.744 OA
ENDBRANCH  69  72
ENDBRANCH  51  65
BRANCH  52  76
ATOM     76  C   UNL A   1      46.975  27.599  26.032  1.00  0.00     0.023 A 
ATOM     77  C   UNL A   1      48.041  27.037  26.762  1.00  0.00     0.012 A 
ATOM     78  C   UNL A   1      47.118  27.788  24.644  1.00  0.00     0.148 A 
ATOM     79  C   UNL A   1      49.241  26.707  26.130  1.00  0.00     0.002 A 
ATOM     80  C   UNL A   1      48.294  27.405  24.011  1.00  0.00     0.091 A 
ATOM     81  F   UNL A   1      46.097  28.334  23.971  1.00  0.00    -0.205 F 
ATOM     82  C   UNL A   1      49.364  26.883  24.754  1.00  0.00     0.022 A 
BRANCH  80  83
ATOM     83  S   UNL A   1      48.502  27.484  22.229  1.00  0.00     0.127 S 
ATOM     84  O   UNL A   1      47.295  28.196  21.818  1.00  0.00    -0.237 OA
ATOM     85  O   UNL A   1      49.742  28.250  22.108  1.00  0.00    -0.237 OA
ATOM     86  O   UNL A   1      48.599  26.102  21.780  1.00  0.00    -0.744 OA
ENDBRANCH  80  83
ENDBRANCH  52  76
BRANCH  64  87
ATOM     87  C   UNL A   1      44.928  33.426  29.286  1.00  0.00     0.023 A 
ATOM     88  C   UNL A   1      45.749  33.565  30.422  1.00  0.00     0.012 A 
ATOM     89  C   UNL A   1      44.811  34.502  28.382  1.00  0.00     0.148 A 
ATOM     90  C   UNL A   1      46.403  34.771  30.679  1.00  0.00     0.002 A 
ATOM     91  C   UNL A   1      45.513  35.678  28.614  1.00  0.00     0.091 A 
ATOM     92  F   UNL A   1      44.014  34.356  27.314  1.00  0.00    -0.205 F 
ATOM     93  C   UNL A   1      46.294  35.821  29.770  1.00  0.00     0.022 A 
BRANCH  91  94
ATOM     94  S   UNL A   1      45.516  37.040  27.442  1.00  0.00     0.127 S 
ATOM     95  O   UNL A   1      46.218  36.451  26.304  1.00  0.00    -0.237 OA
ATOM     96  O   UNL A   1      44.087  37.266  27.226  1.00  0.00    -0.237 OA
ATOM     97  O   UNL A   1      46.206  38.138  28.104  1.00  0.00    -0.744 OA
ENDBRANCH  91  94
ENDBRANCH  64  87
ENDBRANCH  38  39
ENDBRANCH  31  33
ENDBRANCH  30  31
ENDBRANCH  29  30
ENDBRANCH  28  29
ENDBRANCH  27  28
ENDBRANCH  26  27
ENDBRANCH  25  26
ENDBRANCH  24  25
ENDBRANCH  23  24
ENDBRANCH   1  23
TORSDOF 30
ENDMDL
MODEL 2
REMARK VINA RESULT:      -8.7      1.607      2.309
REMARK SMILES CC[C@@H]1CCC[C@](CCCCCO)(C(=O)OCCOCCOCCOCCOC(=O)c2ccc(-c3c4nc(c(-c5cccc(S(=O)(=O)[O-])c5F)c5ccc([nH]5)c(-c5cccc(S(=O)(=O)[O-])c5F)c5nc(c(-c6cccc(S(=O)(=O)[O-])c6F)c6ccc3[nH]6)C=C5)C=C4)cc2)C1
REMARK SMILES IDX 20 1 19 2 18 3 17 4 16 5 14 6 15 7 7 8 3 9 4 10 94 11 5 12
REMARK SMILES IDX 6 13 2 14 1 15 8 16 9 17 10 18 11 19 12 20 13 21 21 23 22 24
REMARK SMILES IDX 23 25 24 26 25 27 26 28 27 29 28 30 29 31 30 32 31 33 32 34
REMARK SMILES IDX 93 35 33 36 92 37 34 38 35 39 36 40 86 41 37 42 91 43 85 44
REMARK SMILES IDX 87 45 38 46 90 47 84 48 83 49 39 51 71 52 51 53 70 54 52 55
REMARK SMILES IDX 55 56 69 57 88 58 53 59 54 60 68 62 89 63 56 64 40 65 41 66
REMARK SMILES IDX 49 67 42 68 44 69 50 70 43 71 45 72 46 73 47 74 48 75 72 76
REMARK SMILES IDX 73 77 81 78 74 79 76 80 82 81 75 82 77 83 78 84 79 85 80 86
REMARK SMILES IDX 57 87 58 88 66 89 59 90 61 91 67 92 60 93 62 94 63 95 64 96
REMARK SMILES IDX 65 97
REMARK H PARENT 13 22 87 50 55 61
REMARK Flexibility Score: inf
ROOT
ATOM      1  C   UNL A   1      34.695  23.556  26.130  1.00  0.00     0.188 C 
ENDROOT
BRANCH   1   2
ATOM      2  O   UNL A   1      35.764  23.637  25.202  1.00  0.00    -0.376 OA
BRANCH   2   3
ATOM      3  C   UNL A   1      35.534  23.683  23.798  1.00  0.00     0.202 C 
BRANCH   3   4
ATOM      4  C   UNL A   1      34.233  24.183  23.133  1.00  0.00     0.261 C 
BRANCH   4   5
ATOM      5  O   UNL A   1      34.177  25.556  22.727  1.00  0.00    -0.463 OA
BRANCH   5   6
ATOM      6  C   UNL A   1      32.952  25.992  22.359  1.00  0.00     0.312 C 
ATOM      7  O   UNL A   1      32.595  26.049  21.185  1.00  0.00    -0.252 OA
BRANCH   6   8
ATOM      8  C   UNL A   1      32.054  26.422  23.578  1.00  0.00     0.068 C 
ATOM      9  C   UNL A   1      32.493  27.495  25.954  1.00  0.00    -0.010 C 
ATOM     10  C   UNL A   1      31.846  26.281  26.639  1.00  0.00     0.003 C 
ATOM     11  C   UNL A   1      32.993  27.222  24.519  1.00  0.00     0.022 C 
ATOM     12  C   UNL A   1      30.908  25.493  25.740  1.00  0.00     0.001 C 
ATOM     13  C   UNL A   1      31.553  25.224  24.390  1.00  0.00     0.019 C 
BRANCH   9  14
ATOM     14  C   UNL A   1      33.591  28.061  26.877  1.00  0.00     0.000 C 
ATOM     15  C   UNL A   1      34.152  29.395  26.409  1.00  0.00     0.004 C 
ENDBRANCH   9  14
BRANCH   8  16
ATOM     16  C   UNL A   1      30.888  27.157  22.850  1.00  0.00     0.019 C 
BRANCH  16  17
ATOM     17  C   UNL A   1      29.654  27.729  23.534  1.00  0.00     0.001 C 
BRANCH  17  18
ATOM     18  C   UNL A   1      28.665  28.504  22.676  1.00  0.00     0.002 C 
BRANCH  18  19
ATOM     19  C   UNL A   1      28.585  30.008  22.972  1.00  0.00     0.028 C 
BRANCH  19  20
ATOM     20  C   UNL A   1      28.741  30.884  21.740  1.00  0.00     0.156 C 
BRANCH  20  21
ATOM     21  O   UNL A   1      29.485  32.053  22.053  1.00  0.00    -0.396 OA
ATOM     22  H   UNL A   1      29.629  32.097  23.012  1.00  0.00     0.210 HD
ENDBRANCH  20  21
ENDBRANCH  19  20
ENDBRANCH  18  19
ENDBRANCH  17  18
ENDBRANCH  16  17
ENDBRANCH   8  16
ENDBRANCH   6   8
ENDBRANCH   5   6
ENDBRANCH   4   5
ENDBRANCH   3   4
ENDBRANCH   2   3
ENDBRANCH   1   2
BRANCH   1  23
ATOM     23  C   UNL A   1      33.999  22.212  26.375  1.00  0.00     0.188 C 
BRANCH  23  24
ATOM     24  O   UNL A   1      32.961  21.942  25.465  1.00  0.00    -0.377 OA
BRANCH  24  25
ATOM     25  C   UNL A   1      33.303  21.038  24.427  1.00  0.00     0.188 C 
BRANCH  25  26
ATOM     26  C   UNL A   1      34.020  19.719  24.816  1.00  0.00     0.188 C 
BRANCH  26  27
ATOM     27  O   UNL A   1      35.341  19.841  25.336  1.00  0.00    -0.376 OA
BRANCH  27  28
ATOM     28  C   UNL A   1      36.423  20.230  24.501  1.00  0.00     0.202 C 
BRANCH  28  29
ATOM     29  C   UNL A   1      37.879  20.138  25.011  1.00  0.00     0.261 C 
BRANCH  29  30
ATOM     30  O   UNL A   1      38.307  21.174  25.900  1.00  0.00    -0.460 OA
BRANCH  30  31
ATOM     31  C   UNL A   1      39.583  21.107  26.328  1.00  0.00     0.338 C 
ATOM     32  O   UNL A   1      40.377  20.202  26.111  1.00  0.00    -0.246 OA
BRANCH  31  33
ATOM     33  C   UNL A   1      39.948  22.414  26.907  1.00  0.00     0.060 A 
ATOM     34  C   UNL A   1      39.305  23.556  26.411  1.00  0.00     0.016 A 
ATOM     35  C   UNL A   1      40.898  22.521  27.928  1.00  0.00     0.016 A 
ATOM     36  C   UNL A   1      39.658  24.814  26.880  1.00  0.00     0.010 A 
ATOM     37  C   UNL A   1      41.280  23.789  28.373  1.00  0.00     0.010 A 
ATOM     38  C   UNL A   1      40.702  24.938  27.802  1.00  0.00    -0.014 A 
BRANCH  38  39
ATOM     39  C   UNL A   1      41.373  26.253  27.909  1.00  0.00     0.031 A 
ATOM     40  C   UNL A   1      40.692  27.315  28.731  1.00  0.00     0.074 A 
ATOM     41  C   UNL A   1      42.580  26.479  27.364  1.00  0.00     0.049 A 
ATOM     42  N   UNL A   1      41.090  28.525  29.018  1.00  0.00    -0.248 NA
ATOM     43  C   UNL A   1      39.385  26.958  29.313  1.00  0.00     0.031 C 
ATOM     44  C   UNL A   1      43.351  25.516  26.582  1.00  0.00     0.029 A 
ATOM     45  N   UNL A   1      43.364  27.604  27.388  1.00  0.00    -0.354 N 
ATOM     46  C   UNL A   1      40.068  29.085  29.778  1.00  0.00     0.074 A 
ATOM     47  C   UNL A   1      39.030  28.089  29.899  1.00  0.00     0.031 C 
ATOM     48  C   UNL A   1      44.495  26.100  26.182  1.00  0.00     0.029 A 
ATOM     49  C   UNL A   1      44.523  27.481  26.662  1.00  0.00     0.049 A 
ATOM     50  H   UNL A   1      43.119  28.421  27.878  1.00  0.00     0.167 HD
ATOM     51  C   UNL A   1      40.003  30.317  30.334  1.00  0.00     0.034 A 
ATOM     52  C   UNL A   1      45.486  28.389  26.406  1.00  0.00     0.034 A 
ATOM     53  C   UNL A   1      41.046  31.299  30.223  1.00  0.00     0.049 A 
ATOM     54  C   UNL A   1      45.374  29.767  27.011  1.00  0.00     0.074 A 
ATOM     55  C   UNL A   1      41.098  32.562  30.782  1.00  0.00     0.029 A 
ATOM     56  N   UNL A   1      42.209  31.134  29.489  1.00  0.00    -0.354 N 
ATOM     57  N   UNL A   1      44.450  30.251  27.805  1.00  0.00    -0.248 NA
ATOM     58  C   UNL A   1      46.463  30.710  26.714  1.00  0.00     0.031 C 
ATOM     59  C   UNL A   1      42.274  33.181  30.346  1.00  0.00     0.029 A 
ATOM     60  C   UNL A   1      42.981  32.279  29.566  1.00  0.00     0.049 A 
ATOM     61  H   UNL A   1      42.451  30.323  28.987  1.00  0.00     0.167 HD
ATOM     62  C   UNL A   1      44.872  31.533  28.146  1.00  0.00     0.074 A 
ATOM     63  C   UNL A   1      46.140  31.744  27.478  1.00  0.00     0.031 C 
ATOM     64  C   UNL A   1      44.267  32.453  28.939  1.00  0.00     0.034 A 
BRANCH  51  65
ATOM     65  C   UNL A   1      38.755  30.671  31.097  1.00  0.00     0.023 A 
ATOM     66  C   UNL A   1      38.645  30.360  32.468  1.00  0.00     0.012 A 
ATOM     67  C   UNL A   1      37.696  31.339  30.453  1.00  0.00     0.148 A 
ATOM     68  C   UNL A   1      37.485  30.673  33.176  1.00  0.00     0.002 A 
ATOM     69  C   UNL A   1      36.565  31.695  31.176  1.00  0.00     0.091 A 
ATOM     70  F   UNL A   1      37.806  31.599  29.143  1.00  0.00    -0.205 F 
ATOM     71  C   UNL A   1      36.452  31.351  32.533  1.00  0.00     0.022 A 
BRANCH  69  72
ATOM     72  S   UNL A   1      35.219  32.642  30.460  1.00  0.00     0.127 S 
ATOM     73  O   UNL A   1      35.915  33.848  30.009  1.00  0.00    -0.237 OA
ATOM     74  O   UNL A   1      34.764  31.763  29.383  1.00  0.00    -0.237 OA
ATOM     75  O   UNL A   1      34.254  32.843  31.531  1.00  0.00    -0.744 OA
ENDBRANCH  69  72
ENDBRANCH  51  65
BRANCH  52  76
ATOM     76  C   UNL A   1      46.660  28.021  25.567  1.00  0.00     0.023 A 
ATOM     77  C   UNL A   1      46.539  28.011  24.163  1.00  0.00     0.012 A 
ATOM     78  C   UNL A   1      47.894  27.677  26.152  1.00  0.00     0.148 A 
ATOM     79  C   UNL A   1      47.613  27.628  23.359  1.00  0.00     0.002 A 
ATOM     80  C   UNL A   1      48.976  27.351  25.344  1.00  0.00     0.091 A 
ATOM     81  F   UNL A   1      47.983  27.682  27.489  1.00  0.00    -0.205 F 
ATOM     82  C   UNL A   1      48.833  27.308  23.949  1.00  0.00     0.022 A 
BRANCH  80  83
ATOM     83  S   UNL A   1      50.616  27.039  26.006  1.00  0.00     0.127 S 
ATOM     84  O   UNL A   1      51.193  26.176  24.979  1.00  0.00    -0.237 OA
ATOM     85  O   UNL A   1      51.175  28.389  26.064  1.00  0.00    -0.237 OA
ATOM     86  O   UNL A   1      50.407  26.416  27.306  1.00  0.00    -0.744 OA
ENDBRANCH  80  83
ENDBRANCH  52  76
BRANCH  64  87
ATOM     87  C   UNL A   1      44.998  33.746  29.198  1.00  0.00     0.023 A 
ATOM     88  C   UNL A   1      46.019  33.811  30.165  1.00  0.00     0.012 A 
ATOM     89  C   UNL A   1      44.705  34.890  28.425  1.00  0.00     0.148 A 
ATOM     90  C   UNL A   1      46.704  35.005  30.394  1.00  0.00     0.002 A 
ATOM     91  C   UNL A   1      45.432  36.057  28.617  1.00  0.00     0.091 A 
ATOM     92  F   UNL A   1      43.719  34.814  27.520  1.00  0.00    -0.205 F 
ATOM     93  C   UNL A   1      46.419  36.123  29.612  1.00  0.00     0.022 A 
BRANCH  91  94
ATOM     94  S   UNL A   1      45.205  37.509  27.583  1.00  0.00     0.127 S 
ATOM     95  O   UNL A   1      44.053  37.119  26.774  1.00  0.00    -0.237 OA
ATOM     96  O   UNL A   1      44.932  38.553  28.571  1.00  0.00    -0.237 OA
ATOM     97  O   UNL A   1      46.453  37.682  26.853  1.00  0.00    -0.744 OA
ENDBRANCH  91  94
ENDBRANCH  64  87
ENDBRANCH  38  39
ENDBRANCH  31  33
ENDBRANCH  30  31
ENDBRANCH  29  30
ENDBRANCH  28  29
ENDBRANCH  27  28
ENDBRANCH  26  27
ENDBRANCH  25  26
ENDBRANCH  24  25
ENDBRANCH  23  24
ENDBRANCH   1  23
TORSDOF 30
ENDMDL
MODEL 3
REMARK VINA RESULT:      -8.3      3.409      4.157
REMARK SMILES CC[C@@H]1CCC[C@](CCCCCO)(C(=O)OCCOCCOCCOCCOC(=O)c2ccc(-c3c4nc(c(-c5cccc(S(=O)(=O)[O-])c5F)c5ccc([nH]5)c(-c5cccc(S(=O)(=O)[O-])c5F)c5nc(c(-c6cccc(S(=O)(=O)[O-])c6F)c6ccc3[nH]6)C=C5)C=C4)cc2)C1
REMARK SMILES IDX 20 1 19 2 18 3 17 4 16 5 14 6 15 7 7 8 3 9 4 10 94 11 5 12
REMARK SMILES IDX 6 13 2 14 1 15 8 16 9 17 10 18 11 19 12 20 13 21 21 23 22 24
REMARK SMILES IDX 23 25 24 26 25 27 26 28 27 29 28 30 29 31 30 32 31 33 32 34
REMARK SMILES IDX 93 35 33 36 92 37 34 38 35 39 36 40 86 41 37 42 91 43 85 44
REMARK SMILES IDX 87 45 38 46 90 47 84 48 83 49 39 51 71 52 51 53 70 54 52 55
REMARK SMILES IDX 55 56 69 57 88 58 53 59 54 60 68 62 89 63 56 64 40 65 41 66
REMARK SMILES IDX 49 67 42 68 44 69 50 70 43 71 45 72 46 73 47 74 48 75 72 76
REMARK SMILES IDX 73 77 81 78 74 79 76 80 82 81 75 82 77 83 78 84 79 85 80 86
REMARK SMILES IDX 57 87 58 88 66 89 59 90 61 91 67 92 60 93 62 94 63 95 64 96
REMARK SMILES IDX 65 97
REMARK H PARENT 13 22 87 50 55 61
REMARK Flexibility Score: inf
ROOT
ATOM      1  C   UNL A   1      34.895  23.853  26.084  1.00  0.00     0.188 C 
ENDROOT
BRANCH   1   2
ATOM      2  O   UNL A   1      35.722  23.968  24.938  1.00  0.00    -0.376 OA
BRANCH   2   3
ATOM      3  C   UNL A   1      35.205  24.387  23.681  1.00  0.00     0.202 C 
BRANCH   3   4
ATOM      4  C   UNL A   1      33.758  24.869  23.438  1.00  0.00     0.261 C 
BRANCH   4   5
ATOM      5  O   UNL A   1      33.576  26.174  22.876  1.00  0.00    -0.463 OA
BRANCH   5   6
ATOM      6  C   UNL A   1      32.323  26.439  22.444  1.00  0.00     0.312 C 
ATOM      7  O   UNL A   1      31.981  26.286  21.274  1.00  0.00    -0.252 OA
BRANCH   6   8
ATOM      8  C   UNL A   1      31.372  26.967  23.582  1.00  0.00     0.068 C 
ATOM      9  C   UNL A   1      31.713  28.112  25.940  1.00  0.00    -0.010 C 
ATOM     10  C   UNL A   1      30.954  26.964  26.625  1.00  0.00     0.003 C 
ATOM     11  C   UNL A   1      32.291  27.753  24.555  1.00  0.00     0.022 C 
ATOM     12  C   UNL A   1      30.034  26.192  25.693  1.00  0.00     0.001 C 
ATOM     13  C   UNL A   1      30.750  25.833  24.402  1.00  0.00     0.019 C 
BRANCH   9  14
ATOM     14  C   UNL A   1      32.778  28.654  26.915  1.00  0.00     0.000 C 
ATOM     15  C   UNL A   1      34.198  28.249  26.553  1.00  0.00     0.004 C 
ENDBRANCH   9  14
BRANCH   8  16
ATOM     16  C   UNL A   1      30.302  27.735  22.749  1.00  0.00     0.019 C 
BRANCH  16  17
ATOM     17  C   UNL A   1      29.762  29.119  23.083  1.00  0.00     0.001 C 
BRANCH  17  18
ATOM     18  C   UNL A   1      28.275  29.365  22.883  1.00  0.00     0.002 C 
BRANCH  18  19
ATOM     19  C   UNL A   1      27.909  30.157  21.620  1.00  0.00     0.028 C 
BRANCH  19  20
ATOM     20  C   UNL A   1      28.620  31.495  21.507  1.00  0.00     0.156 C 
BRANCH  20  21
ATOM     21  O   UNL A   1      27.702  32.563  21.691  1.00  0.00    -0.396 OA
ATOM     22  H   UNL A   1      27.748  32.874  22.610  1.00  0.00     0.210 HD
ENDBRANCH  20  21
ENDBRANCH  19  20
ENDBRANCH  18  19
ENDBRANCH  17  18
ENDBRANCH  16  17
ENDBRANCH   8  16
ENDBRANCH   6   8
ENDBRANCH   5   6
ENDBRANCH   4   5
ENDBRANCH   3   4
ENDBRANCH   2   3
ENDBRANCH   1   2
BRANCH   1  23
ATOM     23  C   UNL A   1      34.225  22.512  26.408  1.00  0.00     0.188 C 
BRANCH  23  24
ATOM     24  O   UNL A   1      33.337  22.070  25.411  1.00  0.00    -0.377 OA
BRANCH  24  25
ATOM     25  C   UNL A   1      33.924  21.244  24.418  1.00  0.00     0.188 C 
BRANCH  25  26
ATOM     26  C   UNL A   1      34.879  20.114  24.883  1.00  0.00     0.188 C 
BRANCH  26  27
ATOM     27  O   UNL A   1      36.092  20.521  25.509  1.00  0.00    -0.376 OA
BRANCH  27  28
ATOM     28  C   UNL A   1      37.146  21.105  24.754  1.00  0.00     0.202 C 
BRANCH  28  29
ATOM     29  C   UNL A   1      38.549  21.284  25.374  1.00  0.00     0.261 C 
BRANCH  29  30
ATOM     30  O   UNL A   1      38.717  22.399  26.255  1.00  0.00    -0.460 OA
BRANCH  30  31
ATOM     31  C   UNL A   1      39.986  22.732  26.565  1.00  0.00     0.338 C 
ATOM     32  O   UNL A   1      40.986  22.060  26.357  1.00  0.00    -0.246 OA
BRANCH  31  33
ATOM     33  C   UNL A   1      40.004  24.145  26.987  1.00  0.00     0.060 A 
ATOM     34  C   UNL A   1      40.534  25.091  26.099  1.00  0.00     0.016 A 
ATOM     35  C   UNL A   1      39.500  24.543  28.230  1.00  0.00     0.016 A 
ATOM     36  C   UNL A   1      40.630  26.424  26.476  1.00  0.00     0.010 A 
ATOM     37  C   UNL A   1      39.631  25.877  28.623  1.00  0.00     0.010 A 
ATOM     38  C   UNL A   1      40.254  26.804  27.768  1.00  0.00    -0.014 A 
BRANCH  38  39
ATOM     39  C   UNL A   1      40.804  28.071  28.300  1.00  0.00     0.031 A 
ATOM     40  C   UNL A   1      39.830  29.059  28.888  1.00  0.00     0.074 A 
ATOM     41  C   UNL A   1      42.125  28.310  28.336  1.00  0.00     0.049 A 
ATOM     42  N   UNL A   1      40.058  30.211  29.457  1.00  0.00    -0.248 NA
ATOM     43  C   UNL A   1      38.404  28.689  28.828  1.00  0.00     0.031 C 
ATOM     44  C   UNL A   1      43.163  27.413  27.834  1.00  0.00     0.029 A 
ATOM     45  N   UNL A   1      42.815  29.393  28.817  1.00  0.00    -0.354 N 
ATOM     46  C   UNL A   1      38.807  30.721  29.786  1.00  0.00     0.074 A 
ATOM     47  C   UNL A   1      37.824  29.759  29.346  1.00  0.00     0.031 C 
ATOM     48  C   UNL A   1      44.363  27.994  28.017  1.00  0.00     0.029 A 
ATOM     49  C   UNL A   1      44.172  29.309  28.627  1.00  0.00     0.049 A 
ATOM     50  H   UNL A   1      42.378  30.159  29.256  1.00  0.00     0.167 HD
ATOM     51  C   UNL A   1      38.502  31.882  30.408  1.00  0.00     0.034 A 
ATOM     52  C   UNL A   1      45.143  30.201  28.904  1.00  0.00     0.034 A 
ATOM     53  C   UNL A   1      39.484  32.829  30.858  1.00  0.00     0.049 A 
ATOM     54  C   UNL A   1      44.774  31.504  29.569  1.00  0.00     0.074 A 
ATOM     55  C   UNL A   1      39.285  34.018  31.536  1.00  0.00     0.029 A 
ATOM     56  N   UNL A   1      40.849  32.704  30.658  1.00  0.00    -0.354 N 
ATOM     57  N   UNL A   1      43.598  31.931  29.960  1.00  0.00    -0.248 NA
ATOM     58  C   UNL A   1      45.876  32.432  29.865  1.00  0.00     0.031 C 
ATOM     59  C   UNL A   1      40.527  34.635  31.704  1.00  0.00     0.029 A 
ATOM     60  C   UNL A   1      41.506  33.801  31.185  1.00  0.00     0.049 A 
ATOM     61  H   UNL A   1      41.288  31.946  30.208  1.00  0.00     0.167 HD
ATOM     62  C   UNL A   1      43.824  33.149  30.597  1.00  0.00     0.074 A 
ATOM     63  C   UNL A   1      45.253  33.385  30.544  1.00  0.00     0.031 C 
ATOM     64  C   UNL A   1      42.934  33.995  31.172  1.00  0.00     0.034 A 
BRANCH  51  65
ATOM     65  C   UNL A   1      37.045  32.196  30.622  1.00  0.00     0.023 A 
ATOM     66  C   UNL A   1      36.423  31.891  31.851  1.00  0.00     0.012 A 
ATOM     67  C   UNL A   1      36.297  32.821  29.606  1.00  0.00     0.148 A 
ATOM     68  C   UNL A   1      35.070  32.166  32.048  1.00  0.00     0.002 A 
ATOM     69  C   UNL A   1      34.965  33.140  29.828  1.00  0.00     0.091 A 
ATOM     70  F   UNL A   1      36.898  33.075  28.435  1.00  0.00    -0.205 F 
ATOM     71  C   UNL A   1      34.345  32.802  31.043  1.00  0.00     0.022 A 
BRANCH  69  72
ATOM     72  S   UNL A   1      33.972  34.033  28.628  1.00  0.00     0.127 S 
ATOM     73  O   UNL A   1      33.590  32.962  27.708  1.00  0.00    -0.237 OA
ATOM     74  O   UNL A   1      32.879  34.545  29.454  1.00  0.00    -0.237 OA
ATOM     75  O   UNL A   1      34.843  35.056  28.068  1.00  0.00    -0.744 OA
ENDBRANCH  69  72
ENDBRANCH  51  65
BRANCH  52  76
ATOM     76  C   UNL A   1      46.564  29.885  28.589  1.00  0.00     0.023 A 
ATOM     77  C   UNL A   1      47.093  30.230  27.329  1.00  0.00     0.012 A 
ATOM     78  C   UNL A   1      47.393  29.243  29.529  1.00  0.00     0.148 A 
ATOM     79  C   UNL A   1      48.409  29.905  26.997  1.00  0.00     0.002 A 
ATOM     80  C   UNL A   1      48.719  28.973  29.213  1.00  0.00     0.091 A 
ATOM     81  F   UNL A   1      46.866  28.914  30.717  1.00  0.00    -0.205 F 
ATOM     82  C   UNL A   1      49.223  29.286  27.941  1.00  0.00     0.022 A 
BRANCH  80  83
ATOM     83  S   UNL A   1      49.874  28.285  30.403  1.00  0.00     0.127 S 
ATOM     84  O   UNL A   1      49.325  26.949  30.616  1.00  0.00    -0.237 OA
ATOM     85  O   UNL A   1      51.130  28.324  29.653  1.00  0.00    -0.237 OA
ATOM     86  O   UNL A   1      49.832  29.174  31.556  1.00  0.00    -0.744 OA
ENDBRANCH  80  83
ENDBRANCH  52  76
BRANCH  64  87
ATOM     87  C   UNL A   1      43.475  35.221  31.864  1.00  0.00     0.023 A 
ATOM     88  C   UNL A   1      43.771  36.386  31.131  1.00  0.00     0.012 A 
ATOM     89  C   UNL A   1      43.629  35.229  33.266  1.00  0.00     0.148 A 
ATOM     90  C   UNL A   1      44.259  37.523  31.775  1.00  0.00     0.002 A 
ATOM     91  C   UNL A   1      44.058  36.385  33.907  1.00  0.00     0.091 A 
ATOM     92  F   UNL A   1      43.357  34.106  33.946  1.00  0.00    -0.205 F 
ATOM     93  C   UNL A   1      44.390  37.526  33.162  1.00  0.00     0.022 A 
BRANCH  91  94
ATOM     94  S   UNL A   1      44.152  36.509  35.696  1.00  0.00     0.127 S 
ATOM     95  O   UNL A   1      45.349  35.722  35.986  1.00  0.00    -0.237 OA
ATOM     96  O   UNL A   1      44.306  37.950  35.898  1.00  0.00    -0.237 OA
ATOM     97  O   UNL A   1      42.903  35.960  36.204  1.00  0.00    -0.744 OA
ENDBRANCH  91  94
ENDBRANCH  64  87
ENDBRANCH  38  39
ENDBRANCH  31  33
ENDBRANCH  30  31
ENDBRANCH  29  30
ENDBRANCH  28  29
ENDBRANCH  27  28
ENDBRANCH  26  27
ENDBRANCH  25  26
ENDBRANCH  24  25
ENDBRANCH  23  24
ENDBRANCH   1  23
TORSDOF 30
ENDMDL
