MODEL 1
REMARK VINA RESULT:      -6.5      0.000      0.000
REMARK SMILES O=C(OCCOCCOCCOCCOC(=O)c1cc(SC[C@H]2CCOC2)ccn1)c1ccc(-c2c3nc(c(-c4cccc(S(=O)(=O)[O-])c4F)c4ccc([nH]4)c(-c4cccc(S(=O)(=O)[O-])c4F)c4nc(c(-c5cccc(S(=O)(=O)[O-])c5F)c5ccc2[nH]5)C=C4)C=C3)cc1
REMARK SMILES IDX 9 1 8 2 7 3 6 4 5 5 4 6 3 7 2 8 1 9 31 10 32 11 93 12 33 13
REMARK SMILES IDX 92 14 34 15 35 16 36 17 86 18 37 19 91 20 85 21 87 22 38 23
REMARK SMILES IDX 90 24 84 25 83 26 39 28 71 29 51 30 70 31 52 32 55 33 69 34
REMARK SMILES IDX 88 35 53 36 54 37 68 39 89 40 56 41 40 42 41 43 49 44 42 45
REMARK SMILES IDX 44 46 50 47 43 48 45 49 46 50 47 51 48 52 72 53 73 54 81 55
REMARK SMILES IDX 74 56 76 57 82 58 75 59 77 60 78 61 79 62 80 63 57 64 58 65
REMARK SMILES IDX 66 66 59 67 61 68 67 69 60 70 62 71 63 72 64 73 65 74 10 75
REMARK SMILES IDX 11 76 12 77 13 78 14 79 15 80 16 81 17 82 18 83 19 84 30 85
REMARK SMILES IDX 20 86 29 87 28 88 21 89 22 90 23 91 24 92 27 93 25 94 26 95
REMARK H PARENT 87 27 55 38
REMARK Flexibility Score: inf
ROOT
ATOM      1  O   UNL A   1      50.580  32.237  25.493  1.00  0.00    -0.377 OA
ENDROOT
BRANCH   1   2
ATOM      2  C   UNL A   1      50.256  32.914  26.707  1.00  0.00     0.188 C 
BRANCH   2   3
ATOM      3  C   UNL A   1      48.893  33.605  26.725  1.00  0.00     0.188 C 
BRANCH   3   4
ATOM      4  O   UNL A   1      48.491  33.972  25.403  1.00  0.00    -0.376 OA
BRANCH   4   5
ATOM      5  C   UNL A   1      48.181  35.352  25.217  1.00  0.00     0.202 C 
BRANCH   5   6
ATOM      6  C   UNL A   1      48.150  36.168  26.511  1.00  0.00     0.261 C 
BRANCH   6   7
ATOM      7  O   UNL A   1      47.004  37.028  26.572  1.00  0.00    -0.460 OA
BRANCH   7   8
ATOM      8  C   UNL A   1      45.784  36.748  27.098  1.00  0.00     0.338 C 
ATOM      9  O   UNL A   1      44.856  37.512  26.830  1.00  0.00    -0.246 OA
BRANCH   8  10
ATOM     10  C   UNL A   1      45.488  35.558  27.962  1.00  0.00     0.060 A 
ATOM     11  C   UNL A   1      45.747  35.456  29.332  1.00  0.00     0.016 A 
ATOM     12  C   UNL A   1      44.854  34.471  27.337  1.00  0.00     0.016 A 
ATOM     13  C   UNL A   1      45.490  34.289  30.040  1.00  0.00     0.010 A 
ATOM     14  C   UNL A   1      44.561  33.302  28.047  1.00  0.00     0.010 A 
ATOM     15  C   UNL A   1      44.926  33.197  29.392  1.00  0.00    -0.014 A 
BRANCH  15  16
ATOM     16  C   UNL A   1      44.922  31.903  30.096  1.00  0.00     0.031 A 
ATOM     17  C   UNL A   1      43.686  31.534  30.860  1.00  0.00     0.074 A 
ATOM     18  C   UNL A   1      45.949  31.049  29.955  1.00  0.00     0.049 A 
ATOM     19  N   UNL A   1      43.448  30.484  31.595  1.00  0.00    -0.248 NA
ATOM     20  C   UNL A   1      42.553  32.477  30.772  1.00  0.00     0.031 C 
ATOM     21  C   UNL A   1      47.140  31.290  29.138  1.00  0.00     0.029 A 
ATOM     22  N   UNL A   1      46.152  29.804  30.488  1.00  0.00    -0.354 N 
ATOM     23  C   UNL A   1      42.168  30.666  32.101  1.00  0.00     0.074 A 
ATOM     24  C   UNL A   1      41.668  31.915  31.577  1.00  0.00     0.031 C 
ATOM     25  C   UNL A   1      47.957  30.228  29.234  1.00  0.00     0.029 A 
ATOM     26  C   UNL A   1      47.372  29.262  30.157  1.00  0.00     0.049 A 
ATOM     27  H   UNL A   1      45.491  29.343  31.051  1.00  0.00     0.167 HD
ATOM     28  C   UNL A   1      41.475  29.858  32.935  1.00  0.00     0.034 A 
ATOM     29  C   UNL A   1      47.954  28.127  30.591  1.00  0.00     0.034 A 
ATOM     30  C   UNL A   1      41.995  28.615  33.426  1.00  0.00     0.049 A 
ATOM     31  C   UNL A   1      47.183  27.266  31.557  1.00  0.00     0.074 A 
ATOM     32  C   UNL A   1      41.415  27.722  34.306  1.00  0.00     0.029 A 
ATOM     33  N   UNL A   1      43.233  28.093  33.074  1.00  0.00    -0.354 N 
ATOM     34  N   UNL A   1      45.967  27.438  32.026  1.00  0.00    -0.248 NA
ATOM     35  C   UNL A   1      47.848  26.053  32.046  1.00  0.00     0.031 C 
ATOM     36  C   UNL A   1      42.315  26.669  34.503  1.00  0.00     0.029 A 
ATOM     37  C   UNL A   1      43.441  26.892  33.722  1.00  0.00     0.049 A 
ATOM     38  H   UNL A   1      43.868  28.517  32.453  1.00  0.00     0.167 HD
ATOM     39  C   UNL A   1      45.713  26.346  32.845  1.00  0.00     0.074 A 
ATOM     40  C   UNL A   1      46.895  25.506  32.788  1.00  0.00     0.031 C 
ATOM     41  C   UNL A   1      44.617  26.065  33.593  1.00  0.00     0.034 A 
BRANCH  28  42
ATOM     42  C   UNL A   1      40.118  30.331  33.377  1.00  0.00     0.023 A 
ATOM     43  C   UNL A   1      38.971  29.990  32.631  1.00  0.00     0.012 A 
ATOM     44  C   UNL A   1      39.984  31.147  34.517  1.00  0.00     0.148 A 
ATOM     45  C   UNL A   1      37.718  30.488  32.988  1.00  0.00     0.002 A 
ATOM     46  C   UNL A   1      38.727  31.606  34.890  1.00  0.00     0.091 A 
ATOM     47  F   UNL A   1      41.089  31.485  35.193  1.00  0.00    -0.205 F 
ATOM     48  C   UNL A   1      37.595  31.290  34.119  1.00  0.00     0.022 A 
BRANCH  46  49
ATOM     49  S   UNL A   1      38.457  32.604  36.359  1.00  0.00     0.127 S 
ATOM     50  O   UNL A   1      39.371  31.978  37.313  1.00  0.00    -0.237 OA
ATOM     51  O   UNL A   1      38.866  33.933  35.905  1.00  0.00    -0.237 OA
ATOM     52  O   UNL A   1      37.041  32.479  36.675  1.00  0.00    -0.744 OA
ENDBRANCH  46  49
ENDBRANCH  28  42
BRANCH  29  53
ATOM     53  C   UNL A   1      49.318  27.752  30.118  1.00  0.00     0.023 A 
ATOM     54  C   UNL A   1      50.446  28.096  30.887  1.00  0.00     0.012 A 
ATOM     55  C   UNL A   1      49.504  27.027  28.923  1.00  0.00     0.148 A 
ATOM     56  C   UNL A   1      51.731  27.745  30.466  1.00  0.00     0.002 A 
ATOM     57  C   UNL A   1      50.780  26.631  28.537  1.00  0.00     0.091 A 
ATOM     58  F   UNL A   1      48.424  26.727  28.187  1.00  0.00    -0.205 F 
ATOM     59  C   UNL A   1      51.897  27.004  29.299  1.00  0.00     0.022 A 
BRANCH  57  60
ATOM     60  S   UNL A   1      51.070  25.564  27.120  1.00  0.00     0.127 S 
ATOM     61  O   UNL A   1      50.608  26.401  26.016  1.00  0.00    -0.237 OA
ATOM     62  O   UNL A   1      52.519  25.367  27.179  1.00  0.00    -0.237 OA
ATOM     63  O   UNL A   1      50.294  24.358  27.371  1.00  0.00    -0.744 OA
ENDBRANCH  57  60
ENDBRANCH  29  53
BRANCH  41  64
ATOM     64  C   UNL A   1      44.629  24.786  34.380  1.00  0.00     0.023 A 
ATOM     65  C   UNL A   1      44.247  23.581  33.760  1.00  0.00     0.012 A 
ATOM     66  C   UNL A   1      45.124  24.767  35.699  1.00  0.00     0.148 A 
ATOM     67  C   UNL A   1      44.335  22.375  34.452  1.00  0.00     0.002 A 
ATOM     68  C   UNL A   1      45.256  23.555  36.363  1.00  0.00     0.091 A 
ATOM     69  F   UNL A   1      45.462  25.931  36.272  1.00  0.00    -0.205 F 
ATOM     70  C   UNL A   1      44.853  22.360  35.745  1.00  0.00     0.022 A 
BRANCH  68  71
ATOM     71  S   UNL A   1      46.015  23.435  37.986  1.00  0.00     0.127 S 
ATOM     72  O   UNL A   1      46.078  21.989  38.179  1.00  0.00    -0.237 OA
ATOM     73  O   UNL A   1      47.310  24.081  37.772  1.00  0.00    -0.237 OA
ATOM     74  O   UNL A   1      45.129  24.151  38.895  1.00  0.00    -0.744 OA
ENDBRANCH  68  71
ENDBRANCH  41  64
ENDBRANCH  15  16
ENDBRANCH   8  10
ENDBRANCH   7   8
ENDBRANCH   6   7
ENDBRANCH   5   6
ENDBRANCH   4   5
ENDBRANCH   3   4
ENDBRANCH   2   3
ENDBRANCH   1   2
BRANCH   1  75
ATOM     75  C   UNL A   1      51.961  31.979  25.249  1.00  0.00     0.188 C 
BRANCH  75  76
ATOM     76  C   UNL A   1      52.362  31.007  24.117  1.00  0.00     0.188 C 
BRANCH  76  77
ATOM     77  O   UNL A   1      51.656  29.775  24.106  1.00  0.00    -0.376 OA
BRANCH  77  78
ATOM     78  C   UNL A   1      52.098  28.820  23.143  1.00  0.00     0.202 C 
BRANCH  78  79
ATOM     79  C   UNL A   1      50.983  27.893  22.644  1.00  0.00     0.261 C 
BRANCH  79  80
ATOM     80  O   UNL A   1      49.679  28.199  23.173  1.00  0.00    -0.459 OA
BRANCH  80  81
ATOM     81  C   UNL A   1      48.625  27.482  22.709  1.00  0.00     0.357 C 
ATOM     82  O   UNL A   1      48.496  26.992  21.603  1.00  0.00    -0.244 OA
BRANCH  81  83
ATOM     83  C   UNL A   1      47.721  27.276  23.876  1.00  0.00     0.149 A 
ATOM     84  C   UNL A   1      47.720  26.049  24.526  1.00  0.00     0.051 A 
ATOM     85  N   UNL A   1      46.814  28.261  24.112  1.00  0.00    -0.249 NA
ATOM     86  C   UNL A   1      46.724  25.797  25.464  1.00  0.00     0.011 A 
ATOM     87  C   UNL A   1      45.847  27.986  25.007  1.00  0.00     0.113 A 
ATOM     88  C   UNL A   1      45.759  26.785  25.692  1.00  0.00     0.035 A 
BRANCH  86  89
ATOM     89  S   UNL A   1      46.567  24.295  26.419  1.00  0.00    -0.126 SA
BRANCH  89  90
ATOM     90  C   UNL A   1      44.819  24.268  26.952  1.00  0.00     0.081 C 
BRANCH  90  91
ATOM     91  C   UNL A   1      44.599  23.495  28.250  1.00  0.00     0.027 C 
ATOM     92  C   UNL A   1      44.562  24.397  29.468  1.00  0.00     0.035 C 
ATOM     93  C   UNL A   1      43.251  22.793  28.341  1.00  0.00     0.164 C 
ATOM     94  C   UNL A   1      43.826  23.539  30.472  1.00  0.00     0.160 C 
ATOM     95  O   UNL A   1      42.869  22.777  29.726  1.00  0.00    -0.381 OA
ENDBRANCH  90  91
ENDBRANCH  89  90
ENDBRANCH  86  89
ENDBRANCH  81  83
ENDBRANCH  80  81
ENDBRANCH  79  80
ENDBRANCH  78  79
ENDBRANCH  77  78
ENDBRANCH  76  77
ENDBRANCH  75  76
ENDBRANCH   1  75
TORSDOF 26
ENDMDL
MODEL 2
REMARK VINA RESULT:      -6.4      4.763     12.606
REMARK SMILES O=C(OCCOCCOCCOCCOC(=O)c1cc(SC[C@H]2CCOC2)ccn1)c1ccc(-c2c3nc(c(-c4cccc(S(=O)(=O)[O-])c4F)c4ccc([nH]4)c(-c4cccc(S(=O)(=O)[O-])c4F)c4nc(c(-c5cccc(S(=O)(=O)[O-])c5F)c5ccc2[nH]5)C=C4)C=C3)cc1
REMARK SMILES IDX 9 1 8 2 7 3 6 4 5 5 4 6 3 7 2 8 1 9 31 10 32 11 93 12 33 13
REMARK SMILES IDX 92 14 34 15 35 16 36 17 86 18 37 19 91 20 85 21 87 22 38 23
REMARK SMILES IDX 90 24 84 25 83 26 39 28 71 29 51 30 70 31 52 32 55 33 69 34
REMARK SMILES IDX 88 35 53 36 54 37 68 39 89 40 56 41 40 42 41 43 49 44 42 45
REMARK SMILES IDX 44 46 50 47 43 48 45 49 46 50 47 51 48 52 72 53 73 54 81 55
REMARK SMILES IDX 74 56 76 57 82 58 75 59 77 60 78 61 79 62 80 63 57 64 58 65
REMARK SMILES IDX 66 66 59 67 61 68 67 69 60 70 62 71 63 72 64 73 65 74 10 75
REMARK SMILES IDX 11 76 12 77 13 78 14 79 15 80 16 81 17 82 18 83 19 84 30 85
REMARK SMILES IDX 20 86 29 87 28 88 21 89 22 90 23 91 24 92 27 93 25 94 26 95
REMARK H PARENT 87 27 55 38
REMARK Flexibility Score: inf
ROOT
ATOM      1  O   UNL A   1      37.018  32.877  32.512  1.00  0.00    -0.377 OA
ENDROOT
BRANCH   1   2
ATOM      2  C   UNL A   1      35.619  32.794  32.777  1.00  0.00     0.188 C 
BRANCH   2   3
ATOM      3  C   UNL A   1      34.734  32.582  31.548  1.00  0.00     0.188 C 
BRANCH   3   4
ATOM      4  O   UNL A   1      34.866  33.671  30.632  1.00  0.00    -0.376 OA
BRANCH   4   5
ATOM      5  C   UNL A   1      35.392  33.333  29.350  1.00  0.00     0.202 C 
BRANCH   5   6
ATOM      6  C   UNL A   1      34.326  33.044  28.290  1.00  0.00     0.261 C 
BRANCH   6   7
ATOM      7  O   UNL A   1      33.925  31.667  28.301  1.00  0.00    -0.460 OA
BRANCH   7   8
ATOM      8  C   UNL A   1      34.566  30.611  27.738  1.00  0.00     0.338 C 
ATOM      9  O   UNL A   1      34.025  30.056  26.781  1.00  0.00    -0.246 OA
BRANCH   8  10
ATOM     10  C   UNL A   1      35.900  30.093  28.189  1.00  0.00     0.060 A 
ATOM     11  C   UNL A   1      36.186  29.549  29.445  1.00  0.00     0.016 A 
ATOM     12  C   UNL A   1      36.937  30.121  27.241  1.00  0.00     0.016 A 
ATOM     13  C   UNL A   1      37.468  29.146  29.793  1.00  0.00     0.010 A 
ATOM     14  C   UNL A   1      38.226  29.689  27.570  1.00  0.00     0.010 A 
ATOM     15  C   UNL A   1      38.499  29.245  28.867  1.00  0.00    -0.014 A 
BRANCH  15  16
ATOM     16  C   UNL A   1      39.880  29.072  29.350  1.00  0.00     0.031 A 
ATOM     17  C   UNL A   1      40.586  27.800  28.986  1.00  0.00     0.074 A 
ATOM     18  C   UNL A   1      40.507  30.071  29.992  1.00  0.00     0.049 A 
ATOM     19  N   UNL A   1      41.776  27.388  29.322  1.00  0.00    -0.248 NA
ATOM     20  C   UNL A   1      39.851  26.869  28.108  1.00  0.00     0.031 C 
ATOM     21  C   UNL A   1      39.922  31.381  30.288  1.00  0.00     0.029 A 
ATOM     22  N   UNL A   1      41.773  30.144  30.507  1.00  0.00    -0.354 N 
ATOM     23  C   UNL A   1      41.910  26.130  28.748  1.00  0.00     0.074 A 
ATOM     24  C   UNL A   1      40.691  25.851  28.026  1.00  0.00     0.031 C 
ATOM     25  C   UNL A   1      40.829  32.126  30.943  1.00  0.00     0.029 A 
ATOM     26  C   UNL A   1      42.031  31.327  31.159  1.00  0.00     0.049 A 
ATOM     27  H   UNL A   1      42.434  29.421  30.419  1.00  0.00     0.167 HD
ATOM     28  C   UNL A   1      42.961  25.283  28.824  1.00  0.00     0.034 A 
ATOM     29  C   UNL A   1      43.109  31.696  31.877  1.00  0.00     0.034 A 
ATOM     30  C   UNL A   1      44.165  25.597  29.538  1.00  0.00     0.049 A 
ATOM     31  C   UNL A   1      44.248  30.717  31.988  1.00  0.00     0.074 A 
ATOM     32  C   UNL A   1      45.288  24.815  29.727  1.00  0.00     0.029 A 
ATOM     33  N   UNL A   1      44.396  26.803  30.188  1.00  0.00    -0.354 N 
ATOM     34  N   UNL A   1      44.374  29.531  31.436  1.00  0.00    -0.248 NA
ATOM     35  C   UNL A   1      45.397  31.122  32.806  1.00  0.00     0.031 C 
ATOM     36  C   UNL A   1      46.189  25.542  30.512  1.00  0.00     0.029 A 
ATOM     37  C   UNL A   1      45.640  26.787  30.785  1.00  0.00     0.049 A 
ATOM     38  H   UNL A   1      43.765  27.558  30.216  1.00  0.00     0.167 HD
ATOM     39  C   UNL A   1      45.622  29.059  31.818  1.00  0.00     0.074 A 
ATOM     40  C   UNL A   1      46.224  30.100  32.631  1.00  0.00     0.031 C 
ATOM     41  C   UNL A   1      46.216  27.871  31.543  1.00  0.00     0.034 A 
BRANCH  28  42
ATOM     42  C   UNL A   1      42.815  23.947  28.151  1.00  0.00     0.023 A 
ATOM     43  C   UNL A   1      41.950  22.973  28.690  1.00  0.00     0.012 A 
ATOM     44  C   UNL A   1      43.566  23.643  26.998  1.00  0.00     0.148 A 
ATOM     45  C   UNL A   1      41.867  21.703  28.118  1.00  0.00     0.002 A 
ATOM     46  C   UNL A   1      43.447  22.390  26.411  1.00  0.00     0.091 A 
ATOM     47  F   UNL A   1      44.406  24.571  26.521  1.00  0.00    -0.205 F 
ATOM     48  C   UNL A   1      42.610  21.414  26.976  1.00  0.00     0.022 A 
BRANCH  46  49
ATOM     49  S   UNL A   1      44.325  21.937  24.910  1.00  0.00     0.127 S 
ATOM     50  O   UNL A   1      45.708  22.237  25.275  1.00  0.00    -0.237 OA
ATOM     51  O   UNL A   1      44.019  20.511  24.795  1.00  0.00    -0.237 OA
ATOM     52  O   UNL A   1      43.764  22.766  23.852  1.00  0.00    -0.744 OA
ENDBRANCH  46  49
ENDBRANCH  28  42
BRANCH  29  53
ATOM     53  C   UNL A   1      43.154  33.034  32.534  1.00  0.00     0.023 A 
ATOM     54  C   UNL A   1      42.759  33.169  33.879  1.00  0.00     0.012 A 
ATOM     55  C   UNL A   1      43.617  34.173  31.843  1.00  0.00     0.148 A 
ATOM     56  C   UNL A   1      42.803  34.412  34.515  1.00  0.00     0.002 A 
ATOM     57  C   UNL A   1      43.713  35.396  32.498  1.00  0.00     0.091 A 
ATOM     58  F   UNL A   1      43.967  34.036  30.556  1.00  0.00    -0.205 F 
ATOM     59  C   UNL A   1      43.290  35.522  33.829  1.00  0.00     0.022 A 
BRANCH  57  60
ATOM     60  S   UNL A   1      44.450  36.844  31.730  1.00  0.00     0.127 S 
ATOM     61  O   UNL A   1      43.676  36.955  30.497  1.00  0.00    -0.237 OA
ATOM     62  O   UNL A   1      44.181  37.886  32.722  1.00  0.00    -0.237 OA
ATOM     63  O   UNL A   1      45.861  36.525  31.567  1.00  0.00    -0.744 OA
ENDBRANCH  57  60
ENDBRANCH  29  53
BRANCH  41  64
ATOM     64  C   UNL A   1      47.595  27.646  32.096  1.00  0.00     0.023 A 
ATOM     65  C   UNL A   1      48.719  28.085  31.369  1.00  0.00     0.012 A 
ATOM     66  C   UNL A   1      47.766  27.100  33.383  1.00  0.00     0.148 A 
ATOM     67  C   UNL A   1      49.998  27.960  31.907  1.00  0.00     0.002 A 
ATOM     68  C   UNL A   1      49.038  27.026  33.932  1.00  0.00     0.091 A 
ATOM     69  F   UNL A   1      46.681  26.672  34.045  1.00  0.00    -0.205 F 
ATOM     70  C   UNL A   1      50.156  27.446  33.193  1.00  0.00     0.022 A 
BRANCH  68  71
ATOM     71  S   UNL A   1      49.318  26.481  35.620  1.00  0.00     0.127 S 
ATOM     72  O   UNL A   1      50.775  26.389  35.666  1.00  0.00    -0.237 OA
ATOM     73  O   UNL A   1      48.750  27.581  36.401  1.00  0.00    -0.237 OA
ATOM     74  O   UNL A   1      48.605  25.217  35.755  1.00  0.00    -0.744 OA
ENDBRANCH  68  71
ENDBRANCH  41  64
ENDBRANCH  15  16
ENDBRANCH   8  10
ENDBRANCH   7   8
ENDBRANCH   6   7
ENDBRANCH   5   6
ENDBRANCH   4   5
ENDBRANCH   3   4
ENDBRANCH   2   3
ENDBRANCH   1   2
BRANCH   1  75
ATOM     75  C   UNL A   1      37.751  33.867  33.230  1.00  0.00     0.188 C 
BRANCH  75  76
ATOM     76  C   UNL A   1      39.129  33.507  33.826  1.00  0.00     0.188 C 
BRANCH  76  77
ATOM     77  O   UNL A   1      39.294  32.139  34.171  1.00  0.00    -0.376 OA
BRANCH  77  78
ATOM     78  C   UNL A   1      39.598  31.882  35.541  1.00  0.00     0.202 C 
BRANCH  78  79
ATOM     79  C   UNL A   1      39.504  33.125  36.433  1.00  0.00     0.261 C 
BRANCH  79  80
ATOM     80  O   UNL A   1      38.310  33.187  37.236  1.00  0.00    -0.459 OA
BRANCH  80  81
ATOM     81  C   UNL A   1      38.363  33.887  38.396  1.00  0.00     0.357 C 
ATOM     82  O   UNL A   1      38.793  35.014  38.557  1.00  0.00    -0.244 OA
BRANCH  81  83
ATOM     83  C   UNL A   1      37.645  33.064  39.408  1.00  0.00     0.149 A 
ATOM     84  C   UNL A   1      38.314  32.666  40.558  1.00  0.00     0.051 A 
ATOM     85  N   UNL A   1      36.420  32.599  39.043  1.00  0.00    -0.249 NA
ATOM     86  C   UNL A   1      37.709  31.721  41.382  1.00  0.00     0.011 A 
ATOM     87  C   UNL A   1      35.866  31.670  39.844  1.00  0.00     0.113 A 
ATOM     88  C   UNL A   1      36.466  31.204  41.002  1.00  0.00     0.035 A 
BRANCH  86  89
ATOM     89  S   UNL A   1      38.395  31.102  42.913  1.00  0.00    -0.126 SA
BRANCH  89  90
ATOM     90  C   UNL A   1      38.291  32.514  44.068  1.00  0.00     0.081 C 
BRANCH  90  91
ATOM     91  C   UNL A   1      37.085  33.414  43.809  1.00  0.00     0.027 C 
ATOM     92  C   UNL A   1      35.917  33.102  44.724  1.00  0.00     0.035 C 
ATOM     93  C   UNL A   1      37.326  34.888  44.104  1.00  0.00     0.164 C 
ATOM     94  C   UNL A   1      35.122  34.388  44.667  1.00  0.00     0.160 C 
ATOM     95  O   UNL A   1      36.078  35.446  44.544  1.00  0.00    -0.381 OA
ENDBRANCH  90  91
ENDBRANCH  89  90
ENDBRANCH  86  89
ENDBRANCH  81  83
ENDBRANCH  80  81
ENDBRANCH  79  80
ENDBRANCH  78  79
ENDBRANCH  77  78
ENDBRANCH  76  77
ENDBRANCH  75  76
ENDBRANCH   1  75
TORSDOF 26
ENDMDL
MODEL 3
REMARK VINA RESULT:      -6.4      8.891     14.496
REMARK SMILES O=C(OCCOCCOCCOCCOC(=O)c1cc(SC[C@H]2CCOC2)ccn1)c1ccc(-c2c3nc(c(-c4cccc(S(=O)(=O)[O-])c4F)c4ccc([nH]4)c(-c4cccc(S(=O)(=O)[O-])c4F)c4nc(c(-c5cccc(S(=O)(=O)[O-])c5F)c5ccc2[nH]5)C=C4)C=C3)cc1
REMARK SMILES IDX 9 1 8 2 7 3 6 4 5 5 4 6 3 7 2 8 1 9 31 10 32 11 93 12 33 13
REMARK SMILES IDX 92 14 34 15 35 16 36 17 86 18 37 19 91 20 85 21 87 22 38 23
REMARK SMILES IDX 90 24 84 25 83 26 39 28 71 29 51 30 70 31 52 32 55 33 69 34
REMARK SMILES IDX 88 35 53 36 54 37 68 39 89 40 56 41 40 42 41 43 49 44 42 45
REMARK SMILES IDX 44 46 50 47 43 48 45 49 46 50 47 51 48 52 72 53 73 54 81 55
REMARK SMILES IDX 74 56 76 57 82 58 75 59 77 60 78 61 79 62 80 63 57 64 58 65
REMARK SMILES IDX 66 66 59 67 61 68 67 69 60 70 62 71 63 72 64 73 65 74 10 75
REMARK SMILES IDX 11 76 12 77 13 78 14 79 15 80 16 81 17 82 18 83 19 84 30 85
REMARK SMILES IDX 20 86 29 87 28 88 21 89 22 90 23 91 24 92 27 93 25 94 26 95
REMARK H PARENT 87 27 55 38
REMARK Flexibility Score: inf
ROOT
ATOM      1  O   UNL A   1      34.783  33.230  33.859  1.00  0.00    -0.377 OA
ENDROOT
BRANCH   1   2
ATOM      2  C   UNL A   1      35.354  32.430  32.825  1.00  0.00     0.188 C 
BRANCH   2   3
ATOM      3  C   UNL A   1      36.873  32.528  32.688  1.00  0.00     0.188 C 
BRANCH   3   4
ATOM      4  O   UNL A   1      37.402  31.370  32.038  1.00  0.00    -0.376 OA
BRANCH   4   5
ATOM      5  C   UNL A   1      38.209  30.524  32.854  1.00  0.00     0.202 C 
BRANCH   5   6
ATOM      6  C   UNL A   1      39.253  29.716  32.080  1.00  0.00     0.261 C 
BRANCH   6   7
ATOM      7  O   UNL A   1      40.457  30.466  31.868  1.00  0.00    -0.460 OA
BRANCH   7   8
ATOM      8  C   UNL A   1      40.571  31.740  31.412  1.00  0.00     0.338 C 
ATOM      9  O   UNL A   1      40.175  31.977  30.270  1.00  0.00    -0.246 OA
BRANCH   8  10
ATOM     10  C   UNL A   1      41.125  32.879  32.214  1.00  0.00     0.060 A 
ATOM     11  C   UNL A   1      42.421  32.964  32.732  1.00  0.00     0.016 A 
ATOM     12  C   UNL A   1      40.270  33.975  32.421  1.00  0.00     0.016 A 
ATOM     13  C   UNL A   1      42.828  34.036  33.515  1.00  0.00     0.010 A 
ATOM     14  C   UNL A   1      40.678  35.075  33.181  1.00  0.00     0.010 A 
ATOM     15  C   UNL A   1      41.947  35.080  33.769  1.00  0.00    -0.014 A 
BRANCH  15  16
ATOM     16  C   UNL A   1      42.311  36.053  34.813  1.00  0.00     0.031 A 
ATOM     17  C   UNL A   1      42.032  35.678  36.237  1.00  0.00     0.074 A 
ATOM     18  C   UNL A   1      42.971  37.179  34.493  1.00  0.00     0.049 A 
ATOM     19  N   UNL A   1      42.214  36.369  37.327  1.00  0.00    -0.248 NA
ATOM     20  C   UNL A   1      41.484  34.326  36.465  1.00  0.00     0.031 C 
ATOM     21  C   UNL A   1      43.375  37.563  33.140  1.00  0.00     0.029 A 
ATOM     22  N   UNL A   1      43.421  38.202  35.283  1.00  0.00    -0.354 N 
ATOM     23  C   UNL A   1      41.751  35.563  38.360  1.00  0.00     0.074 A 
ATOM     24  C   UNL A   1      41.297  34.324  37.774  1.00  0.00     0.031 C 
ATOM     25  C   UNL A   1      44.008  38.748  33.193  1.00  0.00     0.029 A 
ATOM     26  C   UNL A   1      44.003  39.226  34.571  1.00  0.00     0.049 A 
ATOM     27  H   UNL A   1      43.338  38.205  36.263  1.00  0.00     0.167 HD
ATOM     28  C   UNL A   1      41.707  35.842  39.682  1.00  0.00     0.034 A 
ATOM     29  C   UNL A   1      44.443  40.426  34.996  1.00  0.00     0.034 A 
ATOM     30  C   UNL A   1      42.179  37.078  40.236  1.00  0.00     0.049 A 
ATOM     31  C   UNL A   1      44.339  40.733  36.467  1.00  0.00     0.074 A 
ATOM     32  C   UNL A   1      42.157  37.503  41.549  1.00  0.00     0.029 A 
ATOM     33  N   UNL A   1      42.762  38.095  39.489  1.00  0.00    -0.354 N 
ATOM     34  N   UNL A   1      43.908  39.964  37.442  1.00  0.00    -0.248 NA
ATOM     35  C   UNL A   1      44.789  42.059  36.904  1.00  0.00     0.031 C 
ATOM     36  C   UNL A   1      42.706  38.789  41.594  1.00  0.00     0.029 A 
ATOM     37  C   UNL A   1      43.099  39.151  40.312  1.00  0.00     0.049 A 
ATOM     38  H   UNL A   1      42.914  38.065  38.517  1.00  0.00     0.167 HD
ATOM     39  C   UNL A   1      44.057  40.702  38.608  1.00  0.00     0.074 A 
ATOM     40  C   UNL A   1      44.641  41.973  38.219  1.00  0.00     0.031 C 
ATOM     41  C   UNL A   1      43.727  40.377  39.883  1.00  0.00     0.034 A 
BRANCH  28  42
ATOM     42  C   UNL A   1      41.094  34.803  40.581  1.00  0.00     0.023 A 
ATOM     43  C   UNL A   1      39.771  34.958  41.044  1.00  0.00     0.012 A 
ATOM     44  C   UNL A   1      41.847  33.688  40.998  1.00  0.00     0.148 A 
ATOM     45  C   UNL A   1      39.222  34.041  41.940  1.00  0.00     0.002 A 
ATOM     46  C   UNL A   1      41.279  32.758  41.860  1.00  0.00     0.091 A 
ATOM     47  F   UNL A   1      43.112  33.577  40.573  1.00  0.00    -0.205 F 
ATOM     48  C   UNL A   1      39.972  32.939  42.343  1.00  0.00     0.022 A 
BRANCH  46  49
ATOM     49  S   UNL A   1      42.146  31.280  42.397  1.00  0.00     0.127 S 
ATOM     50  O   UNL A   1      42.484  31.621  43.778  1.00  0.00    -0.237 OA
ATOM     51  O   UNL A   1      41.115  30.252  42.257  1.00  0.00    -0.237 OA
ATOM     52  O   UNL A   1      43.280  31.130  41.495  1.00  0.00    -0.744 OA
ENDBRANCH  46  49
ENDBRANCH  28  42
BRANCH  29  53
ATOM     53  C   UNL A   1      45.011  41.406  34.025  1.00  0.00     0.023 A 
ATOM     54  C   UNL A   1      46.378  41.352  33.694  1.00  0.00     0.012 A 
ATOM     55  C   UNL A   1      44.196  42.374  33.403  1.00  0.00     0.148 A 
ATOM     56  C   UNL A   1      46.927  42.256  32.780  1.00  0.00     0.002 A 
ATOM     57  C   UNL A   1      44.736  43.233  32.452  1.00  0.00     0.091 A 
ATOM     58  F   UNL A   1      42.901  42.431  33.746  1.00  0.00    -0.205 F 
ATOM     59  C   UNL A   1      46.105  43.187  32.151  1.00  0.00     0.022 A 
BRANCH  57  60
ATOM     60  S   UNL A   1      43.724  44.374  31.500  1.00  0.00     0.127 S 
ATOM     61  O   UNL A   1      44.592  44.668  30.364  1.00  0.00    -0.237 OA
ATOM     62  O   UNL A   1      42.554  43.552  31.185  1.00  0.00    -0.237 OA
ATOM     63  O   UNL A   1      43.446  45.490  32.393  1.00  0.00    -0.744 OA
ENDBRANCH  57  60
ENDBRANCH  29  53
BRANCH  41  64
ATOM     64  C   UNL A   1      44.020  41.392  40.951  1.00  0.00     0.023 A 
ATOM     65  C   UNL A   1      45.311  41.465  41.509  1.00  0.00     0.012 A 
ATOM     66  C   UNL A   1      43.045  42.340  41.318  1.00  0.00     0.148 A 
ATOM     67  C   UNL A   1      45.620  42.456  42.438  1.00  0.00     0.002 A 
ATOM     68  C   UNL A   1      43.376  43.354  42.205  1.00  0.00     0.091 A 
ATOM     69  F   UNL A   1      41.819  42.235  40.786  1.00  0.00    -0.205 F 
ATOM     70  C   UNL A   1      44.660  43.408  42.774  1.00  0.00     0.022 A 
BRANCH  68  71
ATOM     71  S   UNL A   1      42.235  44.682  42.606  1.00  0.00     0.127 S 
ATOM     72  O   UNL A   1      43.061  45.538  43.454  1.00  0.00    -0.237 OA
ATOM     73  O   UNL A   1      41.932  45.239  41.287  1.00  0.00    -0.237 OA
ATOM     74  O   UNL A   1      41.102  44.049  43.267  1.00  0.00    -0.744 OA
ENDBRANCH  68  71
ENDBRANCH  41  64
ENDBRANCH  15  16
ENDBRANCH   8  10
ENDBRANCH   7   8
ENDBRANCH   6   7
ENDBRANCH   5   6
ENDBRANCH   4   5
ENDBRANCH   3   4
ENDBRANCH   2   3
ENDBRANCH   1   2
BRANCH   1  75
ATOM     75  C   UNL A   1      35.264  34.567  33.978  1.00  0.00     0.188 C 
BRANCH  75  76
ATOM     76  C   UNL A   1      34.479  35.717  33.309  1.00  0.00     0.188 C 
BRANCH  76  77
ATOM     77  O   UNL A   1      33.413  35.304  32.465  1.00  0.00    -0.376 OA
BRANCH  77  78
ATOM     78  C   UNL A   1      32.757  36.347  31.746  1.00  0.00     0.202 C 
BRANCH  78  79
ATOM     79  C   UNL A   1      33.121  36.388  30.258  1.00  0.00     0.261 C 
BRANCH  79  80
ATOM     80  O   UNL A   1      33.937  35.285  29.818  1.00  0.00    -0.459 OA
BRANCH  80  81
ATOM     81  C   UNL A   1      33.444  34.483  28.843  1.00  0.00     0.357 C 
ATOM     82  O   UNL A   1      32.394  34.614  28.240  1.00  0.00    -0.244 OA
BRANCH  81  83
ATOM     83  C   UNL A   1      34.516  33.493  28.541  1.00  0.00     0.149 A 
ATOM     84  C   UNL A   1      34.164  32.211  28.141  1.00  0.00     0.051 A 
ATOM     85  N   UNL A   1      35.783  33.869  28.859  1.00  0.00    -0.249 NA
ATOM     86  C   UNL A   1      35.159  31.241  28.078  1.00  0.00     0.011 A 
ATOM     87  C   UNL A   1      36.725  32.907  28.812  1.00  0.00     0.113 A 
ATOM     88  C   UNL A   1      36.463  31.599  28.438  1.00  0.00     0.035 A 
BRANCH  86  89
ATOM     89  S   UNL A   1      34.912  29.546  27.565  1.00  0.00    -0.126 SA
BRANCH  89  90
ATOM     90  C   UNL A   1      33.181  29.490  26.981  1.00  0.00     0.081 C 
BRANCH  90  91
ATOM     91  C   UNL A   1      32.698  28.076  26.670  1.00  0.00     0.027 C 
ATOM     92  C   UNL A   1      31.578  28.052  25.649  1.00  0.00     0.035 C 
ATOM     93  C   UNL A   1      33.742  27.188  26.006  1.00  0.00     0.164 C 
ATOM     94  C   UNL A   1      31.656  26.634  25.129  1.00  0.00     0.160 C 
ATOM     95  O   UNL A   1      33.044  26.278  25.143  1.00  0.00    -0.381 OA
ENDBRANCH  90  91
ENDBRANCH  89  90
ENDBRANCH  86  89
ENDBRANCH  81  83
ENDBRANCH  80  81
ENDBRANCH  79  80
ENDBRANCH  78  79
ENDBRANCH  77  78
ENDBRANCH  76  77
ENDBRANCH  75  76
ENDBRANCH   1  75
TORSDOF 26
ENDMDL
