MODEL 1
REMARK VINA RESULT:     -10.0      0.000      0.000
REMARK SMILES CC(C)CSc1cc2c(cc1Cl)C=C(C(=O)OCCOCCOCCOCCOC(=O)c1ccc(-c3c4nc(c(-c5cccc(S(=O)(=O)[O-])c5F)c5ccc([nH]5)c(-c5cccc(S(=O)(=O)[O-])c5F)c5nc(c(-c6cccc(S(=O)(=O)[O-])c6F)c6ccc3[nH]6)C=C5)C=C4)cc1)[C@@H](C(F)(F)F)O2
REMARK SMILES IDX 23 1 22 2 21 3 20 4 19 5 18 6 17 7 15 8 16 9 14 10 6 11 7 12
REMARK SMILES IDX 11 13 8 14 10 15 12 16 9 17 100 18 13 19 95 20 5 21 4 22
REMARK SMILES IDX 2 23 1 24 3 25 96 26 97 27 98 28 99 29 24 30 25 31 26 32
REMARK SMILES IDX 27 33 28 34 29 35 30 36 31 37 32 38 33 39 94 40 34 41 93 42
REMARK SMILES IDX 35 43 36 44 37 45 87 46 38 47 92 48 86 49 88 50 39 51 91 52
REMARK SMILES IDX 85 53 84 54 40 56 72 57 52 58 71 59 53 60 56 61 70 62 89 63
REMARK SMILES IDX 54 64 55 65 69 67 90 68 57 69 41 70 42 71 50 72 43 73 45 74
REMARK SMILES IDX 51 75 44 76 46 77 47 78 48 79 49 80 73 81 74 82 82 83 75 84
REMARK SMILES IDX 77 85 83 86 76 87 78 88 79 89 80 90 81 91 58 92 59 93 67 94
REMARK SMILES IDX 60 95 62 96 68 97 61 98 63 99 64 100 65 101 66 102
REMARK H PARENT 88 55 56 66
REMARK Flexibility Score: inf
ROOT
ATOM      1  O   UNL A   1      35.954  24.324  25.460  1.00  0.00    -0.377 OA
ENDROOT
BRANCH   1   2
ATOM      2  C   UNL A   1      35.259  24.125  24.240  1.00  0.00     0.188 C 
BRANCH   2   3
ATOM      3  C   UNL A   1      34.622  25.422  23.709  1.00  0.00     0.188 C 
BRANCH   3   4
ATOM      4  O   UNL A   1      34.163  25.307  22.367  1.00  0.00    -0.376 OA
BRANCH   4   5
ATOM      5  C   UNL A   1      33.232  26.272  21.891  1.00  0.00     0.202 C 
BRANCH   5   6
ATOM      6  C   UNL A   1      32.634  27.286  22.883  1.00  0.00     0.261 C 
BRANCH   6   7
ATOM      7  O   UNL A   1      31.821  26.731  23.930  1.00  0.00    -0.460 OA
BRANCH   7   8
ATOM      8  C   UNL A   1      30.885  25.827  23.590  1.00  0.00     0.338 C 
ATOM      9  O   UNL A   1      29.881  26.021  22.929  1.00  0.00    -0.246 OA
BRANCH   8  10
ATOM     10  C   UNL A   1      31.371  24.493  24.009  1.00  0.00     0.087 C 
ATOM     11  C   UNL A   1      32.414  19.582  24.263  1.00  0.00     0.030 A 
ATOM     12  C   UNL A   1      32.410  20.637  25.188  1.00  0.00     0.063 A 
ATOM     13  C   UNL A   1      32.212  19.888  22.903  1.00  0.00     0.055 A 
ATOM     14  C   UNL A   1      32.166  21.952  24.777  1.00  0.00     0.129 A 
ATOM     15  C   UNL A   1      31.960  21.204  22.498  1.00  0.00     0.033 A 
ATOM     16  Cl  UNL A   1      32.242  18.683  21.659  1.00  0.00    -0.083 Cl
ATOM     17  C   UNL A   1      31.894  22.230  23.441  1.00  0.00     0.019 A 
ATOM     18  O   UNL A   1      32.185  22.900  25.759  1.00  0.00    -0.475 OA
ATOM     19  C   UNL A   1      31.457  23.559  23.053  1.00  0.00     0.027 C 
ATOM     20  C   UNL A   1      31.794  24.269  25.440  1.00  0.00     0.316 C 
BRANCH  11  21
ATOM     21  S   UNL A   1      32.535  17.881  24.824  1.00  0.00    -0.124 SA
BRANCH  21  22
ATOM     22  C   UNL A   1      34.293  17.460  24.565  1.00  0.00     0.078 C 
BRANCH  22  23
ATOM     23  C   UNL A   1      34.608  15.964  24.723  1.00  0.00    -0.007 C 
ATOM     24  C   UNL A   1      35.867  15.704  25.554  1.00  0.00     0.008 C 
ATOM     25  C   UNL A   1      33.414  15.266  25.385  1.00  0.00     0.008 C 
ENDBRANCH  22  23
ENDBRANCH  21  22
ENDBRANCH  11  21
BRANCH  20  26
ATOM     26  C   UNL A   1      30.715  24.686  26.450  1.00  0.00     0.430 C 
ATOM     27  F   UNL A   1      31.075  25.812  27.111  1.00  0.00    -0.167 F 
ATOM     28  F   UNL A   1      29.527  24.941  25.860  1.00  0.00    -0.167 F 
ATOM     29  F   UNL A   1      30.509  23.721  27.378  1.00  0.00    -0.167 F 
ENDBRANCH  20  26
ENDBRANCH   8  10
ENDBRANCH   7   8
ENDBRANCH   6   7
ENDBRANCH   5   6
ENDBRANCH   4   5
ENDBRANCH   3   4
ENDBRANCH   2   3
ENDBRANCH   1   2
BRANCH   1  30
ATOM     30  C   UNL A   1      37.052  23.455  25.736  1.00  0.00     0.188 C 
BRANCH  30  31
ATOM     31  C   UNL A   1      37.182  22.081  25.039  1.00  0.00     0.188 C 
BRANCH  31  32
ATOM     32  O   UNL A   1      38.378  21.377  25.380  1.00  0.00    -0.376 OA
BRANCH  32  33
ATOM     33  C   UNL A   1      38.401  19.987  25.077  1.00  0.00     0.202 C 
BRANCH  33  34
ATOM     34  C   UNL A   1      39.457  19.202  25.864  1.00  0.00     0.261 C 
BRANCH  34  35
ATOM     35  O   UNL A   1      40.818  19.512  25.535  1.00  0.00    -0.460 OA
BRANCH  35  36
ATOM     36  C   UNL A   1      41.691  19.672  26.557  1.00  0.00     0.338 C 
ATOM     37  O   UNL A   1      42.404  18.817  27.049  1.00  0.00    -0.246 OA
BRANCH  36  38
ATOM     38  C   UNL A   1      41.783  21.122  26.835  1.00  0.00     0.060 A 
ATOM     39  C   UNL A   1      42.117  21.578  28.113  1.00  0.00     0.016 A 
ATOM     40  C   UNL A   1      41.492  22.032  25.809  1.00  0.00     0.016 A 
ATOM     41  C   UNL A   1      42.201  22.950  28.354  1.00  0.00     0.010 A 
ATOM     42  C   UNL A   1      41.569  23.405  26.056  1.00  0.00     0.010 A 
ATOM     43  C   UNL A   1      41.953  23.871  27.322  1.00  0.00    -0.014 A 
BRANCH  43  44
ATOM     44  C   UNL A   1      42.332  25.291  27.515  1.00  0.00     0.031 A 
ATOM     45  C   UNL A   1      41.428  26.289  28.167  1.00  0.00     0.074 A 
ATOM     46  C   UNL A   1      43.545  25.668  27.063  1.00  0.00     0.049 A 
ATOM     47  N   UNL A   1      41.692  27.527  28.497  1.00  0.00    -0.248 NA
ATOM     48  C   UNL A   1      40.060  25.857  28.487  1.00  0.00     0.031 C 
ATOM     49  C   UNL A   1      44.481  24.791  26.355  1.00  0.00     0.029 A 
ATOM     50  N   UNL A   1      44.196  26.871  27.129  1.00  0.00    -0.354 N 
ATOM     51  C   UNL A   1      40.528  28.030  29.063  1.00  0.00     0.074 A 
ATOM     52  C   UNL A   1      39.547  26.964  29.017  1.00  0.00     0.031 C 
ATOM     53  C   UNL A   1      45.593  25.482  26.065  1.00  0.00     0.029 A 
ATOM     54  C   UNL A   1      45.446  26.846  26.560  1.00  0.00     0.049 A 
ATOM     55  H   UNL A   1      43.808  27.674  27.543  1.00  0.00     0.167 HD
ATOM     56  C   UNL A   1      40.315  29.258  29.591  1.00  0.00     0.034 A 
ATOM     57  C   UNL A   1      46.384  27.807  26.460  1.00  0.00     0.034 A 
ATOM     58  C   UNL A   1      41.303  30.305  29.643  1.00  0.00     0.049 A 
ATOM     59  C   UNL A   1      46.129  29.150  27.075  1.00  0.00     0.074 A 
ATOM     60  C   UNL A   1      41.193  31.557  30.228  1.00  0.00     0.029 A 
ATOM     61  N   UNL A   1      42.570  30.234  29.086  1.00  0.00    -0.354 N 
ATOM     62  N   UNL A   1      45.079  29.555  27.744  1.00  0.00    -0.248 NA
ATOM     63  C   UNL A   1      47.195  30.154  26.956  1.00  0.00     0.031 C 
ATOM     64  C   UNL A   1      42.390  32.247  30.012  1.00  0.00     0.029 A 
ATOM     65  C   UNL A   1      43.249  31.421  29.305  1.00  0.00     0.049 A 
ATOM     66  H   UNL A   1      42.933  29.456  28.607  1.00  0.00     0.167 HD
ATOM     67  C   UNL A   1      45.363  30.854  28.146  1.00  0.00     0.074 A 
ATOM     68  C   UNL A   1      46.689  31.165  27.655  1.00  0.00     0.031 C 
ATOM     69  C   UNL A   1      44.584  31.709  28.850  1.00  0.00     0.034 A 
BRANCH  56  70
ATOM     70  C   UNL A   1      38.984  29.540  30.233  1.00  0.00     0.023 A 
ATOM     71  C   UNL A   1      38.758  29.094  31.550  1.00  0.00     0.012 A 
ATOM     72  C   UNL A   1      38.028  30.362  29.605  1.00  0.00     0.148 A 
ATOM     73  C   UNL A   1      37.600  29.457  32.233  1.00  0.00     0.002 A 
ATOM     74  C   UNL A   1      36.887  30.743  30.302  1.00  0.00     0.091 A 
ATOM     75  F   UNL A   1      38.263  30.771  28.350  1.00  0.00    -0.205 F 
ATOM     76  C   UNL A   1      36.671  30.290  31.615  1.00  0.00     0.022 A 
BRANCH  74  77
ATOM     77  S   UNL A   1      35.654  31.859  29.622  1.00  0.00     0.127 S 
ATOM     78  O   UNL A   1      35.042  31.025  28.587  1.00  0.00    -0.237 OA
ATOM     79  O   UNL A   1      34.800  32.118  30.781  1.00  0.00    -0.237 OA
ATOM     80  O   UNL A   1      36.385  33.018  29.129  1.00  0.00    -0.744 OA
ENDBRANCH  74  77
ENDBRANCH  56  70
BRANCH  57  81
ATOM     81  C   UNL A   1      47.686  27.473  25.826  1.00  0.00     0.023 A 
ATOM     82  C   UNL A   1      48.670  26.818  26.590  1.00  0.00     0.012 A 
ATOM     83  C   UNL A   1      47.907  27.701  24.455  1.00  0.00     0.148 A 
ATOM     84  C   UNL A   1      49.860  26.398  25.996  1.00  0.00     0.002 A 
ATOM     85  C   UNL A   1      49.078  27.245  23.863  1.00  0.00     0.091 A 
ATOM     86  F   UNL A   1      46.948  28.322  23.754  1.00  0.00    -0.205 F 
ATOM     87  C   UNL A   1      50.059  26.601  24.633  1.00  0.00     0.022 A 
BRANCH  85  88
ATOM     88  S   UNL A   1      49.377  27.360  22.096  1.00  0.00     0.127 S 
ATOM     89  O   UNL A   1      49.487  28.805  21.905  1.00  0.00    -0.237 OA
ATOM     90  O   UNL A   1      50.634  26.624  21.958  1.00  0.00    -0.237 OA
ATOM     91  O   UNL A   1      48.232  26.730  21.456  1.00  0.00    -0.744 OA
ENDBRANCH  85  88
ENDBRANCH  57  81
BRANCH  69  92
ATOM     92  C   UNL A   1      45.130  33.076  29.155  1.00  0.00     0.023 A 
ATOM     93  C   UNL A   1      45.933  33.259  30.297  1.00  0.00     0.012 A 
ATOM     94  C   UNL A   1      44.963  34.137  28.243  1.00  0.00     0.148 A 
ATOM     95  C   UNL A   1      46.562  34.481  30.530  1.00  0.00     0.002 A 
ATOM     96  C   UNL A   1      45.619  35.341  28.464  1.00  0.00     0.091 A 
ATOM     97  F   UNL A   1      44.187  33.936  27.168  1.00  0.00    -0.205 F 
ATOM     98  C   UNL A   1      46.416  35.516  29.609  1.00  0.00     0.022 A 
BRANCH  96  99
ATOM     99  S   UNL A   1      45.554  36.710  27.303  1.00  0.00     0.127 S 
ATOM    100  O   UNL A   1      44.126  37.025  27.293  1.00  0.00    -0.237 OA
ATOM    101  O   UNL A   1      46.396  37.710  27.960  1.00  0.00    -0.237 OA
ATOM    102  O   UNL A   1      46.081  36.200  26.045  1.00  0.00    -0.744 OA
ENDBRANCH  96  99
ENDBRANCH  69  92
ENDBRANCH  43  44
ENDBRANCH  36  38
ENDBRANCH  35  36
ENDBRANCH  34  35
ENDBRANCH  33  34
ENDBRANCH  32  33
ENDBRANCH  31  32
ENDBRANCH  30  31
ENDBRANCH   1  30
TORSDOF 27
ENDMDL
MODEL 2
REMARK VINA RESULT:      -8.6      2.632      8.271
REMARK SMILES CC(C)CSc1cc2c(cc1Cl)C=C(C(=O)OCCOCCOCCOCCOC(=O)c1ccc(-c3c4nc(c(-c5cccc(S(=O)(=O)[O-])c5F)c5ccc([nH]5)c(-c5cccc(S(=O)(=O)[O-])c5F)c5nc(c(-c6cccc(S(=O)(=O)[O-])c6F)c6ccc3[nH]6)C=C5)C=C4)cc1)[C@@H](C(F)(F)F)O2
REMARK SMILES IDX 23 1 22 2 21 3 20 4 19 5 18 6 17 7 15 8 16 9 14 10 6 11 7 12
REMARK SMILES IDX 11 13 8 14 10 15 12 16 9 17 100 18 13 19 95 20 5 21 4 22
REMARK SMILES IDX 2 23 1 24 3 25 96 26 97 27 98 28 99 29 24 30 25 31 26 32
REMARK SMILES IDX 27 33 28 34 29 35 30 36 31 37 32 38 33 39 94 40 34 41 93 42
REMARK SMILES IDX 35 43 36 44 37 45 87 46 38 47 92 48 86 49 88 50 39 51 91 52
REMARK SMILES IDX 85 53 84 54 40 56 72 57 52 58 71 59 53 60 56 61 70 62 89 63
REMARK SMILES IDX 54 64 55 65 69 67 90 68 57 69 41 70 42 71 50 72 43 73 45 74
REMARK SMILES IDX 51 75 44 76 46 77 47 78 48 79 49 80 73 81 74 82 82 83 75 84
REMARK SMILES IDX 77 85 83 86 76 87 78 88 79 89 80 90 81 91 58 92 59 93 67 94
REMARK SMILES IDX 60 95 62 96 68 97 61 98 63 99 64 100 65 101 66 102
REMARK H PARENT 88 55 56 66
REMARK Flexibility Score: inf
ROOT
ATOM      1  O   UNL A   1      38.219  23.941  26.496  1.00  0.00    -0.377 OA
ENDROOT
BRANCH   1   2
ATOM      2  C   UNL A   1      37.454  23.713  25.324  1.00  0.00     0.188 C 
BRANCH   2   3
ATOM      3  C   UNL A   1      35.989  23.363  25.638  1.00  0.00     0.188 C 
BRANCH   3   4
ATOM      4  O   UNL A   1      35.857  22.326  26.602  1.00  0.00    -0.376 OA
BRANCH   4   5
ATOM      5  C   UNL A   1      34.749  21.441  26.491  1.00  0.00     0.202 C 
BRANCH   5   6
ATOM      6  C   UNL A   1      34.616  20.563  25.235  1.00  0.00     0.261 C 
BRANCH   6   7
ATOM      7  O   UNL A   1      33.670  21.017  24.252  1.00  0.00    -0.460 OA
BRANCH   7   8
ATOM      8  C   UNL A   1      32.529  21.579  24.686  1.00  0.00     0.338 C 
ATOM      9  O   UNL A   1      31.570  21.010  25.178  1.00  0.00    -0.246 OA
BRANCH   8  10
ATOM     10  C   UNL A   1      32.699  23.048  24.633  1.00  0.00     0.087 C 
ATOM     11  C   UNL A   1      32.301  27.998  25.413  1.00  0.00     0.030 A 
ATOM     12  C   UNL A   1      32.844  27.202  24.392  1.00  0.00     0.063 A 
ATOM     13  C   UNL A   1      31.852  27.361  26.585  1.00  0.00     0.055 A 
ATOM     14  C   UNL A   1      32.894  25.810  24.517  1.00  0.00     0.129 A 
ATOM     15  C   UNL A   1      31.895  25.967  26.702  1.00  0.00     0.033 A 
ATOM     16  Cl  UNL A   1      31.206  28.235  27.936  1.00  0.00    -0.083 Cl
ATOM     17  C   UNL A   1      32.377  25.188  25.649  1.00  0.00     0.019 A 
ATOM     18  O   UNL A   1      33.441  25.133  23.465  1.00  0.00    -0.475 OA
ATOM     19  C   UNL A   1      32.259  23.742  25.690  1.00  0.00     0.027 C 
ATOM     20  C   UNL A   1      33.395  23.675  23.449  1.00  0.00     0.316 C 
BRANCH  11  21
ATOM     21  S   UNL A   1      32.065  29.760  25.164  1.00  0.00    -0.124 SA
BRANCH  21  22
ATOM     22  C   UNL A   1      31.152  29.859  23.586  1.00  0.00     0.078 C 
BRANCH  22  23
ATOM     23  C   UNL A   1      29.844  29.050  23.568  1.00  0.00    -0.007 C 
ATOM     24  C   UNL A   1      28.636  29.879  23.126  1.00  0.00     0.008 C 
ATOM     25  C   UNL A   1      30.007  27.854  22.624  1.00  0.00     0.008 C 
ENDBRANCH  22  23
ENDBRANCH  21  22
ENDBRANCH  11  21
BRANCH  20  26
ATOM     26  C   UNL A   1      32.785  23.248  22.107  1.00  0.00     0.430 C 
ATOM     27  F   UNL A   1      31.852  22.281  22.281  1.00  0.00    -0.167 F 
ATOM     28  F   UNL A   1      32.176  24.271  21.468  1.00  0.00    -0.167 F 
ATOM     29  F   UNL A   1      33.729  22.752  21.272  1.00  0.00    -0.167 F 
ENDBRANCH  20  26
ENDBRANCH   8  10
ENDBRANCH   7   8
ENDBRANCH   6   7
ENDBRANCH   5   6
ENDBRANCH   4   5
ENDBRANCH   3   4
ENDBRANCH   2   3
ENDBRANCH   1   2
BRANCH   1  30
ATOM     30  C   UNL A   1      39.355  23.104  26.709  1.00  0.00     0.188 C 
BRANCH  30  31
ATOM     31  C   UNL A   1      39.367  21.633  26.234  1.00  0.00     0.188 C 
BRANCH  31  32
ATOM     32  O   UNL A   1      40.628  20.984  26.413  1.00  0.00    -0.376 OA
BRANCH  32  33
ATOM     33  C   UNL A   1      40.607  19.561  26.442  1.00  0.00     0.202 C 
BRANCH  33  34
ATOM     34  C   UNL A   1      41.887  18.915  25.897  1.00  0.00     0.261 C 
BRANCH  34  35
ATOM     35  O   UNL A   1      42.615  19.708  24.949  1.00  0.00    -0.460 OA
BRANCH  35  36
ATOM     36  C   UNL A   1      43.879  20.070  25.272  1.00  0.00     0.338 C 
ATOM     37  O   UNL A   1      44.901  19.465  25.007  1.00  0.00    -0.246 OA
BRANCH  36  38
ATOM     38  C   UNL A   1      43.817  21.442  25.822  1.00  0.00     0.060 A 
ATOM     39  C   UNL A   1      43.943  21.659  27.197  1.00  0.00     0.016 A 
ATOM     40  C   UNL A   1      43.593  22.516  24.951  1.00  0.00     0.016 A 
ATOM     41  C   UNL A   1      43.886  22.961  27.696  1.00  0.00     0.010 A 
ATOM     42  C   UNL A   1      43.527  23.818  25.455  1.00  0.00     0.010 A 
ATOM     43  C   UNL A   1      43.704  24.050  26.826  1.00  0.00    -0.014 A 
BRANCH  43  44
ATOM     44  C   UNL A   1      43.940  25.423  27.330  1.00  0.00     0.031 A 
ATOM     45  C   UNL A   1      45.275  26.096  27.252  1.00  0.00     0.074 A 
ATOM     46  C   UNL A   1      42.891  26.061  27.885  1.00  0.00     0.049 A 
ATOM     47  N   UNL A   1      45.577  27.333  27.551  1.00  0.00    -0.248 NA
ATOM     48  C   UNL A   1      46.414  25.290  26.789  1.00  0.00     0.031 C 
ATOM     49  C   UNL A   1      41.561  25.476  28.070  1.00  0.00     0.029 A 
ATOM     50  N   UNL A   1      42.773  27.328  28.392  1.00  0.00    -0.354 N 
ATOM     51  C   UNL A   1      46.939  27.463  27.315  1.00  0.00     0.074 A 
ATOM     52  C   UNL A   1      47.410  26.169  26.864  1.00  0.00     0.031 C 
ATOM     53  C   UNL A   1      40.756  26.386  28.636  1.00  0.00     0.029 A 
ATOM     54  C   UNL A   1      41.512  27.614  28.857  1.00  0.00     0.049 A 
ATOM     55  H   UNL A   1      43.517  27.971  28.420  1.00  0.00     0.167 HD
ATOM     56  C   UNL A   1      47.712  28.567  27.445  1.00  0.00     0.034 A 
ATOM     57  C   UNL A   1      41.008  28.744  29.388  1.00  0.00     0.034 A 
ATOM     58  C   UNL A   1      47.229  29.852  27.883  1.00  0.00     0.049 A 
ATOM     59  C   UNL A   1      41.880  29.959  29.496  1.00  0.00     0.074 A 
ATOM     60  C   UNL A   1      47.929  31.044  27.971  1.00  0.00     0.029 A 
ATOM     61  N   UNL A   1      45.939  30.114  28.314  1.00  0.00    -0.354 N 
ATOM     62  N   UNL A   1      43.127  30.104  29.122  1.00  0.00    -0.248 NA
ATOM     63  C   UNL A   1      41.274  31.171  30.063  1.00  0.00     0.031 C 
ATOM     64  C   UNL A   1      47.065  32.023  28.470  1.00  0.00     0.029 A 
ATOM     65  C   UNL A   1      45.824  31.445  28.679  1.00  0.00     0.049 A 
ATOM     66  H   UNL A   1      45.212  29.452  28.356  1.00  0.00     0.167 HD
ATOM     67  C   UNL A   1      43.451  31.429  29.386  1.00  0.00     0.074 A 
ATOM     68  C   UNL A   1      42.265  32.047  29.942  1.00  0.00     0.031 C 
ATOM     69  C   UNL A   1      44.630  32.064  29.192  1.00  0.00     0.034 A 
BRANCH  56  70
ATOM     70  C   UNL A   1      49.158  28.480  27.041  1.00  0.00     0.023 A 
ATOM     71  C   UNL A   1      50.138  28.378  28.048  1.00  0.00     0.012 A 
ATOM     72  C   UNL A   1      49.534  28.348  25.690  1.00  0.00     0.148 A 
ATOM     73  C   UNL A   1      51.472  28.149  27.718  1.00  0.00     0.002 A 
ATOM     74  C   UNL A   1      50.863  28.093  25.369  1.00  0.00     0.091 A 
ATOM     75  F   UNL A   1      48.584  28.453  24.750  1.00  0.00    -0.205 F 
ATOM     76  C   UNL A   1      51.833  27.996  26.382  1.00  0.00     0.022 A 
BRANCH  74  77
ATOM     77  S   UNL A   1      51.427  27.821  23.685  1.00  0.00     0.127 S 
ATOM     78  O   UNL A   1      50.357  26.978  23.150  1.00  0.00    -0.237 OA
ATOM     79  O   UNL A   1      51.459  29.180  23.147  1.00  0.00    -0.237 OA
ATOM     80  O   UNL A   1      52.727  27.174  23.794  1.00  0.00    -0.744 OA
ENDBRANCH  74  77
ENDBRANCH  56  70
BRANCH  57  81
ATOM     81  C   UNL A   1      39.570  28.780  29.761  1.00  0.00     0.023 A 
ATOM     82  C   UNL A   1      39.197  28.450  31.078  1.00  0.00     0.012 A 
ATOM     83  C   UNL A   1      38.596  29.242  28.857  1.00  0.00     0.148 A 
ATOM     84  C   UNL A   1      37.870  28.576  31.487  1.00  0.00     0.002 A 
ATOM     85  C   UNL A   1      37.283  29.402  29.284  1.00  0.00     0.091 A 
ATOM     86  F   UNL A   1      38.985  29.554  27.613  1.00  0.00    -0.205 F 
ATOM     87  C   UNL A   1      36.917  29.061  30.596  1.00  0.00     0.022 A 
BRANCH  85  88
ATOM     88  S   UNL A   1      36.008  30.123  28.245  1.00  0.00     0.127 S 
ATOM     89  O   UNL A   1      35.068  29.012  28.112  1.00  0.00    -0.237 OA
ATOM     90  O   UNL A   1      35.538  31.231  29.077  1.00  0.00    -0.237 OA
ATOM     91  O   UNL A   1      36.676  30.527  27.017  1.00  0.00    -0.744 OA
ENDBRANCH  85  88
ENDBRANCH  57  81
BRANCH  69  92
ATOM     92  C   UNL A   1      44.722  33.517  29.570  1.00  0.00     0.023 A 
ATOM     93  C   UNL A   1      45.198  33.867  30.848  1.00  0.00     0.012 A 
ATOM     94  C   UNL A   1      44.472  34.525  28.618  1.00  0.00     0.148 A 
ATOM     95  C   UNL A   1      45.421  35.203  31.176  1.00  0.00     0.002 A 
ATOM     96  C   UNL A   1      44.728  35.852  28.941  1.00  0.00     0.091 A 
ATOM     97  F   UNL A   1      44.013  34.162  27.411  1.00  0.00    -0.205 F 
ATOM     98  C   UNL A   1      45.200  36.193  30.220  1.00  0.00     0.022 A 
BRANCH  96  99
ATOM     99  S   UNL A   1      44.544  37.192  27.759  1.00  0.00     0.127 S 
ATOM    100  O   UNL A   1      45.566  36.858  26.768  1.00  0.00    -0.237 OA
ATOM    101  O   UNL A   1      43.167  37.010  27.301  1.00  0.00    -0.237 OA
ATOM    102  O   UNL A   1      44.783  38.422  28.500  1.00  0.00    -0.744 OA
ENDBRANCH  96  99
ENDBRANCH  69  92
ENDBRANCH  43  44
ENDBRANCH  36  38
ENDBRANCH  35  36
ENDBRANCH  34  35
ENDBRANCH  33  34
ENDBRANCH  32  33
ENDBRANCH  31  32
ENDBRANCH  30  31
ENDBRANCH   1  30
TORSDOF 27
ENDMDL
MODEL 3
REMARK VINA RESULT:      -8.5      3.018      5.181
REMARK SMILES CC(C)CSc1cc2c(cc1Cl)C=C(C(=O)OCCOCCOCCOCCOC(=O)c1ccc(-c3c4nc(c(-c5cccc(S(=O)(=O)[O-])c5F)c5ccc([nH]5)c(-c5cccc(S(=O)(=O)[O-])c5F)c5nc(c(-c6cccc(S(=O)(=O)[O-])c6F)c6ccc3[nH]6)C=C5)C=C4)cc1)[C@@H](C(F)(F)F)O2
REMARK SMILES IDX 23 1 22 2 21 3 20 4 19 5 18 6 17 7 15 8 16 9 14 10 6 11 7 12
REMARK SMILES IDX 11 13 8 14 10 15 12 16 9 17 100 18 13 19 95 20 5 21 4 22
REMARK SMILES IDX 2 23 1 24 3 25 96 26 97 27 98 28 99 29 24 30 25 31 26 32
REMARK SMILES IDX 27 33 28 34 29 35 30 36 31 37 32 38 33 39 94 40 34 41 93 42
REMARK SMILES IDX 35 43 36 44 37 45 87 46 38 47 92 48 86 49 88 50 39 51 91 52
REMARK SMILES IDX 85 53 84 54 40 56 72 57 52 58 71 59 53 60 56 61 70 62 89 63
REMARK SMILES IDX 54 64 55 65 69 67 90 68 57 69 41 70 42 71 50 72 43 73 45 74
REMARK SMILES IDX 51 75 44 76 46 77 47 78 48 79 49 80 73 81 74 82 82 83 75 84
REMARK SMILES IDX 77 85 83 86 76 87 78 88 79 89 80 90 81 91 58 92 59 93 67 94
REMARK SMILES IDX 60 95 62 96 68 97 61 98 63 99 64 100 65 101 66 102
REMARK H PARENT 88 55 56 66
REMARK Flexibility Score: inf
ROOT
ATOM      1  O   UNL A   1      38.526  22.664  26.438  1.00  0.00    -0.377 OA
ENDROOT
BRANCH   1   2
ATOM      2  C   UNL A   1      38.006  22.595  25.120  1.00  0.00     0.188 C 
BRANCH   2   3
ATOM      3  C   UNL A   1      36.480  22.398  25.100  1.00  0.00     0.188 C 
BRANCH   3   4
ATOM      4  O   UNL A   1      36.015  21.539  26.134  1.00  0.00    -0.376 OA
BRANCH   4   5
ATOM      5  C   UNL A   1      34.614  21.473  26.374  1.00  0.00     0.202 C 
BRANCH   5   6
ATOM      6  C   UNL A   1      33.688  20.967  25.255  1.00  0.00     0.261 C 
BRANCH   6   7
ATOM      7  O   UNL A   1      33.710  21.726  24.034  1.00  0.00    -0.460 OA
BRANCH   7   8
ATOM      8  C   UNL A   1      32.590  22.377  23.675  1.00  0.00     0.338 C 
ATOM      9  O   UNL A   1      31.521  21.882  23.362  1.00  0.00    -0.246 OA
BRANCH   8  10
ATOM     10  C   UNL A   1      32.816  23.823  23.894  1.00  0.00     0.087 C 
ATOM     11  C   UNL A   1      32.601  28.555  25.576  1.00  0.00     0.030 A 
ATOM     12  C   UNL A   1      33.121  27.941  24.425  1.00  0.00     0.063 A 
ATOM     13  C   UNL A   1      32.119  27.730  26.610  1.00  0.00     0.055 A 
ATOM     14  C   UNL A   1      33.117  26.549  24.290  1.00  0.00     0.129 A 
ATOM     15  C   UNL A   1      32.108  26.338  26.467  1.00  0.00     0.033 A 
ATOM     16  Cl  UNL A   1      31.498  28.364  28.099  1.00  0.00    -0.083 Cl
ATOM     17  C   UNL A   1      32.568  25.749  25.288  1.00  0.00     0.019 A 
ATOM     18  O   UNL A   1      33.646  26.057  23.132  1.00  0.00    -0.475 OA
ATOM     19  C   UNL A   1      32.395  24.325  25.061  1.00  0.00     0.027 C 
ATOM     20  C   UNL A   1      33.544  24.630  22.847  1.00  0.00     0.316 C 
BRANCH  11  21
ATOM     21  S   UNL A   1      32.434  30.341  25.657  1.00  0.00    -0.124 SA
BRANCH  21  22
ATOM     22  C   UNL A   1      30.657  30.627  25.351  1.00  0.00     0.078 C 
BRANCH  22  23
ATOM     23  C   UNL A   1      30.211  30.318  23.912  1.00  0.00    -0.007 C 
ATOM     24  C   UNL A   1      29.804  28.857  23.715  1.00  0.00     0.008 C 
ATOM     25  C   UNL A   1      29.031  31.225  23.547  1.00  0.00     0.008 C 
ENDBRANCH  22  23
ENDBRANCH  21  22
ENDBRANCH  11  21
BRANCH  20  26
ATOM     26  C   UNL A   1      32.928  24.482  21.449  1.00  0.00     0.430 C 
ATOM     27  F   UNL A   1      31.575  24.458  21.512  1.00  0.00    -0.167 F 
ATOM     28  F   UNL A   1      33.264  25.500  20.626  1.00  0.00    -0.167 F 
ATOM     29  F   UNL A   1      33.325  23.332  20.854  1.00  0.00    -0.167 F 
ENDBRANCH  20  26
ENDBRANCH   8  10
ENDBRANCH   7   8
ENDBRANCH   6   7
ENDBRANCH   5   6
ENDBRANCH   4   5
ENDBRANCH   3   4
ENDBRANCH   2   3
ENDBRANCH   1   2
BRANCH   1  30
ATOM     30  C   UNL A   1      39.833  22.132  26.654  1.00  0.00     0.188 C 
BRANCH  30  31
ATOM     31  C   UNL A   1      40.293  20.830  25.960  1.00  0.00     0.188 C 
BRANCH  31  32
ATOM     32  O   UNL A   1      41.691  20.569  26.103  1.00  0.00    -0.376 OA
BRANCH  32  33
ATOM     33  C   UNL A   1      42.051  19.242  26.469  1.00  0.00     0.202 C 
BRANCH  33  34
ATOM     34  C   UNL A   1      43.321  18.734  25.776  1.00  0.00     0.261 C 
BRANCH  34  35
ATOM     35  O   UNL A   1      43.664  19.411  24.558  1.00  0.00    -0.460 OA
BRANCH  35  36
ATOM     36  C   UNL A   1      44.923  19.894  24.442  1.00  0.00     0.338 C 
ATOM     37  O   UNL A   1      45.864  19.353  23.891  1.00  0.00    -0.246 OA
BRANCH  36  38
ATOM     38  C   UNL A   1      44.904  21.295  24.917  1.00  0.00     0.060 A 
ATOM     39  C   UNL A   1      45.242  21.598  26.239  1.00  0.00     0.016 A 
ATOM     40  C   UNL A   1      44.505  22.308  24.035  1.00  0.00     0.016 A 
ATOM     41  C   UNL A   1      45.221  22.926  26.667  1.00  0.00     0.010 A 
ATOM     42  C   UNL A   1      44.477  23.636  24.470  1.00  0.00     0.010 A 
ATOM     43  C   UNL A   1      44.863  23.955  25.779  1.00  0.00    -0.014 A 
BRANCH  43  44
ATOM     44  C   UNL A   1      45.130  25.362  26.161  1.00  0.00     0.031 A 
ATOM     45  C   UNL A   1      44.063  26.278  26.673  1.00  0.00     0.074 A 
ATOM     46  C   UNL A   1      46.394  25.806  26.017  1.00  0.00     0.049 A 
ATOM     47  N   UNL A   1      44.196  27.490  27.148  1.00  0.00    -0.248 NA
ATOM     48  C   UNL A   1      42.678  25.787  26.650  1.00  0.00     0.031 C 
ATOM     49  C   UNL A   1      47.499  25.017  25.467  1.00  0.00     0.029 A 
ATOM     50  N   UNL A   1      46.963  27.015  26.318  1.00  0.00    -0.354 N 
ATOM     51  C   UNL A   1      42.917  27.914  27.482  1.00  0.00     0.074 A 
ATOM     52  C   UNL A   1      42.015  26.832  27.138  1.00  0.00     0.031 C 
ATOM     53  C   UNL A   1      48.616  25.757  25.483  1.00  0.00     0.029 A 
ATOM     54  C   UNL A   1      48.307  27.070  26.038  1.00  0.00     0.049 A 
ATOM     55  H   UNL A   1      46.460  27.771  26.698  1.00  0.00     0.167 HD
ATOM     56  C   UNL A   1      42.541  29.088  28.043  1.00  0.00     0.034 A 
ATOM     57  C   UNL A   1      49.203  28.059  26.222  1.00  0.00     0.034 A 
ATOM     58  C   UNL A   1      43.448  30.151  28.392  1.00  0.00     0.049 A 
ATOM     59  C   UNL A   1      48.763  29.338  26.868  1.00  0.00     0.074 A 
ATOM     60  C   UNL A   1      43.161  31.345  29.033  1.00  0.00     0.029 A 
ATOM     61  N   UNL A   1      44.807  30.159  28.124  1.00  0.00    -0.354 N 
ATOM     62  N   UNL A   1      47.575  29.659  27.319  1.00  0.00    -0.248 NA
ATOM     63  C   UNL A   1      49.784  30.375  27.064  1.00  0.00     0.031 C 
ATOM     64  C   UNL A   1      44.345  32.080  29.140  1.00  0.00     0.029 A 
ATOM     65  C   UNL A   1      45.371  31.339  28.578  1.00  0.00     0.049 A 
ATOM     66  H   UNL A   1      45.300  29.433  27.677  1.00  0.00     0.167 HD
ATOM     67  C   UNL A   1      47.709  30.925  27.872  1.00  0.00     0.074 A 
ATOM     68  C   UNL A   1      49.096  31.310  27.711  1.00  0.00     0.031 C 
ATOM     69  C   UNL A   1      46.760  31.698  28.452  1.00  0.00     0.034 A 
BRANCH  56  70
ATOM     70  C   UNL A   1      41.091  29.281  28.395  1.00  0.00     0.023 A 
ATOM     71  C   UNL A   1      40.158  29.457  27.354  1.00  0.00     0.012 A 
ATOM     72  C   UNL A   1      40.635  29.138  29.720  1.00  0.00     0.148 A 
ATOM     73  C   UNL A   1      38.792  29.493  27.626  1.00  0.00     0.002 A 
ATOM     74  C   UNL A   1      39.270  29.148  29.980  1.00  0.00     0.091 A 
ATOM     75  F   UNL A   1      41.543  28.976  30.694  1.00  0.00    -0.205 F 
ATOM     76  C   UNL A   1      38.348  29.327  28.935  1.00  0.00     0.022 A 
BRANCH  74  77
ATOM     77  S   UNL A   1      38.585  28.887  31.621  1.00  0.00     0.127 S 
ATOM     78  O   UNL A   1      37.155  28.786  31.330  1.00  0.00    -0.237 OA
ATOM     79  O   UNL A   1      39.217  27.630  32.022  1.00  0.00    -0.237 OA
ATOM     80  O   UNL A   1      38.975  30.047  32.411  1.00  0.00    -0.744 OA
ENDBRANCH  74  77
ENDBRANCH  56  70
BRANCH  57  81
ATOM     81  C   UNL A   1      50.624  27.813  25.866  1.00  0.00     0.023 A 
ATOM     82  C   UNL A   1      51.512  27.371  26.865  1.00  0.00     0.012 A 
ATOM     83  C   UNL A   1      51.067  27.909  24.534  1.00  0.00     0.148 A 
ATOM     84  C   UNL A   1      52.825  27.031  26.541  1.00  0.00     0.002 A 
ATOM     85  C   UNL A   1      52.365  27.531  24.213  1.00  0.00     0.091 A 
ATOM     86  F   UNL A   1      50.196  28.328  23.606  1.00  0.00    -0.205 F 
ATOM     87  C   UNL A   1      53.248  27.100  25.216  1.00  0.00     0.022 A 
BRANCH  85  88
ATOM     88  S   UNL A   1      52.968  27.480  22.522  1.00  0.00     0.127 S 
ATOM     89  O   UNL A   1      53.523  26.130  22.445  1.00  0.00    -0.237 OA
ATOM     90  O   UNL A   1      51.736  27.684  21.759  1.00  0.00    -0.237 OA
ATOM     91  O   UNL A   1      53.936  28.560  22.411  1.00  0.00    -0.744 OA
ENDBRANCH  85  88
ENDBRANCH  57  81
BRANCH  69  92
ATOM     92  C   UNL A   1      47.168  33.048  28.975  1.00  0.00     0.023 A 
ATOM     93  C   UNL A   1      47.721  33.148  30.265  1.00  0.00     0.012 A 
ATOM     94  C   UNL A   1      47.130  34.182  28.141  1.00  0.00     0.148 A 
ATOM     95  C   UNL A   1      48.231  34.363  30.721  1.00  0.00     0.002 A 
ATOM     96  C   UNL A   1      47.670  35.381  28.590  1.00  0.00     0.091 A 
ATOM     97  F   UNL A   1      46.591  34.058  26.919  1.00  0.00    -0.205 F 
ATOM     98  C   UNL A   1      48.218  35.474  29.881  1.00  0.00     0.022 A 
BRANCH  96  99
ATOM     99  S   UNL A   1      47.766  36.850  27.559  1.00  0.00     0.127 S 
ATOM    100  O   UNL A   1      48.794  37.629  28.247  1.00  0.00    -0.237 OA
ATOM    101  O   UNL A   1      48.181  36.293  26.271  1.00  0.00    -0.237 OA
ATOM    102  O   UNL A   1      46.435  37.440  27.569  1.00  0.00    -0.744 OA
ENDBRANCH  96  99
ENDBRANCH  69  92
ENDBRANCH  43  44
ENDBRANCH  36  38
ENDBRANCH  35  36
ENDBRANCH  34  35
ENDBRANCH  33  34
ENDBRANCH  32  33
ENDBRANCH  31  32
ENDBRANCH  30  31
ENDBRANCH   1  30
TORSDOF 27
ENDMDL
