MODEL 1
REMARK VINA RESULT:     -10.1      0.000      0.000
REMARK SMILES COc1ccc(CC(=O)N[C@H](C)C(=O)OCCOCCOCCOCCOC(=O)c2ccc(-c3c4nc(c(-c5cccc(S(=O)(=O)[O-])c5F)c5ccc([nH]5)c(-c5cccc(S(=O)(=O)[O-])c5F)c5nc(c(-c6cccc(S(=O)(=O)[O-])c6F)c6ccc3[nH]6)C=C5)C=C4)cc2)cc1F
REMARK SMILES IDX 20 1 19 2 18 3 17 4 16 5 15 6 13 7 14 8 11 9 12 10 10 11
REMARK SMILES IDX 8 12 9 13 7 15 6 16 3 17 4 18 94 19 5 20 93 21 95 22 2 23
REMARK SMILES IDX 1 24 21 25 22 26 23 27 24 28 25 29 26 30 27 31 28 32 29 33
REMARK SMILES IDX 30 34 31 35 92 36 32 37 91 38 33 39 34 40 35 41 85 42 36 43
REMARK SMILES IDX 90 44 84 45 86 46 37 47 89 48 83 49 82 50 38 52 70 53 50 54
REMARK SMILES IDX 69 55 51 56 54 57 68 58 87 59 52 60 53 61 67 63 88 64 55 65
REMARK SMILES IDX 39 66 40 67 48 68 41 69 43 70 49 71 42 72 44 73 45 74 46 75
REMARK SMILES IDX 47 76 71 77 72 78 80 79 73 80 75 81 81 82 74 83 76 84 77 85
REMARK SMILES IDX 78 86 79 87 56 88 57 89 65 90 58 91 60 92 66 93 59 94 61 95
REMARK SMILES IDX 62 96 63 97 64 98
REMARK H PARENT 10 14 86 51 54 62
REMARK Flexibility Score: inf
ROOT
ATOM      1  C   UNL A   1      34.902  31.366  28.377  1.00  0.00     0.188 C 
ENDROOT
BRANCH   1   2
ATOM      2  C   UNL A   1      34.118  30.585  27.307  1.00  0.00     0.188 C 
BRANCH   2   3
ATOM      3  O   UNL A   1      32.721  30.889  27.273  1.00  0.00    -0.376 OA
BRANCH   3   4
ATOM      4  C   UNL A   1      31.926  30.267  26.268  1.00  0.00     0.202 C 
BRANCH   4   5
ATOM      5  C   UNL A   1      32.699  29.720  25.069  1.00  0.00     0.261 C 
BRANCH   5   6
ATOM      6  O   UNL A   1      32.170  28.430  24.744  1.00  0.00    -0.462 OA
BRANCH   6   7
ATOM      7  C   UNL A   1      32.646  27.319  25.343  1.00  0.00     0.328 C 
ATOM      8  O   UNL A   1      33.487  27.297  26.228  1.00  0.00    -0.250 OA
BRANCH   7   9
ATOM      9  C   UNL A   1      31.880  26.100  24.785  1.00  0.00     0.189 C 
ATOM     10  C   UNL A   1      30.366  26.286  24.831  1.00  0.00     0.043 C 
BRANCH   9  11
ATOM     11  N   UNL A   1      32.355  25.846  23.430  1.00  0.00    -0.343 N 
ATOM     12  C   UNL A   1      33.520  25.244  23.057  1.00  0.00     0.225 C 
ATOM     13  O   UNL A   1      33.914  25.385  21.898  1.00  0.00    -0.275 OA
ATOM     14  H   UNL A   1      31.766  26.145  22.700  1.00  0.00     0.164 HD
BRANCH  12  15
ATOM     15  C   UNL A   1      34.250  24.326  24.022  1.00  0.00     0.135 C 
BRANCH  15  16
ATOM     16  C   UNL A   1      33.748  22.906  24.165  1.00  0.00    -0.036 A 
ATOM     17  C   UNL A   1      32.903  20.226  24.558  1.00  0.00     0.154 A 
ATOM     18  C   UNL A   1      31.977  21.247  24.316  1.00  0.00     0.050 A 
ATOM     19  C   UNL A   1      34.254  20.563  24.616  1.00  0.00     0.165 A 
ATOM     20  C   UNL A   1      32.389  22.574  24.130  1.00  0.00     0.008 A 
ATOM     21  C   UNL A   1      34.672  21.883  24.427  1.00  0.00     0.047 A 
ATOM     22  F   UNL A   1      35.205  19.640  24.821  1.00  0.00    -0.203 F 
BRANCH  17  23
ATOM     23  O   UNL A   1      32.353  18.979  24.672  1.00  0.00    -0.494 OA
ATOM     24  C   UNL A   1      32.714  18.210  25.814  1.00  0.00     0.278 C 
ENDBRANCH  17  23
ENDBRANCH  15  16
ENDBRANCH  12  15
ENDBRANCH   9  11
ENDBRANCH   7   9
ENDBRANCH   6   7
ENDBRANCH   5   6
ENDBRANCH   4   5
ENDBRANCH   3   4
ENDBRANCH   2   3
ENDBRANCH   1   2
BRANCH   1  25
ATOM     25  O   UNL A   1      34.161  32.329  29.104  1.00  0.00    -0.377 OA
BRANCH  25  26
ATOM     26  C   UNL A   1      34.420  33.674  28.727  1.00  0.00     0.188 C 
BRANCH  26  27
ATOM     27  C   UNL A   1      33.589  34.684  29.537  1.00  0.00     0.188 C 
BRANCH  27  28
ATOM     28  O   UNL A   1      33.358  34.513  30.929  1.00  0.00    -0.376 OA
BRANCH  28  29
ATOM     29  C   UNL A   1      34.384  34.683  31.890  1.00  0.00     0.202 C 
BRANCH  29  30
ATOM     30  C   UNL A   1      34.496  33.809  33.156  1.00  0.00     0.261 C 
BRANCH  30  31
ATOM     31  O   UNL A   1      35.139  32.539  33.044  1.00  0.00    -0.460 OA
BRANCH  31  32
ATOM     32  C   UNL A   1      36.334  32.411  33.659  1.00  0.00     0.338 C 
ATOM     33  O   UNL A   1      36.610  32.725  34.804  1.00  0.00    -0.246 OA
BRANCH  32  34
ATOM     34  C   UNL A   1      37.227  31.647  32.755  1.00  0.00     0.060 A 
ATOM     35  C   UNL A   1      38.208  30.824  33.324  1.00  0.00     0.016 A 
ATOM     36  C   UNL A   1      37.083  31.712  31.364  1.00  0.00     0.016 A 
ATOM     37  C   UNL A   1      39.069  30.093  32.507  1.00  0.00     0.010 A 
ATOM     38  C   UNL A   1      37.966  31.002  30.545  1.00  0.00     0.010 A 
ATOM     39  C   UNL A   1      38.985  30.221  31.114  1.00  0.00    -0.014 A 
BRANCH  39  40
ATOM     40  C   UNL A   1      40.113  29.739  30.284  1.00  0.00     0.031 A 
ATOM     41  C   UNL A   1      41.335  30.612  30.186  1.00  0.00     0.074 A 
ATOM     42  C   UNL A   1      40.078  28.549  29.656  1.00  0.00     0.049 A 
ATOM     43  N   UNL A   1      42.463  30.390  29.568  1.00  0.00    -0.248 NA
ATOM     44  C   UNL A   1      41.276  31.910  30.884  1.00  0.00     0.031 C 
ATOM     45  C   UNL A   1      38.955  27.614  29.677  1.00  0.00     0.029 A 
ATOM     46  N   UNL A   1      41.017  27.934  28.866  1.00  0.00    -0.354 N 
ATOM     47  C   UNL A   1      43.243  31.517  29.795  1.00  0.00     0.074 A 
ATOM     48  C   UNL A   1      42.456  32.432  30.588  1.00  0.00     0.031 C 
ATOM     49  C   UNL A   1      39.264  26.549  28.916  1.00  0.00     0.029 A 
ATOM     50  C   UNL A   1      40.600  26.732  28.347  1.00  0.00     0.049 A 
ATOM     51  H   UNL A   1      41.905  28.318  28.687  1.00  0.00     0.167 HD
ATOM     52  C   UNL A   1      44.513  31.759  29.398  1.00  0.00     0.034 A 
ATOM     53  C   UNL A   1      41.225  25.881  27.505  1.00  0.00     0.034 A 
ATOM     54  C   UNL A   1      45.303  30.845  28.624  1.00  0.00     0.049 A 
ATOM     55  C   UNL A   1      42.628  26.191  27.048  1.00  0.00     0.074 A 
ATOM     56  C   UNL A   1      46.615  30.986  28.211  1.00  0.00     0.029 A 
ATOM     57  N   UNL A   1      44.853  29.630  28.135  1.00  0.00    -0.354 N 
ATOM     58  N   UNL A   1      43.401  27.198  27.379  1.00  0.00    -0.248 NA
ATOM     59  C   UNL A   1      43.261  25.233  26.126  1.00  0.00     0.031 C 
ATOM     60  C   UNL A   1      46.952  29.864  27.449  1.00  0.00     0.029 A 
ATOM     61  C   UNL A   1      45.857  29.015  27.410  1.00  0.00     0.049 A 
ATOM     62  H   UNL A   1      43.953  29.259  28.282  1.00  0.00     0.167 HD
ATOM     63  C   UNL A   1      44.616  26.979  26.736  1.00  0.00     0.074 A 
ATOM     64  C   UNL A   1      44.484  25.736  26.007  1.00  0.00     0.031 C 
ATOM     65  C   UNL A   1      45.733  27.747  26.738  1.00  0.00     0.034 A 
BRANCH  52  66
ATOM     66  C   UNL A   1      45.148  33.049  29.833  1.00  0.00     0.023 A 
ATOM     67  C   UNL A   1      45.024  34.189  29.014  1.00  0.00     0.012 A 
ATOM     68  C   UNL A   1      45.790  33.156  31.081  1.00  0.00     0.148 A 
ATOM     69  C   UNL A   1      45.546  35.415  29.423  1.00  0.00     0.002 A 
ATOM     70  C   UNL A   1      46.272  34.390  31.500  1.00  0.00     0.091 A 
ATOM     71  F   UNL A   1      45.919  32.051  31.829  1.00  0.00    -0.205 F 
ATOM     72  C   UNL A   1      46.156  35.517  30.670  1.00  0.00     0.022 A 
BRANCH  70  73
ATOM     73  S   UNL A   1      47.006  34.643  33.119  1.00  0.00     0.127 S 
ATOM     74  O   UNL A   1      46.069  35.589  33.722  1.00  0.00    -0.237 OA
ATOM     75  O   UNL A   1      46.964  33.296  33.689  1.00  0.00    -0.237 OA
ATOM     76  O   UNL A   1      48.345  35.162  32.878  1.00  0.00    -0.744 OA
ENDBRANCH  70  73
ENDBRANCH  52  66
BRANCH  53  77
ATOM     77  C   UNL A   1      40.543  24.625  27.082  1.00  0.00     0.023 A 
ATOM     78  C   UNL A   1      39.247  24.688  26.535  1.00  0.00     0.012 A 
ATOM     79  C   UNL A   1      41.184  23.374  27.185  1.00  0.00     0.148 A 
ATOM     80  C   UNL A   1      38.593  23.529  26.115  1.00  0.00     0.002 A 
ATOM     81  C   UNL A   1      40.549  22.230  26.714  1.00  0.00     0.091 A 
ATOM     82  F   UNL A   1      42.407  23.331  27.729  1.00  0.00    -0.205 F 
ATOM     83  C   UNL A   1      39.248  22.302  26.193  1.00  0.00     0.022 A 
BRANCH  81  84
ATOM     84  S   UNL A   1      41.367  20.632  26.652  1.00  0.00     0.127 S 
ATOM     85  O   UNL A   1      40.279  19.753  26.234  1.00  0.00    -0.237 OA
ATOM     86  O   UNL A   1      42.399  20.862  25.640  1.00  0.00    -0.237 OA
ATOM     87  O   UNL A   1      41.886  20.404  27.994  1.00  0.00    -0.744 OA
ENDBRANCH  81  84
ENDBRANCH  53  77
BRANCH  65  88
ATOM     88  C   UNL A   1      46.929  27.279  25.949  1.00  0.00     0.023 A 
ATOM     89  C   UNL A   1      47.745  26.256  26.468  1.00  0.00     0.012 A 
ATOM     90  C   UNL A   1      47.152  27.745  24.636  1.00  0.00     0.148 A 
ATOM     91  C   UNL A   1      48.772  25.711  25.700  1.00  0.00     0.002 A 
ATOM     92  C   UNL A   1      48.147  27.165  23.860  1.00  0.00     0.091 A 
ATOM     93  F   UNL A   1      46.370  28.728  24.167  1.00  0.00    -0.205 F 
ATOM     94  C   UNL A   1      48.964  26.154  24.392  1.00  0.00     0.022 A 
BRANCH  92  95
ATOM     95  S   UNL A   1      48.398  27.594  22.133  1.00  0.00     0.127 S 
ATOM     96  O   UNL A   1      48.644  26.283  21.532  1.00  0.00    -0.237 OA
ATOM     97  O   UNL A   1      47.113  28.197  21.773  1.00  0.00    -0.237 OA
ATOM     98  O   UNL A   1      49.526  28.514  22.105  1.00  0.00    -0.744 OA
ENDBRANCH  92  95
ENDBRANCH  65  88
ENDBRANCH  39  40
ENDBRANCH  32  34
ENDBRANCH  31  32
ENDBRANCH  30  31
ENDBRANCH  29  30
ENDBRANCH  28  29
ENDBRANCH  27  28
ENDBRANCH  26  27
ENDBRANCH  25  26
ENDBRANCH   1  25
TORSDOF 27
ENDMDL
MODEL 2
REMARK VINA RESULT:      -9.2      4.378      5.721
REMARK SMILES COc1ccc(CC(=O)N[C@H](C)C(=O)OCCOCCOCCOCCOC(=O)c2ccc(-c3c4nc(c(-c5cccc(S(=O)(=O)[O-])c5F)c5ccc([nH]5)c(-c5cccc(S(=O)(=O)[O-])c5F)c5nc(c(-c6cccc(S(=O)(=O)[O-])c6F)c6ccc3[nH]6)C=C5)C=C4)cc2)cc1F
REMARK SMILES IDX 20 1 19 2 18 3 17 4 16 5 15 6 13 7 14 8 11 9 12 10 10 11
REMARK SMILES IDX 8 12 9 13 7 15 6 16 3 17 4 18 94 19 5 20 93 21 95 22 2 23
REMARK SMILES IDX 1 24 21 25 22 26 23 27 24 28 25 29 26 30 27 31 28 32 29 33
REMARK SMILES IDX 30 34 31 35 92 36 32 37 91 38 33 39 34 40 35 41 85 42 36 43
REMARK SMILES IDX 90 44 84 45 86 46 37 47 89 48 83 49 82 50 38 52 70 53 50 54
REMARK SMILES IDX 69 55 51 56 54 57 68 58 87 59 52 60 53 61 67 63 88 64 55 65
REMARK SMILES IDX 39 66 40 67 48 68 41 69 43 70 49 71 42 72 44 73 45 74 46 75
REMARK SMILES IDX 47 76 71 77 72 78 80 79 73 80 75 81 81 82 74 83 76 84 77 85
REMARK SMILES IDX 78 86 79 87 56 88 57 89 65 90 58 91 60 92 66 93 59 94 61 95
REMARK SMILES IDX 62 96 63 97 64 98
REMARK H PARENT 10 14 86 51 54 62
REMARK Flexibility Score: inf
ROOT
ATOM      1  C   UNL A   1      34.449  33.643  30.007  1.00  0.00     0.188 C 
ENDROOT
BRANCH   1   2
ATOM      2  C   UNL A   1      34.450  33.568  28.471  1.00  0.00     0.188 C 
BRANCH   2   3
ATOM      3  O   UNL A   1      35.700  33.156  27.911  1.00  0.00    -0.376 OA
BRANCH   3   4
ATOM      4  C   UNL A   1      35.904  31.764  27.683  1.00  0.00     0.202 C 
BRANCH   4   5
ATOM      5  C   UNL A   1      34.739  30.860  28.082  1.00  0.00     0.261 C 
BRANCH   5   6
ATOM      6  O   UNL A   1      33.931  30.629  26.923  1.00  0.00    -0.462 OA
BRANCH   6   7
ATOM      7  C   UNL A   1      32.997  29.656  26.915  1.00  0.00     0.328 C 
ATOM      8  O   UNL A   1      33.091  28.581  27.487  1.00  0.00    -0.250 OA
BRANCH   7   9
ATOM      9  C   UNL A   1      31.765  30.171  26.143  1.00  0.00     0.189 C 
ATOM     10  C   UNL A   1      31.401  31.608  26.506  1.00  0.00     0.043 C 
BRANCH   9  11
ATOM     11  N   UNL A   1      32.027  30.022  24.716  1.00  0.00    -0.343 N 
ATOM     12  C   UNL A   1      31.723  28.955  23.922  1.00  0.00     0.225 C 
ATOM     13  O   UNL A   1      32.282  28.854  22.829  1.00  0.00    -0.275 OA
ATOM     14  H   UNL A   1      32.476  30.779  24.275  1.00  0.00     0.164 HD
BRANCH  12  15
ATOM     15  C   UNL A   1      30.633  27.981  24.334  1.00  0.00     0.135 C 
BRANCH  15  16
ATOM     16  C   UNL A   1      31.027  26.542  24.583  1.00  0.00    -0.036 A 
ATOM     17  C   UNL A   1      31.783  23.826  24.893  1.00  0.00     0.154 A 
ATOM     18  C   UNL A   1      32.323  24.823  25.713  1.00  0.00     0.050 A 
ATOM     19  C   UNL A   1      30.874  24.203  23.908  1.00  0.00     0.165 A 
ATOM     20  C   UNL A   1      31.958  26.168  25.558  1.00  0.00     0.008 A 
ATOM     21  C   UNL A   1      30.503  25.542  23.750  1.00  0.00     0.047 A 
ATOM     22  F   UNL A   1      30.296  23.305  23.097  1.00  0.00    -0.203 F 
BRANCH  17  23
ATOM     23  O   UNL A   1      32.199  22.558  25.197  1.00  0.00    -0.494 OA
ATOM     24  C   UNL A   1      33.422  22.117  24.615  1.00  0.00     0.278 C 
ENDBRANCH  17  23
ENDBRANCH  15  16
ENDBRANCH  12  15
ENDBRANCH   9  11
ENDBRANCH   7   9
ENDBRANCH   6   7
ENDBRANCH   5   6
ENDBRANCH   4   5
ENDBRANCH   3   4
ENDBRANCH   2   3
ENDBRANCH   1   2
BRANCH   1  25
ATOM     25  O   UNL A   1      33.453  34.467  30.584  1.00  0.00    -0.377 OA
BRANCH  25  26
ATOM     26  C   UNL A   1      33.219  35.682  29.885  1.00  0.00     0.188 C 
BRANCH  26  27
ATOM     27  C   UNL A   1      32.907  36.856  30.829  1.00  0.00     0.188 C 
BRANCH  27  28
ATOM     28  O   UNL A   1      33.892  37.395  31.700  1.00  0.00    -0.376 OA
BRANCH  28  29
ATOM     29  C   UNL A   1      33.761  37.346  33.108  1.00  0.00     0.202 C 
BRANCH  29  30
ATOM     30  C   UNL A   1      34.258  36.154  33.952  1.00  0.00     0.261 C 
BRANCH  30  31
ATOM     31  O   UNL A   1      35.276  35.318  33.403  1.00  0.00    -0.460 OA
BRANCH  31  32
ATOM     32  C   UNL A   1      35.110  33.986  33.553  1.00  0.00     0.338 C 
ATOM     33  O   UNL A   1      34.057  33.385  33.678  1.00  0.00    -0.246 OA
BRANCH  32  34
ATOM     34  C   UNL A   1      36.432  33.342  33.359  1.00  0.00     0.060 A 
ATOM     35  C   UNL A   1      37.552  33.918  33.973  1.00  0.00     0.016 A 
ATOM     36  C   UNL A   1      36.566  32.168  32.610  1.00  0.00     0.016 A 
ATOM     37  C   UNL A   1      38.812  33.344  33.812  1.00  0.00     0.010 A 
ATOM     38  C   UNL A   1      37.834  31.610  32.423  1.00  0.00     0.010 A 
ATOM     39  C   UNL A   1      38.965  32.219  32.992  1.00  0.00    -0.014 A 
BRANCH  39  40
ATOM     40  C   UNL A   1      40.326  31.844  32.541  1.00  0.00     0.031 A 
ATOM     41  C   UNL A   1      40.995  32.729  31.525  1.00  0.00     0.074 A 
ATOM     42  C   UNL A   1      40.969  30.770  33.035  1.00  0.00     0.049 A 
ATOM     43  N   UNL A   1      42.195  32.643  31.016  1.00  0.00    -0.248 NA
ATOM     44  C   UNL A   1      40.207  33.868  31.020  1.00  0.00     0.031 C 
ATOM     45  C   UNL A   1      40.428  29.840  34.023  1.00  0.00     0.029 A 
ATOM     46  N   UNL A   1      42.220  30.278  32.755  1.00  0.00    -0.354 N 
ATOM     47  C   UNL A   1      42.302  33.706  30.128  1.00  0.00     0.074 A 
ATOM     48  C   UNL A   1      41.042  34.413  30.149  1.00  0.00     0.031 C 
ATOM     49  C   UNL A   1      41.338  28.876  34.254  1.00  0.00     0.029 A 
ATOM     50  C   UNL A   1      42.519  29.115  33.423  1.00  0.00     0.049 A 
ATOM     51  H   UNL A   1      42.845  30.717  32.134  1.00  0.00     0.167 HD
ATOM     52  C   UNL A   1      43.365  34.076  29.378  1.00  0.00     0.034 A 
ATOM     53  C   UNL A   1      43.617  28.333  33.365  1.00  0.00     0.034 A 
ATOM     54  C   UNL A   1      44.622  33.385  29.367  1.00  0.00     0.049 A 
ATOM     55  C   UNL A   1      44.776  28.748  32.493  1.00  0.00     0.074 A 
ATOM     56  C   UNL A   1      45.771  33.711  28.670  1.00  0.00     0.029 A 
ATOM     57  N   UNL A   1      44.892  32.223  30.071  1.00  0.00    -0.354 N 
ATOM     58  N   UNL A   1      44.912  29.828  31.761  1.00  0.00    -0.248 NA
ATOM     59  C   UNL A   1      45.946  27.856  32.462  1.00  0.00     0.031 C 
ATOM     60  C   UNL A   1      46.732  32.732  28.936  1.00  0.00     0.029 A 
ATOM     61  C   UNL A   1      46.186  31.810  29.816  1.00  0.00     0.049 A 
ATOM     62  H   UNL A   1      44.257  31.762  30.666  1.00  0.00     0.167 HD
ATOM     63  C   UNL A   1      46.188  29.762  31.211  1.00  0.00     0.074 A 
ATOM     64  C   UNL A   1      46.793  28.544  31.706  1.00  0.00     0.031 C 
ATOM     65  C   UNL A   1      46.798  30.625  30.362  1.00  0.00     0.034 A 
BRANCH  52  66
ATOM     66  C   UNL A   1      43.230  35.313  28.537  1.00  0.00     0.023 A 
ATOM     67  C   UNL A   1      42.604  35.227  27.277  1.00  0.00     0.012 A 
ATOM     68  C   UNL A   1      43.646  36.568  29.023  1.00  0.00     0.148 A 
ATOM     69  C   UNL A   1      42.406  36.370  26.505  1.00  0.00     0.002 A 
ATOM     70  C   UNL A   1      43.409  37.708  28.265  1.00  0.00     0.091 A 
ATOM     71  F   UNL A   1      44.264  36.620  30.211  1.00  0.00    -0.205 F 
ATOM     72  C   UNL A   1      42.796  37.610  27.005  1.00  0.00     0.022 A 
BRANCH  70  73
ATOM     73  S   UNL A   1      43.805  39.358  28.851  1.00  0.00     0.127 S 
ATOM     74  O   UNL A   1      43.055  39.412  30.105  1.00  0.00    -0.237 OA
ATOM     75  O   UNL A   1      45.257  39.287  29.011  1.00  0.00    -0.237 OA
ATOM     76  O   UNL A   1      43.349  40.274  27.815  1.00  0.00    -0.744 OA
ENDBRANCH  70  73
ENDBRANCH  52  66
BRANCH  53  77
ATOM     77  C   UNL A   1      43.693  27.100  34.200  1.00  0.00     0.023 A 
ATOM     78  C   UNL A   1      43.435  25.846  33.613  1.00  0.00     0.012 A 
ATOM     79  C   UNL A   1      44.052  27.159  35.561  1.00  0.00     0.148 A 
ATOM     80  C   UNL A   1      43.516  24.676  34.368  1.00  0.00     0.002 A 
ATOM     81  C   UNL A   1      44.184  25.985  36.295  1.00  0.00     0.091 A 
ATOM     82  F   UNL A   1      44.270  28.363  36.108  1.00  0.00    -0.205 F 
ATOM     83  C   UNL A   1      43.902  24.743  35.705  1.00  0.00     0.022 A 
BRANCH  81  84
ATOM     84  S   UNL A   1      44.805  25.968  37.980  1.00  0.00     0.127 S 
ATOM     85  O   UNL A   1      46.077  26.670  37.839  1.00  0.00    -0.237 OA
ATOM     86  O   UNL A   1      43.764  26.713  38.690  1.00  0.00    -0.237 OA
ATOM     87  O   UNL A   1      44.894  24.563  38.352  1.00  0.00    -0.744 OA
ENDBRANCH  81  84
ENDBRANCH  53  77
BRANCH  65  88
ATOM     88  C   UNL A   1      48.202  30.318  29.909  1.00  0.00     0.023 A 
ATOM     89  C   UNL A   1      49.289  30.679  30.728  1.00  0.00     0.012 A 
ATOM     90  C   UNL A   1      48.432  29.544  28.753  1.00  0.00     0.148 A 
ATOM     91  C   UNL A   1      50.585  30.285  30.399  1.00  0.00     0.002 A 
ATOM     92  C   UNL A   1      49.720  29.115  28.457  1.00  0.00     0.091 A 
ATOM     93  F   UNL A   1      47.384  29.222  27.981  1.00  0.00    -0.205 F 
ATOM     94  C   UNL A   1      50.799  29.491  29.273  1.00  0.00     0.022 A 
BRANCH  92  95
ATOM     95  S   UNL A   1      50.077  28.003  27.091  1.00  0.00     0.127 S 
ATOM     96  O   UNL A   1      49.210  26.866  27.398  1.00  0.00    -0.237 OA
ATOM     97  O   UNL A   1      49.660  28.791  25.931  1.00  0.00    -0.237 OA
ATOM     98  O   UNL A   1      51.506  27.731  27.155  1.00  0.00    -0.744 OA
ENDBRANCH  92  95
ENDBRANCH  65  88
ENDBRANCH  39  40
ENDBRANCH  32  34
ENDBRANCH  31  32
ENDBRANCH  30  31
ENDBRANCH  29  30
ENDBRANCH  28  29
ENDBRANCH  27  28
ENDBRANCH  26  27
ENDBRANCH  25  26
ENDBRANCH   1  25
TORSDOF 27
ENDMDL
MODEL 3
REMARK VINA RESULT:      -8.8      4.319      5.916
REMARK SMILES COc1ccc(CC(=O)N[C@H](C)C(=O)OCCOCCOCCOCCOC(=O)c2ccc(-c3c4nc(c(-c5cccc(S(=O)(=O)[O-])c5F)c5ccc([nH]5)c(-c5cccc(S(=O)(=O)[O-])c5F)c5nc(c(-c6cccc(S(=O)(=O)[O-])c6F)c6ccc3[nH]6)C=C5)C=C4)cc2)cc1F
REMARK SMILES IDX 20 1 19 2 18 3 17 4 16 5 15 6 13 7 14 8 11 9 12 10 10 11
REMARK SMILES IDX 8 12 9 13 7 15 6 16 3 17 4 18 94 19 5 20 93 21 95 22 2 23
REMARK SMILES IDX 1 24 21 25 22 26 23 27 24 28 25 29 26 30 27 31 28 32 29 33
REMARK SMILES IDX 30 34 31 35 92 36 32 37 91 38 33 39 34 40 35 41 85 42 36 43
REMARK SMILES IDX 90 44 84 45 86 46 37 47 89 48 83 49 82 50 38 52 70 53 50 54
REMARK SMILES IDX 69 55 51 56 54 57 68 58 87 59 52 60 53 61 67 63 88 64 55 65
REMARK SMILES IDX 39 66 40 67 48 68 41 69 43 70 49 71 42 72 44 73 45 74 46 75
REMARK SMILES IDX 47 76 71 77 72 78 80 79 73 80 75 81 81 82 74 83 76 84 77 85
REMARK SMILES IDX 78 86 79 87 56 88 57 89 65 90 58 91 60 92 66 93 59 94 61 95
REMARK SMILES IDX 62 96 63 97 64 98
REMARK H PARENT 10 14 86 51 54 62
REMARK Flexibility Score: inf
ROOT
ATOM      1  C   UNL A   1      31.719  27.583  26.928  1.00  0.00     0.188 C 
ENDROOT
BRANCH   1   2
ATOM      2  C   UNL A   1      31.888  26.084  26.626  1.00  0.00     0.188 C 
BRANCH   2   3
ATOM      3  O   UNL A   1      30.654  25.387  26.440  1.00  0.00    -0.376 OA
BRANCH   3   4
ATOM      4  C   UNL A   1      30.629  24.307  25.511  1.00  0.00     0.202 C 
BRANCH   4   5
ATOM      5  C   UNL A   1      30.637  22.911  26.132  1.00  0.00     0.261 C 
BRANCH   5   6
ATOM      6  O   UNL A   1      31.950  22.359  25.981  1.00  0.00    -0.462 OA
BRANCH   6   7
ATOM      7  C   UNL A   1      32.784  22.267  27.038  1.00  0.00     0.328 C 
ATOM      8  O   UNL A   1      32.766  22.992  28.019  1.00  0.00    -0.250 OA
BRANCH   7   9
ATOM      9  C   UNL A   1      33.695  21.039  26.830  1.00  0.00     0.189 C 
ATOM     10  C   UNL A   1      33.324  20.233  25.588  1.00  0.00     0.043 C 
BRANCH   9  11
ATOM     11  N   UNL A   1      35.078  21.500  26.785  1.00  0.00    -0.343 N 
ATOM     12  C   UNL A   1      35.853  21.695  25.679  1.00  0.00     0.225 C 
ATOM     13  O   UNL A   1      37.073  21.782  25.821  1.00  0.00    -0.275 OA
ATOM     14  H   UNL A   1      35.502  21.691  27.652  1.00  0.00     0.164 HD
BRANCH  12  15
ATOM     15  C   UNL A   1      35.207  21.916  24.323  1.00  0.00     0.135 C 
BRANCH  15  16
ATOM     16  C   UNL A   1      34.671  23.296  24.010  1.00  0.00    -0.036 A 
ATOM     17  C   UNL A   1      33.523  25.817  23.398  1.00  0.00     0.154 A 
ATOM     18  C   UNL A   1      34.358  25.655  24.509  1.00  0.00     0.050 A 
ATOM     19  C   UNL A   1      33.257  24.702  22.606  1.00  0.00     0.165 A 
ATOM     20  C   UNL A   1      34.921  24.408  24.820  1.00  0.00     0.008 A 
ATOM     21  C   UNL A   1      33.818  23.458  22.907  1.00  0.00     0.047 A 
ATOM     22  F   UNL A   1      32.485  24.780  21.512  1.00  0.00    -0.203 F 
BRANCH  17  23
ATOM     23  O   UNL A   1      33.090  27.099  23.198  1.00  0.00    -0.494 OA
ATOM     24  C   UNL A   1      33.803  27.888  22.252  1.00  0.00     0.278 C 
ENDBRANCH  17  23
ENDBRANCH  15  16
ENDBRANCH  12  15
ENDBRANCH   9  11
ENDBRANCH   7   9
ENDBRANCH   6   7
ENDBRANCH   5   6
ENDBRANCH   4   5
ENDBRANCH   3   4
ENDBRANCH   2   3
ENDBRANCH   1   2
BRANCH   1  25
ATOM     25  O   UNL A   1      32.830  28.404  26.619  1.00  0.00    -0.377 OA
BRANCH  25  26
ATOM     26  C   UNL A   1      32.553  29.437  25.683  1.00  0.00     0.188 C 
BRANCH  26  27
ATOM     27  C   UNL A   1      32.226  30.777  26.362  1.00  0.00     0.188 C 
BRANCH  27  28
ATOM     28  O   UNL A   1      32.898  31.200  27.542  1.00  0.00    -0.376 OA
BRANCH  28  29
ATOM     29  C   UNL A   1      34.259  31.588  27.535  1.00  0.00     0.202 C 
BRANCH  29  30
ATOM     30  C   UNL A   1      34.945  32.250  28.748  1.00  0.00     0.261 C 
BRANCH  30  31
ATOM     31  O   UNL A   1      34.913  31.562  29.999  1.00  0.00    -0.460 OA
BRANCH  31  32
ATOM     32  C   UNL A   1      35.377  32.238  31.072  1.00  0.00     0.338 C 
ATOM     33  O   UNL A   1      34.772  33.056  31.743  1.00  0.00    -0.246 OA
BRANCH  32  34
ATOM     34  C   UNL A   1      36.708  31.681  31.415  1.00  0.00     0.060 A 
ATOM     35  C   UNL A   1      37.850  32.370  30.986  1.00  0.00     0.016 A 
ATOM     36  C   UNL A   1      36.833  30.513  32.175  1.00  0.00     0.016 A 
ATOM     37  C   UNL A   1      39.119  31.877  31.286  1.00  0.00     0.010 A 
ATOM     38  C   UNL A   1      38.105  30.002  32.449  1.00  0.00     0.010 A 
ATOM     39  C   UNL A   1      39.250  30.662  31.973  1.00  0.00    -0.014 A 
BRANCH  39  40
ATOM     40  C   UNL A   1      40.564  29.976  31.965  1.00  0.00     0.031 A 
ATOM     41  C   UNL A   1      41.531  30.304  33.070  1.00  0.00     0.074 A 
ATOM     42  C   UNL A   1      40.885  29.066  31.028  1.00  0.00     0.049 A 
ATOM     43  N   UNL A   1      42.713  29.803  33.309  1.00  0.00    -0.248 NA
ATOM     44  C   UNL A   1      41.106  31.332  34.037  1.00  0.00     0.031 C 
ATOM     45  C   UNL A   1      40.034  28.663  29.912  1.00  0.00     0.029 A 
ATOM     46  N   UNL A   1      42.031  28.326  30.866  1.00  0.00    -0.354 N 
ATOM     47  C   UNL A   1      43.174  30.457  34.445  1.00  0.00     0.074 A 
ATOM     48  C   UNL A   1      42.158  31.406  34.838  1.00  0.00     0.031 C 
ATOM     49  C   UNL A   1      40.696  27.759  29.167  1.00  0.00     0.029 A 
ATOM     50  C   UNL A   1      42.019  27.529  29.747  1.00  0.00     0.049 A 
ATOM     51  H   UNL A   1      42.789  28.364  31.492  1.00  0.00     0.167 HD
ATOM     52  C   UNL A   1      44.332  30.267  35.117  1.00  0.00     0.034 A 
ATOM     53  C   UNL A   1      42.971  26.712  29.248  1.00  0.00     0.034 A 
ATOM     54  C   UNL A   1      45.336  29.315  34.739  1.00  0.00     0.049 A 
ATOM     55  C   UNL A   1      44.269  26.544  29.997  1.00  0.00     0.074 A 
ATOM     56  C   UNL A   1      46.523  29.022  35.384  1.00  0.00     0.029 A 
ATOM     57  N   UNL A   1      45.279  28.512  33.612  1.00  0.00    -0.354 N 
ATOM     58  N   UNL A   1      44.635  27.071  31.142  1.00  0.00    -0.248 NA
ATOM     59  C   UNL A   1      45.275  25.647  29.406  1.00  0.00     0.031 C 
ATOM     60  C   UNL A   1      47.198  28.056  34.632  1.00  0.00     0.029 A 
ATOM     61  C   UNL A   1      46.418  27.732  33.533  1.00  0.00     0.049 A 
ATOM     62  H   UNL A   1      44.538  28.498  32.964  1.00  0.00     0.167 HD
ATOM     63  C   UNL A   1      45.893  26.545  31.423  1.00  0.00     0.074 A 
ATOM     64  C   UNL A   1      46.222  25.646  30.336  1.00  0.00     0.031 C 
ATOM     65  C   UNL A   1      46.707  26.796  32.477  1.00  0.00     0.034 A 
BRANCH  52  66
ATOM     66  C   UNL A   1      44.559  31.077  36.362  1.00  0.00     0.023 A 
ATOM     67  C   UNL A   1      44.226  30.525  37.616  1.00  0.00     0.012 A 
ATOM     68  C   UNL A   1      45.173  32.342  36.300  1.00  0.00     0.148 A 
ATOM     69  C   UNL A   1      44.487  31.228  38.790  1.00  0.00     0.002 A 
ATOM     70  C   UNL A   1      45.467  33.019  37.477  1.00  0.00     0.091 A 
ATOM     71  F   UNL A   1      45.454  32.857  35.095  1.00  0.00    -0.205 F 
ATOM     72  C   UNL A   1      45.119  32.466  38.721  1.00  0.00     0.022 A 
BRANCH  70  73
ATOM     73  S   UNL A   1      46.345  34.585  37.500  1.00  0.00     0.127 S 
ATOM     74  O   UNL A   1      47.571  34.244  36.778  1.00  0.00    -0.237 OA
ATOM     75  O   UNL A   1      45.431  35.461  36.768  1.00  0.00    -0.237 OA
ATOM     76  O   UNL A   1      46.525  34.927  38.903  1.00  0.00    -0.744 OA
ENDBRANCH  70  73
ENDBRANCH  52  66
BRANCH  53  77
ATOM     77  C   UNL A   1      42.708  25.948  27.995  1.00  0.00     0.023 A 
ATOM     78  C   UNL A   1      42.967  26.549  26.747  1.00  0.00     0.012 A 
ATOM     79  C   UNL A   1      42.237  24.621  28.032  1.00  0.00     0.148 A 
ATOM     80  C   UNL A   1      42.745  25.850  25.560  1.00  0.00     0.002 A 
ATOM     81  C   UNL A   1      42.071  23.911  26.848  1.00  0.00     0.091 A 
ATOM     82  F   UNL A   1      41.974  24.075  29.227  1.00  0.00    -0.205 F 
ATOM     83  C   UNL A   1      42.309  24.527  25.610  1.00  0.00     0.022 A 
BRANCH  81  84
ATOM     84  S   UNL A   1      41.642  22.167  26.824  1.00  0.00     0.127 S 
ATOM     85  O   UNL A   1      41.891  21.815  25.429  1.00  0.00    -0.237 OA
ATOM     86  O   UNL A   1      42.597  21.609  27.782  1.00  0.00    -0.237 OA
ATOM     87  O   UNL A   1      40.252  22.098  27.255  1.00  0.00    -0.744 OA
ENDBRANCH  81  84
ENDBRANCH  53  77
BRANCH  65  88
ATOM     88  C   UNL A   1      48.035  26.087  32.544  1.00  0.00     0.023 A 
ATOM     89  C   UNL A   1      49.158  26.656  31.914  1.00  0.00     0.012 A 
ATOM     90  C   UNL A   1      48.199  24.944  33.354  1.00  0.00     0.148 A 
ATOM     91  C   UNL A   1      50.423  26.093  32.078  1.00  0.00     0.002 A 
ATOM     92  C   UNL A   1      49.470  24.416  33.550  1.00  0.00     0.091 A 
ATOM     93  F   UNL A   1      47.114  24.412  33.934  1.00  0.00    -0.205 F 
ATOM     94  C   UNL A   1      50.581  24.983  32.907  1.00  0.00     0.022 A 
BRANCH  92  95
ATOM     95  S   UNL A   1      49.786  23.057  34.683  1.00  0.00     0.127 S 
ATOM     96  O   UNL A   1      51.243  23.103  34.804  1.00  0.00    -0.237 OA
ATOM     97  O   UNL A   1      49.061  23.477  35.883  1.00  0.00    -0.237 OA
ATOM     98  O   UNL A   1      49.252  21.864  34.040  1.00  0.00    -0.744 OA
ENDBRANCH  92  95
ENDBRANCH  65  88
ENDBRANCH  39  40
ENDBRANCH  32  34
ENDBRANCH  31  32
ENDBRANCH  30  31
ENDBRANCH  29  30
ENDBRANCH  28  29
ENDBRANCH  27  28
ENDBRANCH  26  27
ENDBRANCH  25  26
ENDBRANCH   1  25
TORSDOF 27
ENDMDL
