MODEL 1
REMARK VINA RESULT:      -8.0      0.000      0.000
REMARK SMILES CNC(=O)C[N@H+]1CC[C@@H](C(=O)OCCOCCOCCOCCOC(=O)c2ccc(-c3c4nc(c(-c5cccc(S(=O)(=O)[O-])c5F)c5ccc([nH]5)c(-c5cccc(S(=O)(=O)[O-])c5F)c5nc(c(-c6cccc(S(=O)(=O)[O-])c6F)c6ccc3[nH]6)C=C5)C=C4)cc2)[C@H]1C
REMARK SMILES IDX 19 1 18 2 17 3 16 4 15 5 14 6 13 7 12 8 10 9 11 10 9 11 6 12
REMARK SMILES IDX 7 13 90 14 8 16 91 17 5 18 3 19 1 20 2 21 4 23 20 24 21 25
REMARK SMILES IDX 22 26 23 27 24 28 25 29 26 30 27 31 28 32 89 33 29 34 88 35
REMARK SMILES IDX 30 36 31 37 32 38 82 39 33 40 87 41 81 42 83 43 34 44 86 45
REMARK SMILES IDX 80 46 79 47 35 49 67 50 47 51 66 52 48 53 51 54 65 55 84 56
REMARK SMILES IDX 49 57 50 58 64 60 85 61 52 62 36 63 37 64 45 65 38 66 40 67
REMARK SMILES IDX 46 68 39 69 41 70 42 71 43 72 44 73 68 74 69 75 77 76 70 77
REMARK SMILES IDX 72 78 78 79 71 80 73 81 74 82 75 83 76 84 53 85 54 86 62 87
REMARK SMILES IDX 55 88 57 89 63 90 56 91 58 92 59 93 60 94 61 95
REMARK H PARENT 6 15 2 22 83 48 51 59
REMARK Flexibility Score: inf
ROOT
ATOM      1  C   UNL A   1      33.313  35.569  30.579  1.00  0.00     0.188 C 
ENDROOT
BRANCH   1   2
ATOM      2  O   UNL A   1      33.361  34.567  31.588  1.00  0.00    -0.377 OA
BRANCH   2   3
ATOM      3  C   UNL A   1      34.355  33.556  31.556  1.00  0.00     0.188 C 
BRANCH   3   4
ATOM      4  C   UNL A   1      35.099  33.132  32.837  1.00  0.00     0.188 C 
BRANCH   4   5
ATOM      5  O   UNL A   1      36.455  33.507  32.901  1.00  0.00    -0.376 OA
BRANCH   5   6
ATOM      6  C   UNL A   1      37.164  33.891  31.738  1.00  0.00     0.202 C 
BRANCH   6   7
ATOM      7  C   UNL A   1      38.576  34.501  31.748  1.00  0.00     0.261 C 
BRANCH   7   8
ATOM      8  O   UNL A   1      39.430  34.196  30.642  1.00  0.00    -0.463 OA
BRANCH   8   9
ATOM      9  C   UNL A   1      40.750  34.173  30.902  1.00  0.00     0.315 C 
ATOM     10  O   UNL A   1      41.225  34.309  32.029  1.00  0.00    -0.252 OA
BRANCH   9  11
ATOM     11  C   UNL A   1      41.643  33.906  29.709  1.00  0.00     0.162 C 
ATOM     12  N   UNL A   1      43.509  34.034  28.293  1.00  0.00    -0.324 N 
ATOM     13  C   UNL A   1      43.599  32.745  28.971  1.00  0.00     0.264 C 
ATOM     14  C   UNL A   1      42.568  34.928  29.022  1.00  0.00     0.195 C 
ATOM     15  H   UNL A   1      43.083  33.915  27.374  1.00  0.00     0.348 HD
ATOM     16  C   UNL A   1      42.599  32.790  30.100  1.00  0.00     0.083 C 
ATOM     17  C   UNL A   1      43.222  35.983  29.913  1.00  0.00     0.076 C 
BRANCH  12  18
ATOM     18  C   UNL A   1      44.816  34.578  27.902  1.00  0.00     0.363 C 
BRANCH  18  19
ATOM     19  C   UNL A   1      44.826  34.916  26.411  1.00  0.00     0.274 C 
ATOM     20  C   UNL A   1      46.264  36.968  26.780  1.00  0.00     0.143 C 
ATOM     21  N   UNL A   1      45.478  36.047  25.995  1.00  0.00    -0.354 N 
ATOM     22  H   UNL A   1      45.401  36.258  25.037  1.00  0.00     0.163 HD
ATOM     23  O   UNL A   1      44.257  34.222  25.567  1.00  0.00    -0.269 OA
ENDBRANCH  18  19
ENDBRANCH  12  18
ENDBRANCH   9  11
ENDBRANCH   8   9
ENDBRANCH   7   8
ENDBRANCH   6   7
ENDBRANCH   5   6
ENDBRANCH   4   5
ENDBRANCH   3   4
ENDBRANCH   2   3
ENDBRANCH   1   2
BRANCH   1  24
ATOM     24  C   UNL A   1      33.636  35.208  29.114  1.00  0.00     0.188 C 
BRANCH  24  25
ATOM     25  O   UNL A   1      32.540  34.694  28.377  1.00  0.00    -0.376 OA
BRANCH  25  26
ATOM     26  C   UNL A   1      32.770  33.494  27.650  1.00  0.00     0.202 C 
BRANCH  26  27
ATOM     27  C   UNL A   1      34.040  32.695  27.985  1.00  0.00     0.261 C 
BRANCH  27  28
ATOM     28  O   UNL A   1      33.859  31.304  28.302  1.00  0.00    -0.460 OA
BRANCH  28  29
ATOM     29  C   UNL A   1      34.483  30.387  27.537  1.00  0.00     0.338 C 
ATOM     30  O   UNL A   1      34.130  29.971  26.444  1.00  0.00    -0.246 OA
BRANCH  29  31
ATOM     31  C   UNL A   1      35.790  30.098  28.161  1.00  0.00     0.060 A 
ATOM     32  C   UNL A   1      36.956  30.233  27.396  1.00  0.00     0.016 A 
ATOM     33  C   UNL A   1      35.860  29.694  29.495  1.00  0.00     0.016 A 
ATOM     34  C   UNL A   1      38.197  29.927  27.957  1.00  0.00     0.010 A 
ATOM     35  C   UNL A   1      37.101  29.368  30.048  1.00  0.00     0.010 A 
ATOM     36  C   UNL A   1      38.271  29.448  29.271  1.00  0.00    -0.014 A 
BRANCH  36  37
ATOM     37  C   UNL A   1      39.532  28.839  29.761  1.00  0.00     0.031 A 
ATOM     38  C   UNL A   1      40.199  29.455  30.962  1.00  0.00     0.074 A 
ATOM     39  C   UNL A   1      40.072  27.759  29.167  1.00  0.00     0.049 A 
ATOM     40  N   UNL A   1      41.328  29.137  31.540  1.00  0.00    -0.248 NA
ATOM     41  C   UNL A   1      39.496  30.583  31.600  1.00  0.00     0.031 C 
ATOM     42  C   UNL A   1      39.516  27.062  28.008  1.00  0.00     0.029 A 
ATOM     43  N   UNL A   1      41.231  27.077  29.445  1.00  0.00    -0.354 N 
ATOM     44  C   UNL A   1      41.481  30.034  32.591  1.00  0.00     0.074 A 
ATOM     45  C   UNL A   1      40.340  30.921  32.563  1.00  0.00     0.031 C 
ATOM     46  C   UNL A   1      40.355  26.073  27.651  1.00  0.00     0.029 A 
ATOM     47  C   UNL A   1      41.519  26.086  28.535  1.00  0.00     0.049 A 
ATOM     48  H   UNL A   1      41.802  27.278  30.221  1.00  0.00     0.167 HD
ATOM     49  C   UNL A   1      42.473  30.103  33.508  1.00  0.00     0.034 A 
ATOM     50  C   UNL A   1      42.613  25.306  28.413  1.00  0.00     0.034 A 
ATOM     51  C   UNL A   1      43.603  29.217  33.541  1.00  0.00     0.049 A 
ATOM     52  C   UNL A   1      43.729  25.439  29.421  1.00  0.00     0.074 A 
ATOM     53  C   UNL A   1      44.653  29.197  34.442  1.00  0.00     0.029 A 
ATOM     54  N   UNL A   1      43.841  28.203  32.627  1.00  0.00    -0.354 N 
ATOM     55  N   UNL A   1      43.813  26.227  30.466  1.00  0.00    -0.248 NA
ATOM     56  C   UNL A   1      44.890  24.549  29.252  1.00  0.00     0.031 C 
ATOM     57  C   UNL A   1      45.541  28.189  34.056  1.00  0.00     0.029 A 
ATOM     58  C   UNL A   1      45.021  27.553  32.940  1.00  0.00     0.049 A 
ATOM     59  H   UNL A   1      43.255  27.978  31.869  1.00  0.00     0.167 HD
ATOM     60  C   UNL A   1      45.007  25.897  31.100  1.00  0.00     0.074 A 
ATOM     61  C   UNL A   1      45.603  24.823  30.336  1.00  0.00     0.031 C 
ATOM     62  C   UNL A   1      45.569  26.442  32.208  1.00  0.00     0.034 A 
BRANCH  49  63
ATOM     63  C   UNL A   1      42.368  31.158  34.577  1.00  0.00     0.023 A 
ATOM     64  C   UNL A   1      41.706  30.861  35.785  1.00  0.00     0.012 A 
ATOM     65  C   UNL A   1      42.994  32.410  34.420  1.00  0.00     0.148 A 
ATOM     66  C   UNL A   1      41.647  31.802  36.812  1.00  0.00     0.002 A 
ATOM     67  C   UNL A   1      42.970  33.325  35.465  1.00  0.00     0.091 A 
ATOM     68  F   UNL A   1      43.603  32.677  33.256  1.00  0.00    -0.205 F 
ATOM     69  C   UNL A   1      42.289  33.028  36.657  1.00  0.00     0.022 A 
BRANCH  67  70
ATOM     70  S   UNL A   1      43.833  34.900  35.399  1.00  0.00     0.127 S 
ATOM     71  O   UNL A   1      43.655  35.391  36.765  1.00  0.00    -0.237 OA
ATOM     72  O   UNL A   1      45.197  34.486  35.072  1.00  0.00    -0.237 OA
ATOM     73  O   UNL A   1      43.167  35.684  34.368  1.00  0.00    -0.744 OA
ENDBRANCH  67  70
ENDBRANCH  49  63
BRANCH  50  74
ATOM     74  C   UNL A   1      42.724  24.322  27.295  1.00  0.00     0.023 A 
ATOM     75  C   UNL A   1      43.393  24.680  26.109  1.00  0.00     0.012 A 
ATOM     76  C   UNL A   1      42.132  23.047  27.390  1.00  0.00     0.148 A 
ATOM     77  C   UNL A   1      43.424  23.808  25.018  1.00  0.00     0.002 A 
ATOM     78  C   UNL A   1      42.222  22.160  26.323  1.00  0.00     0.091 A 
ATOM     79  F   UNL A   1      41.483  22.729  28.518  1.00  0.00    -0.205 F 
ATOM     80  C   UNL A   1      42.846  22.547  25.128  1.00  0.00     0.022 A 
BRANCH  78  81
ATOM     81  S   UNL A   1      41.616  20.473  26.423  1.00  0.00     0.127 S 
ATOM     82  O   UNL A   1      42.342  19.828  25.333  1.00  0.00    -0.237 OA
ATOM     83  O   UNL A   1      42.044  20.078  27.767  1.00  0.00    -0.237 OA
ATOM     84  O   UNL A   1      40.172  20.564  26.259  1.00  0.00    -0.744 OA
ENDBRANCH  78  81
ENDBRANCH  50  74
BRANCH  62  85
ATOM     85  C   UNL A   1      46.862  25.848  32.709  1.00  0.00     0.023 A 
ATOM     86  C   UNL A   1      48.096  26.400  32.312  1.00  0.00     0.012 A 
ATOM     87  C   UNL A   1      46.846  24.789  33.637  1.00  0.00     0.148 A 
ATOM     88  C   UNL A   1      49.295  25.879  32.799  1.00  0.00     0.002 A 
ATOM     89  C   UNL A   1      48.041  24.311  34.161  1.00  0.00     0.091 A 
ATOM     90  F   UNL A   1      45.663  24.269  33.994  1.00  0.00    -0.205 F 
ATOM     91  C   UNL A   1      49.266  24.844  33.731  1.00  0.00     0.022 A 
BRANCH  89  92
ATOM     92  S   UNL A   1      48.100  23.050  35.439  1.00  0.00     0.127 S 
ATOM     93  O   UNL A   1      47.516  21.900  34.750  1.00  0.00    -0.237 OA
ATOM     94  O   UNL A   1      49.535  22.940  35.699  1.00  0.00    -0.237 OA
ATOM     95  O   UNL A   1      47.320  23.568  36.555  1.00  0.00    -0.744 OA
ENDBRANCH  89  92
ENDBRANCH  62  85
ENDBRANCH  36  37
ENDBRANCH  29  31
ENDBRANCH  28  29
ENDBRANCH  27  28
ENDBRANCH  26  27
ENDBRANCH  25  26
ENDBRANCH  24  25
ENDBRANCH   1  24
TORSDOF 25
ENDMDL
MODEL 2
REMARK VINA RESULT:      -7.9      2.574      4.964
REMARK SMILES CNC(=O)C[N@H+]1CC[C@@H](C(=O)OCCOCCOCCOCCOC(=O)c2ccc(-c3c4nc(c(-c5cccc(S(=O)(=O)[O-])c5F)c5ccc([nH]5)c(-c5cccc(S(=O)(=O)[O-])c5F)c5nc(c(-c6cccc(S(=O)(=O)[O-])c6F)c6ccc3[nH]6)C=C5)C=C4)cc2)[C@H]1C
REMARK SMILES IDX 19 1 18 2 17 3 16 4 15 5 14 6 13 7 12 8 10 9 11 10 9 11 6 12
REMARK SMILES IDX 7 13 90 14 8 16 91 17 5 18 3 19 1 20 2 21 4 23 20 24 21 25
REMARK SMILES IDX 22 26 23 27 24 28 25 29 26 30 27 31 28 32 89 33 29 34 88 35
REMARK SMILES IDX 30 36 31 37 32 38 82 39 33 40 87 41 81 42 83 43 34 44 86 45
REMARK SMILES IDX 80 46 79 47 35 49 67 50 47 51 66 52 48 53 51 54 65 55 84 56
REMARK SMILES IDX 49 57 50 58 64 60 85 61 52 62 36 63 37 64 45 65 38 66 40 67
REMARK SMILES IDX 46 68 39 69 41 70 42 71 43 72 44 73 68 74 69 75 77 76 70 77
REMARK SMILES IDX 72 78 78 79 71 80 73 81 74 82 75 83 76 84 53 85 54 86 62 87
REMARK SMILES IDX 55 88 57 89 63 90 56 91 58 92 59 93 60 94 61 95
REMARK H PARENT 6 15 2 22 83 48 51 59
REMARK Flexibility Score: inf
ROOT
ATOM      1  C   UNL A   1      32.756  35.781  31.860  1.00  0.00     0.188 C 
ENDROOT
BRANCH   1   2
ATOM      2  O   UNL A   1      33.639  36.513  32.702  1.00  0.00    -0.377 OA
BRANCH   2   3
ATOM      3  C   UNL A   1      34.772  35.886  33.280  1.00  0.00     0.188 C 
BRANCH   3   4
ATOM      4  C   UNL A   1      35.463  34.698  32.584  1.00  0.00     0.188 C 
BRANCH   4   5
ATOM      5  O   UNL A   1      36.655  34.253  33.190  1.00  0.00    -0.376 OA
BRANCH   5   6
ATOM      6  C   UNL A   1      37.904  34.394  32.541  1.00  0.00     0.202 C 
BRANCH   6   7
ATOM      7  C   UNL A   1      39.221  34.723  33.264  1.00  0.00     0.261 C 
BRANCH   7   8
ATOM      8  O   UNL A   1      39.215  34.672  34.693  1.00  0.00    -0.463 OA
BRANCH   8   9
ATOM      9  C   UNL A   1      38.771  33.526  35.243  1.00  0.00     0.315 C 
ATOM     10  O   UNL A   1      38.941  32.417  34.737  1.00  0.00    -0.252 OA
BRANCH   9  11
ATOM     11  C   UNL A   1      38.083  33.672  36.584  1.00  0.00     0.162 C 
ATOM     12  N   UNL A   1      37.365  33.134  38.752  1.00  0.00    -0.324 N 
ATOM     13  C   UNL A   1      38.435  34.114  38.906  1.00  0.00     0.264 C 
ATOM     14  C   UNL A   1      37.413  32.541  37.387  1.00  0.00     0.195 C 
ATOM     15  H   UNL A   1      36.458  33.599  38.792  1.00  0.00     0.348 HD
ATOM     16  C   UNL A   1      39.109  34.222  37.561  1.00  0.00     0.083 C 
ATOM     17  C   UNL A   1      38.046  31.154  37.295  1.00  0.00     0.076 C 
BRANCH  12  18
ATOM     18  C   UNL A   1      37.240  32.223  39.896  1.00  0.00     0.363 C 
BRANCH  18  19
ATOM     19  C   UNL A   1      35.784  31.791  40.074  1.00  0.00     0.274 C 
ATOM     20  C   UNL A   1      35.413  33.453  41.948  1.00  0.00     0.143 C 
ATOM     21  N   UNL A   1      35.038  32.378  41.061  1.00  0.00    -0.354 N 
ATOM     22  H   UNL A   1      34.128  32.021  41.181  1.00  0.00     0.163 HD
ATOM     23  O   UNL A   1      35.257  30.923  39.377  1.00  0.00    -0.269 OA
ENDBRANCH  18  19
ENDBRANCH  12  18
ENDBRANCH   9  11
ENDBRANCH   8   9
ENDBRANCH   7   8
ENDBRANCH   6   7
ENDBRANCH   5   6
ENDBRANCH   4   5
ENDBRANCH   3   4
ENDBRANCH   2   3
ENDBRANCH   1   2
BRANCH   1  24
ATOM     24  C   UNL A   1      32.590  36.179  30.379  1.00  0.00     0.188 C 
BRANCH  24  25
ATOM     25  O   UNL A   1      33.638  35.744  29.529  1.00  0.00    -0.376 OA
BRANCH  25  26
ATOM     26  C   UNL A   1      33.771  34.340  29.353  1.00  0.00     0.202 C 
BRANCH  26  27
ATOM     27  C   UNL A   1      34.324  33.845  28.006  1.00  0.00     0.261 C 
BRANCH  27  28
ATOM     28  O   UNL A   1      35.311  32.800  28.062  1.00  0.00    -0.460 OA
BRANCH  28  29
ATOM     29  C   UNL A   1      34.893  31.520  28.000  1.00  0.00     0.338 C 
ATOM     30  O   UNL A   1      33.815  31.113  27.597  1.00  0.00    -0.246 OA
BRANCH  29  31
ATOM     31  C   UNL A   1      36.045  30.656  28.327  1.00  0.00     0.060 A 
ATOM     32  C   UNL A   1      36.004  29.873  29.488  1.00  0.00     0.016 A 
ATOM     33  C   UNL A   1      37.162  30.624  27.490  1.00  0.00     0.016 A 
ATOM     34  C   UNL A   1      37.099  29.080  29.834  1.00  0.00     0.010 A 
ATOM     35  C   UNL A   1      38.265  29.846  27.849  1.00  0.00     0.010 A 
ATOM     36  C   UNL A   1      38.254  29.099  29.042  1.00  0.00    -0.014 A 
BRANCH  36  37
ATOM     37  C   UNL A   1      39.512  28.508  29.561  1.00  0.00     0.031 A 
ATOM     38  C   UNL A   1      40.155  29.149  30.763  1.00  0.00     0.074 A 
ATOM     39  C   UNL A   1      40.070  27.424  28.992  1.00  0.00     0.049 A 
ATOM     40  N   UNL A   1      41.277  28.849  31.363  1.00  0.00    -0.248 NA
ATOM     41  C   UNL A   1      39.432  30.280  31.372  1.00  0.00     0.031 C 
ATOM     42  C   UNL A   1      39.537  26.705  27.836  1.00  0.00     0.029 A 
ATOM     43  N   UNL A   1      41.230  26.756  29.299  1.00  0.00    -0.354 N 
ATOM     44  C   UNL A   1      41.406  29.762  32.402  1.00  0.00     0.074 A 
ATOM     45  C   UNL A   1      40.258  30.640  32.343  1.00  0.00     0.031 C 
ATOM     46  C   UNL A   1      40.390  25.718  27.507  1.00  0.00     0.029 A 
ATOM     47  C   UNL A   1      41.540  25.754  28.408  1.00  0.00     0.049 A 
ATOM     48  H   UNL A   1      41.787  26.974  30.080  1.00  0.00     0.167 HD
ATOM     49  C   UNL A   1      42.382  29.854  33.334  1.00  0.00     0.034 A 
ATOM     50  C   UNL A   1      42.642  24.981  28.316  1.00  0.00     0.034 A 
ATOM     51  C   UNL A   1      43.520  28.978  33.398  1.00  0.00     0.049 A 
ATOM     52  C   UNL A   1      43.741  25.139  29.339  1.00  0.00     0.074 A 
ATOM     53  C   UNL A   1      44.555  28.980  34.315  1.00  0.00     0.029 A 
ATOM     54  N   UNL A   1      43.779  27.952  32.504  1.00  0.00    -0.354 N 
ATOM     55  N   UNL A   1      43.802  25.943  30.373  1.00  0.00    -0.248 NA
ATOM     56  C   UNL A   1      44.911  24.256  29.202  1.00  0.00     0.031 C 
ATOM     57  C   UNL A   1      45.457  27.974  33.959  1.00  0.00     0.029 A 
ATOM     58  C   UNL A   1      44.960  27.316  32.845  1.00  0.00     0.049 A 
ATOM     59  H   UNL A   1      43.208  27.711  31.740  1.00  0.00     0.167 HD
ATOM     60  C   UNL A   1      44.989  25.633  31.031  1.00  0.00     0.074 A 
ATOM     61  C   UNL A   1      45.605  24.552  30.293  1.00  0.00     0.031 C 
ATOM     62  C   UNL A   1      45.529  26.199  32.139  1.00  0.00     0.034 A 
BRANCH  49  63
ATOM     63  C   UNL A   1      42.253  30.924  34.385  1.00  0.00     0.023 A 
ATOM     64  C   UNL A   1      41.796  30.582  35.673  1.00  0.00     0.012 A 
ATOM     65  C   UNL A   1      42.659  32.247  34.123  1.00  0.00     0.148 A 
ATOM     66  C   UNL A   1      41.722  31.545  36.679  1.00  0.00     0.002 A 
ATOM     67  C   UNL A   1      42.626  33.190  35.142  1.00  0.00     0.091 A 
ATOM     68  F   UNL A   1      43.074  32.554  32.886  1.00  0.00    -0.205 F 
ATOM     69  C   UNL A   1      42.149  32.844  36.418  1.00  0.00     0.022 A 
BRANCH  67  70
ATOM     70  S   UNL A   1      43.228  34.870  34.934  1.00  0.00     0.127 S 
ATOM     71  O   UNL A   1      42.697  35.524  36.129  1.00  0.00    -0.237 OA
ATOM     72  O   UNL A   1      44.678  34.676  34.938  1.00  0.00    -0.237 OA
ATOM     73  O   UNL A   1      42.676  35.344  33.673  1.00  0.00    -0.744 OA
ENDBRANCH  67  70
ENDBRANCH  49  63
BRANCH  50  74
ATOM     74  C   UNL A   1      42.779  23.981  27.215  1.00  0.00     0.023 A 
ATOM     75  C   UNL A   1      43.487  24.317  26.045  1.00  0.00     0.012 A 
ATOM     76  C   UNL A   1      42.173  22.713  27.308  1.00  0.00     0.148 A 
ATOM     77  C   UNL A   1      43.544  23.431  24.968  1.00  0.00     0.002 A 
ATOM     78  C   UNL A   1      42.287  21.811  26.256  1.00  0.00     0.091 A 
ATOM     79  F   UNL A   1      41.485  22.416  28.419  1.00  0.00    -0.205 F 
ATOM     80  C   UNL A   1      42.951  22.176  25.076  1.00  0.00     0.022 A 
BRANCH  78  81
ATOM     81  S   UNL A   1      41.663  20.130  26.360  1.00  0.00     0.127 S 
ATOM     82  O   UNL A   1      42.375  19.477  25.266  1.00  0.00    -0.237 OA
ATOM     83  O   UNL A   1      42.094  19.731  27.702  1.00  0.00    -0.237 OA
ATOM     84  O   UNL A   1      40.219  20.237  26.205  1.00  0.00    -0.744 OA
ENDBRANCH  78  81
ENDBRANCH  50  74
BRANCH  62  85
ATOM     85  C   UNL A   1      46.818  25.624  32.669  1.00  0.00     0.023 A 
ATOM     86  C   UNL A   1      48.055  26.112  32.206  1.00  0.00     0.012 A 
ATOM     87  C   UNL A   1      46.798  24.650  33.686  1.00  0.00     0.148 A 
ATOM     88  C   UNL A   1      49.252  25.610  32.717  1.00  0.00     0.002 A 
ATOM     89  C   UNL A   1      47.992  24.194  34.231  1.00  0.00     0.091 A 
ATOM     90  F   UNL A   1      45.610  24.188  34.106  1.00  0.00    -0.205 F 
ATOM     91  C   UNL A   1      49.220  24.661  33.737  1.00  0.00     0.022 A 
BRANCH  89  92
ATOM     92  S   UNL A   1      48.048  23.048  35.613  1.00  0.00     0.127 S 
ATOM     93  O   UNL A   1      47.237  23.745  36.611  1.00  0.00    -0.237 OA
ATOM     94  O   UNL A   1      47.422  21.853  35.048  1.00  0.00    -0.237 OA
ATOM     95  O   UNL A   1      49.455  22.892  35.954  1.00  0.00    -0.744 OA
ENDBRANCH  89  92
ENDBRANCH  62  85
ENDBRANCH  36  37
ENDBRANCH  29  31
ENDBRANCH  28  29
ENDBRANCH  27  28
ENDBRANCH  26  27
ENDBRANCH  25  26
ENDBRANCH  24  25
ENDBRANCH   1  24
TORSDOF 25
ENDMDL
MODEL 3
REMARK VINA RESULT:      -7.5      3.004      5.300
REMARK SMILES CNC(=O)C[N@H+]1CC[C@@H](C(=O)OCCOCCOCCOCCOC(=O)c2ccc(-c3c4nc(c(-c5cccc(S(=O)(=O)[O-])c5F)c5ccc([nH]5)c(-c5cccc(S(=O)(=O)[O-])c5F)c5nc(c(-c6cccc(S(=O)(=O)[O-])c6F)c6ccc3[nH]6)C=C5)C=C4)cc2)[C@H]1C
REMARK SMILES IDX 19 1 18 2 17 3 16 4 15 5 14 6 13 7 12 8 10 9 11 10 9 11 6 12
REMARK SMILES IDX 7 13 90 14 8 16 91 17 5 18 3 19 1 20 2 21 4 23 20 24 21 25
REMARK SMILES IDX 22 26 23 27 24 28 25 29 26 30 27 31 28 32 89 33 29 34 88 35
REMARK SMILES IDX 30 36 31 37 32 38 82 39 33 40 87 41 81 42 83 43 34 44 86 45
REMARK SMILES IDX 80 46 79 47 35 49 67 50 47 51 66 52 48 53 51 54 65 55 84 56
REMARK SMILES IDX 49 57 50 58 64 60 85 61 52 62 36 63 37 64 45 65 38 66 40 67
REMARK SMILES IDX 46 68 39 69 41 70 42 71 43 72 44 73 68 74 69 75 77 76 70 77
REMARK SMILES IDX 72 78 78 79 71 80 73 81 74 82 75 83 76 84 53 85 54 86 62 87
REMARK SMILES IDX 55 88 57 89 63 90 56 91 58 92 59 93 60 94 61 95
REMARK H PARENT 6 15 2 22 83 48 51 59
REMARK Flexibility Score: inf
ROOT
ATOM      1  C   UNL A   1      33.200  35.640  31.950  1.00  0.00     0.188 C 
ENDROOT
BRANCH   1   2
ATOM      2  O   UNL A   1      34.374  36.164  32.560  1.00  0.00    -0.377 OA
BRANCH   2   3
ATOM      3  C   UNL A   1      35.493  35.329  32.808  1.00  0.00     0.188 C 
BRANCH   3   4
ATOM      4  C   UNL A   1      35.382  33.796  32.688  1.00  0.00     0.188 C 
BRANCH   4   5
ATOM      5  O   UNL A   1      35.433  33.090  33.905  1.00  0.00    -0.376 OA
BRANCH   5   6
ATOM      6  C   UNL A   1      36.640  32.972  34.634  1.00  0.00     0.202 C 
BRANCH   6   7
ATOM      7  C   UNL A   1      36.851  33.526  36.054  1.00  0.00     0.261 C 
BRANCH   7   8
ATOM      8  O   UNL A   1      38.093  33.225  36.696  1.00  0.00    -0.463 OA
BRANCH   8   9
ATOM      9  C   UNL A   1      38.039  32.335  37.704  1.00  0.00     0.315 C 
ATOM     10  O   UNL A   1      37.616  31.186  37.576  1.00  0.00    -0.252 OA
BRANCH   9  11
ATOM     11  C   UNL A   1      38.594  32.816  39.028  1.00  0.00     0.162 C 
ATOM     12  N   UNL A   1      39.346  34.300  40.682  1.00  0.00    -0.324 N 
ATOM     13  C   UNL A   1      38.026  33.846  41.109  1.00  0.00     0.264 C 
ATOM     14  C   UNL A   1      39.536  34.017  39.233  1.00  0.00     0.195 C 
ATOM     15  H   UNL A   1      40.070  33.750  41.143  1.00  0.00     0.348 HD
ATOM     16  C   UNL A   1      37.409  33.157  39.918  1.00  0.00     0.083 C 
ATOM     17  C   UNL A   1      39.350  35.214  38.300  1.00  0.00     0.076 C 
BRANCH  12  18
ATOM     18  C   UNL A   1      39.688  35.641  41.174  1.00  0.00     0.363 C 
BRANCH  18  19
ATOM     19  C   UNL A   1      41.071  35.629  41.826  1.00  0.00     0.274 C 
ATOM     20  C   UNL A   1      40.398  37.383  43.525  1.00  0.00     0.143 C 
ATOM     21  N   UNL A   1      41.317  36.486  42.867  1.00  0.00    -0.354 N 
ATOM     22  H   UNL A   1      42.239  36.490  43.210  1.00  0.00     0.163 HD
ATOM     23  O   UNL A   1      41.982  34.894  41.444  1.00  0.00    -0.269 OA
ENDBRANCH  18  19
ENDBRANCH  12  18
ENDBRANCH   9  11
ENDBRANCH   8   9
ENDBRANCH   7   8
ENDBRANCH   6   7
ENDBRANCH   5   6
ENDBRANCH   4   5
ENDBRANCH   3   4
ENDBRANCH   2   3
ENDBRANCH   1   2
BRANCH   1  24
ATOM     24  C   UNL A   1      32.841  36.030  30.501  1.00  0.00     0.188 C 
BRANCH  24  25
ATOM     25  O   UNL A   1      33.780  35.610  29.526  1.00  0.00    -0.376 OA
BRANCH  25  26
ATOM     26  C   UNL A   1      33.926  34.207  29.346  1.00  0.00     0.202 C 
BRANCH  26  27
ATOM     27  C   UNL A   1      34.183  33.700  27.917  1.00  0.00     0.261 C 
BRANCH  27  28
ATOM     28  O   UNL A   1      35.182  32.675  27.770  1.00  0.00    -0.460 OA
BRANCH  28  29
ATOM     29  C   UNL A   1      34.776  31.392  27.691  1.00  0.00     0.338 C 
ATOM     30  O   UNL A   1      33.722  30.976  27.239  1.00  0.00    -0.246 OA
BRANCH  29  31
ATOM     31  C   UNL A   1      35.918  30.538  28.075  1.00  0.00     0.060 A 
ATOM     32  C   UNL A   1      35.879  29.854  29.298  1.00  0.00     0.016 A 
ATOM     33  C   UNL A   1      37.023  30.416  27.230  1.00  0.00     0.016 A 
ATOM     34  C   UNL A   1      36.965  29.073  29.695  1.00  0.00     0.010 A 
ATOM     35  C   UNL A   1      38.117  29.650  27.640  1.00  0.00     0.010 A 
ATOM     36  C   UNL A   1      38.109  29.005  28.890  1.00  0.00    -0.014 A 
BRANCH  36  37
ATOM     37  C   UNL A   1      39.363  28.436  29.442  1.00  0.00     0.031 A 
ATOM     38  C   UNL A   1      39.977  29.102  30.645  1.00  0.00     0.074 A 
ATOM     39  C   UNL A   1      39.943  27.350  28.900  1.00  0.00     0.049 A 
ATOM     40  N   UNL A   1      41.090  28.824  31.270  1.00  0.00    -0.248 NA
ATOM     41  C   UNL A   1      39.231  30.235  31.223  1.00  0.00     0.031 C 
ATOM     42  C   UNL A   1      39.440  26.607  27.746  1.00  0.00     0.029 A 
ATOM     43  N   UNL A   1      41.104  26.699  29.239  1.00  0.00    -0.354 N 
ATOM     44  C   UNL A   1      41.191  29.755  32.297  1.00  0.00     0.074 A 
ATOM     45  C   UNL A   1      40.035  30.618  32.203  1.00  0.00     0.031 C 
ATOM     46  C   UNL A   1      40.310  25.624  27.448  1.00  0.00     0.029 A 
ATOM     47  C   UNL A   1      41.442  25.687  28.370  1.00  0.00     0.049 A 
ATOM     48  H   UNL A   1      41.645  26.935  30.027  1.00  0.00     0.167 HD
ATOM     49  C   UNL A   1      42.149  29.872  33.245  1.00  0.00     0.034 A 
ATOM     50  C   UNL A   1      42.554  24.924  28.310  1.00  0.00     0.034 A 
ATOM     51  C   UNL A   1      43.294  29.010  33.344  1.00  0.00     0.049 A 
ATOM     52  C   UNL A   1      43.632  25.110  29.351  1.00  0.00     0.074 A 
ATOM     53  C   UNL A   1      44.311  29.037  34.280  1.00  0.00     0.029 A 
ATOM     54  N   UNL A   1      43.581  27.972  32.471  1.00  0.00    -0.354 N 
ATOM     55  N   UNL A   1      43.665  25.932  30.373  1.00  0.00    -0.248 NA
ATOM     56  C   UNL A   1      44.814  24.239  29.249  1.00  0.00     0.031 C 
ATOM     57  C   UNL A   1      45.231  28.036  33.957  1.00  0.00     0.029 A 
ATOM     58  C   UNL A   1      44.762  27.355  32.844  1.00  0.00     0.049 A 
ATOM     59  H   UNL A   1      43.027  27.713  31.700  1.00  0.00     0.167 HD
ATOM     60  C   UNL A   1      44.843  25.644  31.057  1.00  0.00     0.074 A 
ATOM     61  C   UNL A   1      45.484  24.559  30.347  1.00  0.00     0.031 C 
ATOM     62  C   UNL A   1      45.356  26.233  32.165  1.00  0.00     0.034 A 
BRANCH  49  63
ATOM     63  C   UNL A   1      41.988  30.956  34.277  1.00  0.00     0.023 A 
ATOM     64  C   UNL A   1      41.450  30.641  35.540  1.00  0.00     0.012 A 
ATOM     65  C   UNL A   1      42.443  32.265  34.025  1.00  0.00     0.148 A 
ATOM     66  C   UNL A   1      41.345  31.616  36.531  1.00  0.00     0.002 A 
ATOM     67  C   UNL A   1      42.378  33.220  35.032  1.00  0.00     0.091 A 
ATOM     68  F   UNL A   1      42.935  32.547  32.811  1.00  0.00    -0.205 F 
ATOM     69  C   UNL A   1      41.820  32.901  36.282  1.00  0.00     0.022 A 
BRANCH  67  70
ATOM     70  S   UNL A   1      43.034  34.881  34.842  1.00  0.00     0.127 S 
ATOM     71  O   UNL A   1      42.560  35.528  36.065  1.00  0.00    -0.237 OA
ATOM     72  O   UNL A   1      44.476  34.636  34.802  1.00  0.00    -0.237 OA
ATOM     73  O   UNL A   1      42.467  35.403  33.607  1.00  0.00    -0.744 OA
ENDBRANCH  67  70
ENDBRANCH  49  63
BRANCH  50  74
ATOM     74  C   UNL A   1      42.722  23.910  27.228  1.00  0.00     0.023 A 
ATOM     75  C   UNL A   1      43.414  24.247  26.049  1.00  0.00     0.012 A 
ATOM     76  C   UNL A   1      42.161  22.623  27.347  1.00  0.00     0.148 A 
ATOM     77  C   UNL A   1      43.498  23.344  24.988  1.00  0.00     0.002 A 
ATOM     78  C   UNL A   1      42.303  21.705  26.312  1.00  0.00     0.091 A 
ATOM     79  F   UNL A   1      41.489  22.323  28.467  1.00  0.00    -0.205 F 
ATOM     80  C   UNL A   1      42.950  22.071  25.122  1.00  0.00     0.022 A 
BRANCH  78  81
ATOM     81  S   UNL A   1      41.739  20.006  26.450  1.00  0.00     0.127 S 
ATOM     82  O   UNL A   1      40.295  20.155  26.289  1.00  0.00    -0.237 OA
ATOM     83  O   UNL A   1      42.423  19.369  25.323  1.00  0.00    -0.237 OA
ATOM     84  O   UNL A   1      42.189  19.549  27.758  1.00  0.00    -0.744 OA
ENDBRANCH  78  81
ENDBRANCH  50  74
BRANCH  62  85
ATOM     85  C   UNL A   1      46.641  25.681  32.728  1.00  0.00     0.023 A 
ATOM     86  C   UNL A   1      46.615  24.829  33.850  1.00  0.00     0.012 A 
ATOM     87  C   UNL A   1      47.870  25.949  32.093  1.00  0.00     0.148 A 
ATOM     88  C   UNL A   1      47.797  24.286  34.354  1.00  0.00     0.002 A 
ATOM     89  C   UNL A   1      49.036  25.360  32.567  1.00  0.00     0.091 A 
ATOM     90  F   UNL A   1      47.876  26.772  31.034  1.00  0.00    -0.205 F 
ATOM     91  C   UNL A   1      49.003  24.542  33.706  1.00  0.00     0.022 A 
BRANCH  89  92
ATOM     92  S   UNL A   1      50.619  25.551  31.740  1.00  0.00     0.127 S 
ATOM     93  O   UNL A   1      51.558  25.272  32.826  1.00  0.00    -0.237 OA
ATOM     94  O   UNL A   1      50.555  24.515  30.709  1.00  0.00    -0.237 OA
ATOM     95  O   UNL A   1      50.647  26.914  31.228  1.00  0.00    -0.744 OA
ENDBRANCH  89  92
ENDBRANCH  62  85
ENDBRANCH  36  37
ENDBRANCH  29  31
ENDBRANCH  28  29
ENDBRANCH  27  28
ENDBRANCH  26  27
ENDBRANCH  25  26
ENDBRANCH  24  25
ENDBRANCH   1  24
TORSDOF 25
ENDMDL
