MODEL 1
REMARK VINA RESULT:      -9.7      0.000      0.000
REMARK SMILES CC1=Nc2c(c(C)nn2-c2ccc(F)cc2)[C@H](c2ccc(C(=O)OCCOCCOCCOCCOC(=O)c3ccc(-c4c5nc(c(-c6cccc(S(=O)(=O)[O-])c6F)c6ccc([nH]6)c(-c6cccc(S(=O)(=O)[O-])c6F)c6nc(c(-c7cccc(S(=O)(=O)[O-])c7F)c7ccc4[nH]7)C=C6)C=C5)cc3)cc2)S1
REMARK SMILES IDX 31 1 30 2 29 3 28 4 27 5 26 6 25 7 24 8 22 9 23 10 21 11
REMARK SMILES IDX 18 12 19 13 103 14 20 15 102 16 17 17 1 18 2 19 3 20 104 21
REMARK SMILES IDX 4 22 5 23 9 24 6 25 8 26 7 27 10 28 11 29 16 30 12 31 15 32
REMARK SMILES IDX 13 33 14 34 32 35 33 36 34 37 35 38 36 39 37 40 38 41 39 42
REMARK SMILES IDX 40 43 101 44 41 45 100 46 42 47 43 48 44 49 94 50 45 51
REMARK SMILES IDX 99 52 93 53 95 54 46 55 98 56 92 57 91 58 47 60 79 61 59 62
REMARK SMILES IDX 78 63 60 64 63 65 77 66 96 67 61 68 62 69 76 71 97 72 64 73
REMARK SMILES IDX 48 74 49 75 57 76 50 77 52 78 58 79 51 80 53 81 54 82 55 83
REMARK SMILES IDX 56 84 80 85 81 86 89 87 82 88 84 89 90 90 83 91 85 92 86 93
REMARK SMILES IDX 87 94 88 95 65 96 66 97 74 98 67 99 69 100 75 101 68 102
REMARK SMILES IDX 70 103 71 104 72 105 73 106
REMARK H PARENT 95 59 63 70
REMARK Flexibility Score: inf
ROOT
ATOM      1  C   UNL A   1      37.651  23.459  26.097  1.00  0.00     0.188 C 
ENDROOT
BRANCH   1   2
ATOM      2  O   UNL A   1      36.718  22.385  26.109  1.00  0.00    -0.377 OA
BRANCH   2   3
ATOM      3  C   UNL A   1      36.602  21.698  24.872  1.00  0.00     0.188 C 
BRANCH   3   4
ATOM      4  C   UNL A   1      35.619  20.509  24.896  1.00  0.00     0.188 C 
BRANCH   4   5
ATOM      5  O   UNL A   1      34.384  20.538  25.610  1.00  0.00    -0.376 OA
BRANCH   5   6
ATOM      6  C   UNL A   1      33.134  20.456  24.947  1.00  0.00     0.202 C 
BRANCH   6   7
ATOM      7  C   UNL A   1      32.152  21.640  24.979  1.00  0.00     0.261 C 
BRANCH   7   8
ATOM      8  O   UNL A   1      31.446  21.833  26.207  1.00  0.00    -0.460 OA
BRANCH   8   9
ATOM      9  C   UNL A   1      32.109  22.537  27.150  1.00  0.00     0.338 C 
ATOM     10  O   UNL A   1      32.428  22.149  28.262  1.00  0.00    -0.246 OA
BRANCH   9  11
ATOM     11  C   UNL A   1      32.541  23.840  26.580  1.00  0.00     0.060 A 
ATOM     12  C   UNL A   1      33.198  26.353  25.459  1.00  0.00    -0.030 A 
ATOM     13  C   UNL A   1      31.910  26.093  25.966  1.00  0.00     0.006 A 
ATOM     14  C   UNL A   1      34.175  25.349  25.609  1.00  0.00     0.006 A 
ATOM     15  C   UNL A   1      31.585  24.855  26.518  1.00  0.00     0.016 A 
ATOM     16  C   UNL A   1      33.848  24.097  26.154  1.00  0.00     0.016 A 
BRANCH  12  17
ATOM     17  C   UNL A   1      33.424  27.645  24.683  1.00  0.00     0.119 C 
ATOM     18  C   UNL A   1      32.324  30.912  26.992  1.00  0.00     0.075 C 
ATOM     19  C   UNL A   1      32.409  29.968  25.822  1.00  0.00     0.074 C 
ATOM     20  N   UNL A   1      31.417  29.927  24.995  1.00  0.00    -0.227 NA
ATOM     21  S   UNL A   1      33.905  29.050  25.737  1.00  0.00    -0.098 SA
ATOM     22  C   UNL A   1      31.443  29.025  23.988  1.00  0.00     0.161 A 
ATOM     23  C   UNL A   1      32.259  27.928  23.818  1.00  0.00     0.038 A 
ATOM     24  N   UNL A   1      30.561  29.037  22.914  1.00  0.00    -0.215 N 
ATOM     25  C   UNL A   1      31.786  27.310  22.633  1.00  0.00     0.067 A 
ATOM     26  N   UNL A   1      30.699  27.921  22.147  1.00  0.00    -0.171 NA
ATOM     27  C   UNL A   1      32.343  26.143  21.904  1.00  0.00     0.069 C 
BRANCH  24  28
ATOM     28  C   UNL A   1      29.688  30.084  22.518  1.00  0.00     0.067 A 
ATOM     29  C   UNL A   1      28.774  30.626  23.436  1.00  0.00     0.031 A 
ATOM     30  C   UNL A   1      29.753  30.585  21.211  1.00  0.00     0.031 A 
ATOM     31  C   UNL A   1      27.926  31.661  23.044  1.00  0.00     0.041 A 
ATOM     32  C   UNL A   1      28.863  31.587  20.812  1.00  0.00     0.041 A 
ATOM     33  C   UNL A   1      27.969  32.123  21.733  1.00  0.00     0.123 A 
ATOM     34  F   UNL A   1      27.144  33.111  21.364  1.00  0.00    -0.207 F 
ENDBRANCH  24  28
ENDBRANCH  12  17
ENDBRANCH   9  11
ENDBRANCH   8   9
ENDBRANCH   7   8
ENDBRANCH   6   7
ENDBRANCH   5   6
ENDBRANCH   4   5
ENDBRANCH   3   4
ENDBRANCH   2   3
ENDBRANCH   1   2
BRANCH   1  35
ATOM     35  C   UNL A   1      39.126  23.071  26.331  1.00  0.00     0.188 C 
BRANCH  35  36
ATOM     36  O   UNL A   1      39.630  23.464  27.609  1.00  0.00    -0.376 OA
BRANCH  36  37
ATOM     37  C   UNL A   1      40.032  24.818  27.780  1.00  0.00     0.202 C 
BRANCH  37  38
ATOM     38  C   UNL A   1      41.009  25.288  26.704  1.00  0.00     0.261 C 
BRANCH  38  39
ATOM     39  O   UNL A   1      42.362  25.002  27.026  1.00  0.00    -0.460 OA
BRANCH  39  40
ATOM     40  C   UNL A   1      42.941  24.017  26.310  1.00  0.00     0.338 C 
ATOM     41  O   UNL A   1      42.659  22.833  26.320  1.00  0.00    -0.246 OA
BRANCH  40  42
ATOM     42  C   UNL A   1      44.031  24.592  25.517  1.00  0.00     0.060 A 
ATOM     43  C   UNL A   1      45.218  23.858  25.494  1.00  0.00     0.016 A 
ATOM     44  C   UNL A   1      43.963  25.934  25.112  1.00  0.00     0.016 A 
ATOM     45  C   UNL A   1      46.394  24.556  25.384  1.00  0.00     0.010 A 
ATOM     46  C   UNL A   1      45.136  26.631  25.005  1.00  0.00     0.010 A 
ATOM     47  C   UNL A   1      46.319  25.946  25.284  1.00  0.00    -0.014 A 
BRANCH  47  48
ATOM     48  C   UNL A   1      47.482  26.695  25.699  1.00  0.00     0.031 A 
ATOM     49  C   UNL A   1      48.613  26.696  24.757  1.00  0.00     0.074 A 
ATOM     50  C   UNL A   1      47.428  27.433  26.826  1.00  0.00     0.049 A 
ATOM     51  N   UNL A   1      49.843  26.382  24.992  1.00  0.00    -0.248 NA
ATOM     52  C   UNL A   1      48.310  27.004  23.352  1.00  0.00     0.031 C 
ATOM     53  C   UNL A   1      46.237  27.748  27.628  1.00  0.00     0.029 A 
ATOM     54  N   UNL A   1      48.394  28.214  27.380  1.00  0.00    -0.354 N 
ATOM     55  C   UNL A   1      50.510  26.622  23.797  1.00  0.00     0.074 A 
ATOM     56  C   UNL A   1      49.508  26.868  22.791  1.00  0.00     0.031 C 
ATOM     57  C   UNL A   1      46.486  28.856  28.357  1.00  0.00     0.029 A 
ATOM     58  C   UNL A   1      47.873  29.239  28.159  1.00  0.00     0.049 A 
ATOM     59  H   UNL A   1      49.358  28.068  27.244  1.00  0.00     0.167 HD
ATOM     60  C   UNL A   1      51.853  26.798  23.728  1.00  0.00     0.034 A 
ATOM     61  C   UNL A   1      48.507  30.390  28.480  1.00  0.00     0.034 A 
ATOM     62  C   UNL A   1      52.540  26.355  24.903  1.00  0.00     0.049 A 
ATOM     63  C   UNL A   1      49.957  30.188  28.252  1.00  0.00     0.074 A 
ATOM     64  C   UNL A   1      52.700  25.136  25.530  1.00  0.00     0.029 A 
ATOM     65  N   UNL A   1      52.915  27.309  25.816  1.00  0.00    -0.354 N 
ATOM     66  N   UNL A   1      50.709  29.382  28.949  1.00  0.00    -0.248 NA
ATOM     67  C   UNL A   1      50.517  30.619  26.982  1.00  0.00     0.031 C 
ATOM     68  C   UNL A   1      52.757  25.434  26.921  1.00  0.00     0.029 A 
ATOM     69  C   UNL A   1      52.630  26.817  27.066  1.00  0.00     0.049 A 
ATOM     70  H   UNL A   1      53.315  28.184  25.613  1.00  0.00     0.167 HD
ATOM     71  C   UNL A   1      51.629  28.879  28.037  1.00  0.00     0.074 A 
ATOM     72  C   UNL A   1      51.547  29.774  26.889  1.00  0.00     0.031 C 
ATOM     73  C   UNL A   1      52.155  27.624  28.175  1.00  0.00     0.034 A 
BRANCH  60  74
ATOM     74  C   UNL A   1      52.502  27.601  22.647  1.00  0.00     0.023 A 
ATOM     75  C   UNL A   1      53.273  26.939  21.676  1.00  0.00     0.012 A 
ATOM     76  C   UNL A   1      52.516  29.014  22.646  1.00  0.00     0.148 A 
ATOM     77  C   UNL A   1      53.998  27.658  20.721  1.00  0.00     0.002 A 
ATOM     78  C   UNL A   1      53.156  29.720  21.639  1.00  0.00     0.091 A 
ATOM     79  F   UNL A   1      51.990  29.684  23.682  1.00  0.00    -0.205 F 
ATOM     80  C   UNL A   1      53.918  29.048  20.683  1.00  0.00     0.022 A 
BRANCH  78  81
ATOM     81  S   UNL A   1      52.949  31.497  21.506  1.00  0.00     0.127 S 
ATOM     82  O   UNL A   1      51.506  31.620  21.331  1.00  0.00    -0.237 OA
ATOM     83  O   UNL A   1      53.459  31.969  22.794  1.00  0.00    -0.237 OA
ATOM     84  O   UNL A   1      53.781  31.876  20.369  1.00  0.00    -0.744 OA
ENDBRANCH  78  81
ENDBRANCH  60  74
BRANCH  61  85
ATOM     85  C   UNL A   1      47.916  31.737  28.652  1.00  0.00     0.023 A 
ATOM     86  C   UNL A   1      48.191  32.464  29.824  1.00  0.00     0.012 A 
ATOM     87  C   UNL A   1      47.292  32.414  27.577  1.00  0.00     0.148 A 
ATOM     88  C   UNL A   1      47.876  33.825  29.917  1.00  0.00     0.002 A 
ATOM     89  C   UNL A   1      46.958  33.760  27.685  1.00  0.00     0.091 A 
ATOM     90  F   UNL A   1      47.116  31.773  26.415  1.00  0.00    -0.205 F 
ATOM     91  C   UNL A   1      47.261  34.473  28.850  1.00  0.00     0.022 A 
BRANCH  89  92
ATOM     92  S   UNL A   1      46.153  34.641  26.340  1.00  0.00     0.127 S 
ATOM     93  O   UNL A   1      47.176  34.606  25.294  1.00  0.00    -0.237 OA
ATOM     94  O   UNL A   1      44.986  33.803  26.087  1.00  0.00    -0.237 OA
ATOM     95  O   UNL A   1      45.883  35.977  26.859  1.00  0.00    -0.744 OA
ENDBRANCH  89  92
ENDBRANCH  61  85
BRANCH  73  96
ATOM     96  C   UNL A   1      51.922  26.888  29.478  1.00  0.00     0.023 A 
ATOM     97  C   UNL A   1      50.716  26.199  29.729  1.00  0.00     0.012 A 
ATOM     98  C   UNL A   1      52.993  26.712  30.372  1.00  0.00     0.148 A 
ATOM     99  C   UNL A   1      50.571  25.381  30.852  1.00  0.00     0.002 A 
ATOM    100  C   UNL A   1      52.862  25.856  31.463  1.00  0.00     0.091 A 
ATOM    101  F   UNL A   1      54.142  27.363  30.129  1.00  0.00    -0.205 F 
ATOM    102  C   UNL A   1      51.648  25.197  31.711  1.00  0.00     0.022 A 
BRANCH 100 103
ATOM    103  S   UNL A   1      54.268  25.462  32.510  1.00  0.00     0.127 S 
ATOM    104  O   UNL A   1      54.561  26.751  33.132  1.00  0.00    -0.237 OA
ATOM    105  O   UNL A   1      53.719  24.455  33.423  1.00  0.00    -0.237 OA
ATOM    106  O   UNL A   1      55.289  24.942  31.608  1.00  0.00    -0.744 OA
ENDBRANCH 100 103
ENDBRANCH  73  96
ENDBRANCH  47  48
ENDBRANCH  40  42
ENDBRANCH  39  40
ENDBRANCH  38  39
ENDBRANCH  37  38
ENDBRANCH  36  37
ENDBRANCH  35  36
ENDBRANCH   1  35
TORSDOF 25
ENDMDL
MODEL 2
REMARK VINA RESULT:      -9.3      1.510      1.881
REMARK SMILES CC1=Nc2c(c(C)nn2-c2ccc(F)cc2)[C@H](c2ccc(C(=O)OCCOCCOCCOCCOC(=O)c3ccc(-c4c5nc(c(-c6cccc(S(=O)(=O)[O-])c6F)c6ccc([nH]6)c(-c6cccc(S(=O)(=O)[O-])c6F)c6nc(c(-c7cccc(S(=O)(=O)[O-])c7F)c7ccc4[nH]7)C=C6)C=C5)cc3)cc2)S1
REMARK SMILES IDX 31 1 30 2 29 3 28 4 27 5 26 6 25 7 24 8 22 9 23 10 21 11
REMARK SMILES IDX 18 12 19 13 103 14 20 15 102 16 17 17 1 18 2 19 3 20 104 21
REMARK SMILES IDX 4 22 5 23 9 24 6 25 8 26 7 27 10 28 11 29 16 30 12 31 15 32
REMARK SMILES IDX 13 33 14 34 32 35 33 36 34 37 35 38 36 39 37 40 38 41 39 42
REMARK SMILES IDX 40 43 101 44 41 45 100 46 42 47 43 48 44 49 94 50 45 51
REMARK SMILES IDX 99 52 93 53 95 54 46 55 98 56 92 57 91 58 47 60 79 61 59 62
REMARK SMILES IDX 78 63 60 64 63 65 77 66 96 67 61 68 62 69 76 71 97 72 64 73
REMARK SMILES IDX 48 74 49 75 57 76 50 77 52 78 58 79 51 80 53 81 54 82 55 83
REMARK SMILES IDX 56 84 80 85 81 86 89 87 82 88 84 89 90 90 83 91 85 92 86 93
REMARK SMILES IDX 87 94 88 95 65 96 66 97 74 98 67 99 69 100 75 101 68 102
REMARK SMILES IDX 70 103 71 104 72 105 73 106
REMARK H PARENT 95 59 63 70
REMARK Flexibility Score: inf
ROOT
ATOM      1  C   UNL A   1      37.363  23.328  25.954  1.00  0.00     0.188 C 
ENDROOT
BRANCH   1   2
ATOM      2  O   UNL A   1      36.352  22.328  25.998  1.00  0.00    -0.377 OA
BRANCH   2   3
ATOM      3  C   UNL A   1      36.135  21.661  24.764  1.00  0.00     0.188 C 
BRANCH   3   4
ATOM      4  C   UNL A   1      35.178  20.454  24.854  1.00  0.00     0.188 C 
BRANCH   4   5
ATOM      5  O   UNL A   1      34.010  20.450  25.673  1.00  0.00    -0.376 OA
BRANCH   5   6
ATOM      6  C   UNL A   1      32.709  20.335  25.122  1.00  0.00     0.202 C 
BRANCH   6   7
ATOM      7  C   UNL A   1      31.795  21.567  25.008  1.00  0.00     0.261 C 
BRANCH   7   8
ATOM      8  O   UNL A   1      31.145  21.975  26.214  1.00  0.00    -0.460 OA
BRANCH   8   9
ATOM      9  C   UNL A   1      31.936  22.595  27.117  1.00  0.00     0.338 C 
ATOM     10  O   UNL A   1      32.333  22.139  28.176  1.00  0.00    -0.246 OA
BRANCH   9  11
ATOM     11  C   UNL A   1      32.394  23.895  26.559  1.00  0.00     0.060 A 
ATOM     12  C   UNL A   1      33.101  26.404  25.461  1.00  0.00    -0.030 A 
ATOM     13  C   UNL A   1      31.802  26.158  25.944  1.00  0.00     0.006 A 
ATOM     14  C   UNL A   1      34.063  25.388  25.624  1.00  0.00     0.006 A 
ATOM     15  C   UNL A   1      31.451  24.922  26.485  1.00  0.00     0.016 A 
ATOM     16  C   UNL A   1      33.711  24.138  26.157  1.00  0.00     0.016 A 
BRANCH  12  17
ATOM     17  C   UNL A   1      33.356  27.697  24.695  1.00  0.00     0.119 C 
ATOM     18  C   UNL A   1      32.305  30.970  27.018  1.00  0.00     0.075 C 
ATOM     19  C   UNL A   1      32.379  30.031  25.843  1.00  0.00     0.074 C 
ATOM     20  N   UNL A   1      31.391  30.015  25.010  1.00  0.00    -0.227 NA
ATOM     21  S   UNL A   1      33.858  29.086  25.760  1.00  0.00    -0.098 SA
ATOM     22  C   UNL A   1      31.407  29.119  23.997  1.00  0.00     0.161 A 
ATOM     23  C   UNL A   1      32.202  28.008  23.825  1.00  0.00     0.038 A 
ATOM     24  N   UNL A   1      30.531  29.155  22.918  1.00  0.00    -0.215 N 
ATOM     25  C   UNL A   1      31.724  27.406  22.633  1.00  0.00     0.067 A 
ATOM     26  N   UNL A   1      30.652  28.041  22.145  1.00  0.00    -0.171 NA
ATOM     27  C   UNL A   1      32.263  26.233  21.900  1.00  0.00     0.069 C 
BRANCH  24  28
ATOM     28  C   UNL A   1      29.681  30.221  22.524  1.00  0.00     0.067 A 
ATOM     29  C   UNL A   1      29.339  30.387  21.172  1.00  0.00     0.031 A 
ATOM     30  C   UNL A   1      29.172  31.097  23.491  1.00  0.00     0.031 A 
ATOM     31  C   UNL A   1      28.494  31.430  20.792  1.00  0.00     0.041 A 
ATOM     32  C   UNL A   1      28.369  32.171  23.094  1.00  0.00     0.041 A 
ATOM     33  C   UNL A   1      28.029  32.320  21.753  1.00  0.00     0.123 A 
ATOM     34  F   UNL A   1      27.227  33.324  21.377  1.00  0.00    -0.207 F 
ENDBRANCH  24  28
ENDBRANCH  12  17
ENDBRANCH   9  11
ENDBRANCH   8   9
ENDBRANCH   7   8
ENDBRANCH   6   7
ENDBRANCH   5   6
ENDBRANCH   4   5
ENDBRANCH   3   4
ENDBRANCH   2   3
ENDBRANCH   1   2
BRANCH   1  35
ATOM     35  C   UNL A   1      38.816  22.821  26.067  1.00  0.00     0.188 C 
BRANCH  35  36
ATOM     36  O   UNL A   1      39.526  23.349  27.189  1.00  0.00    -0.376 OA
BRANCH  36  37
ATOM     37  C   UNL A   1      40.064  24.661  27.079  1.00  0.00     0.202 C 
BRANCH  37  38
ATOM     38  C   UNL A   1      41.163  24.765  26.024  1.00  0.00     0.261 C 
BRANCH  38  39
ATOM     39  O   UNL A   1      42.468  24.766  26.584  1.00  0.00    -0.460 OA
BRANCH  39  40
ATOM     40  C   UNL A   1      43.144  23.602  26.500  1.00  0.00     0.338 C 
ATOM     41  O   UNL A   1      42.708  22.480  26.681  1.00  0.00    -0.246 OA
BRANCH  40  42
ATOM     42  C   UNL A   1      44.546  23.895  26.189  1.00  0.00     0.060 A 
ATOM     43  C   UNL A   1      45.470  23.571  27.184  1.00  0.00     0.016 A 
ATOM     44  C   UNL A   1      44.856  24.744  25.116  1.00  0.00     0.016 A 
ATOM     45  C   UNL A   1      46.592  24.353  27.288  1.00  0.00     0.010 A 
ATOM     46  C   UNL A   1      45.975  25.526  25.221  1.00  0.00     0.010 A 
ATOM     47  C   UNL A   1      46.739  25.403  26.381  1.00  0.00    -0.014 A 
BRANCH  47  48
ATOM     48  C   UNL A   1      47.576  26.508  26.789  1.00  0.00     0.031 A 
ATOM     49  C   UNL A   1      48.848  26.650  26.064  1.00  0.00     0.074 A 
ATOM     50  C   UNL A   1      47.110  27.394  27.693  1.00  0.00     0.049 A 
ATOM     51  N   UNL A   1      50.039  26.736  26.556  1.00  0.00    -0.248 NA
ATOM     52  C   UNL A   1      48.787  26.601  24.596  1.00  0.00     0.031 C 
ATOM     53  C   UNL A   1      45.736  27.508  28.202  1.00  0.00     0.029 A 
ATOM     54  N   UNL A   1      47.723  28.499  28.196  1.00  0.00    -0.354 N 
ATOM     55  C   UNL A   1      50.869  26.930  25.459  1.00  0.00     0.074 A 
ATOM     56  C   UNL A   1      50.074  26.702  24.278  1.00  0.00     0.031 C 
ATOM     57  C   UNL A   1      45.554  28.755  28.684  1.00  0.00     0.029 A 
ATOM     58  C   UNL A   1      46.821  29.464  28.624  1.00  0.00     0.049 A 
ATOM     59  H   UNL A   1      48.700  28.603  28.251  1.00  0.00     0.167 HD
ATOM     60  C   UNL A   1      52.115  27.455  25.564  1.00  0.00     0.034 A 
ATOM     61  C   UNL A   1      47.080  30.784  28.767  1.00  0.00     0.034 A 
ATOM     62  C   UNL A   1      52.621  27.441  26.903  1.00  0.00     0.049 A 
ATOM     63  C   UNL A   1      48.551  30.952  28.824  1.00  0.00     0.074 A 
ATOM     64  C   UNL A   1      52.927  26.448  27.812  1.00  0.00     0.029 A 
ATOM     65  N   UNL A   1      52.556  28.611  27.619  1.00  0.00    -0.354 N 
ATOM     66  N   UNL A   1      49.306  30.527  29.798  1.00  0.00    -0.248 NA
ATOM     67  C   UNL A   1      49.251  31.283  27.593  1.00  0.00     0.031 C 
ATOM     68  C   UNL A   1      52.615  26.998  29.088  1.00  0.00     0.029 A 
ATOM     69  C   UNL A   1      52.136  28.295  28.887  1.00  0.00     0.049 A 
ATOM     70  H   UNL A   1      52.771  29.510  27.284  1.00  0.00     0.167 HD
ATOM     71  C   UNL A   1      50.492  30.141  29.184  1.00  0.00     0.074 A 
ATOM     72  C   UNL A   1      50.447  30.754  27.862  1.00  0.00     0.031 C 
ATOM     73  C   UNL A   1      51.258  29.127  29.690  1.00  0.00     0.034 A 
BRANCH  60  74
ATOM     74  C   UNL A   1      52.770  28.195  24.443  1.00  0.00     0.023 A 
ATOM     75  C   UNL A   1      53.847  27.596  23.768  1.00  0.00     0.012 A 
ATOM     76  C   UNL A   1      52.468  29.541  24.134  1.00  0.00     0.148 A 
ATOM     77  C   UNL A   1      54.569  28.299  22.798  1.00  0.00     0.002 A 
ATOM     78  C   UNL A   1      53.122  30.200  23.105  1.00  0.00     0.091 A 
ATOM     79  F   UNL A   1      51.610  30.223  24.907  1.00  0.00    -0.205 F 
ATOM     80  C   UNL A   1      54.189  29.591  22.445  1.00  0.00     0.022 A 
BRANCH  78  81
ATOM     81  S   UNL A   1      52.554  31.811  22.555  1.00  0.00     0.127 S 
ATOM     82  O   UNL A   1      51.751  32.251  23.691  1.00  0.00    -0.237 OA
ATOM     83  O   UNL A   1      53.809  32.538  22.365  1.00  0.00    -0.237 OA
ATOM     84  O   UNL A   1      51.837  31.540  21.314  1.00  0.00    -0.744 OA
ENDBRANCH  78  81
ENDBRANCH  60  74
BRANCH  61  85
ATOM     85  C   UNL A   1      46.165  31.922  28.527  1.00  0.00     0.023 A 
ATOM     86  C   UNL A   1      45.941  32.854  29.557  1.00  0.00     0.012 A 
ATOM     87  C   UNL A   1      45.705  32.241  27.227  1.00  0.00     0.148 A 
ATOM     88  C   UNL A   1      45.302  34.072  29.299  1.00  0.00     0.002 A 
ATOM     89  C   UNL A   1      45.046  33.442  26.982  1.00  0.00     0.091 A 
ATOM     90  F   UNL A   1      45.998  31.421  26.211  1.00  0.00    -0.205 F 
ATOM     91  C   UNL A   1      44.855  34.367  28.014  1.00  0.00     0.022 A 
BRANCH  89  92
ATOM     92  S   UNL A   1      44.441  33.866  25.343  1.00  0.00     0.127 S 
ATOM     93  O   UNL A   1      43.501  34.949  25.633  1.00  0.00    -0.237 OA
ATOM     94  O   UNL A   1      45.666  34.281  24.667  1.00  0.00    -0.237 OA
ATOM     95  O   UNL A   1      43.809  32.653  24.839  1.00  0.00    -0.744 OA
ENDBRANCH  89  92
ENDBRANCH  61  85
BRANCH  73  96
ATOM     96  C   UNL A   1      50.934  28.605  31.074  1.00  0.00     0.023 A 
ATOM     97  C   UNL A   1      50.027  27.541  31.266  1.00  0.00     0.012 A 
ATOM     98  C   UNL A   1      51.694  29.044  32.173  1.00  0.00     0.148 A 
ATOM     99  C   UNL A   1      49.862  26.949  32.521  1.00  0.00     0.002 A 
ATOM    100  C   UNL A   1      51.564  28.418  33.410  1.00  0.00     0.091 A 
ATOM    101  F   UNL A   1      52.562  30.052  31.988  1.00  0.00    -0.205 F 
ATOM    102  C   UNL A   1      50.641  27.377  33.590  1.00  0.00     0.022 A 
BRANCH 100 103
ATOM    103  S   UNL A   1      52.656  28.825  34.778  1.00  0.00     0.127 S 
ATOM    104  O   UNL A   1      52.334  30.229  35.022  1.00  0.00    -0.237 OA
ATOM    105  O   UNL A   1      52.214  27.906  35.830  1.00  0.00    -0.237 OA
ATOM    106  O   UNL A   1      54.004  28.556  34.291  1.00  0.00    -0.744 OA
ENDBRANCH 100 103
ENDBRANCH  73  96
ENDBRANCH  47  48
ENDBRANCH  40  42
ENDBRANCH  39  40
ENDBRANCH  38  39
ENDBRANCH  37  38
ENDBRANCH  36  37
ENDBRANCH  35  36
ENDBRANCH   1  35
TORSDOF 25
ENDMDL
MODEL 3
REMARK VINA RESULT:      -9.2      1.987      2.313
REMARK SMILES CC1=Nc2c(c(C)nn2-c2ccc(F)cc2)[C@H](c2ccc(C(=O)OCCOCCOCCOCCOC(=O)c3ccc(-c4c5nc(c(-c6cccc(S(=O)(=O)[O-])c6F)c6ccc([nH]6)c(-c6cccc(S(=O)(=O)[O-])c6F)c6nc(c(-c7cccc(S(=O)(=O)[O-])c7F)c7ccc4[nH]7)C=C6)C=C5)cc3)cc2)S1
REMARK SMILES IDX 31 1 30 2 29 3 28 4 27 5 26 6 25 7 24 8 22 9 23 10 21 11
REMARK SMILES IDX 18 12 19 13 103 14 20 15 102 16 17 17 1 18 2 19 3 20 104 21
REMARK SMILES IDX 4 22 5 23 9 24 6 25 8 26 7 27 10 28 11 29 16 30 12 31 15 32
REMARK SMILES IDX 13 33 14 34 32 35 33 36 34 37 35 38 36 39 37 40 38 41 39 42
REMARK SMILES IDX 40 43 101 44 41 45 100 46 42 47 43 48 44 49 94 50 45 51
REMARK SMILES IDX 99 52 93 53 95 54 46 55 98 56 92 57 91 58 47 60 79 61 59 62
REMARK SMILES IDX 78 63 60 64 63 65 77 66 96 67 61 68 62 69 76 71 97 72 64 73
REMARK SMILES IDX 48 74 49 75 57 76 50 77 52 78 58 79 51 80 53 81 54 82 55 83
REMARK SMILES IDX 56 84 80 85 81 86 89 87 82 88 84 89 90 90 83 91 85 92 86 93
REMARK SMILES IDX 87 94 88 95 65 96 66 97 74 98 67 99 69 100 75 101 68 102
REMARK SMILES IDX 70 103 71 104 72 105 73 106
REMARK H PARENT 95 59 63 70
REMARK Flexibility Score: inf
ROOT
ATOM      1  C   UNL A   1      37.452  23.262  25.970  1.00  0.00     0.188 C 
ENDROOT
BRANCH   1   2
ATOM      2  O   UNL A   1      36.423  22.281  26.011  1.00  0.00    -0.377 OA
BRANCH   2   3
ATOM      3  C   UNL A   1      36.157  21.659  24.762  1.00  0.00     0.188 C 
BRANCH   3   4
ATOM      4  C   UNL A   1      35.156  20.488  24.837  1.00  0.00     0.188 C 
BRANCH   4   5
ATOM      5  O   UNL A   1      34.029  20.485  25.711  1.00  0.00    -0.376 OA
BRANCH   5   6
ATOM      6  C   UNL A   1      32.702  20.399  25.220  1.00  0.00     0.202 C 
BRANCH   6   7
ATOM      7  C   UNL A   1      31.810  21.651  25.150  1.00  0.00     0.261 C 
BRANCH   7   8
ATOM      8  O   UNL A   1      31.203  22.054  26.379  1.00  0.00    -0.460 OA
BRANCH   8   9
ATOM      9  C   UNL A   1      32.027  22.667  27.257  1.00  0.00     0.338 C 
ATOM     10  O   UNL A   1      32.453  22.208  28.303  1.00  0.00    -0.246 OA
BRANCH   9  11
ATOM     11  C   UNL A   1      32.476  23.965  26.687  1.00  0.00     0.060 A 
ATOM     12  C   UNL A   1      33.167  26.469  25.566  1.00  0.00    -0.030 A 
ATOM     13  C   UNL A   1      31.877  26.227  26.075  1.00  0.00     0.006 A 
ATOM     14  C   UNL A   1      34.130  25.451  25.714  1.00  0.00     0.006 A 
ATOM     15  C   UNL A   1      31.535  24.993  26.627  1.00  0.00     0.016 A 
ATOM     16  C   UNL A   1      33.786  24.203  26.258  1.00  0.00     0.016 A 
BRANCH  12  17
ATOM     17  C   UNL A   1      33.410  27.758  24.791  1.00  0.00     0.119 C 
ATOM     18  C   UNL A   1      32.276  31.035  27.071  1.00  0.00     0.075 C 
ATOM     19  C   UNL A   1      32.380  30.087  25.906  1.00  0.00     0.074 C 
ATOM     20  N   UNL A   1      31.403  30.046  25.061  1.00  0.00    -0.227 NA
ATOM     21  S   UNL A   1      33.876  29.166  25.850  1.00  0.00    -0.098 SA
ATOM     22  C   UNL A   1      31.445  29.141  24.057  1.00  0.00     0.161 A 
ATOM     23  C   UNL A   1      32.261  28.042  23.904  1.00  0.00     0.038 A 
ATOM     24  N   UNL A   1      30.582  29.152  22.967  1.00  0.00    -0.215 N 
ATOM     25  C   UNL A   1      31.808  27.421  22.713  1.00  0.00     0.067 A 
ATOM     26  N   UNL A   1      30.731  28.033  22.206  1.00  0.00    -0.171 NA
ATOM     27  C   UNL A   1      32.375  26.250  21.997  1.00  0.00     0.069 C 
BRANCH  24  28
ATOM     28  C   UNL A   1      29.719  30.200  22.553  1.00  0.00     0.067 A 
ATOM     29  C   UNL A   1      29.104  31.027  23.507  1.00  0.00     0.031 A 
ATOM     30  C   UNL A   1      29.495  30.415  21.186  1.00  0.00     0.031 A 
ATOM     31  C   UNL A   1      28.266  32.061  23.093  1.00  0.00     0.041 A 
ATOM     32  C   UNL A   1      28.612  31.421  20.783  1.00  0.00     0.041 A 
ATOM     33  C   UNL A   1      28.016  32.240  21.737  1.00  0.00     0.123 A 
ATOM     34  F   UNL A   1      27.201  33.230  21.350  1.00  0.00    -0.207 F 
ENDBRANCH  24  28
ENDBRANCH  12  17
ENDBRANCH   9  11
ENDBRANCH   8   9
ENDBRANCH   7   8
ENDBRANCH   6   7
ENDBRANCH   5   6
ENDBRANCH   4   5
ENDBRANCH   3   4
ENDBRANCH   2   3
ENDBRANCH   1   2
BRANCH   1  35
ATOM     35  C   UNL A   1      38.896  22.727  26.062  1.00  0.00     0.188 C 
BRANCH  35  36
ATOM     36  O   UNL A   1      39.579  23.111  27.257  1.00  0.00    -0.376 OA
BRANCH  36  37
ATOM     37  C   UNL A   1      40.141  24.416  27.313  1.00  0.00     0.202 C 
BRANCH  37  38
ATOM     38  C   UNL A   1      41.252  24.629  26.287  1.00  0.00     0.261 C 
BRANCH  38  39
ATOM     39  O   UNL A   1      42.551  24.507  26.847  1.00  0.00    -0.460 OA
BRANCH  39  40
ATOM     40  C   UNL A   1      43.223  23.381  26.532  1.00  0.00     0.338 C 
ATOM     41  O   UNL A   1      42.824  22.234  26.615  1.00  0.00    -0.246 OA
BRANCH  40  42
ATOM     42  C   UNL A   1      44.574  23.747  26.098  1.00  0.00     0.060 A 
ATOM     43  C   UNL A   1      45.610  23.383  26.960  1.00  0.00     0.016 A 
ATOM     44  C   UNL A   1      44.742  24.685  25.067  1.00  0.00     0.016 A 
ATOM     45  C   UNL A   1      46.714  24.195  27.005  1.00  0.00     0.010 A 
ATOM     46  C   UNL A   1      45.843  25.497  25.114  1.00  0.00     0.010 A 
ATOM     47  C   UNL A   1      46.732  25.316  26.173  1.00  0.00    -0.014 A 
BRANCH  47  48
ATOM     48  C   UNL A   1      47.577  26.416  26.575  1.00  0.00     0.031 A 
ATOM     49  C   UNL A   1      48.814  26.592  25.798  1.00  0.00     0.074 A 
ATOM     50  C   UNL A   1      47.146  27.270  27.525  1.00  0.00     0.049 A 
ATOM     51  N   UNL A   1      50.025  26.675  26.238  1.00  0.00    -0.248 NA
ATOM     52  C   UNL A   1      48.687  26.585  24.333  1.00  0.00     0.031 C 
ATOM     53  C   UNL A   1      45.795  27.356  28.098  1.00  0.00     0.029 A 
ATOM     54  N   UNL A   1      47.772  28.366  28.032  1.00  0.00    -0.354 N 
ATOM     55  C   UNL A   1      50.802  26.909  25.110  1.00  0.00     0.074 A 
ATOM     56  C   UNL A   1      49.957  26.708  23.961  1.00  0.00     0.031 C 
ATOM     57  C   UNL A   1      45.625  28.586  28.626  1.00  0.00     0.029 A 
ATOM     58  C   UNL A   1      46.881  29.309  28.529  1.00  0.00     0.049 A 
ATOM     59  H   UNL A   1      48.749  28.479  28.046  1.00  0.00     0.167 HD
ATOM     60  C   UNL A   1      52.047  27.443  25.174  1.00  0.00     0.034 A 
ATOM     61  C   UNL A   1      47.136  30.627  28.699  1.00  0.00     0.034 A 
ATOM     62  C   UNL A   1      52.614  27.395  26.488  1.00  0.00     0.049 A 
ATOM     63  C   UNL A   1      48.607  30.809  28.694  1.00  0.00     0.074 A 
ATOM     64  C   UNL A   1      52.970  26.379  27.353  1.00  0.00     0.029 A 
ATOM     65  N   UNL A   1      52.572  28.543  27.240  1.00  0.00    -0.354 N 
ATOM     66  N   UNL A   1      49.408  30.362  29.620  1.00  0.00    -0.248 NA
ATOM     67  C   UNL A   1      49.247  31.182  27.443  1.00  0.00     0.031 C 
ATOM     68  C   UNL A   1      52.711  26.889  28.657  1.00  0.00     0.029 A 
ATOM     69  C   UNL A   1      52.212  28.186  28.516  1.00  0.00     0.049 A 
ATOM     70  H   UNL A   1      52.764  29.454  26.923  1.00  0.00     0.167 HD
ATOM     71  C   UNL A   1      50.569  30.006  28.942  1.00  0.00     0.074 A 
ATOM     72  C   UNL A   1      50.458  30.657  27.642  1.00  0.00     0.031 C 
ATOM     73  C   UNL A   1      51.365  28.985  29.382  1.00  0.00     0.034 A 
BRANCH  60  74
ATOM     74  C   UNL A   1      52.645  28.222  24.048  1.00  0.00     0.023 A 
ATOM     75  C   UNL A   1      52.656  29.625  24.120  1.00  0.00     0.012 A 
ATOM     76  C   UNL A   1      53.054  27.624  22.835  1.00  0.00     0.148 A 
ATOM     77  C   UNL A   1      53.091  30.398  23.039  1.00  0.00     0.002 A 
ATOM     78  C   UNL A   1      53.575  28.389  21.802  1.00  0.00     0.091 A 
ATOM     79  F   UNL A   1      52.844  26.314  22.636  1.00  0.00    -0.205 F 
ATOM     80  C   UNL A   1      53.579  29.781  21.890  1.00  0.00     0.022 A 
BRANCH  78  81
ATOM     81  S   UNL A   1      54.326  27.597  20.378  1.00  0.00     0.127 S 
ATOM     82  O   UNL A   1      53.177  27.402  19.501  1.00  0.00    -0.237 OA
ATOM     83  O   UNL A   1      55.285  28.606  19.928  1.00  0.00    -0.237 OA
ATOM     84  O   UNL A   1      54.950  26.393  20.918  1.00  0.00    -0.744 OA
ENDBRANCH  78  81
ENDBRANCH  60  74
BRANCH  61  85
ATOM     85  C   UNL A   1      46.201  31.763  28.535  1.00  0.00     0.023 A 
ATOM     86  C   UNL A   1      45.997  32.647  29.609  1.00  0.00     0.012 A 
ATOM     87  C   UNL A   1      45.699  32.131  27.264  1.00  0.00     0.148 A 
ATOM     88  C   UNL A   1      45.336  33.867  29.423  1.00  0.00     0.002 A 
ATOM     89  C   UNL A   1      45.020  33.333  27.089  1.00  0.00     0.091 A 
ATOM     90  F   UNL A   1      45.972  31.358  26.205  1.00  0.00    -0.205 F 
ATOM     91  C   UNL A   1      44.848  34.211  28.165  1.00  0.00     0.022 A 
BRANCH  89  92
ATOM     92  S   UNL A   1      44.362  33.819  25.488  1.00  0.00     0.127 S 
ATOM     93  O   UNL A   1      43.603  32.632  25.094  1.00  0.00    -0.237 OA
ATOM     94  O   UNL A   1      43.550  34.980  25.836  1.00  0.00    -0.237 OA
ATOM     95  O   UNL A   1      45.530  34.079  24.654  1.00  0.00    -0.744 OA
ENDBRANCH  89  92
ENDBRANCH  61  85
BRANCH  73  96
ATOM     96  C   UNL A   1      51.109  28.420  30.764  1.00  0.00     0.023 A 
ATOM     97  C   UNL A   1      51.773  28.928  31.901  1.00  0.00     0.012 A 
ATOM     98  C   UNL A   1      50.049  27.516  30.954  1.00  0.00     0.148 A 
ATOM     99  C   UNL A   1      51.410  28.526  33.189  1.00  0.00     0.002 A 
ATOM    100  C   UNL A   1      49.656  27.158  32.241  1.00  0.00     0.091 A 
ATOM    101  F   UNL A   1      49.413  27.039  29.872  1.00  0.00    -0.205 F 
ATOM    102  C   UNL A   1      50.341  27.653  33.361  1.00  0.00     0.022 A 
BRANCH 100 103
ATOM    103  S   UNL A   1      48.187  26.161  32.522  1.00  0.00     0.127 S 
ATOM    104  O   UNL A   1      47.684  25.963  31.165  1.00  0.00    -0.237 OA
ATOM    105  O   UNL A   1      48.730  24.955  33.154  1.00  0.00    -0.237 OA
ATOM    106  O   UNL A   1      47.342  26.957  33.405  1.00  0.00    -0.744 OA
ENDBRANCH 100 103
ENDBRANCH  73  96
ENDBRANCH  47  48
ENDBRANCH  40  42
ENDBRANCH  39  40
ENDBRANCH  38  39
ENDBRANCH  37  38
ENDBRANCH  36  37
ENDBRANCH  35  36
ENDBRANCH   1  35
TORSDOF 25
ENDMDL
