MODEL 1
REMARK VINA RESULT:      -7.5      0.000      0.000
REMARK SMILES CCCC[C@H](NS(=O)(=O)c1cccc(F)c1)C(=O)OCCOCCOCCOCCOC(=O)c1ccc(-c2c3nc(c(-c4cccc(S(=O)(=O)[O-])c4F)c4ccc([nH]4)c(-c4cccc(S(=O)(=O)[O-])c4F)c4nc(c(-c5cccc(S(=O)(=O)[O-])c5F)c5ccc2[nH]5)C=C4)C=C3)cc1
REMARK SMILES IDX 25 1 24 2 23 3 22 4 21 5 20 6 19 7 17 8 18 9 5 10 4 11 3 12
REMARK SMILES IDX 2 13 1 14 6 15 7 17 8 18 9 19 10 20 11 21 16 22 12 23 14 24
REMARK SMILES IDX 13 25 15 26 26 27 27 28 28 29 29 30 30 31 31 32 32 33 33 34
REMARK SMILES IDX 34 35 35 36 96 37 36 38 95 39 37 40 38 41 39 42 89 43 40 44
REMARK SMILES IDX 94 45 88 46 90 47 41 48 93 49 87 50 86 51 42 53 74 54 54 55
REMARK SMILES IDX 73 56 55 57 58 58 72 59 91 60 56 61 57 62 71 64 92 65 59 66
REMARK SMILES IDX 43 67 44 68 52 69 45 70 47 71 53 72 46 73 48 74 49 75 50 76
REMARK SMILES IDX 51 77 75 78 76 79 84 80 77 81 79 82 85 83 78 84 80 85 81 86
REMARK SMILES IDX 82 87 83 88 60 89 61 90 69 91 62 92 64 93 70 94 63 95 65 96
REMARK SMILES IDX 66 97 67 98 68 99
REMARK H PARENT 6 16 90 52 58 63
REMARK Flexibility Score: inf
ROOT
ATOM      1  O   UNL A   1      39.529  27.663  29.894  1.00  0.00    -0.377 OA
ENDROOT
BRANCH   1   2
ATOM      2  C   UNL A   1      38.414  28.547  29.766  1.00  0.00     0.188 C 
BRANCH   2   3
ATOM      3  C   UNL A   1      37.812  29.062  31.065  1.00  0.00     0.188 C 
BRANCH   3   4
ATOM      4  O   UNL A   1      37.330  30.374  30.925  1.00  0.00    -0.376 OA
BRANCH   4   5
ATOM      5  C   UNL A   1      36.278  30.827  31.772  1.00  0.00     0.202 C 
BRANCH   5   6
ATOM      6  C   UNL A   1      36.366  31.925  32.872  1.00  0.00     0.261 C 
BRANCH   6   7
ATOM      7  O   UNL A   1      35.389  32.982  32.934  1.00  0.00    -0.462 OA
BRANCH   7   8
ATOM      8  C   UNL A   1      35.609  34.039  32.112  1.00  0.00     0.324 C 
ATOM      9  O   UNL A   1      36.559  34.814  32.259  1.00  0.00    -0.250 OA
BRANCH   8  10
ATOM     10  C   UNL A   1      34.601  34.268  30.985  1.00  0.00     0.179 C 
BRANCH  10  11
ATOM     11  C   UNL A   1      33.339  34.788  31.729  1.00  0.00     0.032 C 
BRANCH  11  12
ATOM     12  C   UNL A   1      33.008  36.252  31.421  1.00  0.00     0.002 C 
BRANCH  12  13
ATOM     13  C   UNL A   1      33.868  37.273  32.159  1.00  0.00    -0.003 C 
ATOM     14  C   UNL A   1      33.889  37.047  33.664  1.00  0.00     0.004 C 
ENDBRANCH  12  13
ENDBRANCH  11  12
ENDBRANCH  10  11
BRANCH  10  15
ATOM     15  N   UNL A   1      34.198  33.223  29.995  1.00  0.00    -0.197 NA
ATOM     16  H   UNL A   1      33.384  32.751  30.388  1.00  0.00     0.142 HD
BRANCH  15  17
ATOM     17  S   UNL A   1      33.791  33.636  28.391  1.00  0.00     0.241 S 
ATOM     18  O   UNL A   1      32.686  34.565  28.485  1.00  0.00    -0.207 OA
ATOM     19  O   UNL A   1      34.986  33.971  27.649  1.00  0.00    -0.207 OA
BRANCH  17  20
ATOM     20  C   UNL A   1      33.099  32.151  27.716  1.00  0.00     0.085 A 
ATOM     21  C   UNL A   1      31.560  32.188  26.735  1.00  0.00     0.022 A 
ATOM     22  C   UNL A   1      34.224  30.756  27.578  1.00  0.00     0.061 A 
ATOM     23  C   UNL A   1      31.196  30.813  25.587  1.00  0.00     0.004 A 
ATOM     24  C   UNL A   1      33.844  29.411  26.468  1.00  0.00     0.124 A 
ATOM     25  C   UNL A   1      32.354  29.426  25.466  1.00  0.00     0.039 A 
ATOM     26  F   UNL A   1      34.707  28.395  26.356  1.00  0.00    -0.207 F 
ENDBRANCH  17  20
ENDBRANCH  15  17
ENDBRANCH  10  15
ENDBRANCH   8  10
ENDBRANCH   7   8
ENDBRANCH   6   7
ENDBRANCH   5   6
ENDBRANCH   4   5
ENDBRANCH   3   4
ENDBRANCH   2   3
ENDBRANCH   1   2
BRANCH   1  27
ATOM     27  C   UNL A   1      40.039  26.796  28.682  1.00  0.00     0.188 C 
BRANCH  27  28
ATOM     28  C   UNL A   1      38.988  25.157  27.668  1.00  0.00     0.188 C 
BRANCH  28  29
ATOM     29  O   UNL A   1      39.503  24.209  26.517  1.00  0.00    -0.376 OA
BRANCH  29  30
ATOM     30  C   UNL A   1      39.134  22.827  26.602  1.00  0.00     0.202 C 
BRANCH  30  31
ATOM     31  C   UNL A   1      40.043  21.796  25.925  1.00  0.00     0.261 C 
BRANCH  31  32
ATOM     32  O   UNL A   1      41.421  22.161  25.863  1.00  0.00    -0.460 OA
BRANCH  32  33
ATOM     33  C   UNL A   1      42.198  21.545  26.788  1.00  0.00     0.338 C 
ATOM     34  O   UNL A   1      42.393  20.345  26.896  1.00  0.00    -0.246 OA
BRANCH  33  35
ATOM     35  C   UNL A   1      42.892  22.568  27.602  1.00  0.00     0.060 A 
ATOM     36  C   UNL A   1      42.896  23.887  27.131  1.00  0.00     0.016 A 
ATOM     37  C   UNL A   1      43.559  22.241  28.787  1.00  0.00     0.016 A 
ATOM     38  C   UNL A   1      43.634  24.862  27.798  1.00  0.00     0.010 A 
ATOM     39  C   UNL A   1      44.310  23.217  29.449  1.00  0.00     0.010 A 
ATOM     40  C   UNL A   1      44.397  24.517  28.922  1.00  0.00    -0.014 A 
BRANCH  40  41
ATOM     41  C   UNL A   1      45.475  25.439  29.356  1.00  0.00     0.031 A 
ATOM     42  C   UNL A   1      45.292  26.164  30.665  1.00  0.00     0.074 A 
ATOM     43  C   UNL A   1      46.612  25.591  28.656  1.00  0.00     0.049 A 
ATOM     44  N   UNL A   1      46.128  26.936  31.305  1.00  0.00    -0.248 NA
ATOM     45  C   UNL A   1      43.998  25.983  31.347  1.00  0.00     0.031 C 
ATOM     46  C   UNL A   1      46.916  24.939  27.384  1.00  0.00     0.029 A 
ATOM     47  N   UNL A   1      47.725  26.350  28.923  1.00  0.00    -0.354 N 
ATOM     48  C   UNL A   1      45.464  27.336  32.457  1.00  0.00     0.074 A 
ATOM     49  C   UNL A   1      44.146  26.745  32.419  1.00  0.00     0.031 C 
ATOM     50  C   UNL A   1      48.135  25.338  26.975  1.00  0.00     0.029 A 
ATOM     51  C   UNL A   1      48.692  26.280  27.948  1.00  0.00     0.049 A 
ATOM     52  H   UNL A   1      47.823  26.896  29.737  1.00  0.00     0.167 HD
ATOM     53  C   UNL A   1      45.916  28.106  33.472  1.00  0.00     0.034 A 
ATOM     54  C   UNL A   1      49.885  26.904  27.849  1.00  0.00     0.034 A 
ATOM     55  C   UNL A   1      47.226  28.690  33.515  1.00  0.00     0.049 A 
ATOM     56  C   UNL A   1      50.351  27.803  28.970  1.00  0.00     0.074 A 
ATOM     57  C   UNL A   1      47.787  29.455  34.523  1.00  0.00     0.029 A 
ATOM     58  N   UNL A   1      48.169  28.599  32.505  1.00  0.00    -0.354 N 
ATOM     59  N   UNL A   1      49.760  28.074  30.108  1.00  0.00    -0.248 NA
ATOM     60  C   UNL A   1      51.659  28.460  28.811  1.00  0.00     0.031 C 
ATOM     61  C   UNL A   1      49.049  29.871  34.098  1.00  0.00     0.029 A 
ATOM     62  C   UNL A   1      49.299  29.316  32.854  1.00  0.00     0.049 A 
ATOM     63  H   UNL A   1      48.053  28.099  31.665  1.00  0.00     0.167 HD
ATOM     64  C   UNL A   1      50.637  28.893  30.815  1.00  0.00     0.074 A 
ATOM     65  C   UNL A   1      51.803  29.074  29.979  1.00  0.00     0.031 C 
ATOM     66  C   UNL A   1      50.482  29.446  32.041  1.00  0.00     0.034 A 
BRANCH  53  67
ATOM     67  C   UNL A   1      45.000  28.351  34.640  1.00  0.00     0.023 A 
ATOM     68  C   UNL A   1      44.219  29.524  34.681  1.00  0.00     0.012 A 
ATOM     69  C   UNL A   1      44.839  27.373  35.641  1.00  0.00     0.148 A 
ATOM     70  C   UNL A   1      43.305  29.729  35.714  1.00  0.00     0.002 A 
ATOM     71  C   UNL A   1      43.892  27.561  36.638  1.00  0.00     0.091 A 
ATOM     72  F   UNL A   1      45.608  26.277  35.590  1.00  0.00    -0.205 F 
ATOM     73  C   UNL A   1      43.131  28.742  36.682  1.00  0.00     0.022 A 
BRANCH  71  74
ATOM     74  S   UNL A   1      43.528  26.314  37.877  1.00  0.00     0.127 S 
ATOM     75  O   UNL A   1      42.076  26.439  38.001  1.00  0.00    -0.237 OA
ATOM     76  O   UNL A   1      43.981  25.089  37.219  1.00  0.00    -0.237 OA
ATOM     77  O   UNL A   1      44.285  26.689  39.063  1.00  0.00    -0.744 OA
ENDBRANCH  71  74
ENDBRANCH  53  67
BRANCH  54  78
ATOM     78  C   UNL A   1      50.748  26.664  26.657  1.00  0.00     0.023 A 
ATOM     79  C   UNL A   1      51.653  25.585  26.650  1.00  0.00     0.012 A 
ATOM     80  C   UNL A   1      50.650  27.483  25.514  1.00  0.00     0.148 A 
ATOM     81  C   UNL A   1      52.458  25.337  25.536  1.00  0.00     0.002 A 
ATOM     82  C   UNL A   1      51.410  27.195  24.387  1.00  0.00     0.091 A 
ATOM     83  F   UNL A   1      49.796  28.515  25.547  1.00  0.00    -0.205 F 
ATOM     84  C   UNL A   1      52.327  26.133  24.401  1.00  0.00     0.022 A 
BRANCH  82  85
ATOM     85  S   UNL A   1      51.215  28.081  22.837  1.00  0.00     0.127 S 
ATOM     86  O   UNL A   1      51.999  27.259  21.919  1.00  0.00    -0.237 OA
ATOM     87  O   UNL A   1      49.767  28.017  22.638  1.00  0.00    -0.237 OA
ATOM     88  O   UNL A   1      51.733  29.421  23.075  1.00  0.00    -0.744 OA
ENDBRANCH  82  85
ENDBRANCH  54  78
BRANCH  66  89
ATOM     89  C   UNL A   1      51.598  30.280  32.618  1.00  0.00     0.023 A 
ATOM     90  C   UNL A   1      52.656  29.657  33.306  1.00  0.00     0.012 A 
ATOM     91  C   UNL A   1      51.688  31.653  32.304  1.00  0.00     0.148 A 
ATOM     92  C   UNL A   1      53.789  30.387  33.670  1.00  0.00     0.002 A 
ATOM     93  C   UNL A   1      52.841  32.360  32.623  1.00  0.00     0.091 A 
ATOM     94  F   UNL A   1      50.663  32.226  31.657  1.00  0.00    -0.205 F 
ATOM     95  C   UNL A   1      53.889  31.730  33.312  1.00  0.00     0.022 A 
BRANCH  93  96
ATOM     96  S   UNL A   1      53.112  34.058  32.102  1.00  0.00     0.127 S 
ATOM     97  O   UNL A   1      52.003  34.751  32.758  1.00  0.00    -0.237 OA
ATOM     98  O   UNL A   1      54.430  34.346  32.665  1.00  0.00    -0.237 OA
ATOM     99  O   UNL A   1      53.057  34.051  30.646  1.00  0.00    -0.744 OA
ENDBRANCH  93  96
ENDBRANCH  66  89
ENDBRANCH  40  41
ENDBRANCH  33  35
ENDBRANCH  32  33
ENDBRANCH  31  32
ENDBRANCH  30  31
ENDBRANCH  29  30
ENDBRANCH  28  29
ENDBRANCH  27  28
ENDBRANCH   1  27
TORSDOF 29
ENDMDL
MODEL 2
REMARK VINA RESULT:      -7.2      4.018      4.569
REMARK SMILES CCCC[C@H](NS(=O)(=O)c1cccc(F)c1)C(=O)OCCOCCOCCOCCOC(=O)c1ccc(-c2c3nc(c(-c4cccc(S(=O)(=O)[O-])c4F)c4ccc([nH]4)c(-c4cccc(S(=O)(=O)[O-])c4F)c4nc(c(-c5cccc(S(=O)(=O)[O-])c5F)c5ccc2[nH]5)C=C4)C=C3)cc1
REMARK SMILES IDX 25 1 24 2 23 3 22 4 21 5 20 6 19 7 17 8 18 9 5 10 4 11 3 12
REMARK SMILES IDX 2 13 1 14 6 15 7 17 8 18 9 19 10 20 11 21 16 22 12 23 14 24
REMARK SMILES IDX 13 25 15 26 26 27 27 28 28 29 29 30 30 31 31 32 32 33 33 34
REMARK SMILES IDX 34 35 35 36 96 37 36 38 95 39 37 40 38 41 39 42 89 43 40 44
REMARK SMILES IDX 94 45 88 46 90 47 41 48 93 49 87 50 86 51 42 53 74 54 54 55
REMARK SMILES IDX 73 56 55 57 58 58 72 59 91 60 56 61 57 62 71 64 92 65 59 66
REMARK SMILES IDX 43 67 44 68 52 69 45 70 47 71 53 72 46 73 48 74 49 75 50 76
REMARK SMILES IDX 51 77 75 78 76 79 84 80 77 81 79 82 85 83 78 84 80 85 81 86
REMARK SMILES IDX 82 87 83 88 60 89 61 90 69 91 62 92 64 93 70 94 63 95 65 96
REMARK SMILES IDX 66 97 67 98 68 99
REMARK H PARENT 6 16 90 52 58 63
REMARK Flexibility Score: inf
ROOT
ATOM      1  O   UNL A   1      39.403  27.838  29.604  1.00  0.00    -0.377 OA
ENDROOT
BRANCH   1   2
ATOM      2  C   UNL A   1      38.906  29.164  29.795  1.00  0.00     0.188 C 
BRANCH   2   3
ATOM      3  C   UNL A   1      38.283  29.460  31.151  1.00  0.00     0.188 C 
BRANCH   3   4
ATOM      4  O   UNL A   1      37.902  30.807  31.260  1.00  0.00    -0.376 OA
BRANCH   4   5
ATOM      5  C   UNL A   1      36.577  31.128  31.674  1.00  0.00     0.202 C 
BRANCH   5   6
ATOM      6  C   UNL A   1      36.157  31.917  32.949  1.00  0.00     0.261 C 
BRANCH   6   7
ATOM      7  O   UNL A   1      35.222  33.009  32.862  1.00  0.00    -0.462 OA
BRANCH   7   8
ATOM      8  C   UNL A   1      35.653  34.104  32.184  1.00  0.00     0.324 C 
ATOM      9  O   UNL A   1      36.594  34.802  32.573  1.00  0.00    -0.250 OA
BRANCH   8  10
ATOM     10  C   UNL A   1      34.900  34.474  30.907  1.00  0.00     0.179 C 
BRANCH  10  11
ATOM     11  C   UNL A   1      33.507  34.927  31.427  1.00  0.00     0.032 C 
BRANCH  11  12
ATOM     12  C   UNL A   1      33.289  36.442  31.351  1.00  0.00     0.002 C 
BRANCH  12  13
ATOM     13  C   UNL A   1      34.071  37.255  32.378  1.00  0.00    -0.003 C 
ATOM     14  C   UNL A   1      33.831  36.787  33.806  1.00  0.00     0.004 C 
ENDBRANCH  12  13
ENDBRANCH  11  12
ENDBRANCH  10  11
BRANCH  10  15
ATOM     15  N   UNL A   1      34.720  33.555  29.742  1.00  0.00    -0.197 NA
ATOM     16  H   UNL A   1      34.316  32.695  30.112  1.00  0.00     0.142 HD
BRANCH  15  17
ATOM     17  S   UNL A   1      33.763  34.002  28.402  1.00  0.00     0.241 S 
ATOM     18  O   UNL A   1      32.631  34.723  28.942  1.00  0.00    -0.207 OA
ATOM     19  O   UNL A   1      34.596  34.584  27.373  1.00  0.00    -0.207 OA
BRANCH  17  20
ATOM     20  C   UNL A   1      33.102  32.471  27.803  1.00  0.00     0.085 A 
ATOM     21  C   UNL A   1      31.589  32.431  26.784  1.00  0.00     0.022 A 
ATOM     22  C   UNL A   1      34.244  31.083  27.779  1.00  0.00     0.061 A 
ATOM     23  C   UNL A   1      31.267  30.985  25.713  1.00  0.00     0.004 A 
ATOM     24  C   UNL A   1      33.904  29.668  26.745  1.00  0.00     0.124 A 
ATOM     25  C   UNL A   1      32.441  29.606  25.706  1.00  0.00     0.039 A 
ATOM     26  F   UNL A   1      34.780  28.657  26.717  1.00  0.00    -0.207 F 
ENDBRANCH  17  20
ENDBRANCH  15  17
ENDBRANCH  10  15
ENDBRANCH   8  10
ENDBRANCH   7   8
ENDBRANCH   6   7
ENDBRANCH   5   6
ENDBRANCH   4   5
ENDBRANCH   3   4
ENDBRANCH   2   3
ENDBRANCH   1   2
BRANCH   1  27
ATOM     27  C   UNL A   1      39.353  27.131  28.197  1.00  0.00     0.188 C 
BRANCH  27  28
ATOM     28  C   UNL A   1      39.196  24.982  27.780  1.00  0.00     0.188 C 
BRANCH  28  29
ATOM     29  O   UNL A   1      39.748  24.167  26.546  1.00  0.00    -0.376 OA
BRANCH  29  30
ATOM     30  C   UNL A   1      39.753  22.739  26.664  1.00  0.00     0.202 C 
BRANCH  30  31
ATOM     31  C   UNL A   1      40.909  21.968  26.018  1.00  0.00     0.261 C 
BRANCH  31  32
ATOM     32  O   UNL A   1      42.151  22.670  25.980  1.00  0.00    -0.460 OA
BRANCH  32  33
ATOM     33  C   UNL A   1      42.766  22.771  27.184  1.00  0.00     0.338 C 
ATOM     34  O   UNL A   1      42.930  21.877  27.999  1.00  0.00    -0.246 OA
BRANCH  33  35
ATOM     35  C   UNL A   1      43.330  24.132  27.330  1.00  0.00     0.060 A 
ATOM     36  C   UNL A   1      43.311  24.972  26.210  1.00  0.00     0.016 A 
ATOM     37  C   UNL A   1      43.902  24.570  28.529  1.00  0.00     0.016 A 
ATOM     38  C   UNL A   1      43.936  26.217  26.262  1.00  0.00     0.010 A 
ATOM     39  C   UNL A   1      44.538  25.814  28.578  1.00  0.00     0.010 A 
ATOM     40  C   UNL A   1      44.609  26.615  27.425  1.00  0.00    -0.014 A 
BRANCH  40  41
ATOM     41  C   UNL A   1      45.595  27.718  27.330  1.00  0.00     0.031 A 
ATOM     42  C   UNL A   1      45.172  29.080  27.816  1.00  0.00     0.074 A 
ATOM     43  C   UNL A   1      46.849  27.522  26.889  1.00  0.00     0.049 A 
ATOM     44  N   UNL A   1      45.878  30.173  27.932  1.00  0.00    -0.248 NA
ATOM     45  C   UNL A   1      43.766  29.226  28.236  1.00  0.00     0.031 C 
ATOM     46  C   UNL A   1      47.386  26.253  26.404  1.00  0.00     0.029 A 
ATOM     47  N   UNL A   1      47.901  28.399  26.779  1.00  0.00    -0.354 N 
ATOM     48  C   UNL A   1      45.007  31.132  28.433  1.00  0.00     0.074 A 
ATOM     49  C   UNL A   1      43.713  30.506  28.574  1.00  0.00     0.031 C 
ATOM     50  C   UNL A   1      48.667  26.438  26.035  1.00  0.00     0.029 A 
ATOM     51  C   UNL A   1      49.038  27.839  26.247  1.00  0.00     0.049 A 
ATOM     52  H   UNL A   1      47.845  29.343  27.054  1.00  0.00     0.167 HD
ATOM     53  C   UNL A   1      45.264  32.416  28.770  1.00  0.00     0.034 A 
ATOM     54  C   UNL A   1      50.236  28.391  25.963  1.00  0.00     0.034 A 
ATOM     55  C   UNL A   1      46.550  33.040  28.636  1.00  0.00     0.049 A 
ATOM     56  C   UNL A   1      50.488  29.842  26.299  1.00  0.00     0.074 A 
ATOM     57  C   UNL A   1      46.914  34.327  28.989  1.00  0.00     0.029 A 
ATOM     58  N   UNL A   1      47.670  32.438  28.089  1.00  0.00    -0.354 N 
ATOM     59  N   UNL A   1      49.690  30.701  26.884  1.00  0.00    -0.248 NA
ATOM     60  C   UNL A   1      51.813  30.393  25.966  1.00  0.00     0.031 C 
ATOM     61  C   UNL A   1      48.241  34.521  28.605  1.00  0.00     0.029 A 
ATOM     62  C   UNL A   1      48.721  33.337  28.069  1.00  0.00     0.049 A 
ATOM     63  H   UNL A   1      47.713  31.511  27.762  1.00  0.00     0.167 HD
ATOM     64  C   UNL A   1      50.425  31.876  27.027  1.00  0.00     0.074 A 
ATOM     65  C   UNL A   1      51.735  31.619  26.470  1.00  0.00     0.031 C 
ATOM     66  C   UNL A   1      50.042  33.058  27.565  1.00  0.00     0.034 A 
BRANCH  53  67
ATOM     67  C   UNL A   1      44.141  33.238  29.342  1.00  0.00     0.023 A 
ATOM     68  C   UNL A   1      43.365  34.048  28.490  1.00  0.00     0.012 A 
ATOM     69  C   UNL A   1      43.795  33.127  30.703  1.00  0.00     0.148 A 
ATOM     70  C   UNL A   1      42.270  34.753  28.988  1.00  0.00     0.002 A 
ATOM     71  C   UNL A   1      42.674  33.792  31.181  1.00  0.00     0.091 A 
ATOM     72  F   UNL A   1      44.561  32.367  31.497  1.00  0.00    -0.205 F 
ATOM     73  C   UNL A   1      41.916  34.613  30.328  1.00  0.00     0.022 A 
BRANCH  71  74
ATOM     74  S   UNL A   1      42.082  33.607  32.866  1.00  0.00     0.127 S 
ATOM     75  O   UNL A   1      41.897  32.159  32.955  1.00  0.00    -0.237 OA
ATOM     76  O   UNL A   1      43.207  34.126  33.643  1.00  0.00    -0.237 OA
ATOM     77  O   UNL A   1      40.861  34.394  32.956  1.00  0.00    -0.744 OA
ENDBRANCH  71  74
ENDBRANCH  53  67
BRANCH  54  78
ATOM     78  C   UNL A   1      51.312  27.551  25.361  1.00  0.00     0.023 A 
ATOM     79  C   UNL A   1      51.923  26.538  26.126  1.00  0.00     0.012 A 
ATOM     80  C   UNL A   1      51.708  27.730  24.020  1.00  0.00     0.148 A 
ATOM     81  C   UNL A   1      52.922  25.733  25.573  1.00  0.00     0.002 A 
ATOM     82  C   UNL A   1      52.659  26.887  23.459  1.00  0.00     0.091 A 
ATOM     83  F   UNL A   1      51.127  28.711  23.315  1.00  0.00    -0.205 F 
ATOM     84  C   UNL A   1      53.279  25.898  24.237  1.00  0.00     0.022 A 
BRANCH  82  85
ATOM     85  S   UNL A   1      53.088  26.938  21.715  1.00  0.00     0.127 S 
ATOM     86  O   UNL A   1      52.026  26.130  21.121  1.00  0.00    -0.237 OA
ATOM     87  O   UNL A   1      53.006  28.370  21.431  1.00  0.00    -0.237 OA
ATOM     88  O   UNL A   1      54.429  26.379  21.617  1.00  0.00    -0.744 OA
ENDBRANCH  82  85
ENDBRANCH  54  78
BRANCH  66  89
ATOM     89  C   UNL A   1      51.036  34.189  27.640  1.00  0.00     0.023 A 
ATOM     90  C   UNL A   1      51.777  34.396  28.819  1.00  0.00     0.012 A 
ATOM     91  C   UNL A   1      51.368  34.914  26.475  1.00  0.00     0.148 A 
ATOM     92  C   UNL A   1      52.835  35.305  28.837  1.00  0.00     0.002 A 
ATOM     93  C   UNL A   1      52.457  35.778  26.488  1.00  0.00     0.091 A 
ATOM     94  F   UNL A   1      50.643  34.706  25.367  1.00  0.00    -0.205 F 
ATOM     95  C   UNL A   1      53.186  35.980  27.669  1.00  0.00     0.022 A 
BRANCH  93  96
ATOM     96  S   UNL A   1      53.058  36.600  25.007  1.00  0.00     0.127 S 
ATOM     97  O   UNL A   1      53.483  35.464  24.189  1.00  0.00    -0.237 OA
ATOM     98  O   UNL A   1      51.858  37.283  24.526  1.00  0.00    -0.237 OA
ATOM     99  O   UNL A   1      54.133  37.483  25.439  1.00  0.00    -0.744 OA
ENDBRANCH  93  96
ENDBRANCH  66  89
ENDBRANCH  40  41
ENDBRANCH  33  35
ENDBRANCH  32  33
ENDBRANCH  31  32
ENDBRANCH  30  31
ENDBRANCH  29  30
ENDBRANCH  28  29
ENDBRANCH  27  28
ENDBRANCH   1  27
TORSDOF 29
ENDMDL
MODEL 3
REMARK VINA RESULT:      -7.2      7.681     12.651
REMARK SMILES CCCC[C@H](NS(=O)(=O)c1cccc(F)c1)C(=O)OCCOCCOCCOCCOC(=O)c1ccc(-c2c3nc(c(-c4cccc(S(=O)(=O)[O-])c4F)c4ccc([nH]4)c(-c4cccc(S(=O)(=O)[O-])c4F)c4nc(c(-c5cccc(S(=O)(=O)[O-])c5F)c5ccc2[nH]5)C=C4)C=C3)cc1
REMARK SMILES IDX 25 1 24 2 23 3 22 4 21 5 20 6 19 7 17 8 18 9 5 10 4 11 3 12
REMARK SMILES IDX 2 13 1 14 6 15 7 17 8 18 9 19 10 20 11 21 16 22 12 23 14 24
REMARK SMILES IDX 13 25 15 26 26 27 27 28 28 29 29 30 30 31 31 32 32 33 33 34
REMARK SMILES IDX 34 35 35 36 96 37 36 38 95 39 37 40 38 41 39 42 89 43 40 44
REMARK SMILES IDX 94 45 88 46 90 47 41 48 93 49 87 50 86 51 42 53 74 54 54 55
REMARK SMILES IDX 73 56 55 57 58 58 72 59 91 60 56 61 57 62 71 64 92 65 59 66
REMARK SMILES IDX 43 67 44 68 52 69 45 70 47 71 53 72 46 73 48 74 49 75 50 76
REMARK SMILES IDX 51 77 75 78 76 79 84 80 77 81 79 82 85 83 78 84 80 85 81 86
REMARK SMILES IDX 82 87 83 88 60 89 61 90 69 91 62 92 64 93 70 94 63 95 65 96
REMARK SMILES IDX 66 97 67 98 68 99
REMARK H PARENT 6 16 90 52 58 63
REMARK Flexibility Score: inf
ROOT
ATOM      1  O   UNL A   1      38.530  31.697  40.389  1.00  0.00    -0.377 OA
ENDROOT
BRANCH   1   2
ATOM      2  C   UNL A   1      38.498  32.941  39.688  1.00  0.00     0.188 C 
BRANCH   2   3
ATOM      3  C   UNL A   1      38.426  32.856  38.170  1.00  0.00     0.188 C 
BRANCH   3   4
ATOM      4  O   UNL A   1      39.317  33.754  37.560  1.00  0.00    -0.376 OA
BRANCH   4   5
ATOM      5  C   UNL A   1      38.844  34.622  36.536  1.00  0.00     0.202 C 
BRANCH   5   6
ATOM      6  C   UNL A   1      39.376  34.730  35.077  1.00  0.00     0.261 C 
BRANCH   6   7
ATOM      7  O   UNL A   1      38.491  34.536  33.956  1.00  0.00    -0.462 OA
BRANCH   7   8
ATOM      8  C   UNL A   1      39.048  33.970  32.855  1.00  0.00     0.324 C 
ATOM      9  O   UNL A   1      40.074  34.406  32.325  1.00  0.00    -0.250 OA
BRANCH   8  10
ATOM     10  C   UNL A   1      38.330  32.760  32.255  1.00  0.00     0.179 C 
BRANCH  10  11
ATOM     11  C   UNL A   1      39.076  31.549  32.884  1.00  0.00     0.032 C 
BRANCH  11  12
ATOM     12  C   UNL A   1      40.511  31.871  33.313  1.00  0.00     0.002 C 
BRANCH  12  13
ATOM     13  C   UNL A   1      40.911  31.322  34.679  1.00  0.00    -0.003 C 
ATOM     14  C   UNL A   1      41.867  30.142  34.583  1.00  0.00     0.004 C 
ENDBRANCH  12  13
ENDBRANCH  11  12
ENDBRANCH  10  11
BRANCH  10  15
ATOM     15  N   UNL A   1      38.157  32.529  30.789  1.00  0.00    -0.197 NA
ATOM     16  H   UNL A   1      37.888  31.551  30.681  1.00  0.00     0.142 HD
BRANCH  15  17
ATOM     17  S   UNL A   1      37.041  33.442  29.876  1.00  0.00     0.241 S 
ATOM     18  O   UNL A   1      35.943  33.741  30.770  1.00  0.00    -0.207 OA
ATOM     19  O   UNL A   1      37.731  34.494  29.164  1.00  0.00    -0.207 OA
BRANCH  17  20
ATOM     20  C   UNL A   1      36.388  32.289  28.700  1.00  0.00     0.085 A 
ATOM     21  C   UNL A   1      37.212  30.691  28.387  1.00  0.00     0.022 A 
ATOM     22  C   UNL A   1      34.660  32.515  28.260  1.00  0.00     0.061 A 
ATOM     23  C   UNL A   1      36.254  29.316  27.659  1.00  0.00     0.004 A 
ATOM     24  C   UNL A   1      33.743  31.168  27.530  1.00  0.00     0.124 A 
ATOM     25  C   UNL A   1      34.512  29.573  27.235  1.00  0.00     0.039 A 
ATOM     26  F   UNL A   1      32.449  31.344  27.237  1.00  0.00    -0.207 F 
ENDBRANCH  17  20
ENDBRANCH  15  17
ENDBRANCH  10  15
ENDBRANCH   8  10
ENDBRANCH   7   8
ENDBRANCH   6   7
ENDBRANCH   5   6
ENDBRANCH   4   5
ENDBRANCH   3   4
ENDBRANCH   2   3
ENDBRANCH   1   2
BRANCH   1  27
ATOM     27  C   UNL A   1      38.725  31.634  41.951  1.00  0.00     0.188 C 
BRANCH  27  28
ATOM     28  C   UNL A   1      40.615  31.576  43.066  1.00  0.00     0.188 C 
BRANCH  28  29
ATOM     29  O   UNL A   1      41.813  30.558  42.937  1.00  0.00    -0.376 OA
BRANCH  29  30
ATOM     30  C   UNL A   1      42.960  30.998  42.199  1.00  0.00     0.202 C 
BRANCH  30  31
ATOM     31  C   UNL A   1      42.765  32.107  41.159  1.00  0.00     0.261 C 
BRANCH  31  32
ATOM     32  O   UNL A   1      43.371  31.853  39.893  1.00  0.00    -0.460 OA
BRANCH  32  33
ATOM     33  C   UNL A   1      44.319  32.757  39.543  1.00  0.00     0.338 C 
ATOM     34  O   UNL A   1      45.249  33.145  40.232  1.00  0.00    -0.246 OA
BRANCH  33  35
ATOM     35  C   UNL A   1      44.132  33.134  38.123  1.00  0.00     0.060 A 
ATOM     36  C   UNL A   1      45.275  33.275  37.328  1.00  0.00     0.016 A 
ATOM     37  C   UNL A   1      42.864  33.381  37.586  1.00  0.00     0.016 A 
ATOM     38  C   UNL A   1      45.161  33.742  36.020  1.00  0.00     0.010 A 
ATOM     39  C   UNL A   1      42.751  33.861  36.277  1.00  0.00     0.010 A 
ATOM     40  C   UNL A   1      43.905  34.100  35.512  1.00  0.00    -0.014 A 
BRANCH  40  41
ATOM     41  C   UNL A   1      43.848  34.965  34.308  1.00  0.00     0.031 A 
ATOM     42  C   UNL A   1      43.788  34.290  32.962  1.00  0.00     0.074 A 
ATOM     43  C   UNL A   1      43.787  36.305  34.392  1.00  0.00     0.049 A 
ATOM     44  N   UNL A   1      43.631  34.819  31.778  1.00  0.00    -0.248 NA
ATOM     45  C   UNL A   1      43.911  32.820  32.952  1.00  0.00     0.031 C 
ATOM     46  C   UNL A   1      43.825  37.078  35.631  1.00  0.00     0.029 A 
ATOM     47  N   UNL A   1      43.682  37.253  33.403  1.00  0.00    -0.354 N 
ATOM     48  C   UNL A   1      43.640  33.755  30.886  1.00  0.00     0.074 A 
ATOM     49  C   UNL A   1      43.845  32.550  31.657  1.00  0.00     0.031 C 
ATOM     50  C   UNL A   1      43.756  38.387  35.326  1.00  0.00     0.029 A 
ATOM     51  C   UNL A   1      43.681  38.546  33.872  1.00  0.00     0.049 A 
ATOM     52  H   UNL A   1      43.615  37.029  32.447  1.00  0.00     0.167 HD
ATOM     53  C   UNL A   1      43.468  33.772  29.545  1.00  0.00     0.034 A 
ATOM     54  C   UNL A   1      43.628  39.719  33.207  1.00  0.00     0.034 A 
ATOM     55  C   UNL A   1      43.259  34.966  28.777  1.00  0.00     0.049 A 
ATOM     56  C   UNL A   1      43.488  39.719  31.703  1.00  0.00     0.074 A 
ATOM     57  C   UNL A   1      43.036  35.077  27.416  1.00  0.00     0.029 A 
ATOM     58  N   UNL A   1      43.271  36.252  29.291  1.00  0.00    -0.354 N 
ATOM     59  N   UNL A   1      43.377  38.699  30.887  1.00  0.00    -0.248 NA
ATOM     60  C   UNL A   1      43.436  41.027  31.028  1.00  0.00     0.031 C 
ATOM     61  C   UNL A   1      42.967  36.433  27.099  1.00  0.00     0.029 A 
ATOM     62  C   UNL A   1      43.086  37.165  28.269  1.00  0.00     0.049 A 
ATOM     63  H   UNL A   1      43.392  36.481  30.240  1.00  0.00     0.167 HD
ATOM     64  C   UNL A   1      43.200  39.238  29.616  1.00  0.00     0.074 A 
ATOM     65  C   UNL A   1      43.216  40.677  29.767  1.00  0.00     0.031 C 
ATOM     66  C   UNL A   1      43.046  38.596  28.433  1.00  0.00     0.034 A 
BRANCH  53  67
ATOM     67  C   UNL A   1      43.474  32.458  28.812  1.00  0.00     0.023 A 
ATOM     68  C   UNL A   1      44.594  32.095  28.038  1.00  0.00     0.012 A 
ATOM     69  C   UNL A   1      42.415  31.543  28.975  1.00  0.00     0.148 A 
ATOM     70  C   UNL A   1      44.651  30.848  27.418  1.00  0.00     0.002 A 
ATOM     71  C   UNL A   1      42.501  30.284  28.396  1.00  0.00     0.091 A 
ATOM     72  F   UNL A   1      41.352  31.920  29.699  1.00  0.00    -0.205 F 
ATOM     73  C   UNL A   1      43.614  29.938  27.610  1.00  0.00     0.022 A 
BRANCH  71  74
ATOM     74  S   UNL A   1      41.263  29.011  28.656  1.00  0.00     0.127 S 
ATOM     75  O   UNL A   1      40.787  29.334  30.001  1.00  0.00    -0.237 OA
ATOM     76  O   UNL A   1      40.306  29.292  27.586  1.00  0.00    -0.237 OA
ATOM     77  O   UNL A   1      41.959  27.738  28.536  1.00  0.00    -0.744 OA
ENDBRANCH  71  74
ENDBRANCH  53  67
BRANCH  54  78
ATOM     78  C   UNL A   1      43.663  41.002  33.968  1.00  0.00     0.023 A 
ATOM     79  C   UNL A   1      42.461  41.670  34.274  1.00  0.00     0.012 A 
ATOM     80  C   UNL A   1      44.882  41.543  34.420  1.00  0.00     0.148 A 
ATOM     81  C   UNL A   1      42.475  42.864  34.998  1.00  0.00     0.002 A 
ATOM     82  C   UNL A   1      44.884  42.699  35.192  1.00  0.00     0.091 A 
ATOM     83  F   UNL A   1      46.016  40.902  34.104  1.00  0.00    -0.205 F 
ATOM     84  C   UNL A   1      43.684  43.371  35.468  1.00  0.00     0.022 A 
BRANCH  82  85
ATOM     85  S   UNL A   1      46.376  43.353  35.950  1.00  0.00     0.127 S 
ATOM     86  O   UNL A   1      46.786  44.367  34.982  1.00  0.00    -0.237 OA
ATOM     87  O   UNL A   1      45.861  43.879  37.214  1.00  0.00    -0.237 OA
ATOM     88  O   UNL A   1      47.281  42.221  36.092  1.00  0.00    -0.744 OA
ENDBRANCH  82  85
ENDBRANCH  54  78
BRANCH  66  89
ATOM     89  C   UNL A   1      42.835  39.405  27.178  1.00  0.00     0.023 A 
ATOM     90  C   UNL A   1      41.528  39.680  26.732  1.00  0.00     0.012 A 
ATOM     91  C   UNL A   1      43.929  40.050  26.563  1.00  0.00     0.148 A 
ATOM     92  C   UNL A   1      41.313  40.587  25.694  1.00  0.00     0.002 A 
ATOM     93  C   UNL A   1      43.703  40.991  25.565  1.00  0.00     0.091 A 
ATOM     94  F   UNL A   1      45.163  39.765  27.000  1.00  0.00    -0.205 F 
ATOM     95  C   UNL A   1      42.397  41.255  25.125  1.00  0.00     0.022 A 
BRANCH  93  96
ATOM     96  S   UNL A   1      45.020  41.987  24.857  1.00  0.00     0.127 S 
ATOM     97  O   UNL A   1      45.926  40.958  24.342  1.00  0.00    -0.237 OA
ATOM     98  O   UNL A   1      44.311  42.745  23.827  1.00  0.00    -0.237 OA
ATOM     99  O   UNL A   1      45.556  42.789  25.948  1.00  0.00    -0.744 OA
ENDBRANCH  93  96
ENDBRANCH  66  89
ENDBRANCH  40  41
ENDBRANCH  33  35
ENDBRANCH  32  33
ENDBRANCH  31  32
ENDBRANCH  30  31
ENDBRANCH  29  30
ENDBRANCH  28  29
ENDBRANCH  27  28
ENDBRANCH   1  27
TORSDOF 29
ENDMDL
