MODEL 1
REMARK VINA RESULT:      -8.2      0.000      0.000
REMARK SMILES C[C@H]1[C@@H](C(=O)OCCOCCOCCOCCOC(=O)c2ccc(-c3c4nc(c(-c5cccc(S(=O)(=O)[O-])c5F)c5ccc([nH]5)c(-c5cccc(S(=O)(=O)[O-])c5F)c5nc(c(-c6cccc(S(=O)(=O)[O-])c6F)c6ccc3[nH]6)C=C5)C=C4)cc2)CCN1C(=O)c1cc2cc(F)ccc2s1
REMARK SMILES IDX 13 1 12 2 11 3 10 4 9 5 8 6 7 7 6 8 4 9 5 10 3 11 1 12 2 13
REMARK SMILES IDX 86 14 84 15 85 16 87 17 88 18 89 19 90 20 98 21 91 22 97 23
REMARK SMILES IDX 92 24 96 25 93 26 95 27 94 28 14 29 15 30 16 31 17 32 18 33
REMARK SMILES IDX 19 34 20 35 21 36 22 37 83 38 23 39 82 40 24 41 25 42 26 43
REMARK SMILES IDX 76 44 27 45 81 46 75 47 77 48 28 49 80 50 74 51 73 52 29 54
REMARK SMILES IDX 61 55 41 56 60 57 42 58 45 59 59 60 78 61 43 62 44 63 58 65
REMARK SMILES IDX 79 66 46 67 30 68 31 69 39 70 32 71 34 72 40 73 33 74 35 75
REMARK SMILES IDX 36 76 37 77 38 78 62 79 63 80 71 81 64 82 66 83 72 84 65 85
REMARK SMILES IDX 67 86 68 87 69 88 70 89 47 90 48 91 56 92 49 93 51 94 57 95
REMARK SMILES IDX 50 96 52 97 53 98 54 99 55 100
REMARK H PARENT 77 53 45 64
REMARK Flexibility Score: inf
ROOT
ATOM      1  C   UNL A   1      36.085  33.600  28.523  1.00  0.00     0.188 C 
ENDROOT
BRANCH   1   2
ATOM      2  O   UNL A   1      35.180  32.994  27.632  1.00  0.00    -0.377 OA
BRANCH   2   3
ATOM      3  C   UNL A   1      34.502  31.817  28.023  1.00  0.00     0.188 C 
BRANCH   3   4
ATOM      4  C   UNL A   1      34.920  30.356  27.733  1.00  0.00     0.188 C 
BRANCH   4   5
ATOM      5  O   UNL A   1      34.091  29.538  26.949  1.00  0.00    -0.376 OA
BRANCH   5   6
ATOM      6  C   UNL A   1      33.054  28.739  27.472  1.00  0.00     0.202 C 
BRANCH   6   7
ATOM      7  C   UNL A   1      31.933  28.079  26.651  1.00  0.00     0.261 C 
BRANCH   7   8
ATOM      8  O   UNL A   1      31.242  28.874  25.683  1.00  0.00    -0.463 OA
BRANCH   8   9
ATOM      9  C   UNL A   1      31.023  28.313  24.475  1.00  0.00     0.311 C 
ATOM     10  O   UNL A   1      30.544  28.922  23.522  1.00  0.00    -0.252 OA
BRANCH   9  11
ATOM     11  C   UNL A   1      31.518  26.877  24.320  1.00  0.00     0.123 C 
ATOM     12  C   UNL A   1      33.719  27.555  23.039  1.00  0.00     0.032 C 
ATOM     13  C   UNL A   1      32.785  26.454  23.529  1.00  0.00     0.096 C 
ATOM     14  N   UNL A   1      32.315  25.487  22.525  1.00  0.00    -0.334 N 
ATOM     15  C   UNL A   1      30.370  25.993  23.801  1.00  0.00     0.039 C 
ATOM     16  C   UNL A   1      30.903  25.209  22.630  1.00  0.00     0.121 C 
BRANCH  14  17
ATOM     17  C   UNL A   1      33.038  24.609  21.730  1.00  0.00     0.264 C 
ATOM     18  O   UNL A   1      33.249  24.902  20.548  1.00  0.00    -0.268 OA
BRANCH  17  19
ATOM     19  C   UNL A   1      33.616  23.397  22.280  1.00  0.00     0.093 A 
ATOM     20  C   UNL A   1      34.442  23.328  23.398  1.00  0.00     0.034 A 
ATOM     21  S   UNL A   1      32.498  22.075  22.452  1.00  0.00    -0.130 S 
ATOM     22  C   UNL A   1      33.570  23.102  24.538  1.00  0.00    -0.004 A 
ATOM     23  C   UNL A   1      32.365  22.511  24.128  1.00  0.00     0.035 A 
ATOM     24  C   UNL A   1      33.697  23.487  25.891  1.00  0.00     0.048 A 
ATOM     25  C   UNL A   1      31.266  22.362  24.989  1.00  0.00     0.022 A 
ATOM     26  C   UNL A   1      32.585  23.394  26.727  1.00  0.00     0.123 A 
ATOM     27  C   UNL A   1      31.381  22.864  26.287  1.00  0.00     0.041 A 
ATOM     28  F   UNL A   1      32.668  23.875  27.976  1.00  0.00    -0.207 F 
ENDBRANCH  17  19
ENDBRANCH  14  17
ENDBRANCH   9  11
ENDBRANCH   8   9
ENDBRANCH   7   8
ENDBRANCH   6   7
ENDBRANCH   5   6
ENDBRANCH   4   5
ENDBRANCH   3   4
ENDBRANCH   2   3
ENDBRANCH   1   2
BRANCH   1  29
ATOM     29  C   UNL A   1      37.437  32.884  28.645  1.00  0.00     0.188 C 
BRANCH  29  30
ATOM     30  O   UNL A   1      38.125  33.181  29.850  1.00  0.00    -0.376 OA
BRANCH  30  31
ATOM     31  C   UNL A   1      38.991  32.207  30.412  1.00  0.00     0.202 C 
BRANCH  31  32
ATOM     32  C   UNL A   1      38.878  30.705  30.075  1.00  0.00     0.261 C 
BRANCH  32  33
ATOM     33  O   UNL A   1      38.544  29.801  31.134  1.00  0.00    -0.460 OA
BRANCH  33  34
ATOM     34  C   UNL A   1      37.382  30.008  31.788  1.00  0.00     0.338 C 
ATOM     35  O   UNL A   1      36.283  29.602  31.471  1.00  0.00    -0.246 OA
BRANCH  34  36
ATOM     36  C   UNL A   1      37.709  30.636  33.087  1.00  0.00     0.060 A 
ATOM     37  C   UNL A   1      36.990  31.773  33.479  1.00  0.00     0.016 A 
ATOM     38  C   UNL A   1      38.709  30.112  33.909  1.00  0.00     0.016 A 
ATOM     39  C   UNL A   1      37.309  32.426  34.663  1.00  0.00     0.010 A 
ATOM     40  C   UNL A   1      39.053  30.789  35.083  1.00  0.00     0.010 A 
ATOM     41  C   UNL A   1      38.389  31.979  35.431  1.00  0.00    -0.014 A 
BRANCH  41  42
ATOM     42  C   UNL A   1      38.957  32.907  36.436  1.00  0.00     0.031 A 
ATOM     43  C   UNL A   1      38.454  32.817  37.851  1.00  0.00     0.074 A 
ATOM     44  C   UNL A   1      39.960  33.746  36.122  1.00  0.00     0.049 A 
ATOM     45  N   UNL A   1      38.836  33.480  38.911  1.00  0.00    -0.248 NA
ATOM     46  C   UNL A   1      37.378  31.843  38.109  1.00  0.00     0.031 C 
ATOM     47  C   UNL A   1      40.551  33.898  34.795  1.00  0.00     0.029 A 
ATOM     48  N   UNL A   1      40.651  34.634  36.906  1.00  0.00    -0.354 N 
ATOM     49  C   UNL A   1      38.027  33.031  39.948  1.00  0.00     0.074 A 
ATOM     50  C   UNL A   1      37.123  32.051  39.390  1.00  0.00     0.031 C 
ATOM     51  C   UNL A   1      41.508  34.840  34.851  1.00  0.00     0.029 A 
ATOM     52  C   UNL A   1      41.575  35.375  36.210  1.00  0.00     0.049 A 
ATOM     53  H   UNL A   1      40.500  34.731  37.874  1.00  0.00     0.167 HD
ATOM     54  C   UNL A   1      38.043  33.392  41.252  1.00  0.00     0.034 A 
ATOM     55  C   UNL A   1      42.364  36.388  36.621  1.00  0.00     0.034 A 
ATOM     56  C   UNL A   1      38.945  34.366  41.802  1.00  0.00     0.049 A 
ATOM     57  C   UNL A   1      42.327  36.806  38.068  1.00  0.00     0.074 A 
ATOM     58  C   UNL A   1      39.065  34.780  43.117  1.00  0.00     0.029 A 
ATOM     59  N   UNL A   1      39.863  35.100  41.067  1.00  0.00    -0.354 N 
ATOM     60  N   UNL A   1      41.620  36.312  39.056  1.00  0.00    -0.248 NA
ATOM     61  C   UNL A   1      43.229  37.897  38.464  1.00  0.00     0.031 C 
ATOM     62  C   UNL A   1      40.010  35.808  43.166  1.00  0.00     0.029 A 
ATOM     63  C   UNL A   1      40.537  35.980  41.896  1.00  0.00     0.049 A 
ATOM     64  H   UNL A   1      40.013  35.008  40.099  1.00  0.00     0.167 HD
ATOM     65  C   UNL A   1      42.022  37.001  40.196  1.00  0.00     0.074 A 
ATOM     66  C   UNL A   1      43.051  37.931  39.777  1.00  0.00     0.031 C 
ATOM     67  C   UNL A   1      41.581  36.877  41.473  1.00  0.00     0.034 A 
BRANCH  54  68
ATOM     68  C   UNL A   1      37.039  32.744  42.169  1.00  0.00     0.023 A 
ATOM     69  C   UNL A   1      37.412  31.649  42.977  1.00  0.00     0.012 A 
ATOM     70  C   UNL A   1      35.728  33.251  42.258  1.00  0.00     0.148 A 
ATOM     71  C   UNL A   1      36.486  31.046  43.827  1.00  0.00     0.002 A 
ATOM     72  C   UNL A   1      34.827  32.681  43.148  1.00  0.00     0.091 A 
ATOM     73  F   UNL A   1      35.385  34.278  41.467  1.00  0.00    -0.205 F 
ATOM     74  C   UNL A   1      35.198  31.569  43.921  1.00  0.00     0.022 A 
BRANCH  72  75
ATOM     75  S   UNL A   1      33.174  33.332  43.402  1.00  0.00     0.127 S 
ATOM     76  O   UNL A   1      33.452  34.739  43.689  1.00  0.00    -0.237 OA
ATOM     77  O   UNL A   1      32.548  33.088  42.102  1.00  0.00    -0.237 OA
ATOM     78  O   UNL A   1      32.604  32.575  44.507  1.00  0.00    -0.744 OA
ENDBRANCH  72  75
ENDBRANCH  54  68
BRANCH  55  79
ATOM     79  C   UNL A   1      43.262  37.078  35.653  1.00  0.00     0.023 A 
ATOM     80  C   UNL A   1      42.731  38.004  34.733  1.00  0.00     0.012 A 
ATOM     81  C   UNL A   1      44.644  36.808  35.636  1.00  0.00     0.148 A 
ATOM     82  C   UNL A   1      43.555  38.615  33.786  1.00  0.00     0.002 A 
ATOM     83  C   UNL A   1      45.467  37.466  34.733  1.00  0.00     0.091 A 
ATOM     84  F   UNL A   1      45.125  35.917  36.514  1.00  0.00    -0.205 F 
ATOM     85  C   UNL A   1      44.922  38.353  33.792  1.00  0.00     0.022 A 
BRANCH  83  86
ATOM     86  S   UNL A   1      47.253  37.284  34.749  1.00  0.00     0.127 S 
ATOM     87  O   UNL A   1      47.652  38.153  33.644  1.00  0.00    -0.237 OA
ATOM     88  O   UNL A   1      47.590  37.786  36.082  1.00  0.00    -0.237 OA
ATOM     89  O   UNL A   1      47.512  35.865  34.556  1.00  0.00    -0.744 OA
ENDBRANCH  83  86
ENDBRANCH  55  79
BRANCH  67  90
ATOM     90  C   UNL A   1      42.255  37.720  42.529  1.00  0.00     0.023 A 
ATOM     91  C   UNL A   1      43.379  37.237  43.227  1.00  0.00     0.012 A 
ATOM     92  C   UNL A   1      41.783  39.021  42.800  1.00  0.00     0.148 A 
ATOM     93  C   UNL A   1      43.983  38.009  44.220  1.00  0.00     0.002 A 
ATOM     94  C   UNL A   1      42.428  39.807  43.744  1.00  0.00     0.091 A 
ATOM     95  F   UNL A   1      40.706  39.462  42.134  1.00  0.00    -0.205 F 
ATOM     96  C   UNL A   1      43.515  39.295  44.470  1.00  0.00     0.022 A 
BRANCH  94  97
ATOM     97  S   UNL A   1      41.958  41.511  44.061  1.00  0.00     0.127 S 
ATOM     98  O   UNL A   1      40.623  41.349  44.635  1.00  0.00    -0.237 OA
ATOM     99  O   UNL A   1      42.983  41.942  45.013  1.00  0.00    -0.237 OA
ATOM    100  O   UNL A   1      42.004  42.190  42.773  1.00  0.00    -0.744 OA
ENDBRANCH  94  97
ENDBRANCH  67  90
ENDBRANCH  41  42
ENDBRANCH  34  36
ENDBRANCH  33  34
ENDBRANCH  32  33
ENDBRANCH  31  32
ENDBRANCH  30  31
ENDBRANCH  29  30
ENDBRANCH   1  29
TORSDOF 25
ENDMDL
MODEL 2
REMARK VINA RESULT:      -8.0     12.874     20.469
REMARK SMILES C[C@H]1[C@@H](C(=O)OCCOCCOCCOCCOC(=O)c2ccc(-c3c4nc(c(-c5cccc(S(=O)(=O)[O-])c5F)c5ccc([nH]5)c(-c5cccc(S(=O)(=O)[O-])c5F)c5nc(c(-c6cccc(S(=O)(=O)[O-])c6F)c6ccc3[nH]6)C=C5)C=C4)cc2)CCN1C(=O)c1cc2cc(F)ccc2s1
REMARK SMILES IDX 13 1 12 2 11 3 10 4 9 5 8 6 7 7 6 8 4 9 5 10 3 11 1 12 2 13
REMARK SMILES IDX 86 14 84 15 85 16 87 17 88 18 89 19 90 20 98 21 91 22 97 23
REMARK SMILES IDX 92 24 96 25 93 26 95 27 94 28 14 29 15 30 16 31 17 32 18 33
REMARK SMILES IDX 19 34 20 35 21 36 22 37 83 38 23 39 82 40 24 41 25 42 26 43
REMARK SMILES IDX 76 44 27 45 81 46 75 47 77 48 28 49 80 50 74 51 73 52 29 54
REMARK SMILES IDX 61 55 41 56 60 57 42 58 45 59 59 60 78 61 43 62 44 63 58 65
REMARK SMILES IDX 79 66 46 67 30 68 31 69 39 70 32 71 34 72 40 73 33 74 35 75
REMARK SMILES IDX 36 76 37 77 38 78 62 79 63 80 71 81 64 82 66 83 72 84 65 85
REMARK SMILES IDX 67 86 68 87 69 88 70 89 47 90 48 91 56 92 49 93 51 94 57 95
REMARK SMILES IDX 50 96 52 97 53 98 54 99 55 100
REMARK H PARENT 77 53 45 64
REMARK Flexibility Score: inf
ROOT
ATOM      1  C   UNL A   1      45.735  43.644  25.871  1.00  0.00     0.188 C 
ENDROOT
BRANCH   1   2
ATOM      2  O   UNL A   1      45.445  43.500  24.502  1.00  0.00    -0.377 OA
BRANCH   2   3
ATOM      3  C   UNL A   1      44.200  43.950  24.004  1.00  0.00     0.188 C 
BRANCH   3   4
ATOM      4  C   UNL A   1      43.094  43.096  23.340  1.00  0.00     0.188 C 
BRANCH   4   5
ATOM      5  O   UNL A   1      43.385  42.363  22.178  1.00  0.00    -0.376 OA
BRANCH   5   6
ATOM      6  C   UNL A   1      42.487  42.208  21.102  1.00  0.00     0.202 C 
BRANCH   6   7
ATOM      7  C   UNL A   1      42.619  42.879  19.724  1.00  0.00     0.261 C 
BRANCH   7   8
ATOM      8  O   UNL A   1      42.139  44.218  19.572  1.00  0.00    -0.463 OA
BRANCH   8   9
ATOM      9  C   UNL A   1      42.765  44.992  18.660  1.00  0.00     0.311 C 
ATOM     10  O   UNL A   1      42.248  45.977  18.139  1.00  0.00    -0.252 OA
BRANCH   9  11
ATOM     11  C   UNL A   1      44.224  44.636  18.390  1.00  0.00     0.123 C 
ATOM     12  C   UNL A   1      45.068  45.405  20.765  1.00  0.00     0.032 C 
ATOM     13  C   UNL A   1      45.404  44.921  19.359  1.00  0.00     0.096 C 
ATOM     14  N   UNL A   1      46.357  45.732  18.587  1.00  0.00    -0.334 N 
ATOM     15  C   UNL A   1      44.644  45.201  17.021  1.00  0.00     0.039 C 
ATOM     16  C   UNL A   1      45.939  45.945  17.221  1.00  0.00     0.121 C 
BRANCH  14  17
ATOM     17  C   UNL A   1      47.679  46.052  18.861  1.00  0.00     0.264 C 
ATOM     18  O   UNL A   1      48.533  45.159  18.829  1.00  0.00    -0.268 OA
BRANCH  17  19
ATOM     19  C   UNL A   1      48.087  47.423  19.104  1.00  0.00     0.093 A 
ATOM     20  C   UNL A   1      48.028  48.463  18.181  1.00  0.00     0.034 A 
ATOM     21  S   UNL A   1      47.500  48.099  20.597  1.00  0.00    -0.130 S 
ATOM     22  C   UNL A   1      46.737  49.103  18.369  1.00  0.00    -0.004 A 
ATOM     23  C   UNL A   1      46.252  48.867  19.664  1.00  0.00     0.035 A 
ATOM     24  C   UNL A   1      45.895  49.772  17.453  1.00  0.00     0.048 A 
ATOM     25  C   UNL A   1      44.945  49.201  20.053  1.00  0.00     0.022 A 
ATOM     26  C   UNL A   1      44.578  50.048  17.823  1.00  0.00     0.123 A 
ATOM     27  C   UNL A   1      44.098  49.750  19.089  1.00  0.00     0.041 A 
ATOM     28  F   UNL A   1      43.743  50.569  16.914  1.00  0.00    -0.207 F 
ENDBRANCH  17  19
ENDBRANCH  14  17
ENDBRANCH   9  11
ENDBRANCH   8   9
ENDBRANCH   7   8
ENDBRANCH   6   7
ENDBRANCH   5   6
ENDBRANCH   4   5
ENDBRANCH   3   4
ENDBRANCH   2   3
ENDBRANCH   1   2
BRANCH   1  29
ATOM     29  C   UNL A   1      44.793  42.874  26.807  1.00  0.00     0.188 C 
BRANCH  29  30
ATOM     30  O   UNL A   1      45.091  41.489  26.889  1.00  0.00    -0.376 OA
BRANCH  30  31
ATOM     31  C   UNL A   1      44.344  40.572  26.104  1.00  0.00     0.202 C 
BRANCH  31  32
ATOM     32  C   UNL A   1      43.071  39.876  26.631  1.00  0.00     0.261 C 
BRANCH  32  33
ATOM     33  O   UNL A   1      42.922  38.472  26.388  1.00  0.00    -0.460 OA
BRANCH  33  34
ATOM     34  C   UNL A   1      42.577  37.692  27.433  1.00  0.00     0.338 C 
ATOM     35  O   UNL A   1      41.703  37.907  28.248  1.00  0.00    -0.246 OA
BRANCH  34  36
ATOM     36  C   UNL A   1      43.303  36.410  27.290  1.00  0.00     0.060 A 
ATOM     37  C   UNL A   1      44.042  35.937  28.382  1.00  0.00     0.016 A 
ATOM     38  C   UNL A   1      43.255  35.684  26.098  1.00  0.00     0.016 A 
ATOM     39  C   UNL A   1      44.786  34.769  28.267  1.00  0.00     0.010 A 
ATOM     40  C   UNL A   1      44.031  34.529  25.971  1.00  0.00     0.010 A 
ATOM     41  C   UNL A   1      44.842  34.101  27.039  1.00  0.00    -0.014 A 
BRANCH  41  42
ATOM     42  C   UNL A   1      45.936  33.127  26.827  1.00  0.00     0.031 A 
ATOM     43  C   UNL A   1      47.296  33.656  26.457  1.00  0.00     0.074 A 
ATOM     44  C   UNL A   1      45.753  31.813  27.045  1.00  0.00     0.049 A 
ATOM     45  N   UNL A   1      48.416  33.007  26.274  1.00  0.00    -0.248 NA
ATOM     46  C   UNL A   1      47.410  35.113  26.273  1.00  0.00     0.031 C 
ATOM     47  C   UNL A   1      44.492  31.189  27.438  1.00  0.00     0.029 A 
ATOM     48  N   UNL A   1      46.637  30.768  26.958  1.00  0.00    -0.354 N 
ATOM     49  C   UNL A   1      49.356  33.970  25.922  1.00  0.00     0.074 A 
ATOM     50  C   UNL A   1      48.672  35.243  25.901  1.00  0.00     0.031 C 
ATOM     51  C   UNL A   1      44.678  29.862  27.542  1.00  0.00     0.029 A 
ATOM     52  C   UNL A   1      46.062  29.543  27.194  1.00  0.00     0.049 A 
ATOM     53  H   UNL A   1      47.592  30.885  26.747  1.00  0.00     0.167 HD
ATOM     54  C   UNL A   1      50.672  33.810  25.653  1.00  0.00     0.034 A 
ATOM     55  C   UNL A   1      46.590  28.306  27.112  1.00  0.00     0.034 A 
ATOM     56  C   UNL A   1      51.346  32.542  25.677  1.00  0.00     0.049 A 
ATOM     57  C   UNL A   1      48.047  28.151  26.761  1.00  0.00     0.074 A 
ATOM     58  C   UNL A   1      52.684  32.276  25.451  1.00  0.00     0.029 A 
ATOM     59  N   UNL A   1      50.731  31.322  25.915  1.00  0.00    -0.354 N 
ATOM     60  N   UNL A   1      48.943  29.076  26.516  1.00  0.00    -0.248 NA
ATOM     61  C   UNL A   1      48.574  26.779  26.713  1.00  0.00     0.031 C 
ATOM     62  C   UNL A   1      52.867  30.891  25.490  1.00  0.00     0.029 A 
ATOM     63  C   UNL A   1      51.658  30.299  25.819  1.00  0.00     0.049 A 
ATOM     64  H   UNL A   1      49.776  31.203  26.122  1.00  0.00     0.167 HD
ATOM     65  C   UNL A   1      50.147  28.403  26.330  1.00  0.00     0.074 A 
ATOM     66  C   UNL A   1      49.865  26.993  26.512  1.00  0.00     0.031 C 
ATOM     67  C   UNL A   1      51.373  28.903  26.034  1.00  0.00     0.034 A 
BRANCH  54  68
ATOM     68  C   UNL A   1      51.464  35.038  25.288  1.00  0.00     0.023 A 
ATOM     69  C   UNL A   1      51.748  35.329  23.938  1.00  0.00     0.012 A 
ATOM     70  C   UNL A   1      51.895  35.929  26.290  1.00  0.00     0.148 A 
ATOM     71  C   UNL A   1      52.481  36.465  23.595  1.00  0.00     0.002 A 
ATOM     72  C   UNL A   1      52.576  37.087  25.938  1.00  0.00     0.091 A 
ATOM     73  F   UNL A   1      51.634  35.625  27.570  1.00  0.00    -0.205 F 
ATOM     74  C   UNL A   1      52.885  37.349  24.593  1.00  0.00     0.022 A 
BRANCH  72  75
ATOM     75  S   UNL A   1      53.065  38.327  27.141  1.00  0.00     0.127 S 
ATOM     76  O   UNL A   1      54.134  37.634  27.860  1.00  0.00    -0.237 OA
ATOM     77  O   UNL A   1      53.517  39.421  26.282  1.00  0.00    -0.237 OA
ATOM     78  O   UNL A   1      51.876  38.619  27.928  1.00  0.00    -0.744 OA
ENDBRANCH  72  75
ENDBRANCH  54  68
BRANCH  55  79
ATOM     79  C   UNL A   1      45.739  27.110  27.372  1.00  0.00     0.023 A 
ATOM     80  C   UNL A   1      45.546  26.653  28.690  1.00  0.00     0.012 A 
ATOM     81  C   UNL A   1      45.130  26.417  26.308  1.00  0.00     0.148 A 
ATOM     82  C   UNL A   1      44.796  25.503  28.939  1.00  0.00     0.002 A 
ATOM     83  C   UNL A   1      44.334  25.310  26.568  1.00  0.00     0.091 A 
ATOM     84  F   UNL A   1      45.335  26.864  25.061  1.00  0.00    -0.205 F 
ATOM     85  C   UNL A   1      44.184  24.837  27.881  1.00  0.00     0.022 A 
BRANCH  83  86
ATOM     86  S   UNL A   1      43.409  24.465  25.282  1.00  0.00     0.127 S 
ATOM     87  O   UNL A   1      42.701  23.441  26.048  1.00  0.00    -0.237 OA
ATOM     88  O   UNL A   1      42.566  25.545  24.766  1.00  0.00    -0.237 OA
ATOM     89  O   UNL A   1      44.399  23.970  24.338  1.00  0.00    -0.744 OA
ENDBRANCH  83  86
ENDBRANCH  55  79
BRANCH  67  90
ATOM     90  C   UNL A   1      52.523  27.930  25.955  1.00  0.00     0.023 A 
ATOM     91  C   UNL A   1      52.882  27.337  24.729  1.00  0.00     0.012 A 
ATOM     92  C   UNL A   1      53.276  27.631  27.110  1.00  0.00     0.148 A 
ATOM     93  C   UNL A   1      53.931  26.419  24.665  1.00  0.00     0.002 A 
ATOM     94  C   UNL A   1      54.356  26.765  27.027  1.00  0.00     0.091 A 
ATOM     95  F   UNL A   1      52.915  28.195  28.272  1.00  0.00    -0.205 F 
ATOM     96  C   UNL A   1      54.672  26.141  25.809  1.00  0.00     0.022 A 
BRANCH  94  97
ATOM     97  S   UNL A   1      55.430  26.427  28.426  1.00  0.00     0.127 S 
ATOM     98  O   UNL A   1      56.338  25.425  27.868  1.00  0.00    -0.237 OA
ATOM     99  O   UNL A   1      56.040  27.735  28.670  1.00  0.00    -0.237 OA
ATOM    100  O   UNL A   1      54.563  25.954  29.497  1.00  0.00    -0.744 OA
ENDBRANCH  94  97
ENDBRANCH  67  90
ENDBRANCH  41  42
ENDBRANCH  34  36
ENDBRANCH  33  34
ENDBRANCH  32  33
ENDBRANCH  31  32
ENDBRANCH  30  31
ENDBRANCH  29  30
ENDBRANCH   1  29
TORSDOF 25
ENDMDL
MODEL 3
REMARK VINA RESULT:      -8.0      6.589     14.177
REMARK SMILES C[C@H]1[C@@H](C(=O)OCCOCCOCCOCCOC(=O)c2ccc(-c3c4nc(c(-c5cccc(S(=O)(=O)[O-])c5F)c5ccc([nH]5)c(-c5cccc(S(=O)(=O)[O-])c5F)c5nc(c(-c6cccc(S(=O)(=O)[O-])c6F)c6ccc3[nH]6)C=C5)C=C4)cc2)CCN1C(=O)c1cc2cc(F)ccc2s1
REMARK SMILES IDX 13 1 12 2 11 3 10 4 9 5 8 6 7 7 6 8 4 9 5 10 3 11 1 12 2 13
REMARK SMILES IDX 86 14 84 15 85 16 87 17 88 18 89 19 90 20 98 21 91 22 97 23
REMARK SMILES IDX 92 24 96 25 93 26 95 27 94 28 14 29 15 30 16 31 17 32 18 33
REMARK SMILES IDX 19 34 20 35 21 36 22 37 83 38 23 39 82 40 24 41 25 42 26 43
REMARK SMILES IDX 76 44 27 45 81 46 75 47 77 48 28 49 80 50 74 51 73 52 29 54
REMARK SMILES IDX 61 55 41 56 60 57 42 58 45 59 59 60 78 61 43 62 44 63 58 65
REMARK SMILES IDX 79 66 46 67 30 68 31 69 39 70 32 71 34 72 40 73 33 74 35 75
REMARK SMILES IDX 36 76 37 77 38 78 62 79 63 80 71 81 64 82 66 83 72 84 65 85
REMARK SMILES IDX 67 86 68 87 69 88 70 89 47 90 48 91 56 92 49 93 51 94 57 95
REMARK SMILES IDX 50 96 52 97 53 98 54 99 55 100
REMARK H PARENT 77 53 45 64
REMARK Flexibility Score: inf
ROOT
ATOM      1  C   UNL A   1      48.199  39.042  30.422  1.00  0.00     0.188 C 
ENDROOT
BRANCH   1   2
ATOM      2  O   UNL A   1      48.350  39.788  31.605  1.00  0.00    -0.377 OA
BRANCH   2   3
ATOM      3  C   UNL A   1      47.476  40.869  31.863  1.00  0.00     0.188 C 
BRANCH   3   4
ATOM      4  C   UNL A   1      47.865  42.323  32.223  1.00  0.00     0.188 C 
BRANCH   4   5
ATOM      5  O   UNL A   1      48.128  42.660  33.561  1.00  0.00    -0.376 OA
BRANCH   5   6
ATOM      6  C   UNL A   1      47.281  43.465  34.349  1.00  0.00     0.202 C 
BRANCH   6   7
ATOM      7  C   UNL A   1      46.064  44.253  33.836  1.00  0.00     0.261 C 
BRANCH   7   8
ATOM      8  O   UNL A   1      44.859  44.220  34.606  1.00  0.00    -0.463 OA
BRANCH   8   9
ATOM      9  C   UNL A   1      44.128  43.086  34.549  1.00  0.00     0.311 C 
ATOM     10  O   UNL A   1      43.318  42.758  35.413  1.00  0.00    -0.252 OA
BRANCH   9  11
ATOM     11  C   UNL A   1      44.282  42.272  33.268  1.00  0.00     0.123 C 
ATOM     12  C   UNL A   1      42.723  43.842  31.836  1.00  0.00     0.032 C 
ATOM     13  C   UNL A   1      43.525  42.549  31.940  1.00  0.00     0.096 C 
ATOM     14  N   UNL A   1      42.815  41.300  31.627  1.00  0.00    -0.334 N 
ATOM     15  C   UNL A   1      44.071  40.780  33.581  1.00  0.00     0.039 C 
ATOM     16  C   UNL A   1      43.084  40.246  32.576  1.00  0.00     0.121 C 
BRANCH  14  17
ATOM     17  C   UNL A   1      42.201  40.898  30.449  1.00  0.00     0.264 C 
ATOM     18  O   UNL A   1      41.166  41.469  30.084  1.00  0.00    -0.268 OA
BRANCH  17  19
ATOM     19  C   UNL A   1      42.792  39.881  29.600  1.00  0.00     0.093 A 
ATOM     20  C   UNL A   1      42.185  39.293  28.494  1.00  0.00     0.034 A 
ATOM     21  S   UNL A   1      44.427  40.215  29.104  1.00  0.00    -0.130 S 
ATOM     22  C   UNL A   1      42.573  40.091  27.342  1.00  0.00    -0.004 A 
ATOM     23  C   UNL A   1      43.769  40.778  27.598  1.00  0.00     0.035 A 
ATOM     24  C   UNL A   1      41.894  40.360  26.133  1.00  0.00     0.048 A 
ATOM     25  C   UNL A   1      44.269  41.769  26.738  1.00  0.00     0.022 A 
ATOM     26  C   UNL A   1      42.360  41.387  25.312  1.00  0.00     0.123 A 
ATOM     27  C   UNL A   1      43.512  42.098  25.612  1.00  0.00     0.041 A 
ATOM     28  F   UNL A   1      41.647  41.727  24.228  1.00  0.00    -0.207 F 
ENDBRANCH  17  19
ENDBRANCH  14  17
ENDBRANCH   9  11
ENDBRANCH   8   9
ENDBRANCH   7   8
ENDBRANCH   6   7
ENDBRANCH   5   6
ENDBRANCH   4   5
ENDBRANCH   3   4
ENDBRANCH   2   3
ENDBRANCH   1   2
BRANCH   1  29
ATOM     29  C   UNL A   1      48.308  39.865  29.131  1.00  0.00     0.188 C 
BRANCH  29  30
ATOM     30  O   UNL A   1      49.125  39.256  28.143  1.00  0.00    -0.376 OA
BRANCH  30  31
ATOM     31  C   UNL A   1      49.401  37.866  28.233  1.00  0.00     0.202 C 
BRANCH  31  32
ATOM     32  C   UNL A   1      48.883  36.850  27.194  1.00  0.00     0.261 C 
BRANCH  32  33
ATOM     33  O   UNL A   1      47.537  36.993  26.726  1.00  0.00    -0.460 OA
BRANCH  33  34
ATOM     34  C   UNL A   1      46.855  35.866  26.434  1.00  0.00     0.338 C 
ATOM     35  O   UNL A   1      47.072  35.098  25.519  1.00  0.00    -0.246 OA
BRANCH  34  36
ATOM     36  C   UNL A   1      45.927  35.604  27.556  1.00  0.00     0.060 A 
ATOM     37  C   UNL A   1      44.955  36.568  27.856  1.00  0.00     0.016 A 
ATOM     38  C   UNL A   1      46.012  34.427  28.302  1.00  0.00     0.016 A 
ATOM     39  C   UNL A   1      44.104  36.386  28.940  1.00  0.00     0.010 A 
ATOM     40  C   UNL A   1      45.181  34.261  29.413  1.00  0.00     0.010 A 
ATOM     41  C   UNL A   1      44.264  35.268  29.766  1.00  0.00    -0.014 A 
BRANCH  41  42
ATOM     42  C   UNL A   1      43.647  35.305  31.111  1.00  0.00     0.031 A 
ATOM     43  C   UNL A   1      44.386  36.015  32.213  1.00  0.00     0.074 A 
ATOM     44  C   UNL A   1      42.421  34.799  31.331  1.00  0.00     0.049 A 
ATOM     45  N   UNL A   1      44.025  36.226  33.451  1.00  0.00    -0.248 NA
ATOM     46  C   UNL A   1      45.708  36.568  31.871  1.00  0.00     0.031 C 
ATOM     47  C   UNL A   1      41.596  34.118  30.335  1.00  0.00     0.029 A 
ATOM     48  N   UNL A   1      41.660  34.779  32.472  1.00  0.00    -0.354 N 
ATOM     49  C   UNL A   1      45.086  36.903  34.042  1.00  0.00     0.074 A 
ATOM     50  C   UNL A   1      46.110  37.053  33.033  1.00  0.00     0.031 C 
ATOM     51  C   UNL A   1      40.447  33.729  30.914  1.00  0.00     0.029 A 
ATOM     52  C   UNL A   1      40.471  34.108  32.326  1.00  0.00     0.049 A 
ATOM     53  H   UNL A   1      41.941  35.204  33.314  1.00  0.00     0.167 HD
ATOM     54  C   UNL A   1      45.194  37.368  35.308  1.00  0.00     0.034 A 
ATOM     55  C   UNL A   1      39.523  33.812  33.238  1.00  0.00     0.034 A 
ATOM     56  C   UNL A   1      44.173  37.216  36.307  1.00  0.00     0.049 A 
ATOM     57  C   UNL A   1      39.690  34.299  34.654  1.00  0.00     0.074 A 
ATOM     58  C   UNL A   1      44.170  37.679  37.611  1.00  0.00     0.029 A 
ATOM     59  N   UNL A   1      42.984  36.527  36.126  1.00  0.00    -0.354 N 
ATOM     60  N   UNL A   1      40.657  35.013  35.177  1.00  0.00    -0.248 NA
ATOM     61  C   UNL A   1      38.611  33.970  35.598  1.00  0.00     0.031 C 
ATOM     62  C   UNL A   1      43.009  37.217  38.235  1.00  0.00     0.029 A 
ATOM     63  C   UNL A   1      42.250  36.533  37.299  1.00  0.00     0.049 A 
ATOM     64  H   UNL A   1      42.703  36.097  35.286  1.00  0.00     0.167 HD
ATOM     65  C   UNL A   1      40.285  35.256  36.495  1.00  0.00     0.074 A 
ATOM     66  C   UNL A   1      38.991  34.630  36.682  1.00  0.00     0.031 C 
ATOM     67  C   UNL A   1      40.950  35.934  37.463  1.00  0.00     0.034 A 
BRANCH  54  68
ATOM     68  C   UNL A   1      46.473  38.068  35.689  1.00  0.00     0.023 A 
ATOM     69  C   UNL A   1      46.591  39.466  35.548  1.00  0.00     0.012 A 
ATOM     70  C   UNL A   1      47.549  37.336  36.228  1.00  0.00     0.148 A 
ATOM     71  C   UNL A   1      47.773  40.117  35.900  1.00  0.00     0.002 A 
ATOM     72  C   UNL A   1      48.702  37.998  36.627  1.00  0.00     0.091 A 
ATOM     73  F   UNL A   1      47.427  36.004  36.334  1.00  0.00    -0.205 F 
ATOM     74  C   UNL A   1      48.823  39.386  36.449  1.00  0.00     0.022 A 
BRANCH  72  75
ATOM     75  S   UNL A   1      50.076  37.158  37.421  1.00  0.00     0.127 S 
ATOM     76  O   UNL A   1      50.743  38.266  38.104  1.00  0.00    -0.237 OA
ATOM     77  O   UNL A   1      49.386  36.221  38.308  1.00  0.00    -0.237 OA
ATOM     78  O   UNL A   1      50.843  36.536  36.353  1.00  0.00    -0.744 OA
ENDBRANCH  72  75
ENDBRANCH  54  68
BRANCH  55  79
ATOM     79  C   UNL A   1      38.325  33.019  32.843  1.00  0.00     0.023 A 
ATOM     80  C   UNL A   1      38.379  31.611  32.840  1.00  0.00     0.012 A 
ATOM     81  C   UNL A   1      37.133  33.661  32.457  1.00  0.00     0.148 A 
ATOM     82  C   UNL A   1      37.281  30.860  32.420  1.00  0.00     0.002 A 
ATOM     83  C   UNL A   1      36.024  32.907  32.099  1.00  0.00     0.091 A 
ATOM     84  F   UNL A   1      37.107  35.001  32.457  1.00  0.00    -0.205 F 
ATOM     85  C   UNL A   1      36.102  31.506  32.059  1.00  0.00     0.022 A 
BRANCH  83  86
ATOM     86  S   UNL A   1      34.429  33.649  31.739  1.00  0.00     0.127 S 
ATOM     87  O   UNL A   1      34.219  33.246  30.350  1.00  0.00    -0.237 OA
ATOM     88  O   UNL A   1      33.565  32.982  32.714  1.00  0.00    -0.237 OA
ATOM     89  O   UNL A   1      34.596  35.078  31.958  1.00  0.00    -0.744 OA
ENDBRANCH  83  86
ENDBRANCH  55  79
BRANCH  67  90
ATOM     90  C   UNL A   1      40.264  36.097  38.798  1.00  0.00     0.023 A 
ATOM     91  C   UNL A   1      39.381  37.170  39.028  1.00  0.00     0.012 A 
ATOM     92  C   UNL A   1      40.476  35.149  39.820  1.00  0.00     0.148 A 
ATOM     93  C   UNL A   1      38.768  37.330  40.272  1.00  0.00     0.002 A 
ATOM     94  C   UNL A   1      39.815  35.280  41.033  1.00  0.00     0.091 A 
ATOM     95  F   UNL A   1      41.328  34.139  39.589  1.00  0.00    -0.205 F 
ATOM     96  C   UNL A   1      38.978  36.381  41.269  1.00  0.00     0.022 A 
BRANCH  94  97
ATOM     97  S   UNL A   1      39.945  34.053  42.338  1.00  0.00     0.127 S 
ATOM     98  O   UNL A   1      39.406  34.782  43.486  1.00  0.00    -0.237 OA
ATOM     99  O   UNL A   1      39.084  32.980  41.839  1.00  0.00    -0.237 OA
ATOM    100  O   UNL A   1      41.356  33.705  42.428  1.00  0.00    -0.744 OA
ENDBRANCH  94  97
ENDBRANCH  67  90
ENDBRANCH  41  42
ENDBRANCH  34  36
ENDBRANCH  33  34
ENDBRANCH  32  33
ENDBRANCH  31  32
ENDBRANCH  30  31
ENDBRANCH  29  30
ENDBRANCH   1  29
TORSDOF 25
ENDMDL
