MODEL 1
REMARK VINA RESULT:     -11.3      0.000      0.000
REMARK SMILES Cc1ccc(-c2nc(C)cc(N3CCCC[C@H]3C(=O)OCCOCCOCCOCCOC(=O)c3ccc(-c4c5nc(c(-c6cccc(S(=O)(=O)[O-])c6F)c6ccc([nH]6)c(-c6cccc(S(=O)(=O)[O-])c6F)c6nc(c(-c7cccc(S(=O)(=O)[O-])c7F)c7ccc4[nH]7)C=C6)C=C5)cc3)n2)cc1
REMARK SMILES IDX 27 1 26 2 25 3 24 4 23 5 22 6 21 7 20 8 18 9 19 10 17 11
REMARK SMILES IDX 12 12 13 13 14 14 16 15 15 16 11 17 6 18 7 19 98 20 8 21
REMARK SMILES IDX 9 22 10 23 5 24 1 25 2 26 3 27 100 28 4 29 99 30 28 31 29 32
REMARK SMILES IDX 30 33 31 34 32 35 33 36 34 37 35 38 36 39 97 40 37 41 96 42
REMARK SMILES IDX 38 43 39 44 40 45 90 46 41 47 95 48 89 49 91 50 42 51 94 52
REMARK SMILES IDX 88 53 87 54 43 56 75 57 55 58 74 59 56 60 59 61 73 62 92 63
REMARK SMILES IDX 57 64 58 65 72 67 93 68 60 69 44 70 45 71 53 72 46 73 48 74
REMARK SMILES IDX 54 75 47 76 49 77 50 78 51 79 52 80 76 81 77 82 85 83 78 84
REMARK SMILES IDX 80 85 86 86 79 87 81 88 82 89 83 90 84 91 61 92 62 93 70 94
REMARK SMILES IDX 63 95 65 96 71 97 64 98 66 99 67 100 68 101 69 102
REMARK H PARENT 91 55 59 66
REMARK Flexibility Score: inf
ROOT
ATOM      1  C   UNL A   1      31.290  29.166  23.997  1.00  0.00     0.188 C 
ENDROOT
BRANCH   1   2
ATOM      2  O   UNL A   1      29.911  29.124  23.663  1.00  0.00    -0.377 OA
BRANCH   2   3
ATOM      3  C   UNL A   1      29.629  27.913  22.969  1.00  0.00     0.188 C 
BRANCH   3   4
ATOM      4  C   UNL A   1      29.034  26.905  23.868  1.00  0.00     0.188 C 
BRANCH   4   5
ATOM      5  O   UNL A   1      29.941  25.913  24.315  1.00  0.00    -0.376 OA
BRANCH   5   6
ATOM      6  C   UNL A   1      30.030  25.880  25.733  1.00  0.00     0.202 C 
BRANCH   6   7
ATOM      7  C   UNL A   1      31.478  25.669  26.206  1.00  0.00     0.261 C 
BRANCH   7   8
ATOM      8  O   UNL A   1      32.308  25.002  25.236  1.00  0.00    -0.462 OA
BRANCH   8   9
ATOM      9  C   UNL A   1      33.562  25.470  25.051  1.00  0.00     0.328 C 
ATOM     10  O   UNL A   1      34.297  25.901  25.941  1.00  0.00    -0.250 OA
BRANCH   9  11
ATOM     11  C   UNL A   1      34.056  25.176  23.616  1.00  0.00     0.193 C 
ATOM     12  N   UNL A   1      33.902  23.749  23.275  1.00  0.00    -0.343 N 
ATOM     13  C   UNL A   1      33.516  23.258  21.946  1.00  0.00     0.119 C 
ATOM     14  C   UNL A   1      32.777  24.242  21.054  1.00  0.00     0.022 C 
ATOM     15  C   UNL A   1      33.450  26.107  22.566  1.00  0.00     0.037 C 
ATOM     16  C   UNL A   1      32.311  25.493  21.763  1.00  0.00     0.005 C 
BRANCH  12  17
ATOM     17  C   UNL A   1      34.730  22.888  23.984  1.00  0.00     0.133 A 
ATOM     18  C   UNL A   1      34.985  20.781  24.806  1.00  0.00     0.161 A 
ATOM     19  N   UNL A   1      36.163  21.008  25.406  1.00  0.00    -0.233 NA
ATOM     20  N   UNL A   1      34.251  21.673  24.143  1.00  0.00    -0.211 NA
ATOM     21  C   UNL A   1      36.641  22.261  25.248  1.00  0.00     0.043 A 
ATOM     22  C   UNL A   1      37.973  22.601  25.857  1.00  0.00     0.067 C 
ATOM     23  C   UNL A   1      35.960  23.220  24.518  1.00  0.00     0.070 A 
BRANCH  18  24
ATOM     24  C   UNL A   1      34.349  19.480  24.791  1.00  0.00     0.019 A 
ATOM     25  C   UNL A   1      32.633  15.599  25.471  1.00  0.00     0.044 C 
ATOM     26  C   UNL A   1      33.222  16.952  25.234  1.00  0.00    -0.051 A 
ATOM     27  C   UNL A   1      34.457  17.081  24.579  1.00  0.00     0.004 A 
ATOM     28  C   UNL A   1      32.548  18.092  25.671  1.00  0.00     0.004 A 
ATOM     29  C   UNL A   1      35.017  18.339  24.351  1.00  0.00     0.012 A 
ATOM     30  C   UNL A   1      33.106  19.339  25.447  1.00  0.00     0.012 A 
ENDBRANCH  18  24
ENDBRANCH  12  17
ENDBRANCH   9  11
ENDBRANCH   8   9
ENDBRANCH   7   8
ENDBRANCH   6   7
ENDBRANCH   5   6
ENDBRANCH   4   5
ENDBRANCH   3   4
ENDBRANCH   2   3
ENDBRANCH   1   2
BRANCH   1  31
ATOM     31  C   UNL A   1      31.463  29.715  25.431  1.00  0.00     0.188 C 
BRANCH  31  32
ATOM     32  O   UNL A   1      30.946  31.020  25.556  1.00  0.00    -0.376 OA
BRANCH  32  33
ATOM     33  C   UNL A   1      31.649  31.763  26.545  1.00  0.00     0.202 C 
BRANCH  33  34
ATOM     34  C   UNL A   1      32.895  31.122  27.293  1.00  0.00     0.261 C 
BRANCH  34  35
ATOM     35  O   UNL A   1      34.013  32.052  27.714  1.00  0.00    -0.460 OA
BRANCH  35  36
ATOM     36  C   UNL A   1      35.329  31.978  28.169  1.00  0.00     0.338 C 
ATOM     37  O   UNL A   1      35.794  32.971  28.729  1.00  0.00    -0.246 OA
BRANCH  36  38
ATOM     38  C   UNL A   1      36.192  30.713  28.274  1.00  0.00     0.060 A 
ATOM     39  C   UNL A   1      36.173  29.931  29.429  1.00  0.00     0.016 A 
ATOM     40  C   UNL A   1      36.945  30.158  27.241  1.00  0.00     0.016 A 
ATOM     41  C   UNL A   1      37.196  28.990  29.700  1.00  0.00     0.010 A 
ATOM     42  C   UNL A   1      38.066  29.361  27.545  1.00  0.00     0.010 A 
ATOM     43  C   UNL A   1      38.273  28.868  28.838  1.00  0.00    -0.014 A 
BRANCH  43  44
ATOM     44  C   UNL A   1      39.649  28.469  29.248  1.00  0.00     0.031 A 
ATOM     45  C   UNL A   1      40.186  27.061  28.981  1.00  0.00     0.074 A 
ATOM     46  C   UNL A   1      40.547  29.453  29.532  1.00  0.00     0.049 A 
ATOM     47  N   UNL A   1      41.405  26.625  29.140  1.00  0.00    -0.248 NA
ATOM     48  C   UNL A   1      39.303  25.998  28.515  1.00  0.00     0.031 C 
ATOM     49  C   UNL A   1      41.901  29.400  29.034  1.00  0.00     0.029 A 
ATOM     50  N   UNL A   1      40.527  30.724  30.096  1.00  0.00    -0.354 N 
ATOM     51  C   UNL A   1      41.517  25.343  28.590  1.00  0.00     0.074 A 
ATOM     52  C   UNL A   1      40.156  24.998  28.266  1.00  0.00     0.031 C 
ATOM     53  C   UNL A   1      42.638  30.438  29.403  1.00  0.00     0.029 A 
ATOM     54  C   UNL A   1      41.851  31.166  30.335  1.00  0.00     0.049 A 
ATOM     55  H   UNL A   1      39.713  31.239  30.299  1.00  0.00     0.167 HD
ATOM     56  C   UNL A   1      42.744  24.753  28.369  1.00  0.00     0.034 A 
ATOM     57  C   UNL A   1      42.366  31.502  31.552  1.00  0.00     0.034 A 
ATOM     58  C   UNL A   1      43.850  25.502  29.033  1.00  0.00     0.049 A 
ATOM     59  C   UNL A   1      43.365  30.490  32.121  1.00  0.00     0.074 A 
ATOM     60  C   UNL A   1      45.089  26.008  28.643  1.00  0.00     0.029 A 
ATOM     61  N   UNL A   1      43.683  25.954  30.343  1.00  0.00    -0.354 N 
ATOM     62  N   UNL A   1      43.768  29.406  31.494  1.00  0.00    -0.248 NA
ATOM     63  C   UNL A   1      43.994  30.603  33.438  1.00  0.00     0.031 C 
ATOM     64  C   UNL A   1      45.543  26.924  29.633  1.00  0.00     0.029 A 
ATOM     65  C   UNL A   1      44.677  26.844  30.706  1.00  0.00     0.049 A 
ATOM     66  H   UNL A   1      42.948  25.673  30.935  1.00  0.00     0.167 HD
ATOM     67  C   UNL A   1      44.485  28.604  32.348  1.00  0.00     0.074 A 
ATOM     68  C   UNL A   1      44.681  29.448  33.514  1.00  0.00     0.031 C 
ATOM     69  C   UNL A   1      44.795  27.292  32.083  1.00  0.00     0.034 A 
BRANCH  56  70
ATOM     70  C   UNL A   1      43.051  23.567  27.384  1.00  0.00     0.023 A 
ATOM     71  C   UNL A   1      43.994  23.808  26.348  1.00  0.00     0.012 A 
ATOM     72  C   UNL A   1      42.464  22.273  27.324  1.00  0.00     0.148 A 
ATOM     73  C   UNL A   1      44.266  22.913  25.299  1.00  0.00     0.002 A 
ATOM     74  C   UNL A   1      42.770  21.348  26.300  1.00  0.00     0.091 A 
ATOM     75  F   UNL A   1      41.596  21.885  28.255  1.00  0.00    -0.205 F 
ATOM     76  C   UNL A   1      43.651  21.679  25.272  1.00  0.00     0.022 A 
BRANCH  74  77
ATOM     77  S   UNL A   1      42.070  19.681  26.218  1.00  0.00     0.127 S 
ATOM     78  O   UNL A   1      42.736  19.121  25.039  1.00  0.00    -0.237 OA
ATOM     79  O   UNL A   1      42.503  19.100  27.488  1.00  0.00    -0.237 OA
ATOM     80  O   UNL A   1      40.630  19.848  26.072  1.00  0.00    -0.744 OA
ENDBRANCH  74  77
ENDBRANCH  56  70
BRANCH  57  81
ATOM     81  C   UNL A   1      41.541  32.577  32.179  1.00  0.00     0.023 A 
ATOM     82  C   UNL A   1      41.411  33.709  31.324  1.00  0.00     0.012 A 
ATOM     83  C   UNL A   1      40.427  32.168  32.926  1.00  0.00     0.148 A 
ATOM     84  C   UNL A   1      40.145  34.169  30.955  1.00  0.00     0.002 A 
ATOM     85  C   UNL A   1      39.166  32.627  32.549  1.00  0.00     0.091 A 
ATOM     86  F   UNL A   1      40.594  31.211  33.848  1.00  0.00    -0.205 F 
ATOM     87  C   UNL A   1      39.020  33.578  31.520  1.00  0.00     0.022 A 
BRANCH  85  88
ATOM     88  S   UNL A   1      37.684  31.816  33.153  1.00  0.00     0.127 S 
ATOM     89  O   UNL A   1      37.674  32.174  34.551  1.00  0.00    -0.237 OA
ATOM     90  O   UNL A   1      36.643  32.446  32.342  1.00  0.00    -0.237 OA
ATOM     91  O   UNL A   1      37.894  30.392  32.849  1.00  0.00    -0.744 OA
ENDBRANCH  85  88
ENDBRANCH  57  81
BRANCH  69  92
ATOM     92  C   UNL A   1      45.236  26.239  33.103  1.00  0.00     0.023 A 
ATOM     93  C   UNL A   1      46.488  25.607  33.021  1.00  0.00     0.012 A 
ATOM     94  C   UNL A   1      44.486  25.998  34.294  1.00  0.00     0.148 A 
ATOM     95  C   UNL A   1      46.953  24.749  34.024  1.00  0.00     0.002 A 
ATOM     96  C   UNL A   1      45.007  25.244  35.342  1.00  0.00     0.091 A 
ATOM     97  F   UNL A   1      43.244  26.482  34.423  1.00  0.00    -0.205 F 
ATOM     98  C   UNL A   1      46.227  24.588  35.196  1.00  0.00     0.022 A 
BRANCH  96  99
ATOM     99  S   UNL A   1      44.233  25.213  36.969  1.00  0.00     0.127 S 
ATOM    100  O   UNL A   1      42.847  24.889  36.637  1.00  0.00    -0.237 OA
ATOM    101  O   UNL A   1      44.968  24.138  37.639  1.00  0.00    -0.237 OA
ATOM    102  O   UNL A   1      44.461  26.536  37.536  1.00  0.00    -0.744 OA
ENDBRANCH  96  99
ENDBRANCH  69  92
ENDBRANCH  43  44
ENDBRANCH  36  38
ENDBRANCH  35  36
ENDBRANCH  34  35
ENDBRANCH  33  34
ENDBRANCH  32  33
ENDBRANCH  31  32
ENDBRANCH   1  31
TORSDOF 25
ENDMDL
MODEL 2
REMARK VINA RESULT:      -9.7      2.791      4.295
REMARK SMILES Cc1ccc(-c2nc(C)cc(N3CCCC[C@H]3C(=O)OCCOCCOCCOCCOC(=O)c3ccc(-c4c5nc(c(-c6cccc(S(=O)(=O)[O-])c6F)c6ccc([nH]6)c(-c6cccc(S(=O)(=O)[O-])c6F)c6nc(c(-c7cccc(S(=O)(=O)[O-])c7F)c7ccc4[nH]7)C=C6)C=C5)cc3)n2)cc1
REMARK SMILES IDX 27 1 26 2 25 3 24 4 23 5 22 6 21 7 20 8 18 9 19 10 17 11
REMARK SMILES IDX 12 12 13 13 14 14 16 15 15 16 11 17 6 18 7 19 98 20 8 21
REMARK SMILES IDX 9 22 10 23 5 24 1 25 2 26 3 27 100 28 4 29 99 30 28 31 29 32
REMARK SMILES IDX 30 33 31 34 32 35 33 36 34 37 35 38 36 39 97 40 37 41 96 42
REMARK SMILES IDX 38 43 39 44 40 45 90 46 41 47 95 48 89 49 91 50 42 51 94 52
REMARK SMILES IDX 88 53 87 54 43 56 75 57 55 58 74 59 56 60 59 61 73 62 92 63
REMARK SMILES IDX 57 64 58 65 72 67 93 68 60 69 44 70 45 71 53 72 46 73 48 74
REMARK SMILES IDX 54 75 47 76 49 77 50 78 51 79 52 80 76 81 77 82 85 83 78 84
REMARK SMILES IDX 80 85 86 86 79 87 81 88 82 89 83 90 84 91 61 92 62 93 70 94
REMARK SMILES IDX 63 95 65 96 71 97 64 98 66 99 67 100 68 101 69 102
REMARK H PARENT 91 55 59 66
REMARK Flexibility Score: inf
ROOT
ATOM      1  C   UNL A   1      32.766  28.771  23.683  1.00  0.00     0.188 C 
ENDROOT
BRANCH   1   2
ATOM      2  O   UNL A   1      33.789  27.787  23.756  1.00  0.00    -0.377 OA
BRANCH   2   3
ATOM      3  C   UNL A   1      33.197  26.493  23.823  1.00  0.00     0.188 C 
BRANCH   3   4
ATOM      4  C   UNL A   1      34.147  25.446  23.401  1.00  0.00     0.188 C 
BRANCH   4   5
ATOM      5  O   UNL A   1      33.696  24.646  22.323  1.00  0.00    -0.376 OA
BRANCH   5   6
ATOM      6  C   UNL A   1      32.277  24.601  22.258  1.00  0.00     0.202 C 
BRANCH   6   7
ATOM      7  C   UNL A   1      31.730  23.248  22.742  1.00  0.00     0.261 C 
BRANCH   7   8
ATOM      8  O   UNL A   1      32.710  22.192  22.725  1.00  0.00    -0.462 OA
BRANCH   8   9
ATOM      9  C   UNL A   1      32.263  20.918  22.667  1.00  0.00     0.328 C 
ATOM     10  O   UNL A   1      31.402  20.503  21.890  1.00  0.00    -0.250 OA
BRANCH   9  11
ATOM     11  C   UNL A   1      33.138  19.985  23.534  1.00  0.00     0.193 C 
ATOM     12  N   UNL A   1      32.881  20.189  24.973  1.00  0.00    -0.343 N 
ATOM     13  C   UNL A   1      32.870  19.108  25.967  1.00  0.00     0.119 C 
ATOM     14  C   UNL A   1      32.619  17.707  25.435  1.00  0.00     0.022 C 
ATOM     15  C   UNL A   1      33.054  18.517  23.117  1.00  0.00     0.037 C 
ATOM     16  C   UNL A   1      32.151  17.664  23.998  1.00  0.00     0.005 C 
BRANCH  12  17
ATOM     17  C   UNL A   1      33.292  21.419  25.470  1.00  0.00     0.133 A 
ATOM     18  C   UNL A   1      35.076  22.727  26.005  1.00  0.00     0.161 A 
ATOM     19  N   UNL A   1      34.357  23.756  26.476  1.00  0.00    -0.233 NA
ATOM     20  N   UNL A   1      34.597  21.572  25.545  1.00  0.00    -0.211 NA
ATOM     21  C   UNL A   1      33.019  23.584  26.406  1.00  0.00     0.043 A 
ATOM     22  C   UNL A   1      32.130  24.700  26.880  1.00  0.00     0.067 C 
ATOM     23  C   UNL A   1      32.453  22.436  25.882  1.00  0.00     0.070 A 
BRANCH  18  24
ATOM     24  C   UNL A   1      36.522  22.753  25.919  1.00  0.00     0.019 A 
ATOM     25  C   UNL A   1      40.791  22.435  26.295  1.00  0.00     0.044 C 
ATOM     26  C   UNL A   1      39.306  22.540  26.157  1.00  0.00    -0.051 A 
ATOM     27  C   UNL A   1      38.651  23.743  26.468  1.00  0.00     0.004 A 
ATOM     28  C   UNL A   1      38.567  21.438  25.728  1.00  0.00     0.004 A 
ATOM     29  C   UNL A   1      37.265  23.853  26.343  1.00  0.00     0.012 A 
ATOM     30  C   UNL A   1      37.192  21.549  25.607  1.00  0.00     0.012 A 
ENDBRANCH  18  24
ENDBRANCH  12  17
ENDBRANCH   9  11
ENDBRANCH   8   9
ENDBRANCH   7   8
ENDBRANCH   6   7
ENDBRANCH   5   6
ENDBRANCH   4   5
ENDBRANCH   3   4
ENDBRANCH   2   3
ENDBRANCH   1   2
BRANCH   1  31
ATOM     31  C   UNL A   1      31.972  28.795  25.008  1.00  0.00     0.188 C 
BRANCH  31  32
ATOM     32  O   UNL A   1      32.825  28.793  26.129  1.00  0.00    -0.376 OA
BRANCH  32  33
ATOM     33  C   UNL A   1      32.382  29.715  27.118  1.00  0.00     0.202 C 
BRANCH  33  34
ATOM     34  C   UNL A   1      32.524  31.278  26.877  1.00  0.00     0.261 C 
BRANCH  34  35
ATOM     35  O   UNL A   1      33.595  32.012  27.658  1.00  0.00    -0.460 OA
BRANCH  35  36
ATOM     36  C   UNL A   1      34.983  32.021  27.788  1.00  0.00     0.338 C 
ATOM     37  O   UNL A   1      35.546  33.115  27.801  1.00  0.00    -0.246 OA
BRANCH  36  38
ATOM     38  C   UNL A   1      35.875  30.830  28.167  1.00  0.00     0.060 A 
ATOM     39  C   UNL A   1      35.696  30.163  29.379  1.00  0.00     0.016 A 
ATOM     40  C   UNL A   1      36.818  30.228  27.337  1.00  0.00     0.016 A 
ATOM     41  C   UNL A   1      36.701  29.321  29.913  1.00  0.00     0.010 A 
ATOM     42  C   UNL A   1      37.908  29.539  27.905  1.00  0.00     0.010 A 
ATOM     43  C   UNL A   1      37.915  29.187  29.260  1.00  0.00    -0.014 A 
BRANCH  43  44
ATOM     44  C   UNL A   1      39.218  28.920  29.931  1.00  0.00     0.031 A 
ATOM     45  C   UNL A   1      40.103  27.743  29.516  1.00  0.00     0.074 A 
ATOM     46  C   UNL A   1      39.785  29.922  30.658  1.00  0.00     0.049 A 
ATOM     47  N   UNL A   1      41.323  27.482  29.901  1.00  0.00    -0.248 NA
ATOM     48  C   UNL A   1      39.609  26.717  28.605  1.00  0.00     0.031 C 
ATOM     49  C   UNL A   1      41.193  30.225  30.549  1.00  0.00     0.029 A 
ATOM     50  N   UNL A   1      39.354  30.972  31.461  1.00  0.00    -0.354 N 
ATOM     51  C   UNL A   1      41.840  26.432  29.134  1.00  0.00     0.074 A 
ATOM     52  C   UNL A   1      40.698  25.973  28.384  1.00  0.00     0.031 C 
ATOM     53  C   UNL A   1      41.576  31.229  31.324  1.00  0.00     0.029 A 
ATOM     54  C   UNL A   1      40.457  31.541  32.143  1.00  0.00     0.049 A 
ATOM     55  H   UNL A   1      38.421  31.275  31.543  1.00  0.00     0.167 HD
ATOM     56  C   UNL A   1      43.185  26.130  29.132  1.00  0.00     0.034 A 
ATOM     57  C   UNL A   1      40.599  31.614  33.497  1.00  0.00     0.034 A 
ATOM     58  C   UNL A   1      43.918  26.840  30.220  1.00  0.00     0.049 A 
ATOM     59  C   UNL A   1      41.647  30.661  34.079  1.00  0.00     0.074 A 
ATOM     60  C   UNL A   1      45.066  27.625  30.304  1.00  0.00     0.029 A 
ATOM     61  N   UNL A   1      43.366  26.887  31.501  1.00  0.00    -0.354 N 
ATOM     62  N   UNL A   1      42.413  29.867  33.363  1.00  0.00    -0.248 NA
ATOM     63  C   UNL A   1      41.924  30.514  35.509  1.00  0.00     0.031 C 
ATOM     64  C   UNL A   1      45.070  28.300  31.556  1.00  0.00     0.029 A 
ATOM     65  C   UNL A   1      44.027  27.795  32.308  1.00  0.00     0.049 A 
ATOM     66  H   UNL A   1      42.599  26.342  31.794  1.00  0.00     0.167 HD
ATOM     67  C   UNL A   1      43.083  28.990  34.182  1.00  0.00     0.074 A 
ATOM     68  C   UNL A   1      42.819  29.508  35.513  1.00  0.00     0.031 C 
ATOM     69  C   UNL A   1      43.731  27.867  33.729  1.00  0.00     0.034 A 
BRANCH  56  70
ATOM     70  C   UNL A   1      43.963  25.320  28.032  1.00  0.00     0.023 A 
ATOM     71  C   UNL A   1      43.750  23.916  27.983  1.00  0.00     0.012 A 
ATOM     72  C   UNL A   1      44.930  25.778  27.094  1.00  0.00     0.148 A 
ATOM     73  C   UNL A   1      44.476  23.031  27.168  1.00  0.00     0.002 A 
ATOM     74  C   UNL A   1      45.629  24.899  26.236  1.00  0.00     0.091 A 
ATOM     75  F   UNL A   1      45.204  27.076  26.991  1.00  0.00    -0.205 F 
ATOM     76  C   UNL A   1      45.423  23.522  26.293  1.00  0.00     0.022 A 
BRANCH  74  77
ATOM     77  S   UNL A   1      46.836  25.454  25.006  1.00  0.00     0.127 S 
ATOM     78  O   UNL A   1      46.877  24.323  24.077  1.00  0.00    -0.237 OA
ATOM     79  O   UNL A   1      46.199  26.654  24.466  1.00  0.00    -0.237 OA
ATOM     80  O   UNL A   1      48.081  25.685  25.728  1.00  0.00    -0.744 OA
ENDBRANCH  74  77
ENDBRANCH  56  70
BRANCH  57  81
ATOM     81  C   UNL A   1      39.435  32.332  34.096  1.00  0.00     0.023 A 
ATOM     82  C   UNL A   1      38.614  31.458  34.865  1.00  0.00     0.012 A 
ATOM     83  C   UNL A   1      39.669  33.629  34.577  1.00  0.00     0.148 A 
ATOM     84  C   UNL A   1      38.354  31.738  36.208  1.00  0.00     0.002 A 
ATOM     85  C   UNL A   1      39.412  33.900  35.919  1.00  0.00     0.091 A 
ATOM     86  F   UNL A   1      40.302  34.500  33.780  1.00  0.00    -0.205 F 
ATOM     87  C   UNL A   1      38.815  32.932  36.751  1.00  0.00     0.022 A 
BRANCH  85  88
ATOM     88  S   UNL A   1      40.092  35.365  36.699  1.00  0.00     0.127 S 
ATOM     89  O   UNL A   1      41.510  35.099  36.693  1.00  0.00    -0.237 OA
ATOM     90  O   UNL A   1      39.652  36.424  35.791  1.00  0.00    -0.237 OA
ATOM     91  O   UNL A   1      39.448  35.410  38.021  1.00  0.00    -0.744 OA
ENDBRANCH  85  88
ENDBRANCH  57  81
BRANCH  69  92
ATOM     92  C   UNL A   1      44.158  26.663  34.572  1.00  0.00     0.023 A 
ATOM     93  C   UNL A   1      43.251  25.652  34.933  1.00  0.00     0.012 A 
ATOM     94  C   UNL A   1      45.534  26.405  34.856  1.00  0.00     0.148 A 
ATOM     95  C   UNL A   1      43.663  24.482  35.582  1.00  0.00     0.002 A 
ATOM     96  C   UNL A   1      45.951  25.188  35.388  1.00  0.00     0.091 A 
ATOM     97  F   UNL A   1      46.460  27.346  34.632  1.00  0.00    -0.205 F 
ATOM     98  C   UNL A   1      45.014  24.237  35.785  1.00  0.00     0.022 A 
BRANCH  96  99
ATOM     99  S   UNL A   1      47.690  24.716  35.434  1.00  0.00     0.127 S 
ATOM    100  O   UNL A   1      48.053  24.764  34.020  1.00  0.00    -0.237 OA
ATOM    101  O   UNL A   1      48.276  25.781  36.251  1.00  0.00    -0.237 OA
ATOM    102  O   UNL A   1      47.722  23.399  36.058  1.00  0.00    -0.744 OA
ENDBRANCH  96  99
ENDBRANCH  69  92
ENDBRANCH  43  44
ENDBRANCH  36  38
ENDBRANCH  35  36
ENDBRANCH  34  35
ENDBRANCH  33  34
ENDBRANCH  32  33
ENDBRANCH  31  32
ENDBRANCH   1  31
TORSDOF 25
ENDMDL
MODEL 3
REMARK VINA RESULT:      -9.6      3.742     10.199
REMARK SMILES Cc1ccc(-c2nc(C)cc(N3CCCC[C@H]3C(=O)OCCOCCOCCOCCOC(=O)c3ccc(-c4c5nc(c(-c6cccc(S(=O)(=O)[O-])c6F)c6ccc([nH]6)c(-c6cccc(S(=O)(=O)[O-])c6F)c6nc(c(-c7cccc(S(=O)(=O)[O-])c7F)c7ccc4[nH]7)C=C6)C=C5)cc3)n2)cc1
REMARK SMILES IDX 27 1 26 2 25 3 24 4 23 5 22 6 21 7 20 8 18 9 19 10 17 11
REMARK SMILES IDX 12 12 13 13 14 14 16 15 15 16 11 17 6 18 7 19 98 20 8 21
REMARK SMILES IDX 9 22 10 23 5 24 1 25 2 26 3 27 100 28 4 29 99 30 28 31 29 32
REMARK SMILES IDX 30 33 31 34 32 35 33 36 34 37 35 38 36 39 97 40 37 41 96 42
REMARK SMILES IDX 38 43 39 44 40 45 90 46 41 47 95 48 89 49 91 50 42 51 94 52
REMARK SMILES IDX 88 53 87 54 43 56 75 57 55 58 74 59 56 60 59 61 73 62 92 63
REMARK SMILES IDX 57 64 58 65 72 67 93 68 60 69 44 70 45 71 53 72 46 73 48 74
REMARK SMILES IDX 54 75 47 76 49 77 50 78 51 79 52 80 76 81 77 82 85 83 78 84
REMARK SMILES IDX 80 85 86 86 79 87 81 88 82 89 83 90 84 91 61 92 62 93 70 94
REMARK SMILES IDX 63 95 65 96 71 97 64 98 66 99 67 100 68 101 69 102
REMARK H PARENT 91 55 59 66
REMARK Flexibility Score: inf
ROOT
ATOM      1  C   UNL A   1      38.498  22.067  25.388  1.00  0.00     0.188 C 
ENDROOT
BRANCH   1   2
ATOM      2  O   UNL A   1      37.125  21.826  25.658  1.00  0.00    -0.377 OA
BRANCH   2   3
ATOM      3  C   UNL A   1      36.506  23.036  26.082  1.00  0.00     0.188 C 
BRANCH   3   4
ATOM      4  C   UNL A   1      35.680  23.621  25.007  1.00  0.00     0.188 C 
BRANCH   4   5
ATOM      5  O   UNL A   1      35.029  22.668  24.187  1.00  0.00    -0.376 OA
BRANCH   5   6
ATOM      6  C   UNL A   1      34.938  23.107  22.839  1.00  0.00     0.202 C 
BRANCH   6   7
ATOM      7  C   UNL A   1      33.512  22.947  22.284  1.00  0.00     0.261 C 
BRANCH   7   8
ATOM      8  O   UNL A   1      32.484  23.269  23.241  1.00  0.00    -0.462 OA
BRANCH   8   9
ATOM      9  C   UNL A   1      32.314  24.568  23.569  1.00  0.00     0.328 C 
ATOM     10  O   UNL A   1      32.260  25.502  22.767  1.00  0.00    -0.250 OA
BRANCH   9  11
ATOM     11  C   UNL A   1      31.950  24.717  25.064  1.00  0.00     0.193 C 
ATOM     12  N   UNL A   1      30.666  25.423  25.239  1.00  0.00    -0.343 N 
ATOM     13  C   UNL A   1      29.681  25.093  26.277  1.00  0.00     0.119 C 
ATOM     14  C   UNL A   1      29.756  23.688  26.854  1.00  0.00     0.022 C 
ATOM     15  C   UNL A   1      32.014  23.399  25.836  1.00  0.00     0.037 C 
ATOM     16  C   UNL A   1      30.660  22.750  26.086  1.00  0.00     0.005 C 
BRANCH  12  17
ATOM     17  C   UNL A   1      30.682  26.762  24.871  1.00  0.00     0.133 A 
ATOM     18  C   UNL A   1      31.650  28.792  25.216  1.00  0.00     0.161 A 
ATOM     19  N   UNL A   1      30.871  29.465  24.356  1.00  0.00    -0.233 NA
ATOM     20  N   UNL A   1      31.564  27.496  25.514  1.00  0.00    -0.211 NA
ATOM     21  C   UNL A   1      29.961  28.704  23.711  1.00  0.00     0.043 A 
ATOM     22  C   UNL A   1      29.063  29.365  22.702  1.00  0.00     0.067 C 
ATOM     23  C   UNL A   1      29.858  27.341  23.925  1.00  0.00     0.070 A 
BRANCH  18  24
ATOM     24  C   UNL A   1      32.738  29.415  25.943  1.00  0.00     0.019 A 
ATOM     25  C   UNL A   1      35.784  30.786  28.645  1.00  0.00     0.044 C 
ATOM     26  C   UNL A   1      34.731  30.305  27.700  1.00  0.00    -0.051 A 
ATOM     27  C   UNL A   1      33.568  31.065  27.492  1.00  0.00     0.004 A 
ATOM     28  C   UNL A   1      34.897  29.094  27.028  1.00  0.00     0.004 A 
ATOM     29  C   UNL A   1      32.578  30.626  26.612  1.00  0.00     0.012 A 
ATOM     30  C   UNL A   1      33.912  28.660  26.157  1.00  0.00     0.012 A 
ENDBRANCH  18  24
ENDBRANCH  12  17
ENDBRANCH   9  11
ENDBRANCH   8   9
ENDBRANCH   7   8
ENDBRANCH   6   7
ENDBRANCH   5   6
ENDBRANCH   4   5
ENDBRANCH   3   4
ENDBRANCH   2   3
ENDBRANCH   1   2
BRANCH   1  31
ATOM     31  C   UNL A   1      39.229  22.439  26.698  1.00  0.00     0.188 C 
BRANCH  31  32
ATOM     32  O   UNL A   1      40.019  21.375  27.175  1.00  0.00    -0.376 OA
BRANCH  32  33
ATOM     33  C   UNL A   1      40.519  20.581  26.104  1.00  0.00     0.202 C 
BRANCH  33  34
ATOM     34  C   UNL A   1      42.057  20.191  26.048  1.00  0.00     0.261 C 
BRANCH  34  35
ATOM     35  O   UNL A   1      43.026  21.238  25.537  1.00  0.00    -0.460 OA
BRANCH  35  36
ATOM     36  C   UNL A   1      43.049  22.604  25.258  1.00  0.00     0.338 C 
ATOM     37  O   UNL A   1      43.327  22.944  24.108  1.00  0.00    -0.246 OA
BRANCH  36  38
ATOM     38  C   UNL A   1      42.526  23.732  26.158  1.00  0.00     0.060 A 
ATOM     39  C   UNL A   1      41.676  24.714  25.649  1.00  0.00     0.016 A 
ATOM     40  C   UNL A   1      42.717  23.824  27.535  1.00  0.00     0.016 A 
ATOM     41  C   UNL A   1      41.471  25.938  26.330  1.00  0.00     0.010 A 
ATOM     42  C   UNL A   1      42.677  25.085  28.162  1.00  0.00     0.010 A 
ATOM     43  C   UNL A   1      42.161  26.205  27.501  1.00  0.00    -0.014 A 
BRANCH  43  44
ATOM     44  C   UNL A   1      42.564  27.564  27.959  1.00  0.00     0.031 A 
ATOM     45  C   UNL A   1      41.541  28.554  28.521  1.00  0.00     0.074 A 
ATOM     46  C   UNL A   1      43.882  27.794  28.213  1.00  0.00     0.049 A 
ATOM     47  N   UNL A   1      41.770  29.702  29.097  1.00  0.00    -0.248 NA
ATOM     48  C   UNL A   1      40.110  28.288  28.428  1.00  0.00     0.031 C 
ATOM     49  C   UNL A   1      44.306  28.505  29.395  1.00  0.00     0.029 A 
ATOM     50  N   UNL A   1      45.109  27.378  27.705  1.00  0.00    -0.354 N 
ATOM     51  C   UNL A   1      40.579  30.194  29.646  1.00  0.00     0.074 A 
ATOM     52  C   UNL A   1      39.580  29.285  29.144  1.00  0.00     0.031 C 
ATOM     53  C   UNL A   1      45.622  28.638  29.486  1.00  0.00     0.029 A 
ATOM     54  C   UNL A   1      46.149  28.168  28.253  1.00  0.00     0.049 A 
ATOM     55  H   UNL A   1      45.234  26.645  27.061  1.00  0.00     0.167 HD
ATOM     56  C   UNL A   1      40.572  31.242  30.542  1.00  0.00     0.034 A 
ATOM     57  C   UNL A   1      47.015  28.942  27.539  1.00  0.00     0.034 A 
ATOM     58  C   UNL A   1      41.895  31.927  30.609  1.00  0.00     0.049 A 
ATOM     59  C   UNL A   1      46.776  30.449  27.667  1.00  0.00     0.074 A 
ATOM     60  C   UNL A   1      42.770  32.314  31.622  1.00  0.00     0.029 A 
ATOM     61  N   UNL A   1      42.578  32.217  29.426  1.00  0.00    -0.354 N 
ATOM     62  N   UNL A   1      45.863  30.996  28.441  1.00  0.00    -0.248 NA
ATOM     63  C   UNL A   1      47.534  31.469  26.942  1.00  0.00     0.031 C 
ATOM     64  C   UNL A   1      44.033  32.624  31.045  1.00  0.00     0.029 A 
ATOM     65  C   UNL A   1      43.883  32.601  29.672  1.00  0.00     0.049 A 
ATOM     66  H   UNL A   1      42.179  32.155  28.528  1.00  0.00     0.167 HD
ATOM     67  C   UNL A   1      45.754  32.339  28.169  1.00  0.00     0.074 A 
ATOM     68  C   UNL A   1      46.891  32.596  27.301  1.00  0.00     0.031 C 
ATOM     69  C   UNL A   1      44.711  33.122  28.597  1.00  0.00     0.034 A 
BRANCH  56  70
ATOM     70  C   UNL A   1      39.427  31.601  31.556  1.00  0.00     0.023 A 
ATOM     71  C   UNL A   1      38.246  32.189  31.026  1.00  0.00     0.012 A 
ATOM     72  C   UNL A   1      39.414  31.490  32.974  1.00  0.00     0.148 A 
ATOM     73  C   UNL A   1      37.198  32.706  31.806  1.00  0.00     0.002 A 
ATOM     74  C   UNL A   1      38.341  31.964  33.763  1.00  0.00     0.091 A 
ATOM     75  F   UNL A   1      40.432  30.919  33.613  1.00  0.00    -0.205 F 
ATOM     76  C   UNL A   1      37.245  32.598  33.180  1.00  0.00     0.022 A 
BRANCH  74  77
ATOM     77  S   UNL A   1      38.278  31.803  35.564  1.00  0.00     0.127 S 
ATOM     78  O   UNL A   1      38.223  30.351  35.747  1.00  0.00    -0.237 OA
ATOM     79  O   UNL A   1      39.541  32.415  35.975  1.00  0.00    -0.237 OA
ATOM     80  O   UNL A   1      37.078  32.509  35.997  1.00  0.00    -0.744 OA
ENDBRANCH  74  77
ENDBRANCH  56  70
BRANCH  57  81
ATOM     81  C   UNL A   1      47.731  28.110  26.526  1.00  0.00     0.023 A 
ATOM     82  C   UNL A   1      48.985  27.644  27.016  1.00  0.00     0.012 A 
ATOM     83  C   UNL A   1      46.948  27.242  25.752  1.00  0.00     0.148 A 
ATOM     84  C   UNL A   1      49.264  26.276  27.045  1.00  0.00     0.002 A 
ATOM     85  C   UNL A   1      47.228  25.877  25.790  1.00  0.00     0.091 A 
ATOM     86  F   UNL A   1      45.852  27.730  25.157  1.00  0.00    -0.205 F 
ATOM     87  C   UNL A   1      48.349  25.388  26.490  1.00  0.00     0.022 A 
BRANCH  85  88
ATOM     88  S   UNL A   1      46.026  24.683  25.201  1.00  0.00     0.127 S 
ATOM     89  O   UNL A   1      44.840  25.487  25.026  1.00  0.00    -0.237 OA
ATOM     90  O   UNL A   1      46.647  24.212  23.964  1.00  0.00    -0.237 OA
ATOM     91  O   UNL A   1      45.968  23.666  26.262  1.00  0.00    -0.744 OA
ENDBRANCH  85  88
ENDBRANCH  57  81
BRANCH  69  92
ATOM     92  C   UNL A   1      44.313  34.491  28.038  1.00  0.00     0.023 A 
ATOM     93  C   UNL A   1      43.490  34.618  26.906  1.00  0.00     0.012 A 
ATOM     94  C   UNL A   1      44.589  35.695  28.755  1.00  0.00     0.148 A 
ATOM     95  C   UNL A   1      43.010  35.860  26.474  1.00  0.00     0.002 A 
ATOM     96  C   UNL A   1      44.007  36.907  28.392  1.00  0.00     0.091 A 
ATOM     97  F   UNL A   1      45.436  35.687  29.792  1.00  0.00    -0.205 F 
ATOM     98  C   UNL A   1      43.245  37.000  27.231  1.00  0.00     0.022 A 
BRANCH  96  99
ATOM     99  S   UNL A   1      44.066  38.350  29.470  1.00  0.00     0.127 S 
ATOM    100  O   UNL A   1      43.851  37.752  30.786  1.00  0.00    -0.237 OA
ATOM    101  O   UNL A   1      45.423  38.850  29.241  1.00  0.00    -0.237 OA
ATOM    102  O   UNL A   1      43.013  39.238  28.993  1.00  0.00    -0.744 OA
ENDBRANCH  96  99
ENDBRANCH  69  92
ENDBRANCH  43  44
ENDBRANCH  36  38
ENDBRANCH  35  36
ENDBRANCH  34  35
ENDBRANCH  33  34
ENDBRANCH  32  33
ENDBRANCH  31  32
ENDBRANCH   1  31
TORSDOF 25
ENDMDL
