MODEL 1
REMARK VINA RESULT:     -11.5      0.000      0.000
REMARK SMILES Cc1ccc(-c2cc(C(=O)OCCOCCOCCOCCOC(=O)c3ccc(-c4c5nc(c(-c6cccc(S(=O)(=O)[O-])c6F)c6ccc([nH]6)c(-c6cccc(S(=O)(=O)[O-])c6F)c6nc(c(-c7cccc(S(=O)(=O)[O-])c7F)c7ccc4[nH]7)C=C6)C=C5)cc3)c3c(-c4cccc([N+](=O)[O-])c4)[nH]nc3n2)cc1
REMARK SMILES IDX 18 1 17 2 16 3 15 4 14 5 13 6 12 7 11 8 9 9 10 10 8 11 6 12
REMARK SMILES IDX 7 13 103 14 102 15 89 16 101 17 90 18 100 19 5 21 1 22 2 23
REMARK SMILES IDX 3 24 105 25 4 26 104 27 91 28 92 29 99 30 93 31 95 32 94 33
REMARK SMILES IDX 96 34 97 35 98 36 19 37 20 38 21 39 22 40 23 41 24 42 25 43
REMARK SMILES IDX 26 44 27 45 88 46 28 47 87 48 29 49 30 50 31 51 81 52 32 53
REMARK SMILES IDX 86 54 80 55 82 56 33 57 85 58 79 59 78 60 34 62 66 63 46 64
REMARK SMILES IDX 65 65 47 66 50 67 64 68 83 69 48 70 49 71 63 73 84 74 51 75
REMARK SMILES IDX 35 76 36 77 44 78 37 79 39 80 45 81 38 82 40 83 41 84 42 85
REMARK SMILES IDX 43 86 67 87 68 88 76 89 69 90 71 91 77 92 70 93 72 94 73 95
REMARK SMILES IDX 74 96 75 97 52 98 53 99 61 100 54 101 56 102 62 103 55 104
REMARK SMILES IDX 57 105 58 106 59 107 60 108
REMARK H PARENT 100 20 82 61 50 72
REMARK Flexibility Score: inf
ROOT
ATOM      1  C   UNL A   1      41.298  27.301  27.701  1.00  0.00     0.188 C 
ENDROOT
BRANCH   1   2
ATOM      2  O   UNL A   1      39.981  26.921  28.080  1.00  0.00    -0.377 OA
BRANCH   2   3
ATOM      3  C   UNL A   1      39.499  25.577  28.074  1.00  0.00     0.188 C 
BRANCH   3   4
ATOM      4  C   UNL A   1      39.609  24.286  26.995  1.00  0.00     0.188 C 
BRANCH   4   5
ATOM      5  O   UNL A   1      38.562  22.930  26.358  1.00  0.00    -0.376 OA
BRANCH   5   6
ATOM      6  C   UNL A   1      37.012  22.865  25.486  1.00  0.00     0.202 C 
BRANCH   6   7
ATOM      7  C   UNL A   1      36.768  22.790  23.618  1.00  0.00     0.261 C 
BRANCH   7   8
ATOM      8  O   UNL A   1      35.160  23.071  22.780  1.00  0.00    -0.460 OA
BRANCH   8   9
ATOM      9  C   UNL A   1      33.757  23.586  22.880  1.00  0.00     0.339 C 
ATOM     10  O   UNL A   1      33.004  23.684  21.913  1.00  0.00    -0.246 OA
BRANCH   9  11
ATOM     11  C   UNL A   1      32.949  24.120  24.139  1.00  0.00     0.075 A 
ATOM     12  C   UNL A   1      31.804  25.897  25.618  1.00  0.00     0.074 A 
ATOM     13  C   UNL A   1      32.777  25.417  24.700  1.00  0.00     0.045 A 
ATOM     14  N   UNL A   1      30.939  25.100  26.256  1.00  0.00    -0.226 NA
ATOM     15  C   UNL A   1      31.174  23.790  25.983  1.00  0.00     0.182 A 
ATOM     16  C   UNL A   1      32.146  23.306  24.997  1.00  0.00     0.061 A 
ATOM     17  N   UNL A   1      30.565  22.798  26.628  1.00  0.00    -0.154 NA
ATOM     18  C   UNL A   1      32.181  21.935  25.254  1.00  0.00     0.076 A 
ATOM     19  N   UNL A   1      31.163  21.709  26.145  1.00  0.00    -0.275 N 
ATOM     20  H   UNL A   1      30.891  20.800  26.412  1.00  0.00     0.190 HD
BRANCH  12  21
ATOM     21  C   UNL A   1      31.731  27.362  25.876  1.00  0.00     0.000 A 
ATOM     22  C   UNL A   1      31.727  31.686  26.428  1.00  0.00     0.044 C 
ATOM     23  C   UNL A   1      31.736  30.197  26.226  1.00  0.00    -0.051 A 
ATOM     24  C   UNL A   1      32.329  29.352  27.173  1.00  0.00     0.004 A 
ATOM     25  C   UNL A   1      31.128  29.620  25.109  1.00  0.00     0.004 A 
ATOM     26  C   UNL A   1      32.326  27.955  26.999  1.00  0.00     0.010 A 
ATOM     27  C   UNL A   1      31.132  28.227  24.938  1.00  0.00     0.010 A 
ENDBRANCH  12  21
BRANCH  18  28
ATOM     28  C   UNL A   1      33.034  20.800  24.904  1.00  0.00     0.007 A 
ATOM     29  C   UNL A   1      34.326  20.701  25.430  1.00  0.00     0.011 A 
ATOM     30  C   UNL A   1      32.594  19.827  23.998  1.00  0.00     0.096 A 
ATOM     31  C   UNL A   1      35.141  19.610  25.118  1.00  0.00     0.008 A 
ATOM     32  C   UNL A   1      33.414  18.720  23.706  1.00  0.00     0.270 A 
ATOM     33  C   UNL A   1      34.687  18.602  24.269  1.00  0.00     0.085 A 
BRANCH  32  34
ATOM     34  N   UNL A   1      32.877  17.630  22.884  1.00  0.00     0.062 N 
ATOM     35  O   UNL A   1      33.086  16.463  23.237  1.00  0.00    -0.258 OA
ATOM     36  O   UNL A   1      32.197  17.948  21.895  1.00  0.00    -0.258 OA
ENDBRANCH  32  34
ENDBRANCH  18  28
ENDBRANCH   9  11
ENDBRANCH   8   9
ENDBRANCH   7   8
ENDBRANCH   6   7
ENDBRANCH   5   6
ENDBRANCH   4   5
ENDBRANCH   3   4
ENDBRANCH   2   3
ENDBRANCH   1   2
BRANCH   1  37
ATOM     37  C   UNL A   1      42.494  26.936  28.558  1.00  0.00     0.188 C 
BRANCH  37  38
ATOM     38  O   UNL A   1      43.656  26.907  27.760  1.00  0.00    -0.376 OA
BRANCH  38  39
ATOM     39  C   UNL A   1      44.713  27.739  28.190  1.00  0.00     0.202 C 
BRANCH  39  40
ATOM     40  C   UNL A   1      44.273  28.701  29.302  1.00  0.00     0.261 C 
BRANCH  40  41
ATOM     41  O   UNL A   1      45.208  28.686  30.407  1.00  0.00    -0.460 OA
BRANCH  41  42
ATOM     42  C   UNL A   1      44.679  28.703  31.675  1.00  0.00     0.338 C 
ATOM     43  O   UNL A   1      44.457  27.682  32.335  1.00  0.00    -0.246 OA
BRANCH  42  44
ATOM     44  C   UNL A   1      44.156  30.065  31.991  1.00  0.00     0.060 A 
ATOM     45  C   UNL A   1      44.910  31.218  32.267  1.00  0.00     0.016 A 
ATOM     46  C   UNL A   1      42.862  30.107  32.368  1.00  0.00     0.016 A 
ATOM     47  C   UNL A   1      44.482  32.227  33.235  1.00  0.00     0.010 A 
ATOM     48  C   UNL A   1      42.565  30.992  33.386  1.00  0.00     0.010 A 
ATOM     49  C   UNL A   1      43.365  32.042  34.062  1.00  0.00    -0.014 A 
BRANCH  49  50
ATOM     50  C   UNL A   1      42.957  32.956  35.653  1.00  0.00     0.031 A 
ATOM     51  C   UNL A   1      43.855  32.516  37.416  1.00  0.00     0.074 A 
ATOM     52  C   UNL A   1      41.791  33.771  35.380  1.00  0.00     0.049 A 
ATOM     53  N   UNL A   1      43.253  32.170  38.585  1.00  0.00    -0.248 NA
ATOM     54  C   UNL A   1      45.286  31.790  37.840  1.00  0.00     0.031 C 
ATOM     55  C   UNL A   1      40.988  34.765  36.154  1.00  0.00     0.029 A 
ATOM     56  N   UNL A   1      40.883  33.713  34.291  1.00  0.00    -0.354 N 
ATOM     57  C   UNL A   1      43.978  31.705  39.642  1.00  0.00     0.074 A 
ATOM     58  C   UNL A   1      45.199  31.300  39.072  1.00  0.00     0.031 C 
ATOM     59  C   UNL A   1      39.888  35.252  35.595  1.00  0.00     0.029 A 
ATOM     60  C   UNL A   1      39.628  34.290  34.626  1.00  0.00     0.049 A 
ATOM     61  H   UNL A   1      41.096  33.321  33.413  1.00  0.00     0.167 HD
ATOM     62  C   UNL A   1      43.512  31.800  40.923  1.00  0.00     0.034 A 
ATOM     63  C   UNL A   1      38.482  33.584  34.800  1.00  0.00     0.034 A 
ATOM     64  C   UNL A   1      42.255  32.588  40.987  1.00  0.00     0.049 A 
ATOM     65  C   UNL A   1      38.103  33.335  36.305  1.00  0.00     0.074 A 
ATOM     66  C   UNL A   1      42.038  33.941  41.214  1.00  0.00     0.029 A 
ATOM     67  N   UNL A   1      41.043  32.107  40.482  1.00  0.00    -0.354 N 
ATOM     68  N   UNL A   1      38.932  33.216  37.335  1.00  0.00    -0.248 NA
ATOM     69  C   UNL A   1      36.722  33.463  36.771  1.00  0.00     0.031 C 
ATOM     70  C   UNL A   1      40.779  34.300  40.643  1.00  0.00     0.029 A 
ATOM     71  C   UNL A   1      40.153  33.151  40.168  1.00  0.00     0.049 A 
ATOM     72  H   UNL A   1      40.836  31.152  40.361  1.00  0.00     0.167 HD
ATOM     73  C   UNL A   1      38.241  33.147  38.540  1.00  0.00     0.074 A 
ATOM     74  C   UNL A   1      36.863  33.384  38.109  1.00  0.00     0.031 C 
ATOM     75  C   UNL A   1      38.741  32.913  39.818  1.00  0.00     0.034 A 
BRANCH  62  76
ATOM     76  C   UNL A   1      44.504  31.594  42.072  1.00  0.00     0.023 A 
ATOM     77  C   UNL A   1      45.291  32.686  42.487  1.00  0.00     0.012 A 
ATOM     78  C   UNL A   1      44.818  30.344  42.667  1.00  0.00     0.148 A 
ATOM     79  C   UNL A   1      46.420  32.523  43.305  1.00  0.00     0.002 A 
ATOM     80  C   UNL A   1      46.007  30.160  43.384  1.00  0.00     0.091 A 
ATOM     81  F   UNL A   1      43.944  29.330  42.570  1.00  0.00    -0.205 F 
ATOM     82  C   UNL A   1      46.814  31.253  43.703  1.00  0.00     0.022 A 
BRANCH  80  83
ATOM     83  S   UNL A   1      46.688  28.523  43.728  1.00  0.00     0.127 S 
ATOM     84  O   UNL A   1      48.015  28.848  44.261  1.00  0.00    -0.237 OA
ATOM     85  O   UNL A   1      45.753  27.984  44.712  1.00  0.00    -0.237 OA
ATOM     86  O   UNL A   1      46.730  27.835  42.444  1.00  0.00    -0.744 OA
ENDBRANCH  80  83
ENDBRANCH  62  76
BRANCH  63  87
ATOM     87  C   UNL A   1      38.214  32.935  33.492  1.00  0.00     0.023 A 
ATOM     88  C   UNL A   1      38.339  31.500  33.506  1.00  0.00     0.012 A 
ATOM     89  C   UNL A   1      37.365  33.516  32.556  1.00  0.00     0.148 A 
ATOM     90  C   UNL A   1      37.434  30.689  32.824  1.00  0.00     0.002 A 
ATOM     91  C   UNL A   1      36.526  32.687  31.807  1.00  0.00     0.091 A 
ATOM     92  F   UNL A   1      37.306  34.852  32.488  1.00  0.00    -0.205 F 
ATOM     93  C   UNL A   1      36.506  31.289  31.991  1.00  0.00     0.022 A 
BRANCH  91  94
ATOM     94  S   UNL A   1      35.332  33.409  30.682  1.00  0.00     0.127 S 
ATOM     95  O   UNL A   1      34.604  34.301  31.580  1.00  0.00    -0.237 OA
ATOM     96  O   UNL A   1      36.178  34.088  29.699  1.00  0.00    -0.237 OA
ATOM     97  O   UNL A   1      34.604  32.263  30.160  1.00  0.00    -0.744 OA
ENDBRANCH  91  94
ENDBRANCH  63  87
BRANCH  75  98
ATOM     98  C   UNL A   1      37.881  32.409  41.001  1.00  0.00     0.023 A 
ATOM     99  C   UNL A   1      37.990  31.097  41.493  1.00  0.00     0.012 A 
ATOM    100  C   UNL A   1      37.133  33.315  41.815  1.00  0.00     0.148 A 
ATOM    101  C   UNL A   1      37.399  30.702  42.700  1.00  0.00     0.002 A 
ATOM    102  C   UNL A   1      36.687  32.959  43.083  1.00  0.00     0.091 A 
ATOM    103  F   UNL A   1      36.811  34.537  41.369  1.00  0.00    -0.205 F 
ATOM    104  C   UNL A   1      36.790  31.644  43.519  1.00  0.00     0.022 A 
BRANCH 102 105
ATOM    105  S   UNL A   1      36.182  34.223  44.266  1.00  0.00     0.127 S 
ATOM    106  O   UNL A   1      37.125  35.303  43.983  1.00  0.00    -0.237 OA
ATOM    107  O   UNL A   1      34.802  34.497  43.857  1.00  0.00    -0.237 OA
ATOM    108  O   UNL A   1      36.298  33.588  45.571  1.00  0.00    -0.744 OA
ENDBRANCH 102 105
ENDBRANCH  75  98
ENDBRANCH  49  50
ENDBRANCH  42  44
ENDBRANCH  41  42
ENDBRANCH  40  41
ENDBRANCH  39  40
ENDBRANCH  38  39
ENDBRANCH  37  38
ENDBRANCH   1  37
TORSDOF 26
ENDMDL
MODEL 2
REMARK VINA RESULT:     -11.3      5.064      9.326
REMARK SMILES Cc1ccc(-c2cc(C(=O)OCCOCCOCCOCCOC(=O)c3ccc(-c4c5nc(c(-c6cccc(S(=O)(=O)[O-])c6F)c6ccc([nH]6)c(-c6cccc(S(=O)(=O)[O-])c6F)c6nc(c(-c7cccc(S(=O)(=O)[O-])c7F)c7ccc4[nH]7)C=C6)C=C5)cc3)c3c(-c4cccc([N+](=O)[O-])c4)[nH]nc3n2)cc1
REMARK SMILES IDX 18 1 17 2 16 3 15 4 14 5 13 6 12 7 11 8 9 9 10 10 8 11 6 12
REMARK SMILES IDX 7 13 103 14 102 15 89 16 101 17 90 18 100 19 5 21 1 22 2 23
REMARK SMILES IDX 3 24 105 25 4 26 104 27 91 28 92 29 99 30 93 31 95 32 94 33
REMARK SMILES IDX 96 34 97 35 98 36 19 37 20 38 21 39 22 40 23 41 24 42 25 43
REMARK SMILES IDX 26 44 27 45 88 46 28 47 87 48 29 49 30 50 31 51 81 52 32 53
REMARK SMILES IDX 86 54 80 55 82 56 33 57 85 58 79 59 78 60 34 62 66 63 46 64
REMARK SMILES IDX 65 65 47 66 50 67 64 68 83 69 48 70 49 71 63 73 84 74 51 75
REMARK SMILES IDX 35 76 36 77 44 78 37 79 39 80 45 81 38 82 40 83 41 84 42 85
REMARK SMILES IDX 43 86 67 87 68 88 76 89 69 90 71 91 77 92 70 93 72 94 73 95
REMARK SMILES IDX 74 96 75 97 52 98 53 99 61 100 54 101 56 102 62 103 55 104
REMARK SMILES IDX 57 105 58 106 59 107 60 108
REMARK H PARENT 100 20 82 61 50 72
REMARK Flexibility Score: inf
ROOT
ATOM      1  C   UNL A   1      43.153  21.809  26.488  1.00  0.00     0.188 C 
ENDROOT
BRANCH   1   2
ATOM      2  O   UNL A   1      42.251  20.862  25.929  1.00  0.00    -0.377 OA
BRANCH   2   3
ATOM      3  C   UNL A   1      40.918  20.651  26.396  1.00  0.00     0.188 C 
BRANCH   3   4
ATOM      4  C   UNL A   1      39.476  21.518  26.289  1.00  0.00     0.188 C 
BRANCH   4   5
ATOM      5  O   UNL A   1      38.914  23.257  26.253  1.00  0.00    -0.376 OA
BRANCH   5   6
ATOM      6  C   UNL A   1      37.320  24.044  26.175  1.00  0.00     0.202 C 
BRANCH   6   7
ATOM      7  C   UNL A   1      35.641  23.222  26.424  1.00  0.00     0.261 C 
BRANCH   7   8
ATOM      8  O   UNL A   1      34.087  24.141  26.755  1.00  0.00    -0.460 OA
BRANCH   8   9
ATOM      9  C   UNL A   1      32.721  24.527  26.274  1.00  0.00     0.339 C 
ATOM     10  O   UNL A   1      31.706  24.397  26.955  1.00  0.00    -0.246 OA
BRANCH   9  11
ATOM     11  C   UNL A   1      32.259  25.124  24.877  1.00  0.00     0.075 A 
ATOM     12  C   UNL A   1      31.346  26.933  23.280  1.00  0.00     0.074 A 
ATOM     13  C   UNL A   1      31.467  26.254  24.522  1.00  0.00     0.045 A 
ATOM     14  N   UNL A   1      31.878  26.480  22.138  1.00  0.00    -0.226 NA
ATOM     15  C   UNL A   1      32.457  25.263  22.308  1.00  0.00     0.182 A 
ATOM     16  C   UNL A   1      32.623  24.592  23.602  1.00  0.00     0.061 A 
ATOM     17  N   UNL A   1      32.900  24.526  21.291  1.00  0.00    -0.154 NA
ATOM     18  C   UNL A   1      33.039  23.314  23.229  1.00  0.00     0.076 A 
ATOM     19  N   UNL A   1      33.271  23.389  21.879  1.00  0.00    -0.275 N 
ATOM     20  H   UNL A   1      33.684  22.650  21.375  1.00  0.00     0.190 HD
BRANCH  12  21
ATOM     21  C   UNL A   1      30.599  28.222  23.243  1.00  0.00     0.000 A 
ATOM     22  C   UNL A   1      28.274  31.906  23.381  1.00  0.00     0.044 C 
ATOM     23  C   UNL A   1      29.071  30.633  23.346  1.00  0.00    -0.051 A 
ATOM     24  C   UNL A   1      28.785  29.636  22.404  1.00  0.00     0.004 A 
ATOM     25  C   UNL A   1      30.132  30.426  24.229  1.00  0.00     0.004 A 
ATOM     26  C   UNL A   1      29.539  28.448  22.354  1.00  0.00     0.010 A 
ATOM     27  C   UNL A   1      30.878  29.239  24.180  1.00  0.00     0.010 A 
ENDBRANCH  12  21
BRANCH  18  28
ATOM     28  C   UNL A   1      33.180  22.004  23.865  1.00  0.00     0.007 A 
ATOM     29  C   UNL A   1      32.048  21.305  24.297  1.00  0.00     0.011 A 
ATOM     30  C   UNL A   1      34.446  21.455  24.098  1.00  0.00     0.096 A 
ATOM     31  C   UNL A   1      32.171  20.044  24.886  1.00  0.00     0.008 A 
ATOM     32  C   UNL A   1      34.559  20.174  24.674  1.00  0.00     0.270 A 
ATOM     33  C   UNL A   1      33.424  19.461  25.063  1.00  0.00     0.085 A 
BRANCH  32  34
ATOM     34  N   UNL A   1      35.882  19.546  24.764  1.00  0.00     0.062 N 
ATOM     35  O   UNL A   1      35.949  18.311  24.817  1.00  0.00    -0.258 OA
ATOM     36  O   UNL A   1      36.870  20.297  24.737  1.00  0.00    -0.258 OA
ENDBRANCH  32  34
ENDBRANCH  18  28
ENDBRANCH   9  11
ENDBRANCH   8   9
ENDBRANCH   7   8
ENDBRANCH   6   7
ENDBRANCH   5   6
ENDBRANCH   4   5
ENDBRANCH   3   4
ENDBRANCH   2   3
ENDBRANCH   1   2
BRANCH   1  37
ATOM     37  C   UNL A   1      44.275  22.403  25.659  1.00  0.00     0.188 C 
BRANCH  37  38
ATOM     38  O   UNL A   1      44.229  23.810  25.740  1.00  0.00    -0.376 OA
BRANCH  38  39
ATOM     39  C   UNL A   1      45.232  24.495  25.020  1.00  0.00     0.202 C 
BRANCH  39  40
ATOM     40  C   UNL A   1      46.643  24.057  25.435  1.00  0.00     0.261 C 
BRANCH  40  41
ATOM     41  O   UNL A   1      47.353  25.134  26.090  1.00  0.00    -0.460 OA
BRANCH  41  42
ATOM     42  C   UNL A   1      47.876  26.119  25.287  1.00  0.00     0.338 C 
ATOM     43  O   UNL A   1      48.656  25.897  24.355  1.00  0.00    -0.246 OA
BRANCH  42  44
ATOM     44  C   UNL A   1      47.607  27.460  25.885  1.00  0.00     0.060 A 
ATOM     45  C   UNL A   1      47.499  27.771  27.252  1.00  0.00     0.016 A 
ATOM     46  C   UNL A   1      47.099  28.374  25.034  1.00  0.00     0.016 A 
ATOM     47  C   UNL A   1      46.568  28.778  27.759  1.00  0.00     0.010 A 
ATOM     48  C   UNL A   1      46.122  29.201  25.558  1.00  0.00     0.010 A 
ATOM     49  C   UNL A   1      45.614  29.396  26.937  1.00  0.00    -0.014 A 
BRANCH  49  50
ATOM     50  C   UNL A   1      44.061  30.308  27.474  1.00  0.00     0.031 A 
ATOM     51  C   UNL A   1      43.953  32.332  27.517  1.00  0.00     0.074 A 
ATOM     52  C   UNL A   1      43.164  29.317  28.031  1.00  0.00     0.049 A 
ATOM     53  N   UNL A   1      43.630  33.119  28.578  1.00  0.00    -0.248 NA
ATOM     54  C   UNL A   1      44.777  33.554  26.754  1.00  0.00     0.031 C 
ATOM     55  C   UNL A   1      41.774  29.333  28.578  1.00  0.00     0.029 A 
ATOM     56  N   UNL A   1      43.432  27.983  28.435  1.00  0.00    -0.354 N 
ATOM     57  C   UNL A   1      43.789  34.472  28.528  1.00  0.00     0.074 A 
ATOM     58  C   UNL A   1      44.684  34.675  27.461  1.00  0.00     0.031 C 
ATOM     59  C   UNL A   1      41.299  28.216  29.112  1.00  0.00     0.029 A 
ATOM     60  C   UNL A   1      42.474  27.521  29.378  1.00  0.00     0.049 A 
ATOM     61  H   UNL A   1      44.187  27.445  28.104  1.00  0.00     0.167 HD
ATOM     62  C   UNL A   1      43.067  35.305  29.335  1.00  0.00     0.034 A 
ATOM     63  C   UNL A   1      42.735  27.304  30.692  1.00  0.00     0.034 A 
ATOM     64  C   UNL A   1      42.033  34.560  30.098  1.00  0.00     0.049 A 
ATOM     65  C   UNL A   1      42.246  28.454  31.644  1.00  0.00     0.074 A 
ATOM     66  C   UNL A   1      40.699  34.303  29.814  1.00  0.00     0.029 A 
ATOM     67  N   UNL A   1      42.358  33.682  31.137  1.00  0.00    -0.354 N 
ATOM     68  N   UNL A   1      42.138  29.746  31.356  1.00  0.00    -0.248 NA
ATOM     69  C   UNL A   1      41.596  28.158  32.921  1.00  0.00     0.031 C 
ATOM     70  C   UNL A   1      40.300  33.132  30.528  1.00  0.00     0.029 A 
ATOM     71  C   UNL A   1      41.346  32.728  31.354  1.00  0.00     0.049 A 
ATOM     72  H   UNL A   1      43.194  33.726  31.655  1.00  0.00     0.167 HD
ATOM     73  C   UNL A   1      41.534  30.450  32.393  1.00  0.00     0.074 A 
ATOM     74  C   UNL A   1      41.156  29.372  33.307  1.00  0.00     0.031 C 
ATOM     75  C   UNL A   1      41.344  31.823  32.517  1.00  0.00     0.034 A 
BRANCH  62  76
ATOM     76  C   UNL A   1      43.028  36.796  28.987  1.00  0.00     0.023 A 
ATOM     77  C   UNL A   1      42.169  37.226  27.957  1.00  0.00     0.012 A 
ATOM     78  C   UNL A   1      43.904  37.781  29.513  1.00  0.00     0.148 A 
ATOM     79  C   UNL A   1      42.285  38.496  27.371  1.00  0.00     0.002 A 
ATOM     80  C   UNL A   1      44.103  39.002  28.855  1.00  0.00     0.091 A 
ATOM     81  F   UNL A   1      44.529  37.554  30.679  1.00  0.00    -0.205 F 
ATOM     82  C   UNL A   1      43.292  39.362  27.777  1.00  0.00     0.022 A 
BRANCH  80  83
ATOM     83  S   UNL A   1      45.529  40.060  29.182  1.00  0.00     0.127 S 
ATOM     84  O   UNL A   1      46.064  40.280  27.836  1.00  0.00    -0.237 OA
ATOM     85  O   UNL A   1      44.924  41.239  29.797  1.00  0.00    -0.237 OA
ATOM     86  O   UNL A   1      46.413  39.277  30.037  1.00  0.00    -0.744 OA
ENDBRANCH  80  83
ENDBRANCH  62  76
BRANCH  63  87
ATOM     87  C   UNL A   1      43.771  26.240  30.719  1.00  0.00     0.023 A 
ATOM     88  C   UNL A   1      43.690  25.307  29.625  1.00  0.00     0.012 A 
ATOM     89  C   UNL A   1      45.006  26.448  31.322  1.00  0.00     0.148 A 
ATOM     90  C   UNL A   1      44.838  24.845  28.982  1.00  0.00     0.002 A 
ATOM     91  C   UNL A   1      46.144  25.901  30.723  1.00  0.00     0.091 A 
ATOM     92  F   UNL A   1      45.070  27.254  32.389  1.00  0.00    -0.205 F 
ATOM     93  C   UNL A   1      46.070  25.168  29.521  1.00  0.00     0.022 A 
BRANCH  91  94
ATOM     94  S   UNL A   1      47.765  26.251  31.402  1.00  0.00     0.127 S 
ATOM     95  O   UNL A   1      47.779  27.711  31.357  1.00  0.00    -0.237 OA
ATOM     96  O   UNL A   1      47.687  25.682  32.748  1.00  0.00    -0.237 OA
ATOM     97  O   UNL A   1      48.678  25.557  30.507  1.00  0.00    -0.744 OA
ENDBRANCH  91  94
ENDBRANCH  63  87
BRANCH  75  98
ATOM     98  C   UNL A   1      41.088  32.540  33.865  1.00  0.00     0.023 A 
ATOM     99  C   UNL A   1      39.883  33.209  34.134  1.00  0.00     0.012 A 
ATOM    100  C   UNL A   1      41.947  32.336  34.989  1.00  0.00     0.148 A 
ATOM    101  C   UNL A   1      39.547  33.653  35.420  1.00  0.00     0.002 A 
ATOM    102  C   UNL A   1      41.538  32.636  36.284  1.00  0.00     0.091 A 
ATOM    103  F   UNL A   1      43.193  31.872  34.828  1.00  0.00    -0.205 F 
ATOM    104  C   UNL A   1      40.350  33.323  36.503  1.00  0.00     0.022 A 
BRANCH 102 105
ATOM    105  S   UNL A   1      42.410  31.947  37.704  1.00  0.00     0.127 S 
ATOM    106  O   UNL A   1      41.509  32.273  38.806  1.00  0.00    -0.237 OA
ATOM    107  O   UNL A   1      42.472  30.522  37.368  1.00  0.00    -0.237 OA
ATOM    108  O   UNL A   1      43.706  32.610  37.711  1.00  0.00    -0.744 OA
ENDBRANCH 102 105
ENDBRANCH  75  98
ENDBRANCH  49  50
ENDBRANCH  42  44
ENDBRANCH  41  42
ENDBRANCH  40  41
ENDBRANCH  39  40
ENDBRANCH  38  39
ENDBRANCH  37  38
ENDBRANCH   1  37
TORSDOF 26
ENDMDL
MODEL 3
REMARK VINA RESULT:     -10.7      5.843      8.766
REMARK SMILES Cc1ccc(-c2cc(C(=O)OCCOCCOCCOCCOC(=O)c3ccc(-c4c5nc(c(-c6cccc(S(=O)(=O)[O-])c6F)c6ccc([nH]6)c(-c6cccc(S(=O)(=O)[O-])c6F)c6nc(c(-c7cccc(S(=O)(=O)[O-])c7F)c7ccc4[nH]7)C=C6)C=C5)cc3)c3c(-c4cccc([N+](=O)[O-])c4)[nH]nc3n2)cc1
REMARK SMILES IDX 18 1 17 2 16 3 15 4 14 5 13 6 12 7 11 8 9 9 10 10 8 11 6 12
REMARK SMILES IDX 7 13 103 14 102 15 89 16 101 17 90 18 100 19 5 21 1 22 2 23
REMARK SMILES IDX 3 24 105 25 4 26 104 27 91 28 92 29 99 30 93 31 95 32 94 33
REMARK SMILES IDX 96 34 97 35 98 36 19 37 20 38 21 39 22 40 23 41 24 42 25 43
REMARK SMILES IDX 26 44 27 45 88 46 28 47 87 48 29 49 30 50 31 51 81 52 32 53
REMARK SMILES IDX 86 54 80 55 82 56 33 57 85 58 79 59 78 60 34 62 66 63 46 64
REMARK SMILES IDX 65 65 47 66 50 67 64 68 83 69 48 70 49 71 63 73 84 74 51 75
REMARK SMILES IDX 35 76 36 77 44 78 37 79 39 80 45 81 38 82 40 83 41 84 42 85
REMARK SMILES IDX 43 86 67 87 68 88 76 89 69 90 71 91 77 92 70 93 72 94 73 95
REMARK SMILES IDX 74 96 75 97 52 98 53 99 61 100 54 101 56 102 62 103 55 104
REMARK SMILES IDX 57 105 58 106 59 107 60 108
REMARK H PARENT 100 20 82 61 50 72
REMARK Flexibility Score: inf
ROOT
ATOM      1  C   UNL A   1      41.120  27.831  27.317  1.00  0.00     0.188 C 
ENDROOT
BRANCH   1   2
ATOM      2  O   UNL A   1      40.512  26.995  28.294  1.00  0.00    -0.377 OA
BRANCH   2   3
ATOM      3  C   UNL A   1      40.325  25.588  28.143  1.00  0.00     0.188 C 
BRANCH   3   4
ATOM      4  C   UNL A   1      39.958  24.576  26.845  1.00  0.00     0.188 C 
BRANCH   4   5
ATOM      5  O   UNL A   1      38.759  23.264  26.417  1.00  0.00    -0.376 OA
BRANCH   5   6
ATOM      6  C   UNL A   1      37.207  23.238  25.548  1.00  0.00     0.202 C 
BRANCH   6   7
ATOM      7  C   UNL A   1      36.944  22.889  23.714  1.00  0.00     0.261 C 
BRANCH   7   8
ATOM      8  O   UNL A   1      35.322  23.021  22.865  1.00  0.00    -0.460 OA
BRANCH   8   9
ATOM      9  C   UNL A   1      33.959  23.641  22.837  1.00  0.00     0.339 C 
ATOM     10  O   UNL A   1      33.320  23.816  21.801  1.00  0.00    -0.246 OA
BRANCH   9  11
ATOM     11  C   UNL A   1      33.068  24.210  24.022  1.00  0.00     0.075 A 
ATOM     12  C   UNL A   1      31.846  26.031  25.380  1.00  0.00     0.074 A 
ATOM     13  C   UNL A   1      32.878  25.520  24.547  1.00  0.00     0.045 A 
ATOM     14  N   UNL A   1      30.920  25.261  25.963  1.00  0.00    -0.226 NA
ATOM     15  C   UNL A   1      31.151  23.943  25.729  1.00  0.00     0.182 A 
ATOM     16  C   UNL A   1      32.187  23.425  24.828  1.00  0.00     0.061 A 
ATOM     17  N   UNL A   1      30.476  22.972  26.341  1.00  0.00    -0.154 NA
ATOM     18  C   UNL A   1      32.176  22.058  25.108  1.00  0.00     0.076 A 
ATOM     19  N   UNL A   1      31.089  21.865  25.923  1.00  0.00    -0.275 N 
ATOM     20  H   UNL A   1      30.781  20.966  26.182  1.00  0.00     0.190 HD
BRANCH  12  21
ATOM     21  C   UNL A   1      31.781  27.502  25.609  1.00  0.00     0.000 A 
ATOM     22  C   UNL A   1      31.340  31.761  26.427  1.00  0.00     0.044 C 
ATOM     23  C   UNL A   1      31.482  30.290  26.154  1.00  0.00    -0.051 A 
ATOM     24  C   UNL A   1      31.233  29.774  24.877  1.00  0.00     0.004 A 
ATOM     25  C   UNL A   1      31.894  29.410  27.158  1.00  0.00     0.004 A 
ATOM     26  C   UNL A   1      31.381  28.399  24.609  1.00  0.00     0.010 A 
ATOM     27  C   UNL A   1      32.035  28.040  26.888  1.00  0.00     0.010 A 
ENDBRANCH  12  21
BRANCH  18  28
ATOM     28  C   UNL A   1      33.032  20.903  24.843  1.00  0.00     0.007 A 
ATOM     29  C   UNL A   1      34.282  20.795  25.460  1.00  0.00     0.011 A 
ATOM     30  C   UNL A   1      32.640  19.917  23.929  1.00  0.00     0.096 A 
ATOM     31  C   UNL A   1      35.099  19.684  25.229  1.00  0.00     0.008 A 
ATOM     32  C   UNL A   1      33.460  18.791  23.718  1.00  0.00     0.270 A 
ATOM     33  C   UNL A   1      34.687  18.666  24.371  1.00  0.00     0.085 A 
BRANCH  32  34
ATOM     34  N   UNL A   1      32.963  17.693  22.882  1.00  0.00     0.062 N 
ATOM     35  O   UNL A   1      33.519  16.590  22.961  1.00  0.00    -0.258 OA
ATOM     36  O   UNL A   1      31.973  17.924  22.170  1.00  0.00    -0.258 OA
ENDBRANCH  32  34
ENDBRANCH  18  28
ENDBRANCH   9  11
ENDBRANCH   8   9
ENDBRANCH   7   8
ENDBRANCH   6   7
ENDBRANCH   5   6
ENDBRANCH   4   5
ENDBRANCH   3   4
ENDBRANCH   2   3
ENDBRANCH   1   2
BRANCH   1  37
ATOM     37  C   UNL A   1      42.550  28.309  27.477  1.00  0.00     0.188 C 
BRANCH  37  38
ATOM     38  O   UNL A   1      42.952  28.996  26.313  1.00  0.00    -0.376 OA
BRANCH  38  39
ATOM     39  C   UNL A   1      43.387  30.325  26.510  1.00  0.00     0.202 C 
BRANCH  39  40
ATOM     40  C   UNL A   1      44.003  30.531  27.900  1.00  0.00     0.261 C 
BRANCH  40  41
ATOM     41  O   UNL A   1      44.918  31.651  27.906  1.00  0.00    -0.460 OA
BRANCH  41  42
ATOM     42  C   UNL A   1      46.216  31.398  28.279  1.00  0.00     0.338 C 
ATOM     43  O   UNL A   1      47.051  30.873  27.533  1.00  0.00    -0.246 OA
BRANCH  42  44
ATOM     44  C   UNL A   1      46.365  31.567  29.755  1.00  0.00     0.060 A 
ATOM     45  C   UNL A   1      47.513  31.991  30.446  1.00  0.00     0.016 A 
ATOM     46  C   UNL A   1      45.429  30.943  30.499  1.00  0.00     0.016 A 
ATOM     47  C   UNL A   1      47.881  31.464  31.760  1.00  0.00     0.010 A 
ATOM     48  C   UNL A   1      45.886  30.352  31.661  1.00  0.00     0.010 A 
ATOM     49  C   UNL A   1      47.197  30.394  32.354  1.00  0.00    -0.014 A 
BRANCH  49  50
ATOM     50  C   UNL A   1      47.798  29.287  33.749  1.00  0.00     0.031 A 
ATOM     51  C   UNL A   1      49.304  27.953  33.502  1.00  0.00     0.074 A 
ATOM     52  C   UNL A   1      46.848  29.428  34.834  1.00  0.00     0.049 A 
ATOM     53  N   UNL A   1      49.267  26.614  33.738  1.00  0.00    -0.248 NA
ATOM     54  C   UNL A   1      50.570  27.816  32.438  1.00  0.00     0.031 C 
ATOM     55  C   UNL A   1      46.743  28.897  36.226  1.00  0.00     0.029 A 
ATOM     56  N   UNL A   1      45.545  29.990  34.826  1.00  0.00    -0.354 N 
ATOM     57  C   UNL A   1      50.287  25.799  33.341  1.00  0.00     0.074 A 
ATOM     58  C   UNL A   1      50.972  26.552  32.370  1.00  0.00     0.031 C 
ATOM     59  C   UNL A   1      45.644  29.167  36.918  1.00  0.00     0.029 A 
ATOM     60  C   UNL A   1      44.756  29.493  35.898  1.00  0.00     0.049 A 
ATOM     61  H   UNL A   1      45.228  30.643  34.161  1.00  0.00     0.167 HD
ATOM     62  C   UNL A   1      50.515  24.596  33.947  1.00  0.00     0.034 A 
ATOM     63  C   UNL A   1      43.707  28.645  35.749  1.00  0.00     0.034 A 
ATOM     64  C   UNL A   1      49.641  24.412  35.134  1.00  0.00     0.049 A 
ATOM     65  C   UNL A   1      44.041  27.145  36.079  1.00  0.00     0.074 A 
ATOM     66  C   UNL A   1      49.854  24.697  36.476  1.00  0.00     0.029 A 
ATOM     67  N   UNL A   1      48.263  24.201  35.024  1.00  0.00    -0.354 N 
ATOM     68  N   UNL A   1      45.211  26.532  35.943  1.00  0.00    -0.248 NA
ATOM     69  C   UNL A   1      43.110  26.308  36.836  1.00  0.00     0.031 C 
ATOM     70  C   UNL A   1      48.587  24.868  37.111  1.00  0.00     0.029 A 
ATOM     71  C   UNL A   1      47.579  24.570  36.198  1.00  0.00     0.049 A 
ATOM     72  H   UNL A   1      47.823  23.838  34.221  1.00  0.00     0.167 HD
ATOM     73  C   UNL A   1      45.175  25.244  36.468  1.00  0.00     0.074 A 
ATOM     74  C   UNL A   1      43.846  25.206  37.077  1.00  0.00     0.031 C 
ATOM     75  C   UNL A   1      46.156  24.258  36.420  1.00  0.00     0.034 A 
BRANCH  62  76
ATOM     76  C   UNL A   1      51.861  23.907  33.705  1.00  0.00     0.023 A 
ATOM     77  C   UNL A   1      51.898  22.776  32.867  1.00  0.00     0.012 A 
ATOM     78  C   UNL A   1      53.071  24.217  34.379  1.00  0.00     0.148 A 
ATOM     79  C   UNL A   1      53.003  21.912  32.829  1.00  0.00     0.002 A 
ATOM     80  C   UNL A   1      54.126  23.297  34.435  1.00  0.00     0.091 A 
ATOM     81  F   UNL A   1      53.220  25.424  34.945  1.00  0.00    -0.205 F 
ATOM     82  C   UNL A   1      54.093  22.138  33.658  1.00  0.00     0.022 A 
BRANCH  80  83
ATOM     83  S   UNL A   1      55.453  23.417  35.655  1.00  0.00     0.127 S 
ATOM     84  O   UNL A   1      56.395  22.397  35.184  1.00  0.00    -0.237 OA
ATOM     85  O   UNL A   1      55.916  24.793  35.495  1.00  0.00    -0.237 OA
ATOM     86  O   UNL A   1      54.840  23.094  36.937  1.00  0.00    -0.744 OA
ENDBRANCH  80  83
ENDBRANCH  62  76
BRANCH  63  87
ATOM     87  C   UNL A   1      42.719  29.379  34.919  1.00  0.00     0.023 A 
ATOM     88  C   UNL A   1      42.523  28.826  33.604  1.00  0.00     0.012 A 
ATOM     89  C   UNL A   1      41.677  30.095  35.498  1.00  0.00     0.148 A 
ATOM     90  C   UNL A   1      41.252  28.739  33.038  1.00  0.00     0.002 A 
ATOM     91  C   UNL A   1      40.427  30.082  34.873  1.00  0.00     0.091 A 
ATOM     92  F   UNL A   1      41.883  30.677  36.686  1.00  0.00    -0.205 F 
ATOM     93  C   UNL A   1      40.196  29.348  33.691  1.00  0.00     0.022 A 
BRANCH  91  94
ATOM     94  S   UNL A   1      39.031  30.890  35.654  1.00  0.00     0.127 S 
ATOM     95  O   UNL A   1      38.655  29.894  36.654  1.00  0.00    -0.237 OA
ATOM     96  O   UNL A   1      39.624  32.111  36.201  1.00  0.00    -0.237 OA
ATOM     97  O   UNL A   1      38.097  31.110  34.562  1.00  0.00    -0.744 OA
ENDBRANCH  91  94
ENDBRANCH  63  87
BRANCH  75  98
ATOM     98  C   UNL A   1      45.872  22.749  36.616  1.00  0.00     0.023 A 
ATOM     99  C   UNL A   1      45.716  21.874  35.528  1.00  0.00     0.012 A 
ATOM    100  C   UNL A   1      46.016  22.127  37.895  1.00  0.00     0.148 A 
ATOM    101  C   UNL A   1      45.696  20.483  35.686  1.00  0.00     0.002 A 
ATOM    102  C   UNL A   1      46.154  20.749  38.024  1.00  0.00     0.091 A 
ATOM    103  F   UNL A   1      45.993  22.852  39.021  1.00  0.00    -0.205 F 
ATOM    104  C   UNL A   1      45.965  19.919  36.926  1.00  0.00     0.022 A 
BRANCH 102 105
ATOM    105  S   UNL A   1      46.802  20.032  39.546  1.00  0.00     0.127 S 
ATOM    106  O   UNL A   1      47.700  21.081  40.023  1.00  0.00    -0.237 OA
ATOM    107  O   UNL A   1      45.589  19.858  40.349  1.00  0.00    -0.237 OA
ATOM    108  O   UNL A   1      47.427  18.781  39.140  1.00  0.00    -0.744 OA
ENDBRANCH 102 105
ENDBRANCH  75  98
ENDBRANCH  49  50
ENDBRANCH  42  44
ENDBRANCH  41  42
ENDBRANCH  40  41
ENDBRANCH  39  40
ENDBRANCH  38  39
ENDBRANCH  37  38
ENDBRANCH   1  37
TORSDOF 26
ENDMDL
