MODEL 1
REMARK VINA RESULT:      -8.6      0.000      0.000
REMARK SMILES C[C@]1(C(=O)OCCOCCOCCOCCOC(=O)c2ccc(-c3c4nc(c(-c5cccc(S(=O)(=O)[O-])c5F)c5ccc([nH]5)c(-c5cccc(S(=O)(=O)[O-])c5F)c5nc(c(-c6cccc(S(=O)(=O)[O-])c6F)c6ccc3[nH]6)C=C5)C=C4)cc2)COC[C@H]1Nc1ccc2nnnn2n1
REMARK SMILES IDX 12 1 11 2 10 3 9 4 8 5 7 6 6 7 5 8 3 9 4 10 2 11 1 12 83 13
REMARK SMILES IDX 86 14 84 15 85 16 87 17 88 19 89 20 96 21 90 22 95 23 91 24
REMARK SMILES IDX 94 25 92 26 93 27 13 28 14 29 15 30 16 31 17 32 18 33 19 34
REMARK SMILES IDX 20 35 21 36 82 37 22 38 81 39 23 40 24 41 25 42 75 43 26 44
REMARK SMILES IDX 80 45 74 46 76 47 27 48 79 49 73 50 72 51 28 53 60 54 40 55
REMARK SMILES IDX 59 56 41 57 44 58 58 59 77 60 42 61 43 62 57 64 78 65 45 66
REMARK SMILES IDX 29 67 30 68 38 69 31 70 33 71 39 72 32 73 34 74 35 75 36 76
REMARK SMILES IDX 37 77 61 78 62 79 70 80 63 81 65 82 71 83 64 84 66 85 67 86
REMARK SMILES IDX 68 87 69 88 46 89 47 90 55 91 48 92 50 93 56 94 49 95 51 96
REMARK SMILES IDX 52 97 53 98 54 99
REMARK H PARENT 87 18 76 52 44 63
REMARK Flexibility Score: inf
ROOT
ATOM      1  C   UNL A   1      42.664  22.483  27.234  1.00  0.00     0.188 C 
ENDROOT
BRANCH   1   2
ATOM      2  O   UNL A   1      41.310  22.872  27.330  1.00  0.00    -0.377 OA
BRANCH   2   3
ATOM      3  C   UNL A   1      40.365  21.822  27.294  1.00  0.00     0.188 C 
BRANCH   3   4
ATOM      4  C   UNL A   1      39.604  21.433  26.011  1.00  0.00     0.188 C 
BRANCH   4   5
ATOM      5  O   UNL A   1      38.526  22.244  25.605  1.00  0.00    -0.376 OA
BRANCH   5   6
ATOM      6  C   UNL A   1      37.237  21.781  25.248  1.00  0.00     0.202 C 
BRANCH   6   7
ATOM      7  C   UNL A   1      35.899  22.392  25.678  1.00  0.00     0.261 C 
BRANCH   7   8
ATOM      8  O   UNL A   1      35.386  23.444  24.870  1.00  0.00    -0.463 OA
BRANCH   8   9
ATOM      9  C   UNL A   1      34.837  23.084  23.688  1.00  0.00     0.316 C 
ATOM     10  O   UNL A   1      35.493  22.961  22.655  1.00  0.00    -0.251 OA
BRANCH   9  11
ATOM     11  C   UNL A   1      33.353  22.732  23.733  1.00  0.00     0.111 C 
ATOM     12  C   UNL A   1      32.825  22.974  22.302  1.00  0.00     0.028 C 
ATOM     13  C   UNL A   1      33.263  21.230  24.036  1.00  0.00     0.181 C 
ATOM     14  C   UNL A   1      32.369  23.353  24.736  1.00  0.00     0.126 C 
ATOM     15  O   UNL A   1      32.102  20.974  24.828  1.00  0.00    -0.378 OA
ATOM     16  C   UNL A   1      31.715  22.184  25.472  1.00  0.00     0.186 C 
BRANCH  14  17
ATOM     17  N   UNL A   1      32.842  24.388  25.672  1.00  0.00    -0.362 N 
ATOM     18  H   UNL A   1      33.470  24.190  26.405  1.00  0.00     0.162 HD
BRANCH  17  19
ATOM     19  C   UNL A   1      32.343  25.650  25.448  1.00  0.00     0.149 A 
ATOM     20  C   UNL A   1      31.128  26.059  26.267  1.00  0.00     0.053 A 
ATOM     21  N   UNL A   1      32.759  26.289  24.393  1.00  0.00    -0.129 NA
ATOM     22  C   UNL A   1      30.115  26.311  25.414  1.00  0.00     0.057 A 
ATOM     23  N   UNL A   1      31.762  27.061  23.871  1.00  0.00    -0.108 N 
ATOM     24  C   UNL A   1      30.419  26.916  24.172  1.00  0.00     0.200 A 
ATOM     25  N   UNL A   1      31.885  27.578  22.639  1.00  0.00    -0.022 NA
ATOM     26  N   UNL A   1      29.724  27.224  23.101  1.00  0.00    -0.107 NA
ATOM     27  N   UNL A   1      30.641  27.700  22.189  1.00  0.00    -0.022 NA
ENDBRANCH  17  19
ENDBRANCH  14  17
ENDBRANCH   9  11
ENDBRANCH   8   9
ENDBRANCH   7   8
ENDBRANCH   6   7
ENDBRANCH   5   6
ENDBRANCH   4   5
ENDBRANCH   3   4
ENDBRANCH   2   3
ENDBRANCH   1   2
BRANCH   1  28
ATOM     28  C   UNL A   1      43.066  22.097  25.801  1.00  0.00     0.188 C 
BRANCH  28  29
ATOM     29  O   UNL A   1      43.744  20.877  25.537  1.00  0.00    -0.376 OA
BRANCH  29  30
ATOM     30  C   UNL A   1      44.864  20.824  24.669  1.00  0.00     0.202 C 
BRANCH  30  31
ATOM     31  C   UNL A   1      45.979  21.892  24.643  1.00  0.00     0.261 C 
BRANCH  31  32
ATOM     32  O   UNL A   1      45.656  23.202  24.168  1.00  0.00    -0.460 OA
BRANCH  32  33
ATOM     33  C   UNL A   1      46.627  24.134  24.281  1.00  0.00     0.338 C 
ATOM     34  O   UNL A   1      47.536  24.354  23.494  1.00  0.00    -0.246 OA
BRANCH  33  35
ATOM     35  C   UNL A   1      46.315  24.981  25.450  1.00  0.00     0.060 A 
ATOM     36  C   UNL A   1      44.990  25.394  25.650  1.00  0.00     0.016 A 
ATOM     37  C   UNL A   1      47.315  25.358  26.349  1.00  0.00     0.016 A 
ATOM     38  C   UNL A   1      44.657  26.174  26.753  1.00  0.00     0.010 A 
ATOM     39  C   UNL A   1      46.987  26.179  27.431  1.00  0.00     0.010 A 
ATOM     40  C   UNL A   1      45.659  26.603  27.628  1.00  0.00    -0.014 A 
BRANCH  40  41
ATOM     41  C   UNL A   1      45.341  27.620  28.654  1.00  0.00     0.031 A 
ATOM     42  C   UNL A   1      45.015  27.161  30.047  1.00  0.00     0.074 A 
ATOM     43  C   UNL A   1      45.350  28.930  28.355  1.00  0.00     0.049 A 
ATOM     44  N   UNL A   1      44.649  27.866  31.084  1.00  0.00    -0.248 NA
ATOM     45  C   UNL A   1      45.115  25.715  30.303  1.00  0.00     0.031 C 
ATOM     46  C   UNL A   1      45.683  29.502  27.050  1.00  0.00     0.029 A 
ATOM     47  N   UNL A   1      45.042  30.019  29.132  1.00  0.00    -0.354 N 
ATOM     48  C   UNL A   1      44.443  26.949  32.108  1.00  0.00     0.074 A 
ATOM     49  C   UNL A   1      44.724  25.637  31.566  1.00  0.00     0.031 C 
ATOM     50  C   UNL A   1      45.525  30.835  27.107  1.00  0.00     0.029 A 
ATOM     51  C   UNL A   1      45.050  31.204  28.440  1.00  0.00     0.049 A 
ATOM     52  H   UNL A   1      44.837  29.955  30.092  1.00  0.00     0.167 HD
ATOM     53  C   UNL A   1      44.058  27.180  33.385  1.00  0.00     0.034 A 
ATOM     54  C   UNL A   1      44.675  32.440  28.830  1.00  0.00     0.034 A 
ATOM     55  C   UNL A   1      43.784  28.486  33.923  1.00  0.00     0.049 A 
ATOM     56  C   UNL A   1      44.186  32.660  30.235  1.00  0.00     0.074 A 
ATOM     57  C   UNL A   1      43.433  28.824  35.217  1.00  0.00     0.029 A 
ATOM     58  N   UNL A   1      43.807  29.663  33.194  1.00  0.00    -0.354 N 
ATOM     59  N   UNL A   1      44.091  31.800  31.220  1.00  0.00    -0.248 NA
ATOM     60  C   UNL A   1      43.772  34.026  30.587  1.00  0.00     0.031 C 
ATOM     61  C   UNL A   1      43.195  30.202  35.259  1.00  0.00     0.029 A 
ATOM     62  C   UNL A   1      43.447  30.728  34.002  1.00  0.00     0.049 A 
ATOM     63  H   UNL A   1      44.045  29.733  32.240  1.00  0.00     0.167 HD
ATOM     64  C   UNL A   1      43.637  32.528  32.316  1.00  0.00     0.074 A 
ATOM     65  C   UNL A   1      43.501  33.902  31.879  1.00  0.00     0.031 C 
ATOM     66  C   UNL A   1      43.349  32.097  33.568  1.00  0.00     0.034 A 
BRANCH  53  67
ATOM     67  C   UNL A   1      43.898  25.992  34.295  1.00  0.00     0.023 A 
ATOM     68  C   UNL A   1      42.621  25.438  34.514  1.00  0.00     0.012 A 
ATOM     69  C   UNL A   1      45.026  25.386  34.882  1.00  0.00     0.148 A 
ATOM     70  C   UNL A   1      42.466  24.315  35.327  1.00  0.00     0.002 A 
ATOM     71  C   UNL A   1      44.870  24.240  35.650  1.00  0.00     0.091 A 
ATOM     72  F   UNL A   1      46.229  25.945  34.679  1.00  0.00    -0.205 F 
ATOM     73  C   UNL A   1      43.591  23.710  35.884  1.00  0.00     0.022 A 
BRANCH  71  74
ATOM     74  S   UNL A   1      46.262  23.343  36.345  1.00  0.00     0.127 S 
ATOM     75  O   UNL A   1      45.590  22.232  37.018  1.00  0.00    -0.237 OA
ATOM     76  O   UNL A   1      47.012  22.967  35.146  1.00  0.00    -0.237 OA
ATOM     77  O   UNL A   1      46.948  24.279  37.225  1.00  0.00    -0.744 OA
ENDBRANCH  71  74
ENDBRANCH  53  67
BRANCH  54  78
ATOM     78  C   UNL A   1      44.713  33.570  27.866  1.00  0.00     0.023 A 
ATOM     79  C   UNL A   1      43.577  33.888  27.098  1.00  0.00     0.012 A 
ATOM     80  C   UNL A   1      45.890  34.317  27.694  1.00  0.00     0.148 A 
ATOM     81  C   UNL A   1      43.625  34.917  26.154  1.00  0.00     0.002 A 
ATOM     82  C   UNL A   1      45.915  35.370  26.791  1.00  0.00     0.091 A 
ATOM     83  F   UNL A   1      46.972  33.984  28.414  1.00  0.00    -0.205 F 
ATOM     84  C   UNL A   1      44.790  35.666  26.009  1.00  0.00     0.022 A 
BRANCH  82  85
ATOM     85  S   UNL A   1      47.345  36.444  26.688  1.00  0.00     0.127 S 
ATOM     86  O   UNL A   1      46.825  37.571  25.919  1.00  0.00    -0.237 OA
ATOM     87  O   UNL A   1      47.617  36.725  28.095  1.00  0.00    -0.237 OA
ATOM     88  O   UNL A   1      48.355  35.622  26.028  1.00  0.00    -0.744 OA
ENDBRANCH  82  85
ENDBRANCH  54  78
BRANCH  66  89
ATOM     89  C   UNL A   1      42.890  33.122  34.572  1.00  0.00     0.023 A 
ATOM     90  C   UNL A   1      43.823  33.738  35.429  1.00  0.00     0.012 A 
ATOM     91  C   UNL A   1      41.538  33.518  34.623  1.00  0.00     0.148 A 
ATOM     92  C   UNL A   1      43.413  34.707  36.345  1.00  0.00     0.002 A 
ATOM     93  C   UNL A   1      41.146  34.521  35.500  1.00  0.00     0.091 A 
ATOM     94  F   UNL A   1      40.663  32.907  33.811  1.00  0.00    -0.205 F 
ATOM     95  C   UNL A   1      42.078  35.106  36.373  1.00  0.00     0.022 A 
BRANCH  93  96
ATOM     96  S   UNL A   1      39.471  35.169  35.540  1.00  0.00     0.127 S 
ATOM     97  O   UNL A   1      39.682  36.506  36.098  1.00  0.00    -0.237 OA
ATOM     98  O   UNL A   1      39.099  35.150  34.126  1.00  0.00    -0.237 OA
ATOM     99  O   UNL A   1      38.705  34.260  36.382  1.00  0.00    -0.744 OA
ENDBRANCH  93  96
ENDBRANCH  66  89
ENDBRANCH  40  41
ENDBRANCH  33  35
ENDBRANCH  32  33
ENDBRANCH  31  32
ENDBRANCH  30  31
ENDBRANCH  29  30
ENDBRANCH  28  29
ENDBRANCH   1  28
TORSDOF 25
ENDMDL
MODEL 2
REMARK VINA RESULT:      -8.4      4.308      5.514
REMARK SMILES C[C@]1(C(=O)OCCOCCOCCOCCOC(=O)c2ccc(-c3c4nc(c(-c5cccc(S(=O)(=O)[O-])c5F)c5ccc([nH]5)c(-c5cccc(S(=O)(=O)[O-])c5F)c5nc(c(-c6cccc(S(=O)(=O)[O-])c6F)c6ccc3[nH]6)C=C5)C=C4)cc2)COC[C@H]1Nc1ccc2nnnn2n1
REMARK SMILES IDX 12 1 11 2 10 3 9 4 8 5 7 6 6 7 5 8 3 9 4 10 2 11 1 12 83 13
REMARK SMILES IDX 86 14 84 15 85 16 87 17 88 19 89 20 96 21 90 22 95 23 91 24
REMARK SMILES IDX 94 25 92 26 93 27 13 28 14 29 15 30 16 31 17 32 18 33 19 34
REMARK SMILES IDX 20 35 21 36 82 37 22 38 81 39 23 40 24 41 25 42 75 43 26 44
REMARK SMILES IDX 80 45 74 46 76 47 27 48 79 49 73 50 72 51 28 53 60 54 40 55
REMARK SMILES IDX 59 56 41 57 44 58 58 59 77 60 42 61 43 62 57 64 78 65 45 66
REMARK SMILES IDX 29 67 30 68 38 69 31 70 33 71 39 72 32 73 34 74 35 75 36 76
REMARK SMILES IDX 37 77 61 78 62 79 70 80 63 81 65 82 71 83 64 84 66 85 67 86
REMARK SMILES IDX 68 87 69 88 46 89 47 90 55 91 48 92 50 93 56 94 49 95 51 96
REMARK SMILES IDX 52 97 53 98 54 99
REMARK H PARENT 87 18 76 52 44 63
REMARK Flexibility Score: inf
ROOT
ATOM      1  C   UNL A   1      41.670  23.265  26.498  1.00  0.00     0.188 C 
ENDROOT
BRANCH   1   2
ATOM      2  O   UNL A   1      40.726  24.296  26.706  1.00  0.00    -0.377 OA
BRANCH   2   3
ATOM      3  C   UNL A   1      40.928  25.090  27.857  1.00  0.00     0.188 C 
BRANCH   3   4
ATOM      4  C   UNL A   1      39.802  25.930  28.493  1.00  0.00     0.188 C 
BRANCH   4   5
ATOM      5  O   UNL A   1      40.013  27.314  28.652  1.00  0.00    -0.376 OA
BRANCH   5   6
ATOM      6  C   UNL A   1      39.636  28.315  27.725  1.00  0.00     0.202 C 
BRANCH   6   7
ATOM      7  C   UNL A   1      38.663  29.472  27.981  1.00  0.00     0.261 C 
BRANCH   7   8
ATOM      8  O   UNL A   1      39.002  30.374  29.026  1.00  0.00    -0.463 OA
BRANCH   8   9
ATOM      9  C   UNL A   1      38.120  30.474  30.047  1.00  0.00     0.316 C 
ATOM     10  O   UNL A   1      37.387  29.548  30.391  1.00  0.00    -0.251 OA
BRANCH   9  11
ATOM     11  C   UNL A   1      38.163  31.786  30.826  1.00  0.00     0.111 C 
ATOM     12  C   UNL A   1      39.204  31.568  31.947  1.00  0.00     0.028 C 
ATOM     13  C   UNL A   1      38.701  32.855  29.866  1.00  0.00     0.181 C 
ATOM     14  C   UNL A   1      36.916  32.448  31.431  1.00  0.00     0.126 C 
ATOM     15  O   UNL A   1      38.085  34.110  30.161  1.00  0.00    -0.378 OA
ATOM     16  C   UNL A   1      36.871  33.867  30.863  1.00  0.00     0.186 C 
BRANCH  14  17
ATOM     17  N   UNL A   1      35.609  31.776  31.318  1.00  0.00    -0.362 N 
ATOM     18  H   UNL A   1      35.351  31.025  31.900  1.00  0.00     0.162 HD
BRANCH  17  19
ATOM     19  C   UNL A   1      34.778  32.276  30.343  1.00  0.00     0.149 A 
ATOM     20  C   UNL A   1      35.035  31.803  28.920  1.00  0.00     0.053 A 
ATOM     21  N   UNL A   1      34.028  33.295  30.647  1.00  0.00    -0.129 NA
ATOM     22  C   UNL A   1      35.342  32.880  28.170  1.00  0.00     0.057 A 
ATOM     23  N   UNL A   1      33.876  34.122  29.572  1.00  0.00    -0.108 N 
ATOM     24  C   UNL A   1      34.679  34.100  28.446  1.00  0.00     0.200 A 
ATOM     25  N   UNL A   1      33.380  35.358  29.737  1.00  0.00    -0.022 NA
ATOM     26  N   UNL A   1      34.779  35.328  27.990  1.00  0.00    -0.107 NA
ATOM     27  N   UNL A   1      33.912  36.078  28.756  1.00  0.00    -0.022 NA
ENDBRANCH  17  19
ENDBRANCH  14  17
ENDBRANCH   9  11
ENDBRANCH   8   9
ENDBRANCH   7   8
ENDBRANCH   6   7
ENDBRANCH   5   6
ENDBRANCH   4   5
ENDBRANCH   3   4
ENDBRANCH   2   3
ENDBRANCH   1   2
BRANCH   1  28
ATOM     28  C   UNL A   1      42.667  23.597  25.377  1.00  0.00     0.188 C 
BRANCH  28  29
ATOM     29  O   UNL A   1      43.403  22.569  24.728  1.00  0.00    -0.376 OA
BRANCH  29  30
ATOM     30  C   UNL A   1      44.500  22.865  23.879  1.00  0.00     0.202 C 
BRANCH  30  31
ATOM     31  C   UNL A   1      45.906  23.241  24.397  1.00  0.00     0.261 C 
BRANCH  31  32
ATOM     32  O   UNL A   1      46.005  24.099  25.537  1.00  0.00    -0.460 OA
BRANCH  32  33
ATOM     33  C   UNL A   1      46.326  25.387  25.288  1.00  0.00     0.338 C 
ATOM     34  O   UNL A   1      46.785  25.848  24.253  1.00  0.00    -0.246 OA
BRANCH  33  35
ATOM     35  C   UNL A   1      45.868  26.203  26.430  1.00  0.00     0.060 A 
ATOM     36  C   UNL A   1      44.495  26.450  26.575  1.00  0.00     0.016 A 
ATOM     37  C   UNL A   1      46.779  26.711  27.358  1.00  0.00     0.016 A 
ATOM     38  C   UNL A   1      44.027  27.196  27.653  1.00  0.00     0.010 A 
ATOM     39  C   UNL A   1      46.311  27.498  28.415  1.00  0.00     0.010 A 
ATOM     40  C   UNL A   1      44.935  27.756  28.556  1.00  0.00    -0.014 A 
BRANCH  40  41
ATOM     41  C   UNL A   1      44.455  28.738  29.553  1.00  0.00     0.031 A 
ATOM     42  C   UNL A   1      44.065  28.247  30.919  1.00  0.00     0.074 A 
ATOM     43  C   UNL A   1      44.374  30.046  29.253  1.00  0.00     0.049 A 
ATOM     44  N   UNL A   1      43.563  28.913  31.924  1.00  0.00    -0.248 NA
ATOM     45  C   UNL A   1      44.268  26.813  31.185  1.00  0.00     0.031 C 
ATOM     46  C   UNL A   1      44.755  30.649  27.976  1.00  0.00     0.029 A 
ATOM     47  N   UNL A   1      43.917  31.100  30.002  1.00  0.00    -0.354 N 
ATOM     48  C   UNL A   1      43.359  27.978  32.931  1.00  0.00     0.074 A 
ATOM     49  C   UNL A   1      43.791  26.697  32.415  1.00  0.00     0.031 C 
ATOM     50  C   UNL A   1      44.480  31.964  28.018  1.00  0.00     0.029 A 
ATOM     51  C   UNL A   1      43.876  32.286  29.311  1.00  0.00     0.049 A 
ATOM     52  H   UNL A   1      43.646  31.015  30.945  1.00  0.00     0.167 HD
ATOM     53  C   UNL A   1      42.860  28.169  34.175  1.00  0.00     0.034 A 
ATOM     54  C   UNL A   1      43.369  33.483  29.669  1.00  0.00     0.034 A 
ATOM     55  C   UNL A   1      42.437  29.445  34.688  1.00  0.00     0.049 A 
ATOM     56  C   UNL A   1      42.758  33.654  31.032  1.00  0.00     0.074 A 
ATOM     57  C   UNL A   1      41.961  29.746  35.951  1.00  0.00     0.029 A 
ATOM     58  N   UNL A   1      42.414  30.623  33.960  1.00  0.00    -0.354 N 
ATOM     59  N   UNL A   1      42.663  32.786  32.010  1.00  0.00    -0.248 NA
ATOM     60  C   UNL A   1      42.204  34.979  31.349  1.00  0.00     0.031 C 
ATOM     61  C   UNL A   1      41.605  31.098  35.972  1.00  0.00     0.029 A 
ATOM     62  C   UNL A   1      41.904  31.649  34.737  1.00  0.00     0.049 A 
ATOM     63  H   UNL A   1      42.716  30.718  33.027  1.00  0.00     0.167 HD
ATOM     64  C   UNL A   1      42.067  33.467  33.066  1.00  0.00     0.074 A 
ATOM     65  C   UNL A   1      41.848  34.826  32.617  1.00  0.00     0.031 C 
ATOM     66  C   UNL A   1      41.723  33.007  34.293  1.00  0.00     0.034 A 
BRANCH  53  67
ATOM     67  C   UNL A   1      42.735  26.968  35.072  1.00  0.00     0.023 A 
ATOM     68  C   UNL A   1      41.527  26.244  35.116  1.00  0.00     0.012 A 
ATOM     69  C   UNL A   1      43.838  26.521  35.825  1.00  0.00     0.148 A 
ATOM     70  C   UNL A   1      41.410  25.108  35.918  1.00  0.00     0.002 A 
ATOM     71  C   UNL A   1      43.730  25.362  36.582  1.00  0.00     0.091 A 
ATOM     72  F   UNL A   1      44.970  27.239  35.786  1.00  0.00    -0.205 F 
ATOM     73  C   UNL A   1      42.515  24.661  36.640  1.00  0.00     0.022 A 
BRANCH  71  74
ATOM     74  S   UNL A   1      45.117  24.661  37.484  1.00  0.00     0.127 S 
ATOM     75  O   UNL A   1      45.097  23.274  37.022  1.00  0.00    -0.237 OA
ATOM     76  O   UNL A   1      46.239  25.456  36.984  1.00  0.00    -0.237 OA
ATOM     77  O   UNL A   1      44.817  24.851  38.896  1.00  0.00    -0.744 OA
ENDBRANCH  71  74
ENDBRANCH  53  67
BRANCH  54  78
ATOM     78  C   UNL A   1      43.383  34.617  28.708  1.00  0.00     0.023 A 
ATOM     79  C   UNL A   1      42.250  34.895  27.920  1.00  0.00     0.012 A 
ATOM     80  C   UNL A   1      44.534  35.407  28.559  1.00  0.00     0.148 A 
ATOM     81  C   UNL A   1      42.278  35.927  26.980  1.00  0.00     0.002 A 
ATOM     82  C   UNL A   1      44.537  36.463  27.659  1.00  0.00     0.091 A 
ATOM     83  F   UNL A   1      45.615  35.111  29.299  1.00  0.00    -0.205 F 
ATOM     84  C   UNL A   1      43.416  36.720  26.858  1.00  0.00     0.022 A 
BRANCH  82  85
ATOM     85  S   UNL A   1      45.929  37.588  27.585  1.00  0.00     0.127 S 
ATOM     86  O   UNL A   1      45.536  38.487  26.504  1.00  0.00    -0.237 OA
ATOM     87  O   UNL A   1      45.914  38.180  28.920  1.00  0.00    -0.237 OA
ATOM     88  O   UNL A   1      47.071  36.718  27.320  1.00  0.00    -0.744 OA
ENDBRANCH  82  85
ENDBRANCH  54  78
BRANCH  66  89
ATOM     89  C   UNL A   1      41.104  33.985  35.259  1.00  0.00     0.023 A 
ATOM     90  C   UNL A   1      39.704  34.130  35.316  1.00  0.00     0.012 A 
ATOM     91  C   UNL A   1      41.912  34.715  36.154  1.00  0.00     0.148 A 
ATOM     92  C   UNL A   1      39.119  35.013  36.224  1.00  0.00     0.002 A 
ATOM     93  C   UNL A   1      41.320  35.552  37.091  1.00  0.00     0.091 A 
ATOM     94  F   UNL A   1      43.244  34.575  36.072  1.00  0.00    -0.205 F 
ATOM     95  C   UNL A   1      39.926  35.715  37.117  1.00  0.00     0.022 A 
BRANCH  93  96
ATOM     96  S   UNL A   1      42.268  36.421  38.345  1.00  0.00     0.127 S 
ATOM     97  O   UNL A   1      41.209  37.040  39.143  1.00  0.00    -0.237 OA
ATOM     98  O   UNL A   1      42.974  35.327  39.011  1.00  0.00    -0.237 OA
ATOM     99  O   UNL A   1      43.129  37.352  37.628  1.00  0.00    -0.744 OA
ENDBRANCH  93  96
ENDBRANCH  66  89
ENDBRANCH  40  41
ENDBRANCH  33  35
ENDBRANCH  32  33
ENDBRANCH  31  32
ENDBRANCH  30  31
ENDBRANCH  29  30
ENDBRANCH  28  29
ENDBRANCH   1  28
TORSDOF 25
ENDMDL
MODEL 3
REMARK VINA RESULT:      -8.3      5.789     11.198
REMARK SMILES C[C@]1(C(=O)OCCOCCOCCOCCOC(=O)c2ccc(-c3c4nc(c(-c5cccc(S(=O)(=O)[O-])c5F)c5ccc([nH]5)c(-c5cccc(S(=O)(=O)[O-])c5F)c5nc(c(-c6cccc(S(=O)(=O)[O-])c6F)c6ccc3[nH]6)C=C5)C=C4)cc2)COC[C@H]1Nc1ccc2nnnn2n1
REMARK SMILES IDX 12 1 11 2 10 3 9 4 8 5 7 6 6 7 5 8 3 9 4 10 2 11 1 12 83 13
REMARK SMILES IDX 86 14 84 15 85 16 87 17 88 19 89 20 96 21 90 22 95 23 91 24
REMARK SMILES IDX 94 25 92 26 93 27 13 28 14 29 15 30 16 31 17 32 18 33 19 34
REMARK SMILES IDX 20 35 21 36 82 37 22 38 81 39 23 40 24 41 25 42 75 43 26 44
REMARK SMILES IDX 80 45 74 46 76 47 27 48 79 49 73 50 72 51 28 53 60 54 40 55
REMARK SMILES IDX 59 56 41 57 44 58 58 59 77 60 42 61 43 62 57 64 78 65 45 66
REMARK SMILES IDX 29 67 30 68 38 69 31 70 33 71 39 72 32 73 34 74 35 75 36 76
REMARK SMILES IDX 37 77 61 78 62 79 70 80 63 81 65 82 71 83 64 84 66 85 67 86
REMARK SMILES IDX 68 87 69 88 46 89 47 90 55 91 48 92 50 93 56 94 49 95 51 96
REMARK SMILES IDX 52 97 53 98 54 99
REMARK H PARENT 87 18 76 52 44 63
REMARK Flexibility Score: inf
ROOT
ATOM      1  C   UNL A   1      40.023  26.859  29.308  1.00  0.00     0.188 C 
ENDROOT
BRANCH   1   2
ATOM      2  O   UNL A   1      39.263  25.843  28.686  1.00  0.00    -0.377 OA
BRANCH   2   3
ATOM      3  C   UNL A   1      39.788  25.338  27.475  1.00  0.00     0.188 C 
BRANCH   3   4
ATOM      4  C   UNL A   1      39.199  24.102  26.766  1.00  0.00     0.188 C 
BRANCH   4   5
ATOM      5  O   UNL A   1      37.943  24.230  26.139  1.00  0.00    -0.376 OA
BRANCH   5   6
ATOM      6  C   UNL A   1      36.984  23.198  26.000  1.00  0.00     0.202 C 
BRANCH   6   7
ATOM      7  C   UNL A   1      36.747  22.337  24.754  1.00  0.00     0.261 C 
BRANCH   7   8
ATOM      8  O   UNL A   1      35.442  21.797  24.588  1.00  0.00    -0.463 OA
BRANCH   8   9
ATOM      9  C   UNL A   1      34.649  22.405  23.677  1.00  0.00     0.316 C 
ATOM     10  O   UNL A   1      35.091  23.071  22.742  1.00  0.00    -0.251 OA
BRANCH   9  11
ATOM     11  C   UNL A   1      33.155  22.125  23.817  1.00  0.00     0.111 C 
ATOM     12  C   UNL A   1      32.556  22.357  22.412  1.00  0.00     0.028 C 
ATOM     13  C   UNL A   1      33.013  20.637  24.165  1.00  0.00     0.181 C 
ATOM     14  C   UNL A   1      32.260  22.818  24.856  1.00  0.00     0.126 C 
ATOM     15  O   UNL A   1      31.889  20.458  25.029  1.00  0.00    -0.378 OA
ATOM     16  C   UNL A   1      31.597  21.701  25.660  1.00  0.00     0.186 C 
BRANCH  14  17
ATOM     17  N   UNL A   1      32.835  23.852  25.735  1.00  0.00    -0.362 N 
ATOM     18  H   UNL A   1      33.521  23.648  26.411  1.00  0.00     0.162 HD
BRANCH  17  19
ATOM     19  C   UNL A   1      32.343  25.122  25.541  1.00  0.00     0.149 A 
ATOM     20  C   UNL A   1      32.979  25.936  24.424  1.00  0.00     0.053 A 
ATOM     21  N   UNL A   1      31.582  25.627  26.468  1.00  0.00    -0.129 NA
ATOM     22  C   UNL A   1      33.535  27.035  24.972  1.00  0.00     0.057 A 
ATOM     23  N   UNL A   1      31.782  26.972  26.578  1.00  0.00    -0.108 N 
ATOM     24  C   UNL A   1      32.875  27.647  26.063  1.00  0.00     0.200 A 
ATOM     25  N   UNL A   1      31.315  27.638  27.645  1.00  0.00    -0.022 NA
ATOM     26  N   UNL A   1      33.155  28.647  26.868  1.00  0.00    -0.107 NA
ATOM     27  N   UNL A   1      32.138  28.670  27.797  1.00  0.00    -0.022 NA
ENDBRANCH  17  19
ENDBRANCH  14  17
ENDBRANCH   9  11
ENDBRANCH   8   9
ENDBRANCH   7   8
ENDBRANCH   6   7
ENDBRANCH   5   6
ENDBRANCH   4   5
ENDBRANCH   3   4
ENDBRANCH   2   3
ENDBRANCH   1   2
BRANCH   1  28
ATOM     28  C   UNL A   1      39.221  28.155  29.504  1.00  0.00     0.188 C 
BRANCH  28  29
ATOM     29  O   UNL A   1      38.258  28.569  28.543  1.00  0.00    -0.376 OA
BRANCH  29  30
ATOM     30  C   UNL A   1      38.086  29.935  28.207  1.00  0.00     0.202 C 
BRANCH  30  31
ATOM     31  C   UNL A   1      38.058  31.077  29.248  1.00  0.00     0.261 C 
BRANCH  31  32
ATOM     32  O   UNL A   1      36.861  31.276  30.007  1.00  0.00    -0.460 OA
BRANCH  32  33
ATOM     33  C   UNL A   1      36.720  30.508  31.109  1.00  0.00     0.338 C 
ATOM     34  O   UNL A   1      36.310  29.358  31.162  1.00  0.00    -0.246 OA
BRANCH  33  35
ATOM     35  C   UNL A   1      37.313  31.233  32.251  1.00  0.00     0.060 A 
ATOM     36  C   UNL A   1      36.803  32.495  32.588  1.00  0.00     0.016 A 
ATOM     37  C   UNL A   1      38.355  30.672  32.993  1.00  0.00     0.016 A 
ATOM     38  C   UNL A   1      37.323  33.196  33.672  1.00  0.00     0.010 A 
ATOM     39  C   UNL A   1      38.906  31.397  34.053  1.00  0.00     0.010 A 
ATOM     40  C   UNL A   1      38.403  32.668  34.386  1.00  0.00    -0.014 A 
BRANCH  40  41
ATOM     41  C   UNL A   1      39.101  33.516  35.376  1.00  0.00     0.031 A 
ATOM     42  C   UNL A   1      40.224  34.397  34.906  1.00  0.00     0.074 A 
ATOM     43  C   UNL A   1      38.738  33.511  36.670  1.00  0.00     0.049 A 
ATOM     44  N   UNL A   1      41.012  35.173  35.601  1.00  0.00    -0.248 NA
ATOM     45  C   UNL A   1      40.494  34.402  33.459  1.00  0.00     0.031 C 
ATOM     46  C   UNL A   1      37.644  32.727  37.242  1.00  0.00     0.029 A 
ATOM     47  N   UNL A   1      39.277  34.174  37.744  1.00  0.00    -0.354 N 
ATOM     48  C   UNL A   1      41.893  35.734  34.685  1.00  0.00     0.074 A 
ATOM     49  C   UNL A   1      41.542  35.209  33.383  1.00  0.00     0.031 C 
ATOM     50  C   UNL A   1      37.616  32.926  38.571  1.00  0.00     0.029 A 
ATOM     51  C   UNL A   1      38.708  33.824  38.944  1.00  0.00     0.049 A 
ATOM     52  H   UNL A   1      39.999  34.837  37.662  1.00  0.00     0.167 HD
ATOM     53  C   UNL A   1      42.900  36.611  34.907  1.00  0.00     0.034 A 
ATOM     54  C   UNL A   1      39.059  34.160  40.202  1.00  0.00     0.034 A 
ATOM     55  C   UNL A   1      43.243  37.136  36.201  1.00  0.00     0.049 A 
ATOM     56  C   UNL A   1      40.226  35.083  40.428  1.00  0.00     0.074 A 
ATOM     57  C   UNL A   1      44.218  38.064  36.520  1.00  0.00     0.029 A 
ATOM     58  N   UNL A   1      42.643  36.762  37.392  1.00  0.00    -0.354 N 
ATOM     59  N   UNL A   1      40.985  35.684  39.545  1.00  0.00    -0.248 NA
ATOM     60  C   UNL A   1      40.568  35.390  41.824  1.00  0.00     0.031 C 
ATOM     61  C   UNL A   1      44.239  38.215  37.910  1.00  0.00     0.029 A 
ATOM     62  C   UNL A   1      43.245  37.418  38.452  1.00  0.00     0.049 A 
ATOM     63  H   UNL A   1      41.896  36.123  37.473  1.00  0.00     0.167 HD
ATOM     64  C   UNL A   1      41.874  36.463  40.278  1.00  0.00     0.074 A 
ATOM     65  C   UNL A   1      41.541  36.277  41.675  1.00  0.00     0.031 C 
ATOM     66  C   UNL A   1      42.882  37.254  39.836  1.00  0.00     0.034 A 
BRANCH  53  67
ATOM     67  C   UNL A   1      43.715  37.056  33.723  1.00  0.00     0.023 A 
ATOM     68  C   UNL A   1      44.577  36.146  33.078  1.00  0.00     0.012 A 
ATOM     69  C   UNL A   1      43.578  38.361  33.211  1.00  0.00     0.148 A 
ATOM     70  C   UNL A   1      45.311  36.538  31.959  1.00  0.00     0.002 A 
ATOM     71  C   UNL A   1      44.274  38.729  32.068  1.00  0.00     0.091 A 
ATOM     72  F   UNL A   1      42.770  39.217  33.855  1.00  0.00    -0.205 F 
ATOM     73  C   UNL A   1      45.151  37.824  31.447  1.00  0.00     0.022 A 
BRANCH  71  74
ATOM     74  S   UNL A   1      44.075  40.334  31.287  1.00  0.00     0.127 S 
ATOM     75  O   UNL A   1      44.573  41.231  32.327  1.00  0.00    -0.237 OA
ATOM     76  O   UNL A   1      44.944  40.213  30.116  1.00  0.00    -0.237 OA
ATOM     77  O   UNL A   1      42.657  40.462  30.983  1.00  0.00    -0.744 OA
ENDBRANCH  71  74
ENDBRANCH  53  67
BRANCH  54  78
ATOM     78  C   UNL A   1      38.319  33.594  41.360  1.00  0.00     0.023 A 
ATOM     79  C   UNL A   1      37.237  34.297  41.924  1.00  0.00     0.012 A 
ATOM     80  C   UNL A   1      38.707  32.366  41.919  1.00  0.00     0.148 A 
ATOM     81  C   UNL A   1      36.572  33.793  43.044  1.00  0.00     0.002 A 
ATOM     82  C   UNL A   1      38.009  31.847  43.000  1.00  0.00     0.091 A 
ATOM     83  F   UNL A   1      39.757  31.723  41.387  1.00  0.00    -0.205 F 
ATOM     84  C   UNL A   1      36.949  32.562  43.575  1.00  0.00     0.022 A 
BRANCH  82  85
ATOM     85  S   UNL A   1      38.374  30.203  43.611  1.00  0.00     0.127 S 
ATOM     86  O   UNL A   1      37.321  30.006  44.603  1.00  0.00    -0.237 OA
ATOM     87  O   UNL A   1      38.247  29.393  42.402  1.00  0.00    -0.237 OA
ATOM     88  O   UNL A   1      39.735  30.314  44.126  1.00  0.00    -0.744 OA
ENDBRANCH  82  85
ENDBRANCH  54  78
BRANCH  66  89
ATOM     89  C   UNL A   1      43.682  38.010  40.866  1.00  0.00     0.023 A 
ATOM     90  C   UNL A   1      44.776  37.392  41.504  1.00  0.00     0.012 A 
ATOM     91  C   UNL A   1      43.384  39.357  41.155  1.00  0.00     0.148 A 
ATOM     92  C   UNL A   1      45.538  38.091  42.439  1.00  0.00     0.002 A 
ATOM     93  C   UNL A   1      44.181  40.063  42.047  1.00  0.00     0.091 A 
ATOM     94  F   UNL A   1      42.330  39.922  40.549  1.00  0.00    -0.205 F 
ATOM     95  C   UNL A   1      45.248  39.427  42.702  1.00  0.00     0.022 A 
BRANCH  93  96
ATOM     96  S   UNL A   1      43.946  41.813  42.376  1.00  0.00     0.127 S 
ATOM     97  O   UNL A   1      44.906  42.421  41.455  1.00  0.00    -0.237 OA
ATOM     98  O   UNL A   1      42.543  42.009  42.012  1.00  0.00    -0.237 OA
ATOM     99  O   UNL A   1      44.238  42.001  43.791  1.00  0.00    -0.744 OA
ENDBRANCH  93  96
ENDBRANCH  66  89
ENDBRANCH  40  41
ENDBRANCH  33  35
ENDBRANCH  32  33
ENDBRANCH  31  32
ENDBRANCH  30  31
ENDBRANCH  29  30
ENDBRANCH  28  29
ENDBRANCH   1  28
TORSDOF 25
ENDMDL
