MODEL 1
REMARK VINA RESULT:      -8.1      0.000      0.000
REMARK SMILES Cc1ccc(Cl)c(Nc2ccccc2C(=O)N[C@@H](C)C(=O)OCCOCCOCCOCCOC(=O)c2ccc(-c3c4nc(c(-c5cccc(S(=O)(=O)[O-])c5F)c5ccc([nH]5)c(-c5cccc(S(=O)(=O)[O-])c5F)c5nc(c(-c6cccc(S(=O)(=O)[O-])c6F)c6ccc3[nH]6)C=C5)C=C4)cc2)c1Cl
REMARK SMILES IDX 27 1 26 2 25 3 24 4 23 5 22 6 20 7 21 8 18 9 19 10 17 11
REMARK SMILES IDX 15 12 16 13 14 15 9 16 10 17 11 18 13 19 12 20 8 21 7 23
REMARK SMILES IDX 1 24 2 25 3 26 100 27 4 28 101 29 5 30 6 31 28 32 29 33
REMARK SMILES IDX 30 34 31 35 32 36 33 37 34 38 35 39 36 40 37 41 38 42 99 43
REMARK SMILES IDX 39 44 98 45 40 46 41 47 42 48 92 49 43 50 97 51 91 52 93 53
REMARK SMILES IDX 44 54 96 55 90 56 89 57 45 59 77 60 57 61 76 62 58 63 61 64
REMARK SMILES IDX 75 65 94 66 59 67 60 68 74 70 95 71 62 72 46 73 47 74 55 75
REMARK SMILES IDX 48 76 50 77 56 78 49 79 51 80 52 81 53 82 54 83 78 84 79 85
REMARK SMILES IDX 87 86 80 87 82 88 88 89 81 90 83 91 84 92 85 93 86 94 63 95
REMARK SMILES IDX 64 96 72 97 65 98 67 99 73 100 66 101 68 102 69 103 70 104
REMARK SMILES IDX 71 105
REMARK H PARENT 17 14 8 22 93 58 61 69
REMARK Flexibility Score: inf
ROOT
ATOM      1  C   UNL A   1      37.437  32.546  31.832  1.00  0.00     0.188 C 
ENDROOT
BRANCH   1   2
ATOM      2  C   UNL A   1      38.329  31.612  30.919  1.00  0.00     0.188 C 
BRANCH   2   3
ATOM      3  O   UNL A   1      38.285  31.669  29.469  1.00  0.00    -0.376 OA
BRANCH   3   4
ATOM      4  C   UNL A   1      37.353  30.928  28.654  1.00  0.00     0.202 C 
BRANCH   4   5
ATOM      5  C   UNL A   1      35.746  31.302  28.710  1.00  0.00     0.261 C 
BRANCH   5   6
ATOM      6  O   UNL A   1      34.760  30.558  27.857  1.00  0.00    -0.462 OA
BRANCH   6   7
ATOM      7  C   UNL A   1      33.551  31.157  27.514  1.00  0.00     0.328 C 
ATOM      8  O   UNL A   1      33.332  32.347  27.747  1.00  0.00    -0.250 OA
BRANCH   7   9
ATOM      9  C   UNL A   1      32.561  30.308  26.524  1.00  0.00     0.189 C 
ATOM     10  C   UNL A   1      31.952  29.088  27.219  1.00  0.00     0.043 C 
BRANCH   9  11
ATOM     11  N   UNL A   1      32.889  29.914  25.140  1.00  0.00    -0.339 N 
ATOM     12  C   UNL A   1      32.391  29.018  24.200  1.00  0.00     0.254 C 
ATOM     13  O   UNL A   1      33.156  28.929  23.222  1.00  0.00    -0.269 OA
ATOM     14  H   UNL A   1      33.661  30.416  24.791  1.00  0.00     0.164 HD
BRANCH  12  15
ATOM     15  C   UNL A   1      31.082  28.187  24.102  1.00  0.00     0.063 A 
ATOM     16  C   UNL A   1      30.629  26.942  24.619  1.00  0.00     0.051 A 
ATOM     17  C   UNL A   1      29.304  26.476  24.312  1.00  0.00     0.027 A 
ATOM     18  C   UNL A   1      28.393  27.210  23.566  1.00  0.00     0.002 A 
ATOM     19  C   UNL A   1      30.109  28.873  23.296  1.00  0.00     0.016 A 
ATOM     20  C   UNL A   1      28.804  28.415  23.043  1.00  0.00     0.001 A 
BRANCH  16  21
ATOM     21  N   UNL A   1      31.280  26.098  25.553  1.00  0.00    -0.352 N 
ATOM     22  H   UNL A   1      31.290  26.378  26.497  1.00  0.00     0.167 HD
BRANCH  21  23
ATOM     23  C   UNL A   1      31.930  24.856  25.213  1.00  0.00     0.077 A 
ATOM     24  C   UNL A   1      32.220  25.239  21.979  1.00  0.00     0.046 C 
ATOM     25  C   UNL A   1      32.395  24.240  23.068  1.00  0.00    -0.030 A 
ATOM     26  C   UNL A   1      31.740  23.019  23.184  1.00  0.00     0.006 A 
ATOM     27  C   UNL A   1      32.865  24.832  24.208  1.00  0.00     0.069 A 
ATOM     28  C   UNL A   1      31.264  22.656  24.436  1.00  0.00     0.023 A 
ATOM     29  Cl  UNL A   1      34.277  25.827  24.124  1.00  0.00    -0.082 Cl
ATOM     30  C   UNL A   1      31.255  23.643  25.424  1.00  0.00     0.066 A 
ATOM     31  Cl  UNL A   1      30.295  23.418  26.834  1.00  0.00    -0.082 Cl
ENDBRANCH  21  23
ENDBRANCH  16  21
ENDBRANCH  12  15
ENDBRANCH   9  11
ENDBRANCH   7   9
ENDBRANCH   6   7
ENDBRANCH   5   6
ENDBRANCH   4   5
ENDBRANCH   3   4
ENDBRANCH   2   3
ENDBRANCH   1   2
BRANCH   1  32
ATOM     32  O   UNL A   1      36.571  31.928  32.782  1.00  0.00    -0.377 OA
BRANCH  32  33
ATOM     33  C   UNL A   1      36.085  32.774  33.807  1.00  0.00     0.188 C 
BRANCH  33  34
ATOM     34  C   UNL A   1      37.140  33.728  34.357  1.00  0.00     0.188 C 
BRANCH  34  35
ATOM     35  O   UNL A   1      37.337  33.711  35.756  1.00  0.00    -0.376 OA
BRANCH  35  36
ATOM     36  C   UNL A   1      38.531  33.207  36.344  1.00  0.00     0.202 C 
BRANCH  36  37
ATOM     37  C   UNL A   1      38.767  31.726  36.694  1.00  0.00     0.261 C 
BRANCH  37  38
ATOM     38  O   UNL A   1      39.029  30.804  35.625  1.00  0.00    -0.460 OA
BRANCH  38  39
ATOM     39  C   UNL A   1      40.250  30.227  35.553  1.00  0.00     0.338 C 
ATOM     40  O   UNL A   1      40.532  29.080  35.798  1.00  0.00    -0.246 OA
BRANCH  39  41
ATOM     41  C   UNL A   1      41.142  31.186  34.851  1.00  0.00     0.060 A 
ATOM     42  C   UNL A   1      40.666  31.790  33.677  1.00  0.00     0.016 A 
ATOM     43  C   UNL A   1      42.426  31.469  35.321  1.00  0.00     0.016 A 
ATOM     44  C   UNL A   1      41.480  32.637  32.942  1.00  0.00     0.010 A 
ATOM     45  C   UNL A   1      43.274  32.261  34.541  1.00  0.00     0.010 A 
ATOM     46  C   UNL A   1      42.815  32.790  33.321  1.00  0.00    -0.014 A 
BRANCH  46  47
ATOM     47  C   UNL A   1      43.761  33.170  32.251  1.00  0.00     0.031 A 
ATOM     48  C   UNL A   1      44.108  34.631  32.128  1.00  0.00     0.074 A 
ATOM     49  C   UNL A   1      44.386  32.247  31.501  1.00  0.00     0.049 A 
ATOM     50  N   UNL A   1      44.941  35.222  31.315  1.00  0.00    -0.248 NA
ATOM     51  C   UNL A   1      43.431  35.549  33.063  1.00  0.00     0.031 C 
ATOM     52  C   UNL A   1      44.177  30.804  31.585  1.00  0.00     0.029 A 
ATOM     53  N   UNL A   1      45.324  32.400  30.515  1.00  0.00    -0.354 N 
ATOM     54  C   UNL A   1      44.861  36.577  31.616  1.00  0.00     0.074 A 
ATOM     55  C   UNL A   1      43.898  36.725  32.681  1.00  0.00     0.031 C 
ATOM     56  C   UNL A   1      44.947  30.201  30.662  1.00  0.00     0.029 A 
ATOM     57  C   UNL A   1      45.679  31.220  29.909  1.00  0.00     0.049 A 
ATOM     58  H   UNL A   1      45.709  33.271  30.266  1.00  0.00     0.167 HD
ATOM     59  C   UNL A   1      45.535  37.607  31.059  1.00  0.00     0.034 A 
ATOM     60  C   UNL A   1      46.481  31.000  28.850  1.00  0.00     0.034 A 
ATOM     61  C   UNL A   1      46.497  37.450  30.005  1.00  0.00     0.049 A 
ATOM     62  C   UNL A   1      47.182  32.171  28.211  1.00  0.00     0.074 A 
ATOM     63  C   UNL A   1      47.248  38.423  29.373  1.00  0.00     0.029 A 
ATOM     64  N   UNL A   1      46.828  36.240  29.414  1.00  0.00    -0.354 N 
ATOM     65  N   UNL A   1      47.147  33.439  28.544  1.00  0.00    -0.248 NA
ATOM     66  C   UNL A   1      48.064  31.875  27.073  1.00  0.00     0.031 C 
ATOM     67  C   UNL A   1      48.003  37.806  28.370  1.00  0.00     0.029 A 
ATOM     68  C   UNL A   1      47.765  36.441  28.417  1.00  0.00     0.049 A 
ATOM     69  H   UNL A   1      46.452  35.366  29.668  1.00  0.00     0.167 HD
ATOM     70  C   UNL A   1      48.035  34.084  27.687  1.00  0.00     0.074 A 
ATOM     71  C   UNL A   1      48.602  33.062  26.832  1.00  0.00     0.031 C 
ATOM     72  C   UNL A   1      48.351  35.402  27.611  1.00  0.00     0.034 A 
BRANCH  59  73
ATOM     73  C   UNL A   1      45.238  38.993  31.568  1.00  0.00     0.023 A 
ATOM     74  C   UNL A   1      46.109  39.617  32.484  1.00  0.00     0.012 A 
ATOM     75  C   UNL A   1      44.102  39.689  31.111  1.00  0.00     0.148 A 
ATOM     76  C   UNL A   1      45.836  40.898  32.963  1.00  0.00     0.002 A 
ATOM     77  C   UNL A   1      43.864  40.983  31.553  1.00  0.00     0.091 A 
ATOM     78  F   UNL A   1      43.270  39.067  30.263  1.00  0.00    -0.205 F 
ATOM     79  C   UNL A   1      44.721  41.584  32.489  1.00  0.00     0.022 A 
BRANCH  77  80
ATOM     80  S   UNL A   1      42.503  41.980  30.939  1.00  0.00     0.127 S 
ATOM     81  O   UNL A   1      42.476  41.606  29.526  1.00  0.00    -0.237 OA
ATOM     82  O   UNL A   1      41.377  41.475  31.725  1.00  0.00    -0.237 OA
ATOM     83  O   UNL A   1      42.863  43.365  31.210  1.00  0.00    -0.744 OA
ENDBRANCH  77  80
ENDBRANCH  59  73
BRANCH  60  84
ATOM     84  C   UNL A   1      46.671  29.616  28.331  1.00  0.00     0.023 A 
ATOM     85  C   UNL A   1      47.584  28.746  28.958  1.00  0.00     0.012 A 
ATOM     86  C   UNL A   1      45.946  29.160  27.214  1.00  0.00     0.148 A 
ATOM     87  C   UNL A   1      47.797  27.460  28.460  1.00  0.00     0.002 A 
ATOM     88  C   UNL A   1      46.119  27.859  26.758  1.00  0.00     0.091 A 
ATOM     89  F   UNL A   1      45.094  30.008  26.621  1.00  0.00    -0.205 F 
ATOM     90  C   UNL A   1      47.059  27.013  27.367  1.00  0.00     0.022 A 
BRANCH  88  91
ATOM     91  S   UNL A   1      45.119  27.158  25.441  1.00  0.00     0.127 S 
ATOM     92  O   UNL A   1      46.002  27.303  24.287  1.00  0.00    -0.237 OA
ATOM     93  O   UNL A   1      44.934  25.784  25.908  1.00  0.00    -0.237 OA
ATOM     94  O   UNL A   1      43.899  27.953  25.408  1.00  0.00    -0.744 OA
ENDBRANCH  88  91
ENDBRANCH  60  84
BRANCH  72  95
ATOM     95  C   UNL A   1      49.408  35.808  26.617  1.00  0.00     0.023 A 
ATOM     96  C   UNL A   1      49.054  36.157  25.299  1.00  0.00     0.012 A 
ATOM     97  C   UNL A   1      50.756  35.902  27.018  1.00  0.00     0.148 A 
ATOM     98  C   UNL A   1      50.031  36.543  24.382  1.00  0.00     0.002 A 
ATOM     99  C   UNL A   1      51.716  36.342  26.117  1.00  0.00     0.091 A 
ATOM    100  F   UNL A   1      51.076  35.552  28.272  1.00  0.00    -0.205 F 
ATOM    101  C   UNL A   1      51.359  36.646  24.793  1.00  0.00     0.022 A 
BRANCH  99 102
ATOM    102  S   UNL A   1      53.428  36.606  26.590  1.00  0.00     0.127 S 
ATOM    103  O   UNL A   1      53.287  37.093  27.961  1.00  0.00    -0.237 OA
ATOM    104  O   UNL A   1      53.991  35.261  26.474  1.00  0.00    -0.237 OA
ATOM    105  O   UNL A   1      53.964  37.569  25.636  1.00  0.00    -0.744 OA
ENDBRANCH  99 102
ENDBRANCH  72  95
ENDBRANCH  46  47
ENDBRANCH  39  41
ENDBRANCH  38  39
ENDBRANCH  37  38
ENDBRANCH  36  37
ENDBRANCH  35  36
ENDBRANCH  34  35
ENDBRANCH  33  34
ENDBRANCH  32  33
ENDBRANCH   1  32
TORSDOF 27
ENDMDL
MODEL 2
REMARK VINA RESULT:      -7.9      8.499     14.489
REMARK SMILES Cc1ccc(Cl)c(Nc2ccccc2C(=O)N[C@@H](C)C(=O)OCCOCCOCCOCCOC(=O)c2ccc(-c3c4nc(c(-c5cccc(S(=O)(=O)[O-])c5F)c5ccc([nH]5)c(-c5cccc(S(=O)(=O)[O-])c5F)c5nc(c(-c6cccc(S(=O)(=O)[O-])c6F)c6ccc3[nH]6)C=C5)C=C4)cc2)c1Cl
REMARK SMILES IDX 27 1 26 2 25 3 24 4 23 5 22 6 20 7 21 8 18 9 19 10 17 11
REMARK SMILES IDX 15 12 16 13 14 15 9 16 10 17 11 18 13 19 12 20 8 21 7 23
REMARK SMILES IDX 1 24 2 25 3 26 100 27 4 28 101 29 5 30 6 31 28 32 29 33
REMARK SMILES IDX 30 34 31 35 32 36 33 37 34 38 35 39 36 40 37 41 38 42 99 43
REMARK SMILES IDX 39 44 98 45 40 46 41 47 42 48 92 49 43 50 97 51 91 52 93 53
REMARK SMILES IDX 44 54 96 55 90 56 89 57 45 59 77 60 57 61 76 62 58 63 61 64
REMARK SMILES IDX 75 65 94 66 59 67 60 68 74 70 95 71 62 72 46 73 47 74 55 75
REMARK SMILES IDX 48 76 50 77 56 78 49 79 51 80 52 81 53 82 54 83 78 84 79 85
REMARK SMILES IDX 87 86 80 87 82 88 88 89 81 90 83 91 84 92 85 93 86 94 63 95
REMARK SMILES IDX 64 96 72 97 65 98 67 99 73 100 66 101 68 102 69 103 70 104
REMARK SMILES IDX 71 105
REMARK H PARENT 17 14 8 22 93 58 61 69
REMARK Flexibility Score: inf
ROOT
ATOM      1  C   UNL A   1      47.081  39.888  26.511  1.00  0.00     0.188 C 
ENDROOT
BRANCH   1   2
ATOM      2  C   UNL A   1      46.165  40.283  25.282  1.00  0.00     0.188 C 
BRANCH   2   3
ATOM      3  O   UNL A   1      45.994  41.659  24.851  1.00  0.00    -0.376 OA
BRANCH   3   4
ATOM      4  C   UNL A   1      44.893  42.503  25.246  1.00  0.00     0.202 C 
BRANCH   4   5
ATOM      5  C   UNL A   1      43.520  42.534  24.328  1.00  0.00     0.261 C 
BRANCH   5   6
ATOM      6  O   UNL A   1      43.201  43.726  23.474  1.00  0.00    -0.462 OA
BRANCH   6   7
ATOM      7  C   UNL A   1      43.907  43.940  22.293  1.00  0.00     0.328 C 
ATOM      8  O   UNL A   1      45.138  43.945  22.270  1.00  0.00    -0.250 OA
BRANCH   7   9
ATOM      9  C   UNL A   1      43.049  43.879  20.899  1.00  0.00     0.189 C 
ATOM     10  C   UNL A   1      41.793  43.016  21.028  1.00  0.00     0.043 C 
BRANCH   9  11
ATOM     11  N   UNL A   1      43.627  43.627  19.564  1.00  0.00    -0.339 N 
ATOM     12  C   UNL A   1      43.592  44.241  18.316  1.00  0.00     0.254 C 
ATOM     13  O   UNL A   1      44.107  43.512  17.449  1.00  0.00    -0.269 OA
ATOM     14  H   UNL A   1      44.182  42.814  19.555  1.00  0.00     0.164 HD
BRANCH  12  15
ATOM     15  C   UNL A   1      43.114  45.634  17.821  1.00  0.00     0.063 A 
ATOM     16  C   UNL A   1      43.370  46.984  18.189  1.00  0.00     0.051 A 
ATOM     17  C   UNL A   1      42.729  48.055  17.476  1.00  0.00     0.027 A 
ATOM     18  C   UNL A   1      41.896  47.852  16.385  1.00  0.00     0.002 A 
ATOM     19  C   UNL A   1      42.204  45.490  16.719  1.00  0.00     0.016 A 
ATOM     20  C   UNL A   1      41.621  46.556  16.011  1.00  0.00     0.001 A 
BRANCH  16  21
ATOM     21  N   UNL A   1      44.317  47.467  19.125  1.00  0.00    -0.352 N 
ATOM     22  H   UNL A   1      44.049  47.509  20.072  1.00  0.00     0.167 HD
BRANCH  21  23
ATOM     23  C   UNL A   1      45.650  47.902  18.784  1.00  0.00     0.077 A 
ATOM     24  C   UNL A   1      47.335  46.517  21.218  1.00  0.00     0.046 C 
ATOM     25  C   UNL A   1      47.473  47.468  20.082  1.00  0.00    -0.030 A 
ATOM     26  C   UNL A   1      47.845  48.805  20.161  1.00  0.00     0.006 A 
ATOM     27  C   UNL A   1      46.717  47.069  19.014  1.00  0.00     0.069 A 
ATOM     28  C   UNL A   1      47.136  49.720  19.394  1.00  0.00     0.023 A 
ATOM     29  Cl  UNL A   1      46.875  45.453  18.421  1.00  0.00    -0.082 Cl
ATOM     30  C   UNL A   1      45.953  49.273  18.801  1.00  0.00     0.066 A 
ATOM     31  Cl  UNL A   1      44.811  50.423  18.224  1.00  0.00    -0.082 Cl
ENDBRANCH  21  23
ENDBRANCH  16  21
ENDBRANCH  12  15
ENDBRANCH   9  11
ENDBRANCH   7   9
ENDBRANCH   6   7
ENDBRANCH   5   6
ENDBRANCH   4   5
ENDBRANCH   3   4
ENDBRANCH   2   3
ENDBRANCH   1   2
BRANCH   1  32
ATOM     32  O   UNL A   1      46.451  39.649  27.768  1.00  0.00    -0.377 OA
BRANCH  32  33
ATOM     33  C   UNL A   1      46.218  40.797  28.564  1.00  0.00     0.188 C 
BRANCH  33  34
ATOM     34  C   UNL A   1      44.738  41.096  28.775  1.00  0.00     0.188 C 
BRANCH  34  35
ATOM     35  O   UNL A   1      43.867  39.983  28.796  1.00  0.00    -0.376 OA
BRANCH  35  36
ATOM     36  C   UNL A   1      42.826  39.821  27.839  1.00  0.00     0.202 C 
BRANCH  36  37
ATOM     37  C   UNL A   1      41.858  38.623  27.804  1.00  0.00     0.261 C 
BRANCH  37  38
ATOM     38  O   UNL A   1      42.105  37.573  26.857  1.00  0.00    -0.460 OA
BRANCH  38  39
ATOM     39  C   UNL A   1      42.037  36.291  27.280  1.00  0.00     0.338 C 
ATOM     40  O   UNL A   1      41.046  35.673  27.583  1.00  0.00    -0.246 OA
BRANCH  39  41
ATOM     41  C   UNL A   1      43.372  35.684  27.045  1.00  0.00     0.060 A 
ATOM     42  C   UNL A   1      43.595  35.037  25.820  1.00  0.00     0.016 A 
ATOM     43  C   UNL A   1      44.377  35.728  28.014  1.00  0.00     0.016 A 
ATOM     44  C   UNL A   1      44.797  34.392  25.573  1.00  0.00     0.010 A 
ATOM     45  C   UNL A   1      45.558  35.013  27.797  1.00  0.00     0.010 A 
ATOM     46  C   UNL A   1      45.735  34.295  26.601  1.00  0.00    -0.014 A 
BRANCH  46  47
ATOM     47  C   UNL A   1      46.671  33.152  26.529  1.00  0.00     0.031 A 
ATOM     48  C   UNL A   1      48.112  33.463  26.215  1.00  0.00     0.074 A 
ATOM     49  C   UNL A   1      46.289  31.906  26.853  1.00  0.00     0.049 A 
ATOM     50  N   UNL A   1      49.138  32.660  26.141  1.00  0.00    -0.248 NA
ATOM     51  C   UNL A   1      48.439  34.879  25.964  1.00  0.00     0.031 C 
ATOM     52  C   UNL A   1      44.938  31.507  27.239  1.00  0.00     0.029 A 
ATOM     53  N   UNL A   1      47.016  30.746  26.902  1.00  0.00    -0.354 N 
ATOM     54  C   UNL A   1      50.220  33.465  25.803  1.00  0.00     0.074 A 
ATOM     55  C   UNL A   1      49.729  34.817  25.681  1.00  0.00     0.031 C 
ATOM     56  C   UNL A   1      44.925  30.180  27.458  1.00  0.00     0.029 A 
ATOM     57  C   UNL A   1      46.259  29.639  27.201  1.00  0.00     0.049 A 
ATOM     58  H   UNL A   1      47.986  30.709  26.740  1.00  0.00     0.167 HD
ATOM     59  C   UNL A   1      51.511  33.111  25.617  1.00  0.00     0.034 A 
ATOM     60  C   UNL A   1      46.608  28.338  27.234  1.00  0.00     0.034 A 
ATOM     61  C   UNL A   1      51.992  31.765  25.747  1.00  0.00     0.049 A 
ATOM     62  C   UNL A   1      48.043  27.962  26.971  1.00  0.00     0.074 A 
ATOM     63  C   UNL A   1      53.282  31.293  25.592  1.00  0.00     0.029 A 
ATOM     64  N   UNL A   1      51.196  30.670  26.049  1.00  0.00    -0.354 N 
ATOM     65  N   UNL A   1      49.069  28.737  26.713  1.00  0.00    -0.248 NA
ATOM     66  C   UNL A   1      48.376  26.532  27.040  1.00  0.00     0.031 C 
ATOM     67  C   UNL A   1      53.259  29.905  25.758  1.00  0.00     0.029 A 
ATOM     68  C   UNL A   1      51.965  29.520  26.073  1.00  0.00     0.049 A 
ATOM     69  H   UNL A   1      50.228  30.705  26.220  1.00  0.00     0.167 HD
ATOM     70  C   UNL A   1      50.175  27.895  26.636  1.00  0.00     0.074 A 
ATOM     71  C   UNL A   1      49.693  26.554  26.889  1.00  0.00     0.031 C 
ATOM     72  C   UNL A   1      51.471  28.202  26.375  1.00  0.00     0.034 A 
BRANCH  59  73
ATOM     73  C   UNL A   1      52.483  34.194  25.232  1.00  0.00     0.023 A 
ATOM     74  C   UNL A   1      52.688  34.519  23.875  1.00  0.00     0.012 A 
ATOM     75  C   UNL A   1      53.176  34.913  26.226  1.00  0.00     0.148 A 
ATOM     76  C   UNL A   1      53.591  35.517  23.513  1.00  0.00     0.002 A 
ATOM     77  C   UNL A   1      54.035  35.940  25.860  1.00  0.00     0.091 A 
ATOM     78  F   UNL A   1      52.991  34.569  27.509  1.00  0.00    -0.205 F 
ATOM     79  C   UNL A   1      54.255  36.235  24.505  1.00  0.00     0.022 A 
BRANCH  77  80
ATOM     80  S   UNL A   1      54.873  36.976  27.064  1.00  0.00     0.127 S 
ATOM     81  O   UNL A   1      55.673  35.993  27.793  1.00  0.00    -0.237 OA
ATOM     82  O   UNL A   1      55.645  37.875  26.207  1.00  0.00    -0.237 OA
ATOM     83  O   UNL A   1      53.824  37.623  27.839  1.00  0.00    -0.744 OA
ENDBRANCH  77  80
ENDBRANCH  59  73
BRANCH  60  84
ATOM     84  C   UNL A   1      45.585  27.298  27.533  1.00  0.00     0.023 A 
ATOM     85  C   UNL A   1      45.319  26.932  28.867  1.00  0.00     0.012 A 
ATOM     86  C   UNL A   1      44.871  26.669  26.494  1.00  0.00     0.148 A 
ATOM     87  C   UNL A   1      44.388  25.933  29.158  1.00  0.00     0.002 A 
ATOM     88  C   UNL A   1      43.904  25.718  26.794  1.00  0.00     0.091 A 
ATOM     89  F   UNL A   1      45.151  27.019  25.231  1.00  0.00    -0.205 F 
ATOM     90  C   UNL A   1      43.675  25.334  28.124  1.00  0.00     0.022 A 
BRANCH  88  91
ATOM     91  S   UNL A   1      42.849  24.989  25.537  1.00  0.00     0.127 S 
ATOM     92  O   UNL A   1      41.934  24.187  26.345  1.00  0.00    -0.237 OA
ATOM     93  O   UNL A   1      42.253  26.177  24.925  1.00  0.00    -0.237 OA
ATOM     94  O   UNL A   1      43.739  24.242  24.660  1.00  0.00    -0.744 OA
ENDBRANCH  88  91
ENDBRANCH  60  84
BRANCH  72  95
ATOM     95  C   UNL A   1      52.475  27.079  26.421  1.00  0.00     0.023 A 
ATOM     96  C   UNL A   1      52.623  26.207  25.324  1.00  0.00     0.012 A 
ATOM     97  C   UNL A   1      53.319  26.930  27.540  1.00  0.00     0.148 A 
ATOM     98  C   UNL A   1      53.559  25.174  25.362  1.00  0.00     0.002 A 
ATOM     99  C   UNL A   1      54.288  25.936  27.547  1.00  0.00     0.091 A 
ATOM    100  F   UNL A   1      53.154  27.760  28.580  1.00  0.00    -0.205 F 
ATOM    101  C   UNL A   1      54.398  25.046  26.467  1.00  0.00     0.022 A 
BRANCH  99 102
ATOM    102  S   UNL A   1      55.479  25.766  28.880  1.00  0.00     0.127 S 
ATOM    103  O   UNL A   1      54.606  25.641  30.046  1.00  0.00    -0.237 OA
ATOM    104  O   UNL A   1      56.183  24.538  28.511  1.00  0.00    -0.237 OA
ATOM    105  O   UNL A   1      56.301  26.968  28.841  1.00  0.00    -0.744 OA
ENDBRANCH  99 102
ENDBRANCH  72  95
ENDBRANCH  46  47
ENDBRANCH  39  41
ENDBRANCH  38  39
ENDBRANCH  37  38
ENDBRANCH  36  37
ENDBRANCH  35  36
ENDBRANCH  34  35
ENDBRANCH  33  34
ENDBRANCH  32  33
ENDBRANCH   1  32
TORSDOF 27
ENDMDL
MODEL 3
REMARK VINA RESULT:      -7.8      6.439     12.685
REMARK SMILES Cc1ccc(Cl)c(Nc2ccccc2C(=O)N[C@@H](C)C(=O)OCCOCCOCCOCCOC(=O)c2ccc(-c3c4nc(c(-c5cccc(S(=O)(=O)[O-])c5F)c5ccc([nH]5)c(-c5cccc(S(=O)(=O)[O-])c5F)c5nc(c(-c6cccc(S(=O)(=O)[O-])c6F)c6ccc3[nH]6)C=C5)C=C4)cc2)c1Cl
REMARK SMILES IDX 27 1 26 2 25 3 24 4 23 5 22 6 20 7 21 8 18 9 19 10 17 11
REMARK SMILES IDX 15 12 16 13 14 15 9 16 10 17 11 18 13 19 12 20 8 21 7 23
REMARK SMILES IDX 1 24 2 25 3 26 100 27 4 28 101 29 5 30 6 31 28 32 29 33
REMARK SMILES IDX 30 34 31 35 32 36 33 37 34 38 35 39 36 40 37 41 38 42 99 43
REMARK SMILES IDX 39 44 98 45 40 46 41 47 42 48 92 49 43 50 97 51 91 52 93 53
REMARK SMILES IDX 44 54 96 55 90 56 89 57 45 59 77 60 57 61 76 62 58 63 61 64
REMARK SMILES IDX 75 65 94 66 59 67 60 68 74 70 95 71 62 72 46 73 47 74 55 75
REMARK SMILES IDX 48 76 50 77 56 78 49 79 51 80 52 81 53 82 54 83 78 84 79 85
REMARK SMILES IDX 87 86 80 87 82 88 88 89 81 90 83 91 84 92 85 93 86 94 63 95
REMARK SMILES IDX 64 96 72 97 65 98 67 99 73 100 66 101 68 102 69 103 70 104
REMARK SMILES IDX 71 105
REMARK H PARENT 17 14 8 22 93 58 61 69
REMARK Flexibility Score: inf
ROOT
ATOM      1  C   UNL A   1      42.700  40.012  29.413  1.00  0.00     0.188 C 
ENDROOT
BRANCH   1   2
ATOM      2  C   UNL A   1      42.260  40.009  27.893  1.00  0.00     0.188 C 
BRANCH   2   3
ATOM      3  O   UNL A   1      41.683  38.840  27.253  1.00  0.00    -0.376 OA
BRANCH   3   4
ATOM      4  C   UNL A   1      42.386  37.598  27.045  1.00  0.00     0.202 C 
BRANCH   4   5
ATOM      5  C   UNL A   1      42.094  36.319  28.048  1.00  0.00     0.261 C 
BRANCH   5   6
ATOM      6  O   UNL A   1      42.655  34.961  27.735  1.00  0.00    -0.462 OA
BRANCH   6   7
ATOM      7  C   UNL A   1      43.719  34.464  28.482  1.00  0.00     0.328 C 
ATOM      8  O   UNL A   1      43.699  33.327  28.956  1.00  0.00    -0.250 OA
BRANCH   7   9
ATOM      9  C   UNL A   1      45.111  35.326  28.448  1.00  0.00     0.189 C 
ATOM     10  C   UNL A   1      46.336  34.441  28.210  1.00  0.00     0.043 C 
BRANCH   9  11
ATOM     11  N   UNL A   1      45.490  36.354  29.436  1.00  0.00    -0.339 N 
ATOM     12  C   UNL A   1      46.230  37.533  29.435  1.00  0.00     0.254 C 
ATOM     13  O   UNL A   1      46.412  37.944  30.596  1.00  0.00    -0.269 OA
ATOM     14  H   UNL A   1      45.125  36.155  30.329  1.00  0.00     0.164 HD
BRANCH  12  15
ATOM     15  C   UNL A   1      46.795  38.441  28.308  1.00  0.00     0.063 A 
ATOM     16  C   UNL A   1      48.006  39.154  28.091  1.00  0.00     0.051 A 
ATOM     17  C   UNL A   1      48.186  39.911  26.882  1.00  0.00     0.027 A 
ATOM     18  C   UNL A   1      47.249  39.947  25.860  1.00  0.00     0.002 A 
ATOM     19  C   UNL A   1      45.845  38.560  27.235  1.00  0.00     0.016 A 
ATOM     20  C   UNL A   1      46.062  39.275  26.044  1.00  0.00     0.001 A 
BRANCH  16  21
ATOM     21  N   UNL A   1      49.185  39.126  28.876  1.00  0.00    -0.352 N 
ATOM     22  H   UNL A   1      49.431  39.943  29.367  1.00  0.00     0.167 HD
BRANCH  21  23
ATOM     23  C   UNL A   1      50.052  37.979  29.002  1.00  0.00     0.077 A 
ATOM     24  C   UNL A   1      49.295  36.394  26.246  1.00  0.00     0.046 C 
ATOM     25  C   UNL A   1      50.056  36.251  27.516  1.00  0.00    -0.030 A 
ATOM     26  C   UNL A   1      49.852  35.290  28.499  1.00  0.00     0.006 A 
ATOM     27  C   UNL A   1      50.630  37.438  27.881  1.00  0.00     0.069 A 
ATOM     28  C   UNL A   1      49.878  35.703  29.824  1.00  0.00     0.023 A 
ATOM     29  Cl  UNL A   1      51.600  38.297  26.736  1.00  0.00    -0.082 Cl
ATOM     30  C   UNL A   1      49.854  37.079  30.062  1.00  0.00     0.066 A 
ATOM     31  Cl  UNL A   1      49.441  37.659  31.628  1.00  0.00    -0.082 Cl
ENDBRANCH  21  23
ENDBRANCH  16  21
ENDBRANCH  12  15
ENDBRANCH   9  11
ENDBRANCH   7   9
ENDBRANCH   6   7
ENDBRANCH   5   6
ENDBRANCH   4   5
ENDBRANCH   3   4
ENDBRANCH   2   3
ENDBRANCH   1   2
BRANCH   1  32
ATOM     32  O   UNL A   1      42.921  41.272  30.045  1.00  0.00    -0.377 OA
BRANCH  32  33
ATOM     33  C   UNL A   1      41.881  41.722  30.893  1.00  0.00     0.188 C 
BRANCH  33  34
ATOM     34  C   UNL A   1      42.362  42.662  31.994  1.00  0.00     0.188 C 
BRANCH  34  35
ATOM     35  O   UNL A   1      42.579  42.085  33.265  1.00  0.00    -0.376 OA
BRANCH  35  36
ATOM     36  C   UNL A   1      43.455  42.671  34.221  1.00  0.00     0.202 C 
BRANCH  36  37
ATOM     37  C   UNL A   1      44.035  41.927  35.438  1.00  0.00     0.261 C 
BRANCH  37  38
ATOM     38  O   UNL A   1      44.068  40.492  35.410  1.00  0.00    -0.460 OA
BRANCH  38  39
ATOM     39  C   UNL A   1      45.016  39.881  34.663  1.00  0.00     0.338 C 
ATOM     40  O   UNL A   1      46.187  40.160  34.599  1.00  0.00    -0.246 OA
BRANCH  39  41
ATOM     41  C   UNL A   1      44.416  38.626  34.142  1.00  0.00     0.060 A 
ATOM     42  C   UNL A   1      44.348  37.521  35.006  1.00  0.00     0.016 A 
ATOM     43  C   UNL A   1      43.951  38.526  32.830  1.00  0.00     0.016 A 
ATOM     44  C   UNL A   1      43.865  36.303  34.553  1.00  0.00     0.010 A 
ATOM     45  C   UNL A   1      43.535  37.281  32.351  1.00  0.00     0.010 A 
ATOM     46  C   UNL A   1      43.555  36.159  33.200  1.00  0.00    -0.014 A 
BRANCH  46  47
ATOM     47  C   UNL A   1      43.634  34.789  32.651  1.00  0.00     0.031 A 
ATOM     48  C   UNL A   1      42.330  34.076  32.396  1.00  0.00     0.074 A 
ATOM     49  C   UNL A   1      44.802  34.245  32.275  1.00  0.00     0.049 A 
ATOM     50  N   UNL A   1      42.116  32.897  31.879  1.00  0.00    -0.248 NA
ATOM     51  C   UNL A   1      41.100  34.802  32.763  1.00  0.00     0.031 C 
ATOM     52  C   UNL A   1      46.113  34.875  32.412  1.00  0.00     0.029 A 
ATOM     53  N   UNL A   1      45.066  33.029  31.702  1.00  0.00    -0.354 N 
ATOM     54  C   UNL A   1      40.736  32.728  31.891  1.00  0.00     0.074 A 
ATOM     55  C   UNL A   1      40.161  33.919  32.470  1.00  0.00     0.031 C 
ATOM     56  C   UNL A   1      47.051  34.023  31.961  1.00  0.00     0.029 A 
ATOM     57  C   UNL A   1      46.406  32.784  31.530  1.00  0.00     0.049 A 
ATOM     58  H   UNL A   1      44.362  32.393  31.437  1.00  0.00     0.167 HD
ATOM     59  C   UNL A   1      40.010  31.676  31.452  1.00  0.00     0.034 A 
ATOM     60  C   UNL A   1      47.032  31.671  31.100  1.00  0.00     0.034 A 
ATOM     61  C   UNL A   1      40.589  30.498  30.871  1.00  0.00     0.049 A 
ATOM     62  C   UNL A   1      46.202  30.490  30.665  1.00  0.00     0.074 A 
ATOM     63  C   UNL A   1      39.948  29.375  30.383  1.00  0.00     0.029 A 
ATOM     64  N   UNL A   1      41.950  30.284  30.716  1.00  0.00    -0.354 N 
ATOM     65  N   UNL A   1      44.898  30.365  30.623  1.00  0.00    -0.248 NA
ATOM     66  C   UNL A   1      46.933  29.309  30.184  1.00  0.00     0.031 C 
ATOM     67  C   UNL A   1      40.924  28.462  29.971  1.00  0.00     0.029 A 
ATOM     68  C   UNL A   1      42.172  29.042  30.149  1.00  0.00     0.049 A 
ATOM     69  H   UNL A   1      42.655  30.922  30.971  1.00  0.00     0.167 HD
ATOM     70  C   UNL A   1      44.651  29.112  30.068  1.00  0.00     0.074 A 
ATOM     71  C   UNL A   1      45.943  28.527  29.778  1.00  0.00     0.031 C 
ATOM     72  C   UNL A   1      43.465  28.499  29.825  1.00  0.00     0.034 A 
BRANCH  59  73
ATOM     73  C   UNL A   1      38.514  31.748  31.606  1.00  0.00     0.023 A 
ATOM     74  C   UNL A   1      37.904  31.370  32.820  1.00  0.00     0.012 A 
ATOM     75  C   UNL A   1      37.712  32.221  30.549  1.00  0.00     0.148 A 
ATOM     76  C   UNL A   1      36.518  31.429  32.967  1.00  0.00     0.002 A 
ATOM     77  C   UNL A   1      36.339  32.326  30.719  1.00  0.00     0.091 A 
ATOM     78  F   UNL A   1      38.309  32.547  29.393  1.00  0.00    -0.205 F 
ATOM     79  C   UNL A   1      35.738  31.917  31.921  1.00  0.00     0.022 A 
BRANCH  77  80
ATOM     80  S   UNL A   1      35.258  33.020  29.464  1.00  0.00     0.127 S 
ATOM     81  O   UNL A   1      35.113  31.892  28.544  1.00  0.00    -0.237 OA
ATOM     82  O   UNL A   1      34.057  33.335  30.237  1.00  0.00    -0.237 OA
ATOM     83  O   UNL A   1      35.958  34.177  28.925  1.00  0.00    -0.744 OA
ENDBRANCH  77  80
ENDBRANCH  59  73
BRANCH  60  84
ATOM     84  C   UNL A   1      48.520  31.623  31.051  1.00  0.00     0.023 A 
ATOM     85  C   UNL A   1      49.200  31.984  29.872  1.00  0.00     0.012 A 
ATOM     86  C   UNL A   1      49.264  31.218  32.176  1.00  0.00     0.148 A 
ATOM     87  C   UNL A   1      50.592  31.908  29.803  1.00  0.00     0.002 A 
ATOM     88  C   UNL A   1      50.653  31.201  32.120  1.00  0.00     0.091 A 
ATOM     89  F   UNL A   1      48.598  30.862  33.283  1.00  0.00    -0.205 F 
ATOM     90  C   UNL A   1      51.318  31.527  30.928  1.00  0.00     0.022 A 
BRANCH  88  91
ATOM     91  S   UNL A   1      51.670  30.849  33.557  1.00  0.00     0.127 S 
ATOM     92  O   UNL A   1      50.910  31.491  34.625  1.00  0.00    -0.237 OA
ATOM     93  O   UNL A   1      51.654  29.386  33.580  1.00  0.00    -0.237 OA
ATOM     94  O   UNL A   1      52.973  31.432  33.269  1.00  0.00    -0.744 OA
ENDBRANCH  88  91
ENDBRANCH  60  84
BRANCH  72  95
ATOM     95  C   UNL A   1      43.503  27.154  29.147  1.00  0.00     0.023 A 
ATOM     96  C   UNL A   1      43.479  25.969  29.909  1.00  0.00     0.012 A 
ATOM     97  C   UNL A   1      43.501  27.071  27.740  1.00  0.00     0.148 A 
ATOM     98  C   UNL A   1      43.503  24.724  29.281  1.00  0.00     0.002 A 
ATOM     99  C   UNL A   1      43.466  25.828  27.122  1.00  0.00     0.091 A 
ATOM    100  F   UNL A   1      43.539  28.209  27.032  1.00  0.00    -0.205 F 
ATOM    101  C   UNL A   1      43.486  24.653  27.890  1.00  0.00     0.022 A 
BRANCH  99 102
ATOM    102  S   UNL A   1      43.336  25.646  25.340  1.00  0.00     0.127 S 
ATOM    103  O   UNL A   1      42.247  26.569  25.025  1.00  0.00    -0.237 OA
ATOM    104  O   UNL A   1      44.656  26.083  24.887  1.00  0.00    -0.237 OA
ATOM    105  O   UNL A   1      43.051  24.238  25.100  1.00  0.00    -0.744 OA
ENDBRANCH  99 102
ENDBRANCH  72  95
ENDBRANCH  46  47
ENDBRANCH  39  41
ENDBRANCH  38  39
ENDBRANCH  37  38
ENDBRANCH  36  37
ENDBRANCH  35  36
ENDBRANCH  34  35
ENDBRANCH  33  34
ENDBRANCH  32  33
ENDBRANCH   1  32
TORSDOF 27
ENDMDL
