MODEL 1
REMARK VINA RESULT:      -9.3      0.000      0.000
REMARK SMILES COc1ccc(-c2ccc(CCC(=O)OCCOCCOCCOCCOC(=O)c3ccc(-c4c5nc(c(-c6cccc(S(=O)(=O)[O-])c6F)c6ccc([nH]6)c(-c6cccc(S(=O)(=O)[O-])c6F)c6nc(c(-c7cccc(S(=O)(=O)[O-])c7F)c7ccc4[nH]7)C=C6)C=C5)cc3)n2-c2ccc(C(C)=O)cc2)cc1
REMARK SMILES IDX 20 1 19 2 18 3 17 4 16 5 15 6 13 7 14 8 12 9 11 10 10 11
REMARK SMILES IDX 7 12 8 13 93 14 9 15 6 16 3 17 4 18 104 19 5 20 103 21 2 22
REMARK SMILES IDX 1 23 94 24 95 25 102 26 96 27 101 28 97 29 98 30 99 31
REMARK SMILES IDX 100 32 21 33 22 34 23 35 24 36 25 37 26 38 27 39 28 40 29 41
REMARK SMILES IDX 30 42 31 43 92 44 32 45 91 46 33 47 34 48 35 49 85 50 36 51
REMARK SMILES IDX 90 52 84 53 86 54 37 55 89 56 83 57 82 58 38 60 70 61 50 62
REMARK SMILES IDX 69 63 51 64 54 65 68 66 87 67 52 68 53 69 67 71 88 72 55 73
REMARK SMILES IDX 39 74 40 75 48 76 41 77 43 78 49 79 42 80 44 81 45 82 46 83
REMARK SMILES IDX 47 84 71 85 72 86 80 87 73 88 75 89 81 90 74 91 76 92 77 93
REMARK SMILES IDX 78 94 79 95 56 96 57 97 65 98 58 99 60 100 66 101 59 102
REMARK SMILES IDX 61 103 62 104 63 105 64 106
REMARK H PARENT 86 59 54 70
REMARK Flexibility Score: inf
ROOT
ATOM      1  C   UNL A   1      42.303  42.275  30.989  1.00  0.00     0.188 C 
ENDROOT
BRANCH   1   2
ATOM      2  C   UNL A   1      43.654  43.000  31.026  1.00  0.00     0.188 C 
BRANCH   2   3
ATOM      3  O   UNL A   1      43.801  44.259  30.394  1.00  0.00    -0.376 OA
BRANCH   3   4
ATOM      4  C   UNL A   1      44.777  44.418  29.376  1.00  0.00     0.202 C 
BRANCH   4   5
ATOM      5  C   UNL A   1      45.680  43.237  29.021  1.00  0.00     0.261 C 
BRANCH   5   6
ATOM      6  O   UNL A   1      46.205  43.296  27.682  1.00  0.00    -0.463 OA
BRANCH   6   7
ATOM      7  C   UNL A   1      46.009  44.454  27.009  1.00  0.00     0.306 C 
ATOM      8  O   UNL A   1      46.428  45.546  27.382  1.00  0.00    -0.252 OA
BRANCH   7   9
ATOM      9  C   UNL A   1      45.092  44.332  25.812  1.00  0.00     0.129 C 
BRANCH   9  10
ATOM     10  C   UNL A   1      45.377  43.308  24.715  1.00  0.00     0.066 C 
BRANCH  10  11
ATOM     11  C   UNL A   1      44.223  43.055  23.781  1.00  0.00     0.024 A 
ATOM     12  C   UNL A   1      42.976  43.288  21.911  1.00  0.00     0.053 A 
ATOM     13  C   UNL A   1      42.173  42.738  22.893  1.00  0.00     0.029 A 
ATOM     14  N   UNL A   1      44.274  43.292  22.406  1.00  0.00    -0.314 N 
ATOM     15  C   UNL A   1      42.954  42.580  24.049  1.00  0.00     0.024 A 
BRANCH  12  16
ATOM     16  C   UNL A   1      42.558  43.709  20.581  1.00  0.00    -0.001 A 
ATOM     17  C   UNL A   1      41.656  44.484  18.051  1.00  0.00     0.118 A 
ATOM     18  C   UNL A   1      42.900  44.917  18.516  1.00  0.00     0.047 A 
ATOM     19  C   UNL A   1      40.893  43.609  18.822  1.00  0.00     0.047 A 
ATOM     20  C   UNL A   1      43.349  44.537  19.783  1.00  0.00     0.014 A 
ATOM     21  C   UNL A   1      41.343  43.225  20.082  1.00  0.00     0.014 A 
BRANCH  17  22
ATOM     22  O   UNL A   1      41.282  44.929  16.814  1.00  0.00    -0.497 OA
ATOM     23  C   UNL A   1      42.168  45.893  16.256  1.00  0.00     0.278 C 
ENDBRANCH  17  22
ENDBRANCH  12  16
BRANCH  14  24
ATOM     24  C   UNL A   1      45.468  43.523  21.679  1.00  0.00     0.046 A 
ATOM     25  C   UNL A   1      46.003  44.816  21.670  1.00  0.00     0.027 A 
ATOM     26  C   UNL A   1      46.047  42.505  20.925  1.00  0.00     0.027 A 
ATOM     27  C   UNL A   1      47.105  45.110  20.865  1.00  0.00     0.014 A 
ATOM     28  C   UNL A   1      47.134  42.813  20.102  1.00  0.00     0.014 A 
ATOM     29  C   UNL A   1      47.664  44.117  20.054  1.00  0.00     0.017 A 
BRANCH  29  30
ATOM     30  C   UNL A   1      48.775  44.382  19.088  1.00  0.00     0.159 C 
ATOM     31  C   UNL A   1      50.199  44.018  19.423  1.00  0.00     0.093 C 
ATOM     32  O   UNL A   1      48.515  44.902  18.001  1.00  0.00    -0.295 OA
ENDBRANCH  29  30
ENDBRANCH  14  24
ENDBRANCH  10  11
ENDBRANCH   9  10
ENDBRANCH   7   9
ENDBRANCH   6   7
ENDBRANCH   5   6
ENDBRANCH   4   5
ENDBRANCH   3   4
ENDBRANCH   2   3
ENDBRANCH   1   2
BRANCH   1  33
ATOM     33  O   UNL A   1      42.237  40.873  31.083  1.00  0.00    -0.377 OA
BRANCH  33  34
ATOM     34  C   UNL A   1      42.884  40.027  30.154  1.00  0.00     0.188 C 
BRANCH  34  35
ATOM     35  C   UNL A   1      42.569  40.062  28.653  1.00  0.00     0.188 C 
BRANCH  35  36
ATOM     36  O   UNL A   1      41.822  38.963  28.147  1.00  0.00    -0.376 OA
BRANCH  36  37
ATOM     37  C   UNL A   1      42.451  38.183  27.139  1.00  0.00     0.202 C 
BRANCH  37  38
ATOM     38  C   UNL A   1      43.982  38.233  27.184  1.00  0.00     0.261 C 
BRANCH  38  39
ATOM     39  O   UNL A   1      44.596  37.255  28.022  1.00  0.00    -0.460 OA
BRANCH  39  40
ATOM     40  C   UNL A   1      44.788  36.065  27.422  1.00  0.00     0.338 C 
ATOM     41  O   UNL A   1      44.974  35.847  26.240  1.00  0.00    -0.246 OA
BRANCH  40  42
ATOM     42  C   UNL A   1      44.672  34.977  28.383  1.00  0.00     0.060 A 
ATOM     43  C   UNL A   1      44.403  33.710  27.853  1.00  0.00     0.016 A 
ATOM     44  C   UNL A   1      44.380  35.331  29.699  1.00  0.00     0.016 A 
ATOM     45  C   UNL A   1      43.637  32.840  28.598  1.00  0.00     0.010 A 
ATOM     46  C   UNL A   1      43.572  34.481  30.418  1.00  0.00     0.010 A 
ATOM     47  C   UNL A   1      43.147  33.280  29.832  1.00  0.00    -0.014 A 
BRANCH  47  48
ATOM     48  C   UNL A   1      42.096  32.498  30.496  1.00  0.00     0.031 A 
ATOM     49  C   UNL A   1      42.640  31.249  31.166  1.00  0.00     0.074 A 
ATOM     50  C   UNL A   1      40.833  33.015  30.396  1.00  0.00     0.049 A 
ATOM     51  N   UNL A   1      42.033  30.134  31.437  1.00  0.00    -0.248 NA
ATOM     52  C   UNL A   1      44.094  31.173  31.475  1.00  0.00     0.031 C 
ATOM     53  C   UNL A   1      40.499  34.258  29.662  1.00  0.00     0.029 A 
ATOM     54  N   UNL A   1      39.592  32.639  30.872  1.00  0.00    -0.354 N 
ATOM     55  C   UNL A   1      42.955  29.354  32.158  1.00  0.00     0.074 A 
ATOM     56  C   UNL A   1      44.240  29.958  32.002  1.00  0.00     0.031 C 
ATOM     57  C   UNL A   1      39.173  34.497  29.695  1.00  0.00     0.029 A 
ATOM     58  C   UNL A   1      38.514  33.474  30.485  1.00  0.00     0.049 A 
ATOM     59  H   UNL A   1      39.466  31.847  31.442  1.00  0.00     0.167 HD
ATOM     60  C   UNL A   1      42.584  28.351  32.998  1.00  0.00     0.034 A 
ATOM     61  C   UNL A   1      37.179  33.358  30.763  1.00  0.00     0.034 A 
ATOM     62  C   UNL A   1      41.162  28.249  33.057  1.00  0.00     0.049 A 
ATOM     63  C   UNL A   1      37.056  32.265  31.740  1.00  0.00     0.074 A 
ATOM     64  C   UNL A   1      40.216  27.714  32.226  1.00  0.00     0.029 A 
ATOM     65  N   UNL A   1      40.550  29.062  33.982  1.00  0.00    -0.354 N 
ATOM     66  N   UNL A   1      37.429  32.348  32.982  1.00  0.00    -0.248 NA
ATOM     67  C   UNL A   1      36.568  30.954  31.297  1.00  0.00     0.031 C 
ATOM     68  C   UNL A   1      39.048  28.464  32.487  1.00  0.00     0.029 A 
ATOM     69  C   UNL A   1      39.306  29.391  33.504  1.00  0.00     0.049 A 
ATOM     70  H   UNL A   1      40.936  29.358  34.839  1.00  0.00     0.167 HD
ATOM     71  C   UNL A   1      37.572  31.028  33.336  1.00  0.00     0.074 A 
ATOM     72  C   UNL A   1      36.749  30.271  32.423  1.00  0.00     0.031 C 
ATOM     73  C   UNL A   1      38.711  30.628  33.961  1.00  0.00     0.034 A 
BRANCH  60  74
ATOM     74  C   UNL A   1      43.369  27.545  33.989  1.00  0.00     0.023 A 
ATOM     75  C   UNL A   1      43.533  26.173  33.664  1.00  0.00     0.012 A 
ATOM     76  C   UNL A   1      43.711  27.953  35.290  1.00  0.00     0.148 A 
ATOM     77  C   UNL A   1      43.942  25.231  34.605  1.00  0.00     0.002 A 
ATOM     78  C   UNL A   1      44.170  27.012  36.216  1.00  0.00     0.091 A 
ATOM     79  F   UNL A   1      43.504  29.221  35.664  1.00  0.00    -0.205 F 
ATOM     80  C   UNL A   1      44.256  25.652  35.885  1.00  0.00     0.022 A 
BRANCH  78  81
ATOM     81  S   UNL A   1      44.676  27.482  37.875  1.00  0.00     0.127 S 
ATOM     82  O   UNL A   1      46.103  27.180  37.860  1.00  0.00    -0.237 OA
ATOM     83  O   UNL A   1      44.362  28.914  37.903  1.00  0.00    -0.237 OA
ATOM     84  O   UNL A   1      43.840  26.683  38.763  1.00  0.00    -0.744 OA
ENDBRANCH  78  81
ENDBRANCH  60  74
BRANCH  61  85
ATOM     85  C   UNL A   1      35.899  34.005  30.279  1.00  0.00     0.023 A 
ATOM     86  C   UNL A   1      35.339  33.789  29.011  1.00  0.00     0.012 A 
ATOM     87  C   UNL A   1      35.125  34.814  31.164  1.00  0.00     0.148 A 
ATOM     88  C   UNL A   1      34.052  34.258  28.680  1.00  0.00     0.002 A 
ATOM     89  C   UNL A   1      33.813  35.181  30.879  1.00  0.00     0.091 A 
ATOM     90  F   UNL A   1      35.669  35.265  32.299  1.00  0.00    -0.205 F 
ATOM     91  C   UNL A   1      33.272  34.912  29.626  1.00  0.00     0.022 A 
BRANCH  89  92
ATOM     92  S   UNL A   1      32.719  35.861  32.141  1.00  0.00     0.127 S 
ATOM     93  O   UNL A   1      33.641  36.639  32.965  1.00  0.00    -0.237 OA
ATOM     94  O   UNL A   1      31.797  36.659  31.330  1.00  0.00    -0.237 OA
ATOM     95  O   UNL A   1      32.100  34.722  32.805  1.00  0.00    -0.744 OA
ENDBRANCH  89  92
ENDBRANCH  61  85
BRANCH  73  96
ATOM     96  C   UNL A   1      39.392  31.739  34.762  1.00  0.00     0.023 A 
ATOM     97  C   UNL A   1      40.557  32.314  34.213  1.00  0.00     0.012 A 
ATOM     98  C   UNL A   1      39.030  32.136  36.069  1.00  0.00     0.148 A 
ATOM     99  C   UNL A   1      41.339  33.220  34.936  1.00  0.00     0.002 A 
ATOM    100  C   UNL A   1      39.812  33.039  36.795  1.00  0.00     0.091 A 
ATOM    101  F   UNL A   1      37.936  31.606  36.613  1.00  0.00    -0.205 F 
ATOM    102  C   UNL A   1      40.968  33.584  36.225  1.00  0.00     0.022 A 
BRANCH 100 103
ATOM    103  S   UNL A   1      39.432  33.555  38.481  1.00  0.00     0.127 S 
ATOM    104  O   UNL A   1      39.548  32.304  39.232  1.00  0.00    -0.237 OA
ATOM    105  O   UNL A   1      40.494  34.520  38.763  1.00  0.00    -0.237 OA
ATOM    106  O   UNL A   1      38.089  34.116  38.445  1.00  0.00    -0.744 OA
ENDBRANCH 100 103
ENDBRANCH  73  96
ENDBRANCH  47  48
ENDBRANCH  40  42
ENDBRANCH  39  40
ENDBRANCH  38  39
ENDBRANCH  37  38
ENDBRANCH  36  37
ENDBRANCH  35  36
ENDBRANCH  34  35
ENDBRANCH  33  34
ENDBRANCH   1  33
TORSDOF 29
ENDMDL
MODEL 2
REMARK VINA RESULT:      -8.9      5.478     11.642
REMARK SMILES COc1ccc(-c2ccc(CCC(=O)OCCOCCOCCOCCOC(=O)c3ccc(-c4c5nc(c(-c6cccc(S(=O)(=O)[O-])c6F)c6ccc([nH]6)c(-c6cccc(S(=O)(=O)[O-])c6F)c6nc(c(-c7cccc(S(=O)(=O)[O-])c7F)c7ccc4[nH]7)C=C6)C=C5)cc3)n2-c2ccc(C(C)=O)cc2)cc1
REMARK SMILES IDX 20 1 19 2 18 3 17 4 16 5 15 6 13 7 14 8 12 9 11 10 10 11
REMARK SMILES IDX 7 12 8 13 93 14 9 15 6 16 3 17 4 18 104 19 5 20 103 21 2 22
REMARK SMILES IDX 1 23 94 24 95 25 102 26 96 27 101 28 97 29 98 30 99 31
REMARK SMILES IDX 100 32 21 33 22 34 23 35 24 36 25 37 26 38 27 39 28 40 29 41
REMARK SMILES IDX 30 42 31 43 92 44 32 45 91 46 33 47 34 48 35 49 85 50 36 51
REMARK SMILES IDX 90 52 84 53 86 54 37 55 89 56 83 57 82 58 38 60 70 61 50 62
REMARK SMILES IDX 69 63 51 64 54 65 68 66 87 67 52 68 53 69 67 71 88 72 55 73
REMARK SMILES IDX 39 74 40 75 48 76 41 77 43 78 49 79 42 80 44 81 45 82 46 83
REMARK SMILES IDX 47 84 71 85 72 86 80 87 73 88 75 89 81 90 74 91 76 92 77 93
REMARK SMILES IDX 78 94 79 95 56 96 57 97 65 98 58 99 60 100 66 101 59 102
REMARK SMILES IDX 61 103 62 104 63 105 64 106
REMARK H PARENT 86 59 54 70
REMARK Flexibility Score: inf
ROOT
ATOM      1  C   UNL A   1      45.681  28.649  26.655  1.00  0.00     0.188 C 
ENDROOT
BRANCH   1   2
ATOM      2  C   UNL A   1      46.600  29.727  26.068  1.00  0.00     0.188 C 
BRANCH   2   3
ATOM      3  O   UNL A   1      46.044  30.908  25.516  1.00  0.00    -0.376 OA
BRANCH   3   4
ATOM      4  C   UNL A   1      45.294  31.780  26.347  1.00  0.00     0.202 C 
BRANCH   4   5
ATOM      5  C   UNL A   1      45.216  33.264  25.989  1.00  0.00     0.261 C 
BRANCH   5   6
ATOM      6  O   UNL A   1      43.870  33.769  25.922  1.00  0.00    -0.463 OA
BRANCH   6   7
ATOM      7  C   UNL A   1      43.481  34.585  26.928  1.00  0.00     0.306 C 
ATOM      8  O   UNL A   1      43.670  34.347  28.118  1.00  0.00    -0.252 OA
BRANCH   7   9
ATOM      9  C   UNL A   1      42.649  35.768  26.487  1.00  0.00     0.129 C 
BRANCH   9  10
ATOM     10  C   UNL A   1      42.277  36.871  27.476  1.00  0.00     0.066 C 
BRANCH  10  11
ATOM     11  C   UNL A   1      42.801  38.236  27.116  1.00  0.00     0.024 A 
ATOM     12  C   UNL A   1      44.175  40.027  27.224  1.00  0.00     0.053 A 
ATOM     13  C   UNL A   1      42.998  40.428  26.618  1.00  0.00     0.029 A 
ATOM     14  N   UNL A   1      44.117  38.644  27.342  1.00  0.00    -0.314 N 
ATOM     15  C   UNL A   1      42.152  39.310  26.539  1.00  0.00     0.024 A 
BRANCH  12  16
ATOM     16  C   UNL A   1      45.296  40.879  27.594  1.00  0.00    -0.001 A 
ATOM     17  C   UNL A   1      47.468  42.531  28.199  1.00  0.00     0.118 A 
ATOM     18  C   UNL A   1      46.568  42.160  29.201  1.00  0.00     0.047 A 
ATOM     19  C   UNL A   1      47.322  42.022  26.910  1.00  0.00     0.047 A 
ATOM     20  C   UNL A   1      45.478  41.341  28.898  1.00  0.00     0.014 A 
ATOM     21  C   UNL A   1      46.239  41.200  26.610  1.00  0.00     0.014 A 
BRANCH  17  22
ATOM     22  O   UNL A   1      48.487  43.361  28.577  1.00  0.00    -0.497 OA
ATOM     23  C   UNL A   1      48.261  44.731  28.266  1.00  0.00     0.278 C 
ENDBRANCH  17  22
ENDBRANCH  12  16
BRANCH  14  24
ATOM     24  C   UNL A   1      45.181  37.766  27.665  1.00  0.00     0.046 A 
ATOM     25  C   UNL A   1      45.988  37.287  26.626  1.00  0.00     0.027 A 
ATOM     26  C   UNL A   1      45.367  37.327  28.973  1.00  0.00     0.027 A 
ATOM     27  C   UNL A   1      46.965  36.324  26.888  1.00  0.00     0.014 A 
ATOM     28  C   UNL A   1      46.328  36.344  29.224  1.00  0.00     0.014 A 
ATOM     29  C   UNL A   1      47.125  35.825  28.185  1.00  0.00     0.017 A 
BRANCH  29  30
ATOM     30  C   UNL A   1      48.075  34.720  28.521  1.00  0.00     0.159 C 
ATOM     31  C   UNL A   1      48.201  34.205  29.932  1.00  0.00     0.093 C 
ATOM     32  O   UNL A   1      48.759  34.222  27.624  1.00  0.00    -0.295 OA
ENDBRANCH  29  30
ENDBRANCH  14  24
ENDBRANCH  10  11
ENDBRANCH   9  10
ENDBRANCH   7   9
ENDBRANCH   6   7
ENDBRANCH   5   6
ENDBRANCH   4   5
ENDBRANCH   3   4
ENDBRANCH   2   3
ENDBRANCH   1   2
BRANCH   1  33
ATOM     33  O   UNL A   1      45.313  27.526  25.893  1.00  0.00    -0.377 OA
BRANCH  33  34
ATOM     34  C   UNL A   1      46.189  26.934  24.956  1.00  0.00     0.188 C 
BRANCH  34  35
ATOM     35  C   UNL A   1      46.587  25.454  25.025  1.00  0.00     0.188 C 
BRANCH  35  36
ATOM     36  O   UNL A   1      45.592  24.520  24.629  1.00  0.00    -0.376 OA
BRANCH  36  37
ATOM     37  C   UNL A   1      45.926  23.146  24.761  1.00  0.00     0.202 C 
BRANCH  37  38
ATOM     38  C   UNL A   1      44.735  22.198  24.577  1.00  0.00     0.261 C 
BRANCH  38  39
ATOM     39  O   UNL A   1      44.356  21.467  25.742  1.00  0.00    -0.460 OA
BRANCH  39  40
ATOM     40  C   UNL A   1      43.025  21.316  25.881  1.00  0.00     0.338 C 
ATOM     41  O   UNL A   1      42.325  20.426  25.437  1.00  0.00    -0.246 OA
BRANCH  40  42
ATOM     42  C   UNL A   1      42.450  22.439  26.608  1.00  0.00     0.060 A 
ATOM     43  C   UNL A   1      42.375  23.651  25.914  1.00  0.00     0.016 A 
ATOM     44  C   UNL A   1      42.459  22.355  27.999  1.00  0.00     0.016 A 
ATOM     45  C   UNL A   1      42.517  24.822  26.627  1.00  0.00     0.010 A 
ATOM     46  C   UNL A   1      42.654  23.522  28.701  1.00  0.00     0.010 A 
ATOM     47  C   UNL A   1      42.757  24.734  28.003  1.00  0.00    -0.014 A 
BRANCH  47  48
ATOM     48  C   UNL A   1      43.208  25.933  28.721  1.00  0.00     0.031 A 
ATOM     49  C   UNL A   1      42.064  26.877  29.044  1.00  0.00     0.074 A 
ATOM     50  C   UNL A   1      44.553  25.996  28.966  1.00  0.00     0.049 A 
ATOM     51  N   UNL A   1      42.091  28.160  29.237  1.00  0.00    -0.248 NA
ATOM     52  C   UNL A   1      40.672  26.351  29.037  1.00  0.00     0.031 C 
ATOM     53  C   UNL A   1      45.525  24.963  28.537  1.00  0.00     0.029 A 
ATOM     54  N   UNL A   1      45.379  26.895  29.610  1.00  0.00    -0.354 N 
ATOM     55  C   UNL A   1      40.785  28.525  29.615  1.00  0.00     0.074 A 
ATOM     56  C   UNL A   1      39.929  27.423  29.309  1.00  0.00     0.031 C 
ATOM     57  C   UNL A   1      46.781  25.313  28.876  1.00  0.00     0.029 A 
ATOM     58  C   UNL A   1      46.758  26.572  29.595  1.00  0.00     0.049 A 
ATOM     59  H   UNL A   1      45.033  27.705  30.050  1.00  0.00     0.167 HD
ATOM     60  C   UNL A   1      40.504  29.648  30.329  1.00  0.00     0.034 A 
ATOM     61  C   UNL A   1      47.821  27.263  30.112  1.00  0.00     0.034 A 
ATOM     62  C   UNL A   1      41.704  30.348  30.654  1.00  0.00     0.049 A 
ATOM     63  C   UNL A   1      47.250  28.371  30.892  1.00  0.00     0.074 A 
ATOM     64  C   UNL A   1      42.538  31.172  29.950  1.00  0.00     0.029 A 
ATOM     65  N   UNL A   1      42.330  29.939  31.808  1.00  0.00    -0.354 N 
ATOM     66  N   UNL A   1      46.638  28.227  32.030  1.00  0.00    -0.248 NA
ATOM     67  C   UNL A   1      47.276  29.731  30.340  1.00  0.00     0.031 C 
ATOM     68  C   UNL A   1      43.800  31.010  30.565  1.00  0.00     0.029 A 
ATOM     69  C   UNL A   1      43.680  30.136  31.652  1.00  0.00     0.049 A 
ATOM     70  H   UNL A   1      41.889  29.569  32.607  1.00  0.00     0.167 HD
ATOM     71  C   UNL A   1      45.900  29.383  32.117  1.00  0.00     0.074 A 
ATOM     72  C   UNL A   1      46.560  30.350  31.274  1.00  0.00     0.031 C 
ATOM     73  C   UNL A   1      44.579  29.304  32.424  1.00  0.00     0.034 A 
BRANCH  60  74
ATOM     74  C   UNL A   1      39.240  30.113  30.990  1.00  0.00     0.023 A 
ATOM     75  C   UNL A   1      38.857  29.386  32.147  1.00  0.00     0.012 A 
ATOM     76  C   UNL A   1      38.300  30.996  30.431  1.00  0.00     0.148 A 
ATOM     77  C   UNL A   1      37.574  29.467  32.682  1.00  0.00     0.002 A 
ATOM     78  C   UNL A   1      37.030  31.111  31.003  1.00  0.00     0.091 A 
ATOM     79  F   UNL A   1      38.590  31.646  29.298  1.00  0.00    -0.205 F 
ATOM     80  C   UNL A   1      36.657  30.329  32.105  1.00  0.00     0.022 A 
BRANCH  78  81
ATOM     81  S   UNL A   1      35.805  32.264  30.368  1.00  0.00     0.127 S 
ATOM     82  O   UNL A   1      34.775  32.218  31.400  1.00  0.00    -0.237 OA
ATOM     83  O   UNL A   1      36.556  33.522  30.319  1.00  0.00    -0.237 OA
ATOM     84  O   UNL A   1      35.448  31.744  29.054  1.00  0.00    -0.744 OA
ENDBRANCH  78  81
ENDBRANCH  60  74
BRANCH  61  85
ATOM     85  C   UNL A   1      49.330  27.188  30.013  1.00  0.00     0.023 A 
ATOM     86  C   UNL A   1      50.189  27.132  31.121  1.00  0.00     0.012 A 
ATOM     87  C   UNL A   1      49.960  27.064  28.739  1.00  0.00     0.148 A 
ATOM     88  C   UNL A   1      51.566  26.868  30.978  1.00  0.00     0.002 A 
ATOM     89  C   UNL A   1      51.294  26.694  28.602  1.00  0.00     0.091 A 
ATOM     90  F   UNL A   1      49.268  27.333  27.627  1.00  0.00    -0.205 F 
ATOM     91  C   UNL A   1      52.110  26.604  29.726  1.00  0.00     0.022 A 
BRANCH  89  92
ATOM     92  S   UNL A   1      51.980  26.167  27.020  1.00  0.00     0.127 S 
ATOM     93  O   UNL A   1      51.390  24.841  26.853  1.00  0.00    -0.237 OA
ATOM     94  O   UNL A   1      51.452  27.191  26.117  1.00  0.00    -0.237 OA
ATOM     95  O   UNL A   1      53.428  26.190  27.172  1.00  0.00    -0.744 OA
ENDBRANCH  89  92
ENDBRANCH  61  85
BRANCH  73  96
ATOM     96  C   UNL A   1      44.213  28.070  33.249  1.00  0.00     0.023 A 
ATOM     97  C   UNL A   1      44.357  26.810  32.631  1.00  0.00     0.012 A 
ATOM     98  C   UNL A   1      43.611  28.098  34.527  1.00  0.00     0.148 A 
ATOM     99  C   UNL A   1      43.902  25.637  33.241  1.00  0.00     0.002 A 
ATOM    100  C   UNL A   1      43.153  26.926  35.137  1.00  0.00     0.091 A 
ATOM    101  F   UNL A   1      43.460  29.274  35.132  1.00  0.00    -0.205 F 
ATOM    102  C   UNL A   1      43.302  25.693  34.493  1.00  0.00     0.022 A 
BRANCH 100 103
ATOM    103  S   UNL A   1      42.337  26.894  36.746  1.00  0.00     0.127 S 
ATOM    104  O   UNL A   1      41.279  27.893  36.587  1.00  0.00    -0.237 OA
ATOM    105  O   UNL A   1      41.850  25.518  36.826  1.00  0.00    -0.237 OA
ATOM    106  O   UNL A   1      43.354  27.242  37.728  1.00  0.00    -0.744 OA
ENDBRANCH 100 103
ENDBRANCH  73  96
ENDBRANCH  47  48
ENDBRANCH  40  42
ENDBRANCH  39  40
ENDBRANCH  38  39
ENDBRANCH  37  38
ENDBRANCH  36  37
ENDBRANCH  35  36
ENDBRANCH  34  35
ENDBRANCH  33  34
ENDBRANCH   1  33
TORSDOF 29
ENDMDL
MODEL 3
REMARK VINA RESULT:      -8.6      8.012     14.733
REMARK SMILES COc1ccc(-c2ccc(CCC(=O)OCCOCCOCCOCCOC(=O)c3ccc(-c4c5nc(c(-c6cccc(S(=O)(=O)[O-])c6F)c6ccc([nH]6)c(-c6cccc(S(=O)(=O)[O-])c6F)c6nc(c(-c7cccc(S(=O)(=O)[O-])c7F)c7ccc4[nH]7)C=C6)C=C5)cc3)n2-c2ccc(C(C)=O)cc2)cc1
REMARK SMILES IDX 20 1 19 2 18 3 17 4 16 5 15 6 13 7 14 8 12 9 11 10 10 11
REMARK SMILES IDX 7 12 8 13 93 14 9 15 6 16 3 17 4 18 104 19 5 20 103 21 2 22
REMARK SMILES IDX 1 23 94 24 95 25 102 26 96 27 101 28 97 29 98 30 99 31
REMARK SMILES IDX 100 32 21 33 22 34 23 35 24 36 25 37 26 38 27 39 28 40 29 41
REMARK SMILES IDX 30 42 31 43 92 44 32 45 91 46 33 47 34 48 35 49 85 50 36 51
REMARK SMILES IDX 90 52 84 53 86 54 37 55 89 56 83 57 82 58 38 60 70 61 50 62
REMARK SMILES IDX 69 63 51 64 54 65 68 66 87 67 52 68 53 69 67 71 88 72 55 73
REMARK SMILES IDX 39 74 40 75 48 76 41 77 43 78 49 79 42 80 44 81 45 82 46 83
REMARK SMILES IDX 47 84 71 85 72 86 80 87 73 88 75 89 81 90 74 91 76 92 77 93
REMARK SMILES IDX 78 94 79 95 56 96 57 97 65 98 58 99 60 100 66 101 59 102
REMARK SMILES IDX 61 103 62 104 63 105 64 106
REMARK H PARENT 86 59 54 70
REMARK Flexibility Score: inf
ROOT
ATOM      1  C   UNL A   1      47.341  32.484  36.763  1.00  0.00     0.188 C 
ENDROOT
BRANCH   1   2
ATOM      2  C   UNL A   1      46.771  33.884  37.019  1.00  0.00     0.188 C 
BRANCH   2   3
ATOM      3  O   UNL A   1      46.019  34.539  36.013  1.00  0.00    -0.376 OA
BRANCH   3   4
ATOM      4  C   UNL A   1      45.784  35.935  36.116  1.00  0.00     0.202 C 
BRANCH   4   5
ATOM      5  C   UNL A   1      44.542  36.530  35.453  1.00  0.00     0.261 C 
BRANCH   5   6
ATOM      6  O   UNL A   1      44.637  36.606  34.019  1.00  0.00    -0.463 OA
BRANCH   6   7
ATOM      7  C   UNL A   1      44.082  35.587  33.323  1.00  0.00     0.306 C 
ATOM      8  O   UNL A   1      44.712  34.626  32.891  1.00  0.00    -0.252 OA
BRANCH   7   9
ATOM      9  C   UNL A   1      42.622  35.787  32.980  1.00  0.00     0.129 C 
BRANCH   9  10
ATOM     10  C   UNL A   1      41.572  34.772  33.427  1.00  0.00     0.066 C 
BRANCH  10  11
ATOM     11  C   UNL A   1      41.011  35.018  34.803  1.00  0.00     0.024 A 
ATOM     12  C   UNL A   1      39.815  34.570  36.668  1.00  0.00     0.053 A 
ATOM     13  C   UNL A   1      40.050  35.933  36.629  1.00  0.00     0.029 A 
ATOM     14  N   UNL A   1      40.575  34.000  35.654  1.00  0.00    -0.314 N 
ATOM     15  C   UNL A   1      40.806  36.206  35.478  1.00  0.00     0.024 A 
BRANCH  12  16
ATOM     16  C   UNL A   1      38.993  33.857  37.635  1.00  0.00    -0.001 A 
ATOM     17  C   UNL A   1      37.345  32.467  39.414  1.00  0.00     0.118 A 
ATOM     18  C   UNL A   1      38.650  32.802  39.782  1.00  0.00     0.047 A 
ATOM     19  C   UNL A   1      36.841  32.886  38.185  1.00  0.00     0.047 A 
ATOM     20  C   UNL A   1      39.478  33.489  38.892  1.00  0.00     0.014 A 
ATOM     21  C   UNL A   1      37.663  33.577  37.299  1.00  0.00     0.014 A 
BRANCH  17  22
ATOM     22  O   UNL A   1      36.616  31.765  40.334  1.00  0.00    -0.497 OA
ATOM     23  C   UNL A   1      37.409  31.018  41.249  1.00  0.00     0.278 C 
ENDBRANCH  17  22
ENDBRANCH  12  16
BRANCH  14  24
ATOM     24  C   UNL A   1      40.857  32.625  35.464  1.00  0.00     0.046 A 
ATOM     25  C   UNL A   1      39.909  31.835  34.802  1.00  0.00     0.027 A 
ATOM     26  C   UNL A   1      42.012  32.057  35.996  1.00  0.00     0.027 A 
ATOM     27  C   UNL A   1      40.094  30.455  34.707  1.00  0.00     0.014 A 
ATOM     28  C   UNL A   1      42.178  30.672  35.920  1.00  0.00     0.014 A 
ATOM     29  C   UNL A   1      41.218  29.858  35.288  1.00  0.00     0.017 A 
BRANCH  29  30
ATOM     30  C   UNL A   1      41.430  28.378  35.320  1.00  0.00     0.159 C 
ATOM     31  C   UNL A   1      42.234  27.730  36.418  1.00  0.00     0.093 C 
ATOM     32  O   UNL A   1      40.931  27.680  34.433  1.00  0.00    -0.295 OA
ENDBRANCH  29  30
ENDBRANCH  14  24
ENDBRANCH  10  11
ENDBRANCH   9  10
ENDBRANCH   7   9
ENDBRANCH   6   7
ENDBRANCH   5   6
ENDBRANCH   4   5
ENDBRANCH   3   4
ENDBRANCH   2   3
ENDBRANCH   1   2
BRANCH   1  33
ATOM     33  O   UNL A   1      47.797  31.688  37.829  1.00  0.00    -0.377 OA
BRANCH  33  34
ATOM     34  C   UNL A   1      48.395  30.425  37.621  1.00  0.00     0.188 C 
BRANCH  34  35
ATOM     35  C   UNL A   1      49.004  29.606  38.766  1.00  0.00     0.188 C 
BRANCH  35  36
ATOM     36  O   UNL A   1      48.914  28.193  38.640  1.00  0.00    -0.376 OA
BRANCH  36  37
ATOM     37  C   UNL A   1      48.601  27.692  37.348  1.00  0.00     0.202 C 
BRANCH  37  38
ATOM     38  C   UNL A   1      48.310  26.188  37.321  1.00  0.00     0.261 C 
BRANCH  38  39
ATOM     39  O   UNL A   1      46.929  25.836  37.399  1.00  0.00    -0.460 OA
BRANCH  39  40
ATOM     40  C   UNL A   1      46.126  26.610  36.643  1.00  0.00     0.338 C 
ATOM     41  O   UNL A   1      45.642  27.688  36.931  1.00  0.00    -0.246 OA
BRANCH  40  42
ATOM     42  C   UNL A   1      45.813  25.952  35.383  1.00  0.00     0.060 A 
ATOM     43  C   UNL A   1      46.564  26.354  34.272  1.00  0.00     0.016 A 
ATOM     44  C   UNL A   1      44.556  25.360  35.280  1.00  0.00     0.016 A 
ATOM     45  C   UNL A   1      45.954  26.350  33.036  1.00  0.00     0.010 A 
ATOM     46  C   UNL A   1      43.933  25.408  34.054  1.00  0.00     0.010 A 
ATOM     47  C   UNL A   1      44.610  25.971  32.963  1.00  0.00    -0.014 A 
BRANCH  47  48
ATOM     48  C   UNL A   1      43.864  26.245  31.727  1.00  0.00     0.031 A 
ATOM     49  C   UNL A   1      43.337  27.667  31.673  1.00  0.00     0.074 A 
ATOM     50  C   UNL A   1      43.770  25.193  30.857  1.00  0.00     0.049 A 
ATOM     51  N   UNL A   1      42.315  28.138  31.027  1.00  0.00    -0.248 NA
ATOM     52  C   UNL A   1      43.954  28.698  32.552  1.00  0.00     0.031 C 
ATOM     53  C   UNL A   1      44.343  23.850  31.111  1.00  0.00     0.029 A 
ATOM     54  N   UNL A   1      43.204  25.015  29.610  1.00  0.00    -0.354 N 
ATOM     55  C   UNL A   1      42.335  29.531  31.226  1.00  0.00     0.074 A 
ATOM     56  C   UNL A   1      43.244  29.795  32.296  1.00  0.00     0.031 C 
ATOM     57  C   UNL A   1      44.055  23.004  30.102  1.00  0.00     0.029 A 
ATOM     58  C   UNL A   1      43.315  23.709  29.073  1.00  0.00     0.049 A 
ATOM     59  H   UNL A   1      42.756  25.747  29.127  1.00  0.00     0.167 HD
ATOM     60  C   UNL A   1      41.740  30.412  30.378  1.00  0.00     0.034 A 
ATOM     61  C   UNL A   1      42.840  23.210  27.890  1.00  0.00     0.034 A 
ATOM     62  C   UNL A   1      41.149  29.725  29.276  1.00  0.00     0.049 A 
ATOM     63  C   UNL A   1      42.324  24.362  27.135  1.00  0.00     0.074 A 
ATOM     64  C   UNL A   1      39.995  29.008  29.118  1.00  0.00     0.029 A 
ATOM     65  N   UNL A   1      41.988  29.483  28.214  1.00  0.00    -0.354 N 
ATOM     66  N   UNL A   1      43.072  25.273  26.589  1.00  0.00    -0.248 NA
ATOM     67  C   UNL A   1      40.875  24.578  27.050  1.00  0.00     0.031 C 
ATOM     68  C   UNL A   1      40.285  28.093  28.081  1.00  0.00     0.029 A 
ATOM     69  C   UNL A   1      41.582  28.320  27.607  1.00  0.00     0.049 A 
ATOM     70  H   UNL A   1      42.747  30.045  27.936  1.00  0.00     0.167 HD
ATOM     71  C   UNL A   1      42.199  26.325  26.444  1.00  0.00     0.074 A 
ATOM     72  C   UNL A   1      40.874  25.753  26.428  1.00  0.00     0.031 C 
ATOM     73  C   UNL A   1      42.571  27.559  26.873  1.00  0.00     0.034 A 
BRANCH  60  74
ATOM     74  C   UNL A   1      41.806  31.908  30.295  1.00  0.00     0.023 A 
ATOM     75  C   UNL A   1      40.580  32.585  30.530  1.00  0.00     0.012 A 
ATOM     76  C   UNL A   1      42.872  32.654  29.762  1.00  0.00     0.148 A 
ATOM     77  C   UNL A   1      40.391  33.919  30.179  1.00  0.00     0.002 A 
ATOM     78  C   UNL A   1      42.692  34.006  29.460  1.00  0.00     0.091 A 
ATOM     79  F   UNL A   1      44.022  32.042  29.456  1.00  0.00    -0.205 F 
ATOM     80  C   UNL A   1      41.449  34.629  29.638  1.00  0.00     0.022 A 
BRANCH  78  81
ATOM     81  S   UNL A   1      44.032  35.023  28.830  1.00  0.00     0.127 S 
ATOM     82  O   UNL A   1      44.197  34.512  27.473  1.00  0.00    -0.237 OA
ATOM     83  O   UNL A   1      43.462  36.372  28.901  1.00  0.00    -0.237 OA
ATOM     84  O   UNL A   1      45.136  34.806  29.756  1.00  0.00    -0.744 OA
ENDBRANCH  78  81
ENDBRANCH  60  74
BRANCH  61  85
ATOM     85  C   UNL A   1      42.679  21.841  27.264  1.00  0.00     0.023 A 
ATOM     86  C   UNL A   1      41.515  21.063  27.362  1.00  0.00     0.012 A 
ATOM     87  C   UNL A   1      43.707  21.307  26.431  1.00  0.00     0.148 A 
ATOM     88  C   UNL A   1      41.344  19.888  26.604  1.00  0.00     0.002 A 
ATOM     89  C   UNL A   1      43.497  20.211  25.600  1.00  0.00     0.091 A 
ATOM     90  F   UNL A   1      44.929  21.850  26.454  1.00  0.00    -0.205 F 
ATOM     91  C   UNL A   1      42.313  19.487  25.690  1.00  0.00     0.022 A 
BRANCH  89  92
ATOM     92  S   UNL A   1      44.650  19.780  24.282  1.00  0.00     0.127 S 
ATOM     93  O   UNL A   1      44.620  20.973  23.441  1.00  0.00    -0.237 OA
ATOM     94  O   UNL A   1      45.892  19.587  25.032  1.00  0.00    -0.237 OA
ATOM     95  O   UNL A   1      44.130  18.568  23.663  1.00  0.00    -0.744 OA
ENDBRANCH  89  92
ENDBRANCH  61  85
BRANCH  73  96
ATOM     96  C   UNL A   1      44.084  27.782  26.861  1.00  0.00     0.023 A 
ATOM     97  C   UNL A   1      44.674  28.295  28.036  1.00  0.00     0.012 A 
ATOM     98  C   UNL A   1      44.915  27.649  25.726  1.00  0.00     0.148 A 
ATOM     99  C   UNL A   1      46.017  28.681  28.074  1.00  0.00     0.002 A 
ATOM    100  C   UNL A   1      46.257  28.038  25.762  1.00  0.00     0.091 A 
ATOM    101  F   UNL A   1      44.383  27.171  24.603  1.00  0.00    -0.205 F 
ATOM    102  C   UNL A   1      46.810  28.553  26.940  1.00  0.00     0.022 A 
BRANCH 100 103
ATOM    103  S   UNL A   1      47.362  27.937  24.339  1.00  0.00     0.127 S 
ATOM    104  O   UNL A   1      46.782  28.912  23.414  1.00  0.00    -0.237 OA
ATOM    105  O   UNL A   1      48.646  28.344  24.906  1.00  0.00    -0.237 OA
ATOM    106  O   UNL A   1      47.307  26.557  23.875  1.00  0.00    -0.744 OA
ENDBRANCH 100 103
ENDBRANCH  73  96
ENDBRANCH  47  48
ENDBRANCH  40  42
ENDBRANCH  39  40
ENDBRANCH  38  39
ENDBRANCH  37  38
ENDBRANCH  36  37
ENDBRANCH  35  36
ENDBRANCH  34  35
ENDBRANCH  33  34
ENDBRANCH   1  33
TORSDOF 29
ENDMDL
