MODEL 1
REMARK VINA RESULT:     -10.4      0.000      0.000
REMARK SMILES C[C@@H](C(=O)OCCOCCOCCOCCOC(=O)c1ccc(-c2c3nc(c(-c4cccc(S(=O)(=O)[O-])c4F)c4ccc([nH]4)c(-c4cccc(S(=O)(=O)[O-])c4F)c4nc(c(-c5cccc(S(=O)(=O)[O-])c5F)c5ccc2[nH]5)C=C4)C=C3)cc1)N1C(=O)/C(=C/c2nc3ccccc3[nH]2)SC1=S
REMARK SMILES IDX 12 1 11 2 10 3 9 4 8 5 7 6 6 7 5 8 3 9 4 10 2 11 1 12 83 13
REMARK SMILES IDX 84 14 98 15 85 16 86 17 97 18 99 19 87 20 88 21 89 22 96 23
REMARK SMILES IDX 90 24 95 25 91 27 94 28 92 29 93 30 13 31 14 32 15 33 16 34
REMARK SMILES IDX 17 35 18 36 19 37 20 38 21 39 82 40 22 41 81 42 23 43 24 44
REMARK SMILES IDX 25 45 75 46 26 47 80 48 74 49 76 50 27 51 79 52 73 53 72 54
REMARK SMILES IDX 28 56 60 57 40 58 59 59 41 60 44 61 58 62 77 63 42 64 43 65
REMARK SMILES IDX 57 67 78 68 45 69 29 70 30 71 38 72 31 73 33 74 39 75 32 76
REMARK SMILES IDX 34 77 35 78 36 79 37 80 61 81 62 82 70 83 63 84 65 85 71 86
REMARK SMILES IDX 64 87 66 88 67 89 68 90 69 91 46 92 47 93 55 94 48 95 50 96
REMARK SMILES IDX 56 97 49 98 51 99 52 100 53 101 54 102
REMARK H PARENT 96 26 76 55 44 66
REMARK Flexibility Score: inf
ROOT
ATOM      1  C   UNL A   1      37.991  20.645  25.048  1.00  0.00     0.188 C 
ENDROOT
BRANCH   1   2
ATOM      2  O   UNL A   1      36.912  21.565  24.868  1.00  0.00    -0.377 OA
BRANCH   2   3
ATOM      3  C   UNL A   1      37.215  22.865  24.401  1.00  0.00     0.188 C 
BRANCH   3   4
ATOM      4  C   UNL A   1      36.026  23.831  24.360  1.00  0.00     0.188 C 
BRANCH   4   5
ATOM      5  O   UNL A   1      34.965  23.399  23.535  1.00  0.00    -0.376 OA
BRANCH   5   6
ATOM      6  C   UNL A   1      34.294  24.357  22.729  1.00  0.00     0.202 C 
BRANCH   6   7
ATOM      7  C   UNL A   1      33.588  25.606  23.300  1.00  0.00     0.261 C 
BRANCH   7   8
ATOM      8  O   UNL A   1      34.154  26.185  24.483  1.00  0.00    -0.462 OA
BRANCH   8   9
ATOM      9  C   UNL A   1      33.350  26.630  25.482  1.00  0.00     0.329 C 
ATOM     10  O   UNL A   1      33.633  27.539  26.251  1.00  0.00    -0.250 OA
BRANCH   9  11
ATOM     11  C   UNL A   1      31.994  25.873  25.496  1.00  0.00     0.199 C 
ATOM     12  C   UNL A   1      30.977  26.409  26.534  1.00  0.00     0.044 C 
BRANCH  11  13
ATOM     13  N   UNL A   1      32.031  24.377  25.465  1.00  0.00    -0.279 N 
ATOM     14  C   UNL A   1      32.867  23.629  26.283  1.00  0.00     0.267 C 
ATOM     15  C   UNL A   1      31.266  23.632  24.581  1.00  0.00     0.149 C 
ATOM     16  O   UNL A   1      33.758  24.027  27.016  1.00  0.00    -0.268 OA
ATOM     17  C   UNL A   1      32.663  22.174  26.081  1.00  0.00     0.084 C 
ATOM     18  S   UNL A   1      31.388  21.927  24.958  1.00  0.00    -0.054 SA
ATOM     19  S   UNL A   1      30.323  24.141  23.301  1.00  0.00    -0.052 S 
ATOM     20  C   UNL A   1      33.478  21.256  26.633  1.00  0.00     0.068 C 
BRANCH  20  21
ATOM     21  C   UNL A   1      33.548  19.967  26.060  1.00  0.00     0.132 A 
ATOM     22  N   UNL A   1      34.237  19.618  24.996  1.00  0.00    -0.229 NA
ATOM     23  N   UNL A   1      32.886  18.883  26.588  1.00  0.00    -0.338 N 
ATOM     24  C   UNL A   1      33.898  18.332  24.732  1.00  0.00     0.089 A 
ATOM     25  C   UNL A   1      33.056  17.827  25.715  1.00  0.00     0.066 A 
ATOM     26  H   UNL A   1      32.382  18.864  27.433  1.00  0.00     0.168 HD
ATOM     27  C   UNL A   1      34.271  17.546  23.640  1.00  0.00     0.030 A 
ATOM     28  C   UNL A   1      32.559  16.522  25.671  1.00  0.00     0.028 A 
ATOM     29  C   UNL A   1      33.767  16.248  23.557  1.00  0.00     0.002 A 
ATOM     30  C   UNL A   1      32.931  15.747  24.560  1.00  0.00     0.002 A 
ENDBRANCH  20  21
ENDBRANCH  11  13
ENDBRANCH   9  11
ENDBRANCH   8   9
ENDBRANCH   7   8
ENDBRANCH   6   7
ENDBRANCH   5   6
ENDBRANCH   4   5
ENDBRANCH   3   4
ENDBRANCH   2   3
ENDBRANCH   1   2
BRANCH   1  31
ATOM     31  C   UNL A   1      39.251  21.000  25.884  1.00  0.00     0.188 C 
BRANCH  31  32
ATOM     32  O   UNL A   1      40.237  19.983  25.980  1.00  0.00    -0.376 OA
BRANCH  32  33
ATOM     33  C   UNL A   1      41.417  20.253  26.720  1.00  0.00     0.202 C 
BRANCH  33  34
ATOM     34  C   UNL A   1      42.643  20.748  25.940  1.00  0.00     0.261 C 
BRANCH  34  35
ATOM     35  O   UNL A   1      43.246  21.960  26.415  1.00  0.00    -0.460 OA
BRANCH  35  36
ATOM     36  C   UNL A   1      43.183  23.045  25.617  1.00  0.00     0.338 C 
ATOM     37  O   UNL A   1      43.413  23.091  24.419  1.00  0.00    -0.246 OA
BRANCH  36  38
ATOM     38  C   UNL A   1      42.573  24.139  26.399  1.00  0.00     0.060 A 
ATOM     39  C   UNL A   1      43.153  25.416  26.351  1.00  0.00     0.016 A 
ATOM     40  C   UNL A   1      41.421  23.911  27.153  1.00  0.00     0.016 A 
ATOM     41  C   UNL A   1      42.603  26.459  27.090  1.00  0.00     0.010 A 
ATOM     42  C   UNL A   1      40.887  24.952  27.916  1.00  0.00     0.010 A 
ATOM     43  C   UNL A   1      41.500  26.218  27.917  1.00  0.00    -0.014 A 
BRANCH  43  44
ATOM     44  C   UNL A   1      41.129  27.216  28.947  1.00  0.00     0.031 A 
ATOM     45  C   UNL A   1      42.009  27.335  30.161  1.00  0.00     0.074 A 
ATOM     46  C   UNL A   1      40.047  28.001  28.809  1.00  0.00     0.049 A 
ATOM     47  N   UNL A   1      41.873  28.100  31.211  1.00  0.00    -0.248 NA
ATOM     48  C   UNL A   1      43.203  26.472  30.194  1.00  0.00     0.031 C 
ATOM     49  C   UNL A   1      39.134  27.992  27.668  1.00  0.00     0.029 A 
ATOM     50  N   UNL A   1      39.523  28.944  29.656  1.00  0.00    -0.354 N 
ATOM     51  C   UNL A   1      42.938  27.784  32.046  1.00  0.00     0.074 A 
ATOM     52  C   UNL A   1      43.709  26.755  31.383  1.00  0.00     0.031 C 
ATOM     53  C   UNL A   1      38.141  28.869  27.901  1.00  0.00     0.029 A 
ATOM     54  C   UNL A   1      38.334  29.477  29.217  1.00  0.00     0.049 A 
ATOM     55  H   UNL A   1      39.956  29.213  30.498  1.00  0.00     0.167 HD
ATOM     56  C   UNL A   1      43.252  28.308  33.253  1.00  0.00     0.034 A 
ATOM     57  C   UNL A   1      37.487  30.332  29.824  1.00  0.00     0.034 A 
ATOM     58  C   UNL A   1      42.490  29.338  33.903  1.00  0.00     0.049 A 
ATOM     59  C   UNL A   1      37.839  30.872  31.188  1.00  0.00     0.074 A 
ATOM     60  C   UNL A   1      42.750  29.971  35.104  1.00  0.00     0.029 A 
ATOM     61  N   UNL A   1      41.306  29.870  33.417  1.00  0.00    -0.354 N 
ATOM     62  N   UNL A   1      38.905  30.647  31.919  1.00  0.00    -0.248 NA
ATOM     63  C   UNL A   1      36.884  31.809  31.799  1.00  0.00     0.031 C 
ATOM     64  C   UNL A   1      41.699  30.853  35.368  1.00  0.00     0.029 A 
ATOM     65  C   UNL A   1      40.811  30.809  34.305  1.00  0.00     0.049 A 
ATOM     66  H   UNL A   1      40.879  29.617  32.566  1.00  0.00     0.167 HD
ATOM     67  C   UNL A   1      38.769  31.444  33.051  1.00  0.00     0.074 A 
ATOM     68  C   UNL A   1      37.525  32.169  32.902  1.00  0.00     0.031 C 
ATOM     69  C   UNL A   1      39.595  31.559  34.122  1.00  0.00     0.034 A 
BRANCH  56  70
ATOM     70  C   UNL A   1      44.473  27.771  33.952  1.00  0.00     0.023 A 
ATOM     71  C   UNL A   1      45.740  28.333  33.694  1.00  0.00     0.012 A 
ATOM     72  C   UNL A   1      44.355  26.733  34.897  1.00  0.00     0.148 A 
ATOM     73  C   UNL A   1      46.876  27.846  34.342  1.00  0.00     0.002 A 
ATOM     74  C   UNL A   1      45.483  26.289  35.574  1.00  0.00     0.091 A 
ATOM     75  F   UNL A   1      43.146  26.195  35.108  1.00  0.00    -0.205 F 
ATOM     76  C   UNL A   1      46.746  26.834  35.288  1.00  0.00     0.022 A 
BRANCH  74  77
ATOM     77  S   UNL A   1      45.407  25.047  36.869  1.00  0.00     0.127 S 
ATOM     78  O   UNL A   1      45.961  23.877  36.187  1.00  0.00    -0.237 OA
ATOM     79  O   UNL A   1      46.277  25.623  37.896  1.00  0.00    -0.237 OA
ATOM     80  O   UNL A   1      44.005  24.942  37.247  1.00  0.00    -0.744 OA
ENDBRANCH  74  77
ENDBRANCH  56  70
BRANCH  57  81
ATOM     81  C   UNL A   1      36.230  30.752  29.143  1.00  0.00     0.023 A 
ATOM     82  C   UNL A   1      35.348  29.774  28.643  1.00  0.00     0.012 A 
ATOM     83  C   UNL A   1      35.903  32.113  28.990  1.00  0.00     0.148 A 
ATOM     84  C   UNL A   1      34.181  30.144  27.973  1.00  0.00     0.002 A 
ATOM     85  C   UNL A   1      34.712  32.475  28.373  1.00  0.00     0.091 A 
ATOM     86  F   UNL A   1      36.763  33.028  29.460  1.00  0.00    -0.205 F 
ATOM     87  C   UNL A   1      33.859  31.494  27.846  1.00  0.00     0.022 A 
BRANCH  85  88
ATOM     88  S   UNL A   1      34.154  34.179  28.273  1.00  0.00     0.127 S 
ATOM     89  O   UNL A   1      34.471  34.677  29.608  1.00  0.00    -0.237 OA
ATOM     90  O   UNL A   1      34.998  34.706  27.200  1.00  0.00    -0.237 OA
ATOM     91  O   UNL A   1      32.735  34.112  27.946  1.00  0.00    -0.744 OA
ENDBRANCH  85  88
ENDBRANCH  57  81
BRANCH  69  92
ATOM     92  C   UNL A   1      39.218  32.545  35.198  1.00  0.00     0.023 A 
ATOM     93  C   UNL A   1      38.323  32.173  36.220  1.00  0.00     0.012 A 
ATOM     94  C   UNL A   1      39.819  33.820  35.238  1.00  0.00     0.148 A 
ATOM     95  C   UNL A   1      38.002  33.067  37.242  1.00  0.00     0.002 A 
ATOM     96  C   UNL A   1      39.538  34.684  36.288  1.00  0.00     0.091 A 
ATOM     97  F   UNL A   1      40.659  34.162  34.248  1.00  0.00    -0.205 F 
ATOM     98  C   UNL A   1      38.619  34.316  37.283  1.00  0.00     0.022 A 
BRANCH  96  99
ATOM     99  S   UNL A   1      40.360  36.271  36.479  1.00  0.00     0.127 S 
ATOM    100  O   UNL A   1      39.841  36.722  37.770  1.00  0.00    -0.237 OA
ATOM    101  O   UNL A   1      41.772  35.888  36.489  1.00  0.00    -0.237 OA
ATOM    102  O   UNL A   1      39.958  37.074  35.332  1.00  0.00    -0.744 OA
ENDBRANCH  96  99
ENDBRANCH  69  92
ENDBRANCH  43  44
ENDBRANCH  36  38
ENDBRANCH  35  36
ENDBRANCH  34  35
ENDBRANCH  33  34
ENDBRANCH  32  33
ENDBRANCH  31  32
ENDBRANCH   1  31
TORSDOF 25
ENDMDL
MODEL 2
REMARK VINA RESULT:     -10.0      5.521      8.652
REMARK SMILES C[C@@H](C(=O)OCCOCCOCCOCCOC(=O)c1ccc(-c2c3nc(c(-c4cccc(S(=O)(=O)[O-])c4F)c4ccc([nH]4)c(-c4cccc(S(=O)(=O)[O-])c4F)c4nc(c(-c5cccc(S(=O)(=O)[O-])c5F)c5ccc2[nH]5)C=C4)C=C3)cc1)N1C(=O)/C(=C/c2nc3ccccc3[nH]2)SC1=S
REMARK SMILES IDX 12 1 11 2 10 3 9 4 8 5 7 6 6 7 5 8 3 9 4 10 2 11 1 12 83 13
REMARK SMILES IDX 84 14 98 15 85 16 86 17 97 18 99 19 87 20 88 21 89 22 96 23
REMARK SMILES IDX 90 24 95 25 91 27 94 28 92 29 93 30 13 31 14 32 15 33 16 34
REMARK SMILES IDX 17 35 18 36 19 37 20 38 21 39 82 40 22 41 81 42 23 43 24 44
REMARK SMILES IDX 25 45 75 46 26 47 80 48 74 49 76 50 27 51 79 52 73 53 72 54
REMARK SMILES IDX 28 56 60 57 40 58 59 59 41 60 44 61 58 62 77 63 42 64 43 65
REMARK SMILES IDX 57 67 78 68 45 69 29 70 30 71 38 72 31 73 33 74 39 75 32 76
REMARK SMILES IDX 34 77 35 78 36 79 37 80 61 81 62 82 70 83 63 84 65 85 71 86
REMARK SMILES IDX 64 87 66 88 67 89 68 90 69 91 46 92 47 93 55 94 48 95 50 96
REMARK SMILES IDX 56 97 49 98 51 99 52 100 53 101 54 102
REMARK H PARENT 96 26 76 55 44 66
REMARK Flexibility Score: inf
ROOT
ATOM      1  C   UNL A   1      37.652  20.823  25.229  1.00  0.00     0.188 C 
ENDROOT
BRANCH   1   2
ATOM      2  O   UNL A   1      36.704  21.891  25.189  1.00  0.00    -0.377 OA
BRANCH   2   3
ATOM      3  C   UNL A   1      36.902  22.923  24.242  1.00  0.00     0.188 C 
BRANCH   3   4
ATOM      4  C   UNL A   1      35.731  23.902  24.097  1.00  0.00     0.188 C 
BRANCH   4   5
ATOM      5  O   UNL A   1      34.590  23.342  23.482  1.00  0.00    -0.376 OA
BRANCH   5   6
ATOM      6  C   UNL A   1      33.930  24.084  22.468  1.00  0.00     0.202 C 
BRANCH   6   7
ATOM      7  C   UNL A   1      33.675  25.605  22.552  1.00  0.00     0.261 C 
BRANCH   7   8
ATOM      8  O   UNL A   1      33.620  26.180  23.864  1.00  0.00    -0.462 OA
BRANCH   8   9
ATOM      9  C   UNL A   1      32.522  26.868  24.266  1.00  0.00     0.329 C 
ATOM     10  O   UNL A   1      32.165  27.943  23.803  1.00  0.00    -0.250 OA
BRANCH   9  11
ATOM     11  C   UNL A   1      31.738  26.092  25.360  1.00  0.00     0.199 C 
ATOM     12  C   UNL A   1      31.896  26.672  26.788  1.00  0.00     0.044 C 
BRANCH  11  13
ATOM     13  N   UNL A   1      31.818  24.598  25.348  1.00  0.00    -0.279 N 
ATOM     14  C   UNL A   1      32.673  23.885  26.178  1.00  0.00     0.267 C 
ATOM     15  C   UNL A   1      31.079  23.820  24.471  1.00  0.00     0.149 C 
ATOM     16  O   UNL A   1      33.550  24.317  26.908  1.00  0.00    -0.268 OA
ATOM     17  C   UNL A   1      32.512  22.422  25.993  1.00  0.00     0.084 C 
ATOM     18  S   UNL A   1      31.248  22.124  24.870  1.00  0.00    -0.054 SA
ATOM     19  S   UNL A   1      30.125  24.286  23.182  1.00  0.00    -0.052 S 
ATOM     20  C   UNL A   1      33.350  21.535  26.559  1.00  0.00     0.068 C 
BRANCH  20  21
ATOM     21  C   UNL A   1      33.460  20.241  26.002  1.00  0.00     0.132 A 
ATOM     22  N   UNL A   1      34.000  19.928  24.844  1.00  0.00    -0.229 NA
ATOM     23  N   UNL A   1      33.008  19.114  26.648  1.00  0.00    -0.338 N 
ATOM     24  C   UNL A   1      33.757  18.608  24.660  1.00  0.00     0.089 A 
ATOM     25  C   UNL A   1      33.142  18.053  25.776  1.00  0.00     0.066 A 
ATOM     26  H   UNL A   1      32.653  19.072  27.565  1.00  0.00     0.168 HD
ATOM     27  C   UNL A   1      34.027  17.827  23.534  1.00  0.00     0.030 A 
ATOM     28  C   UNL A   1      32.783  16.704  25.834  1.00  0.00     0.028 A 
ATOM     29  C   UNL A   1      33.654  16.484  23.555  1.00  0.00     0.002 A 
ATOM     30  C   UNL A   1      33.048  15.935  24.689  1.00  0.00     0.002 A 
ENDBRANCH  20  21
ENDBRANCH  11  13
ENDBRANCH   9  11
ENDBRANCH   8   9
ENDBRANCH   7   8
ENDBRANCH   6   7
ENDBRANCH   5   6
ENDBRANCH   4   5
ENDBRANCH   3   4
ENDBRANCH   2   3
ENDBRANCH   1   2
BRANCH   1  31
ATOM     31  C   UNL A   1      39.031  20.966  25.930  1.00  0.00     0.188 C 
BRANCH  31  32
ATOM     32  O   UNL A   1      39.905  19.853  25.809  1.00  0.00    -0.376 OA
BRANCH  32  33
ATOM     33  C   UNL A   1      41.219  19.965  26.332  1.00  0.00     0.202 C 
BRANCH  33  34
ATOM     34  C   UNL A   1      42.261  18.946  25.850  1.00  0.00     0.261 C 
BRANCH  34  35
ATOM     35  O   UNL A   1      43.633  19.351  25.952  1.00  0.00    -0.460 OA
BRANCH  35  36
ATOM     36  C   UNL A   1      44.130  20.133  24.971  1.00  0.00     0.338 C 
ATOM     37  O   UNL A   1      44.326  19.818  23.808  1.00  0.00    -0.246 OA
BRANCH  36  38
ATOM     38  C   UNL A   1      44.195  21.513  25.491  1.00  0.00     0.060 A 
ATOM     39  C   UNL A   1      44.046  22.585  24.598  1.00  0.00     0.016 A 
ATOM     40  C   UNL A   1      44.375  21.746  26.856  1.00  0.00     0.016 A 
ATOM     41  C   UNL A   1      44.115  23.894  25.064  1.00  0.00     0.010 A 
ATOM     42  C   UNL A   1      44.472  23.060  27.317  1.00  0.00     0.010 A 
ATOM     43  C   UNL A   1      44.383  24.137  26.417  1.00  0.00    -0.014 A 
BRANCH  43  44
ATOM     44  C   UNL A   1      44.793  25.494  26.846  1.00  0.00     0.031 A 
ATOM     45  C   UNL A   1      43.741  26.394  27.433  1.00  0.00     0.074 A 
ATOM     46  C   UNL A   1      46.063  25.917  26.725  1.00  0.00     0.049 A 
ATOM     47  N   UNL A   1      43.842  27.632  27.841  1.00  0.00    -0.248 NA
ATOM     48  C   UNL A   1      42.391  25.821  27.576  1.00  0.00     0.031 C 
ATOM     49  C   UNL A   1      47.172  25.128  26.193  1.00  0.00     0.029 A 
ATOM     50  N   UNL A   1      46.624  27.133  27.023  1.00  0.00    -0.354 N 
ATOM     51  C   UNL A   1      42.565  27.997  28.252  1.00  0.00     0.074 A 
ATOM     52  C   UNL A   1      41.705  26.854  28.040  1.00  0.00     0.031 C 
ATOM     53  C   UNL A   1      48.278  25.893  26.175  1.00  0.00     0.029 A 
ATOM     54  C   UNL A   1      47.947  27.231  26.665  1.00  0.00     0.049 A 
ATOM     55  H   UNL A   1      46.126  27.866  27.453  1.00  0.00     0.167 HD
ATOM     56  C   UNL A   1      42.147  29.175  28.768  1.00  0.00     0.034 A 
ATOM     57  C   UNL A   1      48.783  28.288  26.701  1.00  0.00     0.034 A 
ATOM     58  C   UNL A   1      43.007  30.305  28.987  1.00  0.00     0.049 A 
ATOM     59  C   UNL A   1      48.282  29.603  27.242  1.00  0.00     0.074 A 
ATOM     60  C   UNL A   1      42.692  31.528  29.549  1.00  0.00     0.029 A 
ATOM     61  N   UNL A   1      44.347  30.359  28.635  1.00  0.00    -0.354 N 
ATOM     62  N   UNL A   1      47.101  29.903  27.729  1.00  0.00    -0.248 NA
ATOM     63  C   UNL A   1      49.239  30.720  27.268  1.00  0.00     0.031 C 
ATOM     64  C   UNL A   1      43.829  32.339  29.494  1.00  0.00     0.029 A 
ATOM     65  C   UNL A   1      44.868  31.602  28.946  1.00  0.00     0.049 A 
ATOM     66  H   UNL A   1      44.853  29.621  28.222  1.00  0.00     0.167 HD
ATOM     67  C   UNL A   1      47.187  31.225  28.156  1.00  0.00     0.074 A 
ATOM     68  C   UNL A   1      48.539  31.663  27.884  1.00  0.00     0.031 C 
ATOM     69  C   UNL A   1      46.230  32.009  28.715  1.00  0.00     0.034 A 
BRANCH  56  70
ATOM     70  C   UNL A   1      40.690  29.303  29.127  1.00  0.00     0.023 A 
ATOM     71  C   UNL A   1      39.736  29.569  28.124  1.00  0.00     0.012 A 
ATOM     72  C   UNL A   1      40.264  29.118  30.456  1.00  0.00     0.148 A 
ATOM     73  C   UNL A   1      38.383  29.682  28.445  1.00  0.00     0.002 A 
ATOM     74  C   UNL A   1      38.910  29.182  30.759  1.00  0.00     0.091 A 
ATOM     75  F   UNL A   1      41.190  28.892  31.398  1.00  0.00    -0.205 F 
ATOM     76  C   UNL A   1      37.970  29.478  29.758  1.00  0.00     0.022 A 
BRANCH  74  77
ATOM     77  S   UNL A   1      38.271  28.854  32.405  1.00  0.00     0.127 S 
ATOM     78  O   UNL A   1      36.847  29.143  32.231  1.00  0.00    -0.237 OA
ATOM     79  O   UNL A   1      38.588  27.436  32.578  1.00  0.00    -0.237 OA
ATOM     80  O   UNL A   1      38.985  29.752  33.302  1.00  0.00    -0.744 OA
ENDBRANCH  74  77
ENDBRANCH  56  70
BRANCH  57  81
ATOM     81  C   UNL A   1      50.189  28.148  26.229  1.00  0.00     0.023 A 
ATOM     82  C   UNL A   1      51.231  28.020  27.168  1.00  0.00     0.012 A 
ATOM     83  C   UNL A   1      50.499  28.138  24.855  1.00  0.00     0.148 A 
ATOM     84  C   UNL A   1      52.558  27.921  26.750  1.00  0.00     0.002 A 
ATOM     85  C   UNL A   1      51.817  27.980  24.443  1.00  0.00     0.091 A 
ATOM     86  F   UNL A   1      49.495  28.275  23.978  1.00  0.00    -0.205 F 
ATOM     87  C   UNL A   1      52.850  27.891  25.388  1.00  0.00     0.022 A 
BRANCH  85  88
ATOM     88  S   UNL A   1      52.276  27.808  22.715  1.00  0.00     0.127 S 
ATOM     89  O   UNL A   1      52.162  29.183  22.237  1.00  0.00    -0.237 OA
ATOM     90  O   UNL A   1      53.645  27.301  22.820  1.00  0.00    -0.237 OA
ATOM     91  O   UNL A   1      51.325  26.862  22.146  1.00  0.00    -0.744 OA
ENDBRANCH  85  88
ENDBRANCH  57  81
BRANCH  69  92
ATOM     92  C   UNL A   1      46.617  33.406  29.127  1.00  0.00     0.023 A 
ATOM     93  C   UNL A   1      47.217  33.636  30.381  1.00  0.00     0.012 A 
ATOM     94  C   UNL A   1      46.457  34.483  28.232  1.00  0.00     0.148 A 
ATOM     95  C   UNL A   1      47.614  34.920  30.752  1.00  0.00     0.002 A 
ATOM     96  C   UNL A   1      46.906  35.749  28.585  1.00  0.00     0.091 A 
ATOM     97  F   UNL A   1      45.872  34.247  27.047  1.00  0.00    -0.205 F 
ATOM     98  C   UNL A   1      47.471  35.973  29.851  1.00  0.00     0.022 A 
BRANCH  96  99
ATOM     99  S   UNL A   1      46.856  37.142  27.452  1.00  0.00     0.127 S 
ATOM    100  O   UNL A   1      47.537  38.180  28.225  1.00  0.00    -0.237 OA
ATOM    101  O   UNL A   1      47.614  36.636  26.308  1.00  0.00    -0.237 OA
ATOM    102  O   UNL A   1      45.447  37.393  27.182  1.00  0.00    -0.744 OA
ENDBRANCH  96  99
ENDBRANCH  69  92
ENDBRANCH  43  44
ENDBRANCH  36  38
ENDBRANCH  35  36
ENDBRANCH  34  35
ENDBRANCH  33  34
ENDBRANCH  32  33
ENDBRANCH  31  32
ENDBRANCH   1  31
TORSDOF 25
ENDMDL
MODEL 3
REMARK VINA RESULT:      -9.6      4.515     10.924
REMARK SMILES C[C@@H](C(=O)OCCOCCOCCOCCOC(=O)c1ccc(-c2c3nc(c(-c4cccc(S(=O)(=O)[O-])c4F)c4ccc([nH]4)c(-c4cccc(S(=O)(=O)[O-])c4F)c4nc(c(-c5cccc(S(=O)(=O)[O-])c5F)c5ccc2[nH]5)C=C4)C=C3)cc1)N1C(=O)/C(=C/c2nc3ccccc3[nH]2)SC1=S
REMARK SMILES IDX 12 1 11 2 10 3 9 4 8 5 7 6 6 7 5 8 3 9 4 10 2 11 1 12 83 13
REMARK SMILES IDX 84 14 98 15 85 16 86 17 97 18 99 19 87 20 88 21 89 22 96 23
REMARK SMILES IDX 90 24 95 25 91 27 94 28 92 29 93 30 13 31 14 32 15 33 16 34
REMARK SMILES IDX 17 35 18 36 19 37 20 38 21 39 82 40 22 41 81 42 23 43 24 44
REMARK SMILES IDX 25 45 75 46 26 47 80 48 74 49 76 50 27 51 79 52 73 53 72 54
REMARK SMILES IDX 28 56 60 57 40 58 59 59 41 60 44 61 58 62 77 63 42 64 43 65
REMARK SMILES IDX 57 67 78 68 45 69 29 70 30 71 38 72 31 73 33 74 39 75 32 76
REMARK SMILES IDX 34 77 35 78 36 79 37 80 61 81 62 82 70 83 63 84 65 85 71 86
REMARK SMILES IDX 64 87 66 88 67 89 68 90 69 91 46 92 47 93 55 94 48 95 50 96
REMARK SMILES IDX 56 97 49 98 51 99 52 100 53 101 54 102
REMARK H PARENT 96 26 76 55 44 66
REMARK Flexibility Score: inf
ROOT
ATOM      1  C   UNL A   1      33.386  33.484  27.991  1.00  0.00     0.188 C 
ENDROOT
BRANCH   1   2
ATOM      2  O   UNL A   1      33.122  32.081  28.064  1.00  0.00    -0.377 OA
BRANCH   2   3
ATOM      3  C   UNL A   1      33.949  31.208  27.320  1.00  0.00     0.188 C 
BRANCH   3   4
ATOM      4  C   UNL A   1      33.235  29.983  26.735  1.00  0.00     0.188 C 
BRANCH   4   5
ATOM      5  O   UNL A   1      32.249  30.299  25.776  1.00  0.00    -0.376 OA
BRANCH   5   6
ATOM      6  C   UNL A   1      31.405  29.262  25.299  1.00  0.00     0.202 C 
BRANCH   6   7
ATOM      7  C   UNL A   1      31.863  27.795  25.140  1.00  0.00     0.261 C 
BRANCH   7   8
ATOM      8  O   UNL A   1      31.351  26.851  26.089  1.00  0.00    -0.462 OA
BRANCH   8   9
ATOM      9  C   UNL A   1      30.621  25.785  25.672  1.00  0.00     0.329 C 
ATOM     10  O   UNL A   1      29.605  25.379  26.220  1.00  0.00    -0.250 OA
BRANCH   9  11
ATOM     11  C   UNL A   1      31.210  25.171  24.372  1.00  0.00     0.199 C 
ATOM     12  C   UNL A   1      30.239  24.231  23.616  1.00  0.00     0.044 C 
BRANCH  11  13
ATOM     13  N   UNL A   1      32.599  24.616  24.431  1.00  0.00    -0.279 N 
ATOM     14  C   UNL A   1      33.027  23.769  25.444  1.00  0.00     0.267 C 
ATOM     15  C   UNL A   1      33.573  24.949  23.502  1.00  0.00     0.149 C 
ATOM     16  O   UNL A   1      32.440  23.462  26.469  1.00  0.00    -0.268 OA
ATOM     17  C   UNL A   1      34.428  23.332  25.229  1.00  0.00     0.084 C 
ATOM     18  S   UNL A   1      35.001  23.964  23.740  1.00  0.00    -0.054 SA
ATOM     19  S   UNL A   1      33.536  26.091  22.286  1.00  0.00    -0.052 S 
ATOM     20  C   UNL A   1      35.114  22.650  26.164  1.00  0.00     0.068 C 
BRANCH  20  21
ATOM     21  C   UNL A   1      36.527  22.668  26.129  1.00  0.00     0.132 A 
ATOM     22  N   UNL A   1      37.315  21.686  25.750  1.00  0.00    -0.229 NA
ATOM     23  N   UNL A   1      37.263  23.772  26.489  1.00  0.00    -0.338 N 
ATOM     24  C   UNL A   1      38.580  22.095  26.013  1.00  0.00     0.089 A 
ATOM     25  C   UNL A   1      38.594  23.407  26.472  1.00  0.00     0.066 A 
ATOM     26  H   UNL A   1      36.907  24.661  26.717  1.00  0.00     0.168 HD
ATOM     27  C   UNL A   1      39.766  21.368  25.896  1.00  0.00     0.030 A 
ATOM     28  C   UNL A   1      39.779  24.061  26.819  1.00  0.00     0.028 A 
ATOM     29  C   UNL A   1      40.960  21.988  26.261  1.00  0.00     0.002 A 
ATOM     30  C   UNL A   1      40.963  23.312  26.708  1.00  0.00     0.002 A 
ENDBRANCH  20  21
ENDBRANCH  11  13
ENDBRANCH   9  11
ENDBRANCH   8   9
ENDBRANCH   7   8
ENDBRANCH   6   7
ENDBRANCH   5   6
ENDBRANCH   4   5
ENDBRANCH   3   4
ENDBRANCH   2   3
ENDBRANCH   1   2
BRANCH   1  31
ATOM     31  C   UNL A   1      34.825  34.060  28.075  1.00  0.00     0.188 C 
BRANCH  31  32
ATOM     32  O   UNL A   1      35.350  34.228  29.384  1.00  0.00    -0.376 OA
BRANCH  32  33
ATOM     33  C   UNL A   1      34.454  34.551  30.435  1.00  0.00     0.202 C 
BRANCH  33  34
ATOM     34  C   UNL A   1      34.552  33.727  31.727  1.00  0.00     0.261 C 
BRANCH  34  35
ATOM     35  O   UNL A   1      35.691  32.862  31.837  1.00  0.00    -0.460 OA
BRANCH  35  36
ATOM     36  C   UNL A   1      36.174  32.618  33.074  1.00  0.00     0.338 C 
ATOM     37  O   UNL A   1      35.590  32.771  34.134  1.00  0.00    -0.246 OA
BRANCH  36  38
ATOM     38  C   UNL A   1      37.465  31.920  32.918  1.00  0.00     0.060 A 
ATOM     39  C   UNL A   1      38.538  32.280  33.747  1.00  0.00     0.016 A 
ATOM     40  C   UNL A   1      37.608  30.898  31.978  1.00  0.00     0.016 A 
ATOM     41  C   UNL A   1      39.769  31.644  33.610  1.00  0.00     0.010 A 
ATOM     42  C   UNL A   1      38.850  30.280  31.822  1.00  0.00     0.010 A 
ATOM     43  C   UNL A   1      39.945  30.680  32.611  1.00  0.00    -0.014 A 
BRANCH  43  44
ATOM     44  C   UNL A   1      41.315  30.256  32.240  1.00  0.00     0.031 A 
ATOM     45  C   UNL A   1      42.054  31.078  31.220  1.00  0.00     0.074 A 
ATOM     46  C   UNL A   1      41.892  29.177  32.796  1.00  0.00     0.049 A 
ATOM     47  N   UNL A   1      43.240  30.889  30.705  1.00  0.00    -0.248 NA
ATOM     48  C   UNL A   1      41.359  32.274  30.711  1.00  0.00     0.031 C 
ATOM     49  C   UNL A   1      41.284  28.318  33.809  1.00  0.00     0.029 A 
ATOM     50  N   UNL A   1      43.119  28.609  32.560  1.00  0.00    -0.354 N 
ATOM     51  C   UNL A   1      43.418  31.916  29.785  1.00  0.00     0.074 A 
ATOM     52  C   UNL A   1      42.217  32.722  29.809  1.00  0.00     0.031 C 
ATOM     53  C   UNL A   1      42.130  27.311  34.088  1.00  0.00     0.029 A 
ATOM     54  C   UNL A   1      43.324  27.439  33.252  1.00  0.00     0.049 A 
ATOM     55  H   UNL A   1      43.788  29.001  31.953  1.00  0.00     0.167 HD
ATOM     56  C   UNL A   1      44.487  32.170  28.998  1.00  0.00     0.034 A 
ATOM     57  C   UNL A   1      44.344  26.560  33.191  1.00  0.00     0.034 A 
ATOM     58  C   UNL A   1      45.682  31.373  28.985  1.00  0.00     0.049 A 
ATOM     59  C   UNL A   1      45.507  26.845  32.274  1.00  0.00     0.074 A 
ATOM     60  C   UNL A   1      46.841  31.574  28.258  1.00  0.00     0.029 A 
ATOM     61  N   UNL A   1      45.864  30.210  29.717  1.00  0.00    -0.354 N 
ATOM     62  N   UNL A   1      45.711  27.877  31.490  1.00  0.00    -0.248 NA
ATOM     63  C   UNL A   1      46.597  25.857  32.256  1.00  0.00     0.031 C 
ATOM     64  C   UNL A   1      47.706  30.507  28.515  1.00  0.00     0.029 A 
ATOM     65  C   UNL A   1      47.108  29.669  29.443  1.00  0.00     0.049 A 
ATOM     66  H   UNL A   1      45.204  29.825  30.339  1.00  0.00     0.167 HD
ATOM     67  C   UNL A   1      46.966  27.684  30.921  1.00  0.00     0.074 A 
ATOM     68  C   UNL A   1      47.482  26.444  31.461  1.00  0.00     0.031 C 
ATOM     69  C   UNL A   1      47.628  28.459  30.025  1.00  0.00     0.034 A 
BRANCH  56  70
ATOM     70  C   UNL A   1      44.410  33.361  28.078  1.00  0.00     0.023 A 
ATOM     71  C   UNL A   1      43.961  33.202  26.751  1.00  0.00     0.012 A 
ATOM     72  C   UNL A   1      44.744  34.646  28.546  1.00  0.00     0.148 A 
ATOM     73  C   UNL A   1      43.880  34.299  25.894  1.00  0.00     0.002 A 
ATOM     74  C   UNL A   1      44.612  35.741  27.702  1.00  0.00     0.091 A 
ATOM     75  F   UNL A   1      45.193  34.772  29.803  1.00  0.00    -0.205 F 
ATOM     76  C   UNL A   1      44.194  35.568  26.372  1.00  0.00     0.022 A 
BRANCH  74  77
ATOM     77  S   UNL A   1      44.914  37.426  28.247  1.00  0.00     0.127 S 
ATOM     78  O   UNL A   1      44.616  38.186  27.034  1.00  0.00    -0.237 OA
ATOM     79  O   UNL A   1      43.931  37.579  29.321  1.00  0.00    -0.237 OA
ATOM     80  O   UNL A   1      46.303  37.466  28.683  1.00  0.00    -0.744 OA
ENDBRANCH  74  77
ENDBRANCH  56  70
BRANCH  57  81
ATOM     81  C   UNL A   1      44.327  25.333  34.037  1.00  0.00     0.023 A 
ATOM     82  C   UNL A   1      43.695  24.167  33.563  1.00  0.00     0.012 A 
ATOM     83  C   UNL A   1      44.936  25.316  35.308  1.00  0.00     0.148 A 
ATOM     84  C   UNL A   1      43.638  23.018  34.352  1.00  0.00     0.002 A 
ATOM     85  C   UNL A   1      44.927  24.150  36.064  1.00  0.00     0.091 A 
ATOM     86  F   UNL A   1      45.520  26.440  35.746  1.00  0.00    -0.205 F 
ATOM     87  C   UNL A   1      44.262  23.006  35.598  1.00  0.00     0.022 A 
BRANCH  85  88
ATOM     88  S   UNL A   1      45.807  24.003  37.623  1.00  0.00     0.127 S 
ATOM     89  O   UNL A   1      47.162  24.387  37.239  1.00  0.00    -0.237 OA
ATOM     90  O   UNL A   1      45.101  24.977  38.456  1.00  0.00    -0.237 OA
ATOM     91  O   UNL A   1      45.639  22.618  38.042  1.00  0.00    -0.744 OA
ENDBRANCH  85  88
ENDBRANCH  57  81
BRANCH  69  92
ATOM     92  C   UNL A   1      49.011  28.027  29.608  1.00  0.00     0.023 A 
ATOM     93  C   UNL A   1      50.140  28.470  30.326  1.00  0.00     0.012 A 
ATOM     94  C   UNL A   1      49.183  27.114  28.548  1.00  0.00     0.148 A 
ATOM     95  C   UNL A   1      51.419  28.042  29.970  1.00  0.00     0.002 A 
ATOM     96  C   UNL A   1      50.453  26.648  28.235  1.00  0.00     0.091 A 
ATOM     97  F   UNL A   1      48.098  26.714  27.867  1.00  0.00    -0.205 F 
ATOM     98  C   UNL A   1      51.574  27.122  28.935  1.00  0.00     0.022 A 
BRANCH  96  99
ATOM     99  S   UNL A   1      50.740  25.389  26.986  1.00  0.00     0.127 S 
ATOM    100  O   UNL A   1      52.186  25.197  27.083  1.00  0.00    -0.237 OA
ATOM    101  O   UNL A   1      49.940  24.271  27.486  1.00  0.00    -0.237 OA
ATOM    102  O   UNL A   1      50.270  25.954  25.728  1.00  0.00    -0.744 OA
ENDBRANCH  96  99
ENDBRANCH  69  92
ENDBRANCH  43  44
ENDBRANCH  36  38
ENDBRANCH  35  36
ENDBRANCH  34  35
ENDBRANCH  33  34
ENDBRANCH  32  33
ENDBRANCH  31  32
ENDBRANCH   1  31
TORSDOF 25
ENDMDL
