MODEL 1
REMARK VINA RESULT:      -8.1      0.000      0.000
REMARK SMILES O=C(Cc1cncnc1N1CCC2(CC1)OCCC[C@@H]2O)OCCOCCOCCOCCOC(=O)c1ccc(-c2c3nc(c(-c4cccc(S(=O)(=O)[O-])c4F)c4ccc([nH]4)c(-c4cccc(S(=O)(=O)[O-])c4F)c4nc(c(-c5cccc(S(=O)(=O)[O-])c5F)c5ccc2[nH]5)C=C4)C=C3)cc1
REMARK SMILES IDX 28 1 27 2 26 3 25 4 24 5 23 6 22 7 2 8 1 9 3 10 4 11 5 12
REMARK SMILES IDX 9 13 6 14 8 15 7 16 10 17 11 18 15 19 12 20 14 21 13 22
REMARK SMILES IDX 16 23 20 24 17 25 19 26 18 27 21 28 29 30 30 31 31 32 32 33
REMARK SMILES IDX 33 34 34 35 35 36 36 37 37 38 38 39 99 40 39 41 98 42 40 43
REMARK SMILES IDX 41 44 42 45 92 46 43 47 97 48 91 49 93 50 44 51 96 52 90 53
REMARK SMILES IDX 89 54 45 56 77 57 57 58 76 59 58 60 61 61 75 62 94 63 59 64
REMARK SMILES IDX 60 65 74 67 95 68 62 69 46 70 47 71 55 72 48 73 50 74 56 75
REMARK SMILES IDX 49 76 51 77 52 78 53 79 54 80 78 81 79 82 87 83 80 84 82 85
REMARK SMILES IDX 88 86 81 87 83 88 84 89 85 90 86 91 63 92 64 93 72 94 65 95
REMARK SMILES IDX 67 96 73 97 66 98 68 99 69 100 70 101 71 102
REMARK H PARENT 21 29 93 55 61 66
REMARK Flexibility Score: inf
ROOT
ATOM      1  O   UNL A   1      37.651  21.530  25.759  1.00  0.00    -0.377 OA
ENDROOT
BRANCH   1   2
ATOM      2  C   UNL A   1      37.104  21.897  24.493  1.00  0.00     0.188 C 
BRANCH   2   3
ATOM      3  C   UNL A   1      36.885  23.385  24.292  1.00  0.00     0.188 C 
BRANCH   3   4
ATOM      4  O   UNL A   1      36.280  24.066  25.393  1.00  0.00    -0.376 OA
BRANCH   4   5
ATOM      5  C   UNL A   1      34.935  23.777  25.768  1.00  0.00     0.202 C 
BRANCH   5   6
ATOM      6  C   UNL A   1      34.037  24.938  26.161  1.00  0.00     0.261 C 
BRANCH   6   7
ATOM      7  O   UNL A   1      32.701  24.514  26.510  1.00  0.00    -0.463 OA
BRANCH   7   8
ATOM      8  C   UNL A   1      32.128  23.323  26.221  1.00  0.00     0.310 C 
ATOM      9  O   UNL A   1      32.259  22.354  26.967  1.00  0.00    -0.252 OA
BRANCH   8  10
ATOM     10  C   UNL A   1      31.265  23.241  25.006  1.00  0.00     0.163 C 
BRANCH  10  11
ATOM     11  C   UNL A   1      31.939  23.722  23.760  1.00  0.00     0.024 A 
ATOM     12  C   UNL A   1      31.820  25.051  23.402  1.00  0.00     0.121 A 
ATOM     13  C   UNL A   1      32.635  22.881  22.883  1.00  0.00     0.135 A 
ATOM     14  N   UNL A   1      32.307  25.548  22.261  1.00  0.00    -0.244 NA
ATOM     15  N   UNL A   1      33.126  23.351  21.730  1.00  0.00    -0.219 NA
ATOM     16  C   UNL A   1      32.932  24.657  21.476  1.00  0.00     0.224 A 
BRANCH  13  17
ATOM     17  N   UNL A   1      32.790  21.538  23.198  1.00  0.00    -0.356 N 
ATOM     18  C   UNL A   1      34.042  21.138  23.807  1.00  0.00     0.121 C 
ATOM     19  C   UNL A   1      32.205  20.503  22.340  1.00  0.00     0.121 C 
ATOM     20  C   UNL A   1      33.738  20.013  24.789  1.00  0.00     0.060 C 
ATOM     21  C   UNL A   1      31.823  19.292  23.216  1.00  0.00     0.060 C 
ATOM     22  C   UNL A   1      32.956  18.823  24.165  1.00  0.00     0.097 C 
ATOM     23  O   UNL A   1      33.804  18.013  23.320  1.00  0.00    -0.372 OA
ATOM     24  C   UNL A   1      32.371  17.940  25.319  1.00  0.00     0.146 C 
ATOM     25  C   UNL A   1      34.848  17.296  23.966  1.00  0.00     0.161 C 
ATOM     26  C   UNL A   1      33.477  17.198  26.071  1.00  0.00     0.037 C 
ATOM     27  C   UNL A   1      34.343  16.410  25.095  1.00  0.00     0.031 C 
BRANCH  24  28
ATOM     28  O   UNL A   1      31.451  16.955  24.832  1.00  0.00    -0.390 OA
ATOM     29  H   UNL A   1      30.638  17.391  24.535  1.00  0.00     0.211 HD
ENDBRANCH  24  28
ENDBRANCH  13  17
ENDBRANCH  10  11
ENDBRANCH   8  10
ENDBRANCH   7   8
ENDBRANCH   6   7
ENDBRANCH   5   6
ENDBRANCH   4   5
ENDBRANCH   3   4
ENDBRANCH   2   3
ENDBRANCH   1   2
BRANCH   1  30
ATOM     30  C   UNL A   1      39.066  21.379  25.816  1.00  0.00     0.188 C 
BRANCH  30  31
ATOM     31  C   UNL A   1      39.628  19.943  25.706  1.00  0.00     0.188 C 
BRANCH  31  32
ATOM     32  O   UNL A   1      41.027  19.859  25.460  1.00  0.00    -0.376 OA
BRANCH  32  33
ATOM     33  C   UNL A   1      41.889  20.059  26.577  1.00  0.00     0.202 C 
BRANCH  33  34
ATOM     34  C   UNL A   1      42.908  21.216  26.519  1.00  0.00     0.261 C 
BRANCH  34  35
ATOM     35  O   UNL A   1      42.973  21.936  25.282  1.00  0.00    -0.460 OA
BRANCH  35  36
ATOM     36  C   UNL A   1      42.690  23.259  25.337  1.00  0.00     0.338 C 
ATOM     37  O   UNL A   1      41.618  23.759  25.571  1.00  0.00    -0.246 OA
BRANCH  36  38
ATOM     38  C   UNL A   1      43.980  23.996  25.312  1.00  0.00     0.060 A 
ATOM     39  C   UNL A   1      45.150  23.246  25.118  1.00  0.00     0.016 A 
ATOM     40  C   UNL A   1      44.043  25.386  25.445  1.00  0.00     0.016 A 
ATOM     41  C   UNL A   1      46.390  23.878  25.115  1.00  0.00     0.010 A 
ATOM     42  C   UNL A   1      45.291  26.016  25.485  1.00  0.00     0.010 A 
ATOM     43  C   UNL A   1      46.466  25.252  25.376  1.00  0.00    -0.014 A 
BRANCH  43  44
ATOM     44  C   UNL A   1      47.754  25.788  25.875  1.00  0.00     0.031 A 
ATOM     45  C   UNL A   1      48.685  26.380  24.850  1.00  0.00     0.074 A 
ATOM     46  C   UNL A   1      48.070  25.803  27.180  1.00  0.00     0.049 A 
ATOM     47  N   UNL A   1      49.832  26.980  25.016  1.00  0.00    -0.248 NA
ATOM     48  C   UNL A   1      48.252  26.289  23.442  1.00  0.00     0.031 C 
ATOM     49  C   UNL A   1      47.242  25.278  28.263  1.00  0.00     0.029 A 
ATOM     50  N   UNL A   1      49.191  26.281  27.811  1.00  0.00    -0.354 N 
ATOM     51  C   UNL A   1      50.263  27.322  23.739  1.00  0.00     0.074 A 
ATOM     52  C   UNL A   1      49.265  26.854  22.807  1.00  0.00     0.031 C 
ATOM     53  C   UNL A   1      47.896  25.444  29.429  1.00  0.00     0.029 A 
ATOM     54  C   UNL A   1      49.189  26.076  29.170  1.00  0.00     0.049 A 
ATOM     55  H   UNL A   1      49.927  26.728  27.335  1.00  0.00     0.167 HD
ATOM     56  C   UNL A   1      51.384  27.982  23.371  1.00  0.00     0.034 A 
ATOM     57  C   UNL A   1      50.132  26.364  30.090  1.00  0.00     0.034 A 
ATOM     58  C   UNL A   1      52.376  28.446  24.298  1.00  0.00     0.049 A 
ATOM     59  C   UNL A   1      51.396  27.062  29.649  1.00  0.00     0.074 A 
ATOM     60  C   UNL A   1      53.537  29.149  24.035  1.00  0.00     0.029 A 
ATOM     61  N   UNL A   1      52.333  28.231  25.667  1.00  0.00    -0.354 N 
ATOM     62  N   UNL A   1      51.733  27.493  28.456  1.00  0.00    -0.248 NA
ATOM     63  C   UNL A   1      52.396  27.347  30.690  1.00  0.00     0.031 C 
ATOM     64  C   UNL A   1      54.211  29.336  25.247  1.00  0.00     0.029 A 
ATOM     65  C   UNL A   1      53.453  28.777  26.265  1.00  0.00     0.049 A 
ATOM     66  H   UNL A   1      51.610  27.760  26.141  1.00  0.00     0.167 HD
ATOM     67  C   UNL A   1      52.958  28.133  28.610  1.00  0.00     0.074 A 
ATOM     68  C   UNL A   1      53.296  28.049  30.016  1.00  0.00     0.031 C 
ATOM     69  C   UNL A   1      53.741  28.730  27.676  1.00  0.00     0.034 A 
BRANCH  56  70
ATOM     70  C   UNL A   1      51.581  28.241  21.902  1.00  0.00     0.023 A 
ATOM     71  C   UNL A   1      51.113  29.443  21.334  1.00  0.00     0.012 A 
ATOM     72  C   UNL A   1      52.238  27.299  21.087  1.00  0.00     0.148 A 
ATOM     73  C   UNL A   1      51.265  29.690  19.970  1.00  0.00     0.002 A 
ATOM     74  C   UNL A   1      52.427  27.572  19.739  1.00  0.00     0.091 A 
ATOM     75  F   UNL A   1      52.643  26.147  21.641  1.00  0.00    -0.205 F 
ATOM     76  C   UNL A   1      51.931  28.760  19.176  1.00  0.00     0.022 A 
BRANCH  74  77
ATOM     77  S   UNL A   1      53.335  26.469  18.651  1.00  0.00     0.127 S 
ATOM     78  O   UNL A   1      52.499  25.270  18.680  1.00  0.00    -0.237 OA
ATOM     79  O   UNL A   1      53.310  27.198  17.382  1.00  0.00    -0.237 OA
ATOM     80  O   UNL A   1      54.659  26.326  19.240  1.00  0.00    -0.744 OA
ENDBRANCH  74  77
ENDBRANCH  56  70
BRANCH  57  81
ATOM     81  C   UNL A   1      49.905  26.039  31.528  1.00  0.00     0.023 A 
ATOM     82  C   UNL A   1      49.187  26.939  32.339  1.00  0.00     0.012 A 
ATOM     83  C   UNL A   1      50.398  24.848  32.096  1.00  0.00     0.148 A 
ATOM     84  C   UNL A   1      48.989  26.675  33.696  1.00  0.00     0.002 A 
ATOM     85  C   UNL A   1      50.152  24.566  33.435  1.00  0.00     0.091 A 
ATOM     86  F   UNL A   1      51.097  24.013  31.313  1.00  0.00    -0.205 F 
ATOM     87  C   UNL A   1      49.463  25.485  34.240  1.00  0.00     0.022 A 
BRANCH  85  88
ATOM     88  S   UNL A   1      50.624  23.008  34.196  1.00  0.00     0.127 S 
ATOM     89  O   UNL A   1      52.082  23.102  34.194  1.00  0.00    -0.237 OA
ATOM     90  O   UNL A   1      50.000  23.118  35.515  1.00  0.00    -0.237 OA
ATOM     91  O   UNL A   1      50.056  21.968  33.348  1.00  0.00    -0.744 OA
ENDBRANCH  85  88
ENDBRANCH  57  81
BRANCH  69  92
ATOM     92  C   UNL A   1      55.019  29.379  28.140  1.00  0.00     0.023 A 
ATOM     93  C   UNL A   1      55.002  30.707  28.611  1.00  0.00     0.012 A 
ATOM     94  C   UNL A   1      56.218  28.643  28.189  1.00  0.00     0.148 A 
ATOM     95  C   UNL A   1      56.168  31.303  29.088  1.00  0.00     0.002 A 
ATOM     96  C   UNL A   1      57.365  29.226  28.714  1.00  0.00     0.091 A 
ATOM     97  F   UNL A   1      56.219  27.385  27.722  1.00  0.00    -0.205 F 
ATOM     98  C   UNL A   1      57.345  30.560  29.152  1.00  0.00     0.022 A 
BRANCH  96  99
ATOM     99  S   UNL A   1      58.895  28.309  28.928  1.00  0.00     0.127 S 
ATOM    100  O   UNL A   1      59.416  28.276  27.563  1.00  0.00    -0.237 OA
ATOM    101  O   UNL A   1      59.647  29.165  29.848  1.00  0.00    -0.237 OA
ATOM    102  O   UNL A   1      58.512  27.019  29.486  1.00  0.00    -0.744 OA
ENDBRANCH  96  99
ENDBRANCH  69  92
ENDBRANCH  43  44
ENDBRANCH  36  38
ENDBRANCH  35  36
ENDBRANCH  34  35
ENDBRANCH  33  34
ENDBRANCH  32  33
ENDBRANCH  31  32
ENDBRANCH  30  31
ENDBRANCH   1  30
TORSDOF 26
ENDMDL
MODEL 2
REMARK VINA RESULT:      -7.9     15.438     22.700
REMARK SMILES O=C(Cc1cncnc1N1CCC2(CC1)OCCC[C@@H]2O)OCCOCCOCCOCCOC(=O)c1ccc(-c2c3nc(c(-c4cccc(S(=O)(=O)[O-])c4F)c4ccc([nH]4)c(-c4cccc(S(=O)(=O)[O-])c4F)c4nc(c(-c5cccc(S(=O)(=O)[O-])c5F)c5ccc2[nH]5)C=C4)C=C3)cc1
REMARK SMILES IDX 28 1 27 2 26 3 25 4 24 5 23 6 22 7 2 8 1 9 3 10 4 11 5 12
REMARK SMILES IDX 9 13 6 14 8 15 7 16 10 17 11 18 15 19 12 20 14 21 13 22
REMARK SMILES IDX 16 23 20 24 17 25 19 26 18 27 21 28 29 30 30 31 31 32 32 33
REMARK SMILES IDX 33 34 34 35 35 36 36 37 37 38 38 39 99 40 39 41 98 42 40 43
REMARK SMILES IDX 41 44 42 45 92 46 43 47 97 48 91 49 93 50 44 51 96 52 90 53
REMARK SMILES IDX 89 54 45 56 77 57 57 58 76 59 58 60 61 61 75 62 94 63 59 64
REMARK SMILES IDX 60 65 74 67 95 68 62 69 46 70 47 71 55 72 48 73 50 74 56 75
REMARK SMILES IDX 49 76 51 77 52 78 53 79 54 80 78 81 79 82 87 83 80 84 82 85
REMARK SMILES IDX 88 86 81 87 83 88 84 89 85 90 86 91 63 92 64 93 72 94 65 95
REMARK SMILES IDX 67 96 73 97 66 98 68 99 69 100 70 101 71 102
REMARK H PARENT 21 29 93 55 61 66
REMARK Flexibility Score: inf
ROOT
ATOM      1  O   UNL A   1      44.156  42.338  26.730  1.00  0.00    -0.377 OA
ENDROOT
BRANCH   1   2
ATOM      2  C   UNL A   1      44.540  43.237  25.690  1.00  0.00     0.188 C 
BRANCH   2   3
ATOM      3  C   UNL A   1      44.107  42.830  24.294  1.00  0.00     0.188 C 
BRANCH   3   4
ATOM      4  O   UNL A   1      42.821  43.307  23.892  1.00  0.00    -0.376 OA
BRANCH   4   5
ATOM      5  C   UNL A   1      42.007  42.532  23.015  1.00  0.00     0.202 C 
BRANCH   5   6
ATOM      6  C   UNL A   1      42.104  42.802  21.523  1.00  0.00     0.261 C 
BRANCH   6   7
ATOM      7  O   UNL A   1      43.468  42.804  21.047  1.00  0.00    -0.463 OA
BRANCH   7   8
ATOM      8  C   UNL A   1      44.220  43.888  20.750  1.00  0.00     0.310 C 
ATOM      9  O   UNL A   1      44.266  44.859  21.504  1.00  0.00    -0.252 OA
BRANCH   8  10
ATOM     10  C   UNL A   1      45.058  43.839  19.515  1.00  0.00     0.163 C 
BRANCH  10  11
ATOM     11  C   UNL A   1      46.519  43.674  19.791  1.00  0.00     0.024 A 
ATOM     12  C   UNL A   1      47.018  42.409  20.038  1.00  0.00     0.121 A 
ATOM     13  C   UNL A   1      47.414  44.747  19.886  1.00  0.00     0.135 A 
ATOM     14  N   UNL A   1      48.287  42.179  20.385  1.00  0.00    -0.244 NA
ATOM     15  N   UNL A   1      48.689  44.545  20.241  1.00  0.00    -0.219 NA
ATOM     16  C   UNL A   1      49.058  43.274  20.477  1.00  0.00     0.224 A 
BRANCH  13  17
ATOM     17  N   UNL A   1      46.967  46.038  19.642  1.00  0.00    -0.356 N 
ATOM     18  C   UNL A   1      47.046  46.522  18.279  1.00  0.00     0.121 C 
ATOM     19  C   UNL A   1      47.158  47.091  20.644  1.00  0.00     0.121 C 
ATOM     20  C   UNL A   1      45.849  47.437  18.045  1.00  0.00     0.060 C 
ATOM     21  C   UNL A   1      45.991  48.094  20.537  1.00  0.00     0.060 C 
ATOM     22  C   UNL A   1      45.712  48.578  19.091  1.00  0.00     0.097 C 
ATOM     23  O   UNL A   1      46.695  49.617  18.877  1.00  0.00    -0.372 OA
ATOM     24  C   UNL A   1      44.274  49.190  18.988  1.00  0.00     0.146 C 
ATOM     25  C   UNL A   1      46.569  50.376  17.681  1.00  0.00     0.161 C 
ATOM     26  C   UNL A   1      44.089  49.968  17.683  1.00  0.00     0.037 C 
ATOM     27  C   UNL A   1      45.193  51.005  17.525  1.00  0.00     0.031 C 
BRANCH  24  28
ATOM     28  O   UNL A   1      43.992  50.092  20.064  1.00  0.00    -0.390 OA
ATOM     29  H   UNL A   1      43.072  49.978  20.349  1.00  0.00     0.211 HD
ENDBRANCH  24  28
ENDBRANCH  13  17
ENDBRANCH  10  11
ENDBRANCH   8  10
ENDBRANCH   7   8
ENDBRANCH   6   7
ENDBRANCH   5   6
ENDBRANCH   4   5
ENDBRANCH   3   4
ENDBRANCH   2   3
ENDBRANCH   1   2
BRANCH   1  30
ATOM     30  C   UNL A   1      43.973  40.977  26.353  1.00  0.00     0.188 C 
BRANCH  30  31
ATOM     31  C   UNL A   1      42.749  40.239  26.944  1.00  0.00     0.188 C 
BRANCH  31  32
ATOM     32  O   UNL A   1      42.945  39.684  28.239  1.00  0.00    -0.376 OA
BRANCH  32  33
ATOM     33  C   UNL A   1      43.539  38.390  28.300  1.00  0.00     0.202 C 
BRANCH  33  34
ATOM     34  C   UNL A   1      43.887  37.808  29.686  1.00  0.00     0.261 C 
BRANCH  34  35
ATOM     35  O   UNL A   1      44.324  38.750  30.673  1.00  0.00    -0.460 OA
BRANCH  35  36
ATOM     36  C   UNL A   1      45.371  38.376  31.445  1.00  0.00     0.338 C 
ATOM     37  O   UNL A   1      46.538  38.600  31.238  1.00  0.00    -0.246 OA
BRANCH  36  38
ATOM     38  C   UNL A   1      44.824  37.862  32.727  1.00  0.00     0.060 A 
ATOM     39  C   UNL A   1      45.131  36.539  33.078  1.00  0.00     0.016 A 
ATOM     40  C   UNL A   1      44.055  38.661  33.579  1.00  0.00     0.016 A 
ATOM     41  C   UNL A   1      44.622  35.993  34.253  1.00  0.00     0.010 A 
ATOM     42  C   UNL A   1      43.509  38.100  34.738  1.00  0.00     0.010 A 
ATOM     43  C   UNL A   1      43.748  36.749  35.044  1.00  0.00    -0.014 A 
BRANCH  43  44
ATOM     44  C   UNL A   1      42.838  36.018  35.956  1.00  0.00     0.031 A 
ATOM     45  C   UNL A   1      43.153  36.088  37.428  1.00  0.00     0.074 A 
ATOM     46  C   UNL A   1      41.750  35.365  35.518  1.00  0.00     0.049 A 
ATOM     47  N   UNL A   1      42.490  35.609  38.444  1.00  0.00    -0.248 NA
ATOM     48  C   UNL A   1      44.386  36.810  37.799  1.00  0.00     0.031 C 
ATOM     49  C   UNL A   1      41.334  35.245  34.122  1.00  0.00     0.029 A 
ATOM     50  N   UNL A   1      40.796  34.669  36.217  1.00  0.00    -0.354 N 
ATOM     51  C   UNL A   1      43.230  35.956  39.569  1.00  0.00     0.074 A 
ATOM     52  C   UNL A   1      44.397  36.673  39.115  1.00  0.00     0.031 C 
ATOM     53  C   UNL A   1      40.214  34.499  34.066  1.00  0.00     0.029 A 
ATOM     54  C   UNL A   1      39.845  34.081  35.418  1.00  0.00     0.049 A 
ATOM     55  H   UNL A   1      40.793  34.598  37.199  1.00  0.00     0.167 HD
ATOM     56  C   UNL A   1      42.957  35.714  40.871  1.00  0.00     0.034 A 
ATOM     57  C   UNL A   1      38.803  33.293  35.751  1.00  0.00     0.034 A 
ATOM     58  C   UNL A   1      41.797  34.999  41.322  1.00  0.00     0.049 A 
ATOM     59  C   UNL A   1      38.543  32.998  37.209  1.00  0.00     0.074 A 
ATOM     60  C   UNL A   1      41.409  34.720  42.620  1.00  0.00     0.029 A 
ATOM     61  N   UNL A   1      40.851  34.430  40.485  1.00  0.00    -0.354 N 
ATOM     62  N   UNL A   1      39.178  33.439  38.270  1.00  0.00    -0.248 NA
ATOM     63  C   UNL A   1      37.399  32.127  37.518  1.00  0.00     0.031 C 
ATOM     64  C   UNL A   1      40.238  33.956  42.564  1.00  0.00     0.029 A 
ATOM     65  C   UNL A   1      39.882  33.788  41.234  1.00  0.00     0.049 A 
ATOM     66  H   UNL A   1      40.866  34.477  39.502  1.00  0.00     0.167 HD
ATOM     67  C   UNL A   1      38.488  32.935  39.367  1.00  0.00     0.074 A 
ATOM     68  C   UNL A   1      37.376  32.168  38.843  1.00  0.00     0.031 C 
ATOM     69  C   UNL A   1      38.752  33.080  40.691  1.00  0.00     0.034 A 
BRANCH  56  70
ATOM     70  C   UNL A   1      43.933  36.236  41.890  1.00  0.00     0.023 A 
ATOM     71  C   UNL A   1      43.738  37.513  42.455  1.00  0.00     0.012 A 
ATOM     72  C   UNL A   1      45.036  35.461  42.294  1.00  0.00     0.148 A 
ATOM     73  C   UNL A   1      44.646  38.024  43.383  1.00  0.00     0.002 A 
ATOM     74  C   UNL A   1      45.910  35.958  43.252  1.00  0.00     0.091 A 
ATOM     75  F   UNL A   1      45.222  34.265  41.717  1.00  0.00    -0.205 F 
ATOM     76  C   UNL A   1      45.724  37.243  43.787  1.00  0.00     0.022 A 
BRANCH  74  77
ATOM     77  S   UNL A   1      47.287  34.998  43.890  1.00  0.00     0.127 S 
ATOM     78  O   UNL A   1      46.605  33.815  44.414  1.00  0.00    -0.237 OA
ATOM     79  O   UNL A   1      48.081  34.759  42.685  1.00  0.00    -0.237 OA
ATOM     80  O   UNL A   1      47.935  35.840  44.886  1.00  0.00    -0.744 OA
ENDBRANCH  74  77
ENDBRANCH  56  70
BRANCH  57  81
ATOM     81  C   UNL A   1      37.896  32.759  34.695  1.00  0.00     0.023 A 
ATOM     82  C   UNL A   1      36.812  33.540  34.250  1.00  0.00     0.012 A 
ATOM     83  C   UNL A   1      38.098  31.484  34.131  1.00  0.00     0.148 A 
ATOM     84  C   UNL A   1      35.927  33.051  33.286  1.00  0.00     0.002 A 
ATOM     85  C   UNL A   1      37.244  31.023  33.134  1.00  0.00     0.091 A 
ATOM     86  F   UNL A   1      39.122  30.745  34.582  1.00  0.00    -0.205 F 
ATOM     87  C   UNL A   1      36.149  31.798  32.722  1.00  0.00     0.022 A 
BRANCH  85  88
ATOM     88  S   UNL A   1      37.517  29.473  32.269  1.00  0.00     0.127 S 
ATOM     89  O   UNL A   1      37.458  28.505  33.362  1.00  0.00    -0.237 OA
ATOM     90  O   UNL A   1      36.378  29.437  31.351  1.00  0.00    -0.237 OA
ATOM     91  O   UNL A   1      38.812  29.610  31.615  1.00  0.00    -0.744 OA
ENDBRANCH  85  88
ENDBRANCH  57  81
BRANCH  69  92
ATOM     92  C   UNL A   1      37.804  32.439  41.671  1.00  0.00     0.023 A 
ATOM     93  C   UNL A   1      38.074  31.150  42.169  1.00  0.00     0.012 A 
ATOM     94  C   UNL A   1      36.692  33.152  42.161  1.00  0.00     0.148 A 
ATOM     95  C   UNL A   1      37.230  30.565  43.113  1.00  0.00     0.002 A 
ATOM     96  C   UNL A   1      35.885  32.583  43.139  1.00  0.00     0.091 A 
ATOM     97  F   UNL A   1      36.442  34.372  41.663  1.00  0.00    -0.205 F 
ATOM     98  C   UNL A   1      36.145  31.286  43.607  1.00  0.00     0.022 A 
BRANCH  96  99
ATOM     99  S   UNL A   1      34.530  33.481  43.903  1.00  0.00     0.127 S 
ATOM    100  O   UNL A   1      33.646  33.713  42.762  1.00  0.00    -0.237 OA
ATOM    101  O   UNL A   1      34.024  32.514  44.879  1.00  0.00    -0.237 OA
ATOM    102  O   UNL A   1      35.123  34.674  44.492  1.00  0.00    -0.744 OA
ENDBRANCH  96  99
ENDBRANCH  69  92
ENDBRANCH  43  44
ENDBRANCH  36  38
ENDBRANCH  35  36
ENDBRANCH  34  35
ENDBRANCH  33  34
ENDBRANCH  32  33
ENDBRANCH  31  32
ENDBRANCH  30  31
ENDBRANCH   1  30
TORSDOF 26
ENDMDL
MODEL 3
REMARK VINA RESULT:      -7.8     10.109     13.867
REMARK SMILES O=C(Cc1cncnc1N1CCC2(CC1)OCCC[C@@H]2O)OCCOCCOCCOCCOC(=O)c1ccc(-c2c3nc(c(-c4cccc(S(=O)(=O)[O-])c4F)c4ccc([nH]4)c(-c4cccc(S(=O)(=O)[O-])c4F)c4nc(c(-c5cccc(S(=O)(=O)[O-])c5F)c5ccc2[nH]5)C=C4)C=C3)cc1
REMARK SMILES IDX 28 1 27 2 26 3 25 4 24 5 23 6 22 7 2 8 1 9 3 10 4 11 5 12
REMARK SMILES IDX 9 13 6 14 8 15 7 16 10 17 11 18 15 19 12 20 14 21 13 22
REMARK SMILES IDX 16 23 20 24 17 25 19 26 18 27 21 28 29 30 30 31 31 32 32 33
REMARK SMILES IDX 33 34 34 35 35 36 36 37 37 38 38 39 99 40 39 41 98 42 40 43
REMARK SMILES IDX 41 44 42 45 92 46 43 47 97 48 91 49 93 50 44 51 96 52 90 53
REMARK SMILES IDX 89 54 45 56 77 57 57 58 76 59 58 60 61 61 75 62 94 63 59 64
REMARK SMILES IDX 60 65 74 67 95 68 62 69 46 70 47 71 55 72 48 73 50 74 56 75
REMARK SMILES IDX 49 76 51 77 52 78 53 79 54 80 78 81 79 82 87 83 80 84 82 85
REMARK SMILES IDX 88 86 81 87 83 88 84 89 85 90 86 91 63 92 64 93 72 94 65 95
REMARK SMILES IDX 67 96 73 97 66 98 68 99 69 100 70 101 71 102
REMARK H PARENT 21 29 93 55 61 66
REMARK Flexibility Score: inf
ROOT
ATOM      1  O   UNL A   1      42.447  25.831  28.215  1.00  0.00    -0.377 OA
ENDROOT
BRANCH   1   2
ATOM      2  C   UNL A   1      41.755  24.752  27.588  1.00  0.00     0.188 C 
BRANCH   2   3
ATOM      3  C   UNL A   1      40.301  24.597  27.991  1.00  0.00     0.188 C 
BRANCH   3   4
ATOM      4  O   UNL A   1      39.359  24.693  26.920  1.00  0.00    -0.376 OA
BRANCH   4   5
ATOM      5  C   UNL A   1      38.430  23.638  26.681  1.00  0.00     0.202 C 
BRANCH   5   6
ATOM      6  C   UNL A   1      37.495  23.765  25.491  1.00  0.00     0.261 C 
BRANCH   6   7
ATOM      7  O   UNL A   1      36.135  24.057  25.881  1.00  0.00    -0.463 OA
BRANCH   7   8
ATOM      8  C   UNL A   1      35.153  24.545  25.090  1.00  0.00     0.310 C 
ATOM      9  O   UNL A   1      35.272  24.568  23.866  1.00  0.00    -0.252 OA
BRANCH   8  10
ATOM     10  C   UNL A   1      33.884  24.984  25.742  1.00  0.00     0.163 C 
BRANCH  10  11
ATOM     11  C   UNL A   1      32.857  25.483  24.776  1.00  0.00     0.024 A 
ATOM     12  C   UNL A   1      32.700  26.845  24.605  1.00  0.00     0.121 A 
ATOM     13  C   UNL A   1      31.982  24.644  24.075  1.00  0.00     0.135 A 
ATOM     14  N   UNL A   1      31.748  27.381  23.837  1.00  0.00    -0.244 NA
ATOM     15  N   UNL A   1      31.013  25.155  23.306  1.00  0.00    -0.219 NA
ATOM     16  C   UNL A   1      30.942  26.496  23.231  1.00  0.00     0.224 A 
BRANCH  13  17
ATOM     17  N   UNL A   1      32.099  23.267  24.204  1.00  0.00    -0.356 N 
ATOM     18  C   UNL A   1      32.685  22.542  23.096  1.00  0.00     0.121 C 
ATOM     19  C   UNL A   1      31.077  22.500  24.924  1.00  0.00     0.121 C 
ATOM     20  C   UNL A   1      33.479  21.377  23.675  1.00  0.00     0.060 C 
ATOM     21  C   UNL A   1      31.751  21.282  25.590  1.00  0.00     0.060 C 
ATOM     22  C   UNL A   1      32.659  20.468  24.633  1.00  0.00     0.097 C 
ATOM     23  O   UNL A   1      31.734  19.628  23.906  1.00  0.00    -0.372 OA
ATOM     24  C   UNL A   1      33.648  19.570  25.451  1.00  0.00     0.146 C 
ATOM     25  C   UNL A   1      32.303  18.632  23.065  1.00  0.00     0.161 C 
ATOM     26  C   UNL A   1      34.320  18.523  24.561  1.00  0.00     0.037 C 
ATOM     27  C   UNL A   1      33.270  17.719  23.804  1.00  0.00     0.031 C 
BRANCH  24  28
ATOM     28  O   UNL A   1      32.990  18.868  26.512  1.00  0.00    -0.390 OA
ATOM     29  H   UNL A   1      33.651  18.527  27.133  1.00  0.00     0.211 HD
ENDBRANCH  24  28
ENDBRANCH  13  17
ENDBRANCH  10  11
ENDBRANCH   8  10
ENDBRANCH   7   8
ENDBRANCH   6   7
ENDBRANCH   5   6
ENDBRANCH   4   5
ENDBRANCH   3   4
ENDBRANCH   2   3
ENDBRANCH   1   2
BRANCH   1  30
ATOM     30  C   UNL A   1      42.873  26.888  27.361  1.00  0.00     0.188 C 
BRANCH  30  31
ATOM     31  C   UNL A   1      43.437  28.159  28.038  1.00  0.00     0.188 C 
BRANCH  31  32
ATOM     32  O   UNL A   1      44.020  29.107  27.151  1.00  0.00    -0.376 OA
BRANCH  32  33
ATOM     33  C   UNL A   1      45.408  28.953  26.869  1.00  0.00     0.202 C 
BRANCH  33  34
ATOM     34  C   UNL A   1      46.091  29.995  25.959  1.00  0.00     0.261 C 
BRANCH  34  35
ATOM     35  O   UNL A   1      46.314  31.287  26.537  1.00  0.00    -0.460 OA
BRANCH  35  36
ATOM     36  C   UNL A   1      45.356  32.219  26.324  1.00  0.00     0.338 C 
ATOM     37  O   UNL A   1      44.650  32.320  25.352  1.00  0.00    -0.246 OA
BRANCH  36  38
ATOM     38  C   UNL A   1      45.143  32.944  27.603  1.00  0.00     0.060 A 
ATOM     39  C   UNL A   1      45.608  32.334  28.778  1.00  0.00     0.016 A 
ATOM     40  C   UNL A   1      44.532  34.201  27.651  1.00  0.00     0.016 A 
ATOM     41  C   UNL A   1      45.410  32.953  30.010  1.00  0.00     0.010 A 
ATOM     42  C   UNL A   1      44.296  34.802  28.892  1.00  0.00     0.010 A 
ATOM     43  C   UNL A   1      44.686  34.150  30.074  1.00  0.00    -0.014 A 
BRANCH  43  44
ATOM     44  C   UNL A   1      44.053  34.503  31.365  1.00  0.00     0.031 A 
ATOM     45  C   UNL A   1      42.635  34.039  31.574  1.00  0.00     0.074 A 
ATOM     46  C   UNL A   1      44.711  35.156  32.336  1.00  0.00     0.049 A 
ATOM     47  N   UNL A   1      41.872  34.144  32.627  1.00  0.00    -0.248 NA
ATOM     48  C   UNL A   1      41.996  33.352  30.435  1.00  0.00     0.031 C 
ATOM     49  C   UNL A   1      46.089  35.637  32.256  1.00  0.00     0.029 A 
ATOM     50  N   UNL A   1      44.293  35.533  33.587  1.00  0.00    -0.354 N 
ATOM     51  C   UNL A   1      40.664  33.554  32.273  1.00  0.00     0.074 A 
ATOM     52  C   UNL A   1      40.786  33.104  30.908  1.00  0.00     0.031 C 
ATOM     53  C   UNL A   1      46.396  36.266  33.407  1.00  0.00     0.029 A 
ATOM     54  C   UNL A   1      45.235  36.241  34.295  1.00  0.00     0.049 A 
ATOM     55  H   UNL A   1      43.401  35.318  33.945  1.00  0.00     0.167 HD
ATOM     56  C   UNL A   1      39.551  33.384  33.023  1.00  0.00     0.034 A 
ATOM     57  C   UNL A   1      45.156  36.805  35.517  1.00  0.00     0.034 A 
ATOM     58  C   UNL A   1      39.429  33.833  34.380  1.00  0.00     0.049 A 
ATOM     59  C   UNL A   1      43.886  36.641  36.318  1.00  0.00     0.074 A 
ATOM     60  C   UNL A   1      38.356  33.690  35.240  1.00  0.00     0.029 A 
ATOM     61  N   UNL A   1      40.408  34.534  35.066  1.00  0.00    -0.354 N 
ATOM     62  N   UNL A   1      42.798  35.970  36.021  1.00  0.00    -0.248 NA
ATOM     63  C   UNL A   1      43.849  37.282  37.642  1.00  0.00     0.031 C 
ATOM     64  C   UNL A   1      38.679  34.331  36.442  1.00  0.00     0.029 A 
ATOM     65  C   UNL A   1      39.963  34.844  36.338  1.00  0.00     0.049 A 
ATOM     66  H   UNL A   1      41.291  34.774  34.702  1.00  0.00     0.167 HD
ATOM     67  C   UNL A   1      41.967  36.074  37.131  1.00  0.00     0.074 A 
ATOM     68  C   UNL A   1      42.685  36.858  38.116  1.00  0.00     0.031 C 
ATOM     69  C   UNL A   1      40.719  35.576  37.321  1.00  0.00     0.034 A 
BRANCH  56  70
ATOM     70  C   UNL A   1      38.388  32.678  32.381  1.00  0.00     0.023 A 
ATOM     71  C   UNL A   1      38.226  31.289  32.562  1.00  0.00     0.012 A 
ATOM     72  C   UNL A   1      37.451  33.390  31.609  1.00  0.00     0.148 A 
ATOM     73  C   UNL A   1      37.168  30.613  31.956  1.00  0.00     0.002 A 
ATOM     74  C   UNL A   1      36.374  32.717  31.045  1.00  0.00     0.091 A 
ATOM     75  F   UNL A   1      37.644  34.703  31.420  1.00  0.00    -0.205 F 
ATOM     76  C   UNL A   1      36.238  31.329  31.207  1.00  0.00     0.022 A 
BRANCH  74  77
ATOM     77  S   UNL A   1      35.085  33.563  30.125  1.00  0.00     0.127 S 
ATOM     78  O   UNL A   1      34.637  34.562  31.094  1.00  0.00    -0.237 OA
ATOM     79  O   UNL A   1      35.826  34.108  28.987  1.00  0.00    -0.237 OA
ATOM     80  O   UNL A   1      34.106  32.543  29.777  1.00  0.00    -0.744 OA
ENDBRANCH  74  77
ENDBRANCH  56  70
BRANCH  57  81
ATOM     81  C   UNL A   1      46.323  37.539  36.085  1.00  0.00     0.023 A 
ATOM     82  C   UNL A   1      46.465  38.917  35.835  1.00  0.00     0.012 A 
ATOM     83  C   UNL A   1      47.293  36.881  36.866  1.00  0.00     0.148 A 
ATOM     84  C   UNL A   1      47.567  39.622  36.326  1.00  0.00     0.002 A 
ATOM     85  C   UNL A   1      48.360  37.598  37.396  1.00  0.00     0.091 A 
ATOM     86  F   UNL A   1      47.152  35.564  37.075  1.00  0.00    -0.205 F 
ATOM     87  C   UNL A   1      48.507  38.965  37.114  1.00  0.00     0.022 A 
BRANCH  85  88
ATOM     88  S   UNL A   1      49.557  36.863  38.515  1.00  0.00     0.127 S 
ATOM     89  O   UNL A   1      50.059  38.034  39.229  1.00  0.00    -0.237 OA
ATOM     90  O   UNL A   1      48.715  35.969  39.310  1.00  0.00    -0.237 OA
ATOM     91  O   UNL A   1      50.523  36.179  37.664  1.00  0.00    -0.744 OA
ENDBRANCH  85  88
ENDBRANCH  57  81
BRANCH  69  92
ATOM     92  C   UNL A   1      40.060  35.821  38.655  1.00  0.00     0.023 A 
ATOM     93  C   UNL A   1      39.426  37.052  38.910  1.00  0.00     0.012 A 
ATOM     94  C   UNL A   1      39.999  34.797  39.620  1.00  0.00     0.148 A 
ATOM     95  C   UNL A   1      38.772  37.273  40.121  1.00  0.00     0.002 A 
ATOM     96  C   UNL A   1      39.301  35.006  40.804  1.00  0.00     0.091 A 
ATOM     97  F   UNL A   1      40.623  33.637  39.366  1.00  0.00    -0.205 F 
ATOM     98  C   UNL A   1      38.698  36.247  41.062  1.00  0.00     0.022 A 
BRANCH  96  99
ATOM     99  S   UNL A   1      39.070  33.706  42.022  1.00  0.00     0.127 S 
ATOM    100  O   UNL A   1      38.223  34.372  43.010  1.00  0.00    -0.237 OA
ATOM    101  O   UNL A   1      38.396  32.665  41.244  1.00  0.00    -0.237 OA
ATOM    102  O   UNL A   1      40.405  33.346  42.479  1.00  0.00    -0.744 OA
ENDBRANCH  96  99
ENDBRANCH  69  92
ENDBRANCH  43  44
ENDBRANCH  36  38
ENDBRANCH  35  36
ENDBRANCH  34  35
ENDBRANCH  33  34
ENDBRANCH  32  33
ENDBRANCH  31  32
ENDBRANCH  30  31
ENDBRANCH   1  30
TORSDOF 26
ENDMDL
