MODEL 1
REMARK VINA RESULT:      -8.5      0.000      0.000
REMARK SMILES CCC(CC)(NC(=O)c1ccc(NC(C)=O)cc1)C(=O)OCCOCCOCCOCCOC(=O)c1ccc(-c2c3nc(c(-c4cccc(S(=O)(=O)[O-])c4F)c4ccc([nH]4)c(-c4cccc(S(=O)(=O)[O-])c4F)c4nc(c(-c5cccc(S(=O)(=O)[O-])c5F)c5ccc2[nH]5)C=C4)C=C3)cc1
REMARK SMILES IDX 27 1 26 2 25 3 24 4 23 5 22 6 21 7 19 8 20 9 3 10 2 11 1 12
REMARK SMILES IDX 4 13 5 14 6 15 7 16 8 18 9 19 10 20 18 21 11 22 17 23 12 24
REMARK SMILES IDX 13 25 14 26 15 28 16 29 28 30 29 31 30 32 31 33 32 34 33 35
REMARK SMILES IDX 34 36 35 37 36 38 37 39 98 40 38 41 97 42 39 43 40 44 41 45
REMARK SMILES IDX 91 46 42 47 96 48 90 49 92 50 43 51 95 52 89 53 88 54 44 56
REMARK SMILES IDX 76 57 56 58 75 59 57 60 60 61 74 62 93 63 58 64 59 65 73 67
REMARK SMILES IDX 94 68 61 69 45 70 46 71 54 72 47 73 49 74 55 75 48 76 50 77
REMARK SMILES IDX 51 78 52 79 53 80 77 81 78 82 86 83 79 84 81 85 87 86 80 87
REMARK SMILES IDX 82 88 83 89 84 90 85 91 62 92 63 93 71 94 64 95 66 96 72 97
REMARK SMILES IDX 65 98 67 99 68 100 69 101 70 102
REMARK H PARENT 6 17 13 27 92 55 60 66
REMARK Flexibility Score: inf
ROOT
ATOM      1  O   UNL A   1      34.045  33.407  27.983  1.00  0.00    -0.377 OA
ENDROOT
BRANCH   1   2
ATOM      2  C   UNL A   1      33.900  32.042  28.384  1.00  0.00     0.188 C 
BRANCH   2   3
ATOM      3  C   UNL A   1      34.717  31.041  27.545  1.00  0.00     0.188 C 
BRANCH   3   4
ATOM      4  O   UNL A   1      33.953  30.051  26.860  1.00  0.00    -0.376 OA
BRANCH   4   5
ATOM      5  C   UNL A   1      32.553  30.368  26.736  1.00  0.00     0.202 C 
BRANCH   5   6
ATOM      6  C   UNL A   1      31.792  29.952  25.452  1.00  0.00     0.261 C 
BRANCH   6   7
ATOM      7  O   UNL A   1      31.726  28.537  25.283  1.00  0.00    -0.461 OA
BRANCH   7   8
ATOM      8  C   UNL A   1      32.330  27.915  24.256  1.00  0.00     0.331 C 
ATOM      9  O   UNL A   1      33.000  28.495  23.410  1.00  0.00    -0.249 OA
BRANCH   8  10
ATOM     10  C   UNL A   1      32.154  26.357  24.365  1.00  0.00     0.137 C 
BRANCH  10  11
ATOM     11  C   UNL A   1      31.210  25.903  23.176  1.00  0.00     0.037 C 
ATOM     12  C   UNL A   1      30.132  24.867  23.492  1.00  0.00     0.007 C 
ENDBRANCH  10  11
BRANCH  10  13
ATOM     13  C   UNL A   1      31.498  26.050  25.740  1.00  0.00     0.037 C 
ATOM     14  C   UNL A   1      32.068  24.848  26.490  1.00  0.00     0.007 C 
ENDBRANCH  10  13
BRANCH  10  15
ATOM     15  N   UNL A   1      33.444  25.559  24.222  1.00  0.00    -0.336 N 
ATOM     16  C   UNL A   1      33.692  24.476  23.374  1.00  0.00     0.252 C 
ATOM     17  H   UNL A   1      34.193  25.840  24.797  1.00  0.00     0.165 HD
ATOM     18  O   UNL A   1      34.390  24.644  22.378  1.00  0.00    -0.269 OA
BRANCH  16  19
ATOM     19  C   UNL A   1      33.379  23.074  23.819  1.00  0.00     0.039 A 
ATOM     20  C   UNL A   1      32.685  22.263  22.941  1.00  0.00     0.016 A 
ATOM     21  C   UNL A   1      33.642  22.536  25.077  1.00  0.00     0.016 A 
ATOM     22  C   UNL A   1      32.270  20.964  23.237  1.00  0.00     0.027 A 
ATOM     23  C   UNL A   1      33.291  21.185  25.374  1.00  0.00     0.027 A 
ATOM     24  C   UNL A   1      32.598  20.387  24.447  1.00  0.00     0.041 A 
BRANCH  24  25
ATOM     25  N   UNL A   1      32.346  19.012  24.678  1.00  0.00    -0.326 N 
ATOM     26  C   UNL A   1      33.331  18.035  24.773  1.00  0.00     0.221 C 
ATOM     27  H   UNL A   1      31.408  18.728  24.777  1.00  0.00     0.169 HD
ATOM     28  C   UNL A   1      32.933  16.818  25.568  1.00  0.00     0.114 C 
ATOM     29  O   UNL A   1      34.462  18.103  24.294  1.00  0.00    -0.275 OA
ENDBRANCH  24  25
ENDBRANCH  16  19
ENDBRANCH  10  15
ENDBRANCH   8  10
ENDBRANCH   7   8
ENDBRANCH   6   7
ENDBRANCH   5   6
ENDBRANCH   4   5
ENDBRANCH   3   4
ENDBRANCH   2   3
ENDBRANCH   1   2
BRANCH   1  30
ATOM     30  C   UNL A   1      33.295  34.430  28.651  1.00  0.00     0.188 C 
BRANCH  30  31
ATOM     31  C   UNL A   1      33.926  35.111  29.867  1.00  0.00     0.188 C 
BRANCH  31  32
ATOM     32  O   UNL A   1      33.424  34.675  31.135  1.00  0.00    -0.376 OA
BRANCH  32  33
ATOM     33  C   UNL A   1      34.283  33.840  31.907  1.00  0.00     0.202 C 
BRANCH  33  34
ATOM     34  C   UNL A   1      35.736  33.701  31.420  1.00  0.00     0.261 C 
BRANCH  34  35
ATOM     35  O   UNL A   1      36.080  32.401  30.896  1.00  0.00    -0.460 OA
BRANCH  35  36
ATOM     36  C   UNL A   1      36.742  31.592  31.756  1.00  0.00     0.338 C 
ATOM     37  O   UNL A   1      36.294  31.143  32.811  1.00  0.00    -0.246 OA
BRANCH  36  38
ATOM     38  C   UNL A   1      38.078  31.201  31.250  1.00  0.00     0.060 A 
ATOM     39  C   UNL A   1      39.147  31.205  32.157  1.00  0.00     0.016 A 
ATOM     40  C   UNL A   1      38.324  31.019  29.886  1.00  0.00     0.016 A 
ATOM     41  C   UNL A   1      40.466  31.172  31.698  1.00  0.00     0.010 A 
ATOM     42  C   UNL A   1      39.650  30.982  29.425  1.00  0.00     0.010 A 
ATOM     43  C   UNL A   1      40.723  31.151  30.322  1.00  0.00    -0.014 A 
BRANCH  43  44
ATOM     44  C   UNL A   1      42.051  31.620  29.825  1.00  0.00     0.031 A 
ATOM     45  C   UNL A   1      43.069  30.571  29.430  1.00  0.00     0.074 A 
ATOM     46  C   UNL A   1      42.356  32.922  29.680  1.00  0.00     0.049 A 
ATOM     47  N   UNL A   1      44.287  30.718  28.974  1.00  0.00    -0.248 NA
ATOM     48  C   UNL A   1      42.656  29.164  29.576  1.00  0.00     0.031 C 
ATOM     49  C   UNL A   1      41.473  34.042  29.996  1.00  0.00     0.029 A 
ATOM     50  N   UNL A   1      43.515  33.520  29.240  1.00  0.00    -0.354 N 
ATOM     51  C   UNL A   1      44.795  29.431  28.822  1.00  0.00     0.074 A 
ATOM     52  C   UNL A   1      43.761  28.516  29.248  1.00  0.00     0.031 C 
ATOM     53  C   UNL A   1      42.130  35.192  29.762  1.00  0.00     0.029 A 
ATOM     54  C   UNL A   1      43.485  34.893  29.297  1.00  0.00     0.049 A 
ATOM     55  H   UNL A   1      44.292  33.011  28.916  1.00  0.00     0.167 HD
ATOM     56  C   UNL A   1      46.004  29.036  28.356  1.00  0.00     0.034 A 
ATOM     57  C   UNL A   1      44.445  35.801  29.019  1.00  0.00     0.034 A 
ATOM     58  C   UNL A   1      47.028  29.934  27.899  1.00  0.00     0.049 A 
ATOM     59  C   UNL A   1      45.793  35.336  28.518  1.00  0.00     0.074 A 
ATOM     60  C   UNL A   1      48.264  29.626  27.359  1.00  0.00     0.029 A 
ATOM     61  N   UNL A   1      46.944  31.316  27.941  1.00  0.00    -0.354 N 
ATOM     62  N   UNL A   1      46.214  34.119  28.274  1.00  0.00    -0.248 NA
ATOM     63  C   UNL A   1      46.786  36.380  28.215  1.00  0.00     0.031 C 
ATOM     64  C   UNL A   1      48.945  30.823  27.114  1.00  0.00     0.029 A 
ATOM     65  C   UNL A   1      48.111  31.876  27.451  1.00  0.00     0.049 A 
ATOM     66  H   UNL A   1      46.169  31.825  28.271  1.00  0.00     0.167 HD
ATOM     67  C   UNL A   1      47.494  34.254  27.743  1.00  0.00     0.074 A 
ATOM     68  C   UNL A   1      47.775  35.672  27.688  1.00  0.00     0.031 C 
ATOM     69  C   UNL A   1      48.362  33.290  27.342  1.00  0.00     0.034 A 
BRANCH  56  70
ATOM     70  C   UNL A   1      46.287  27.555  28.311  1.00  0.00     0.023 A 
ATOM     71  C   UNL A   1      46.700  26.877  29.477  1.00  0.00     0.012 A 
ATOM     72  C   UNL A   1      46.100  26.826  27.120  1.00  0.00     0.148 A 
ATOM     73  C   UNL A   1      46.963  25.508  29.446  1.00  0.00     0.002 A 
ATOM     74  C   UNL A   1      46.313  25.454  27.110  1.00  0.00     0.091 A 
ATOM     75  F   UNL A   1      45.726  27.490  26.017  1.00  0.00    -0.205 F 
ATOM     76  C   UNL A   1      46.759  24.796  28.268  1.00  0.00     0.022 A 
BRANCH  74  77
ATOM     77  S   UNL A   1      45.995  24.435  25.667  1.00  0.00     0.127 S 
ATOM     78  O   UNL A   1      46.442  23.120  26.128  1.00  0.00    -0.237 OA
ATOM     79  O   UNL A   1      44.547  24.566  25.510  1.00  0.00    -0.237 OA
ATOM     80  O   UNL A   1      46.778  25.013  24.583  1.00  0.00    -0.744 OA
ENDBRANCH  74  77
ENDBRANCH  56  70
BRANCH  57  81
ATOM     81  C   UNL A   1      44.165  37.261  29.163  1.00  0.00     0.023 A 
ATOM     82  C   UNL A   1      44.239  37.861  30.436  1.00  0.00     0.012 A 
ATOM     83  C   UNL A   1      43.809  38.051  28.053  1.00  0.00     0.148 A 
ATOM     84  C   UNL A   1      43.927  39.210  30.608  1.00  0.00     0.002 A 
ATOM     85  C   UNL A   1      43.557  39.408  28.222  1.00  0.00     0.091 A 
ATOM     86  F   UNL A   1      43.727  37.460  26.854  1.00  0.00    -0.205 F 
ATOM     87  C   UNL A   1      43.595  39.985  29.500  1.00  0.00     0.022 A 
BRANCH  85  88
ATOM     88  S   UNL A   1      43.245  40.514  26.842  1.00  0.00     0.127 S 
ATOM     89  O   UNL A   1      44.268  40.097  25.886  1.00  0.00    -0.237 OA
ATOM     90  O   UNL A   1      41.875  40.151  26.477  1.00  0.00    -0.237 OA
ATOM     91  O   UNL A   1      43.391  41.861  27.374  1.00  0.00    -0.744 OA
ENDBRANCH  85  88
ENDBRANCH  57  81
BRANCH  69  92
ATOM     92  C   UNL A   1      49.674  33.724  26.735  1.00  0.00     0.023 A 
ATOM     93  C   UNL A   1      49.739  34.128  25.387  1.00  0.00     0.012 A 
ATOM     94  C   UNL A   1      50.837  33.790  27.530  1.00  0.00     0.148 A 
ATOM     95  C   UNL A   1      50.948  34.546  24.828  1.00  0.00     0.002 A 
ATOM     96  C   UNL A   1      52.025  34.260  26.982  1.00  0.00     0.091 A 
ATOM     97  F   UNL A   1      50.764  33.388  28.807  1.00  0.00    -0.205 F 
ATOM     98  C   UNL A   1      52.086  34.623  25.627  1.00  0.00     0.022 A 
BRANCH  96  99
ATOM     99  S   UNL A   1      53.513  34.489  27.964  1.00  0.00     0.127 S 
ATOM    100  O   UNL A   1      53.687  33.162  28.553  1.00  0.00    -0.237 OA
ATOM    101  O   UNL A   1      54.506  34.838  26.947  1.00  0.00    -0.237 OA
ATOM    102  O   UNL A   1      53.211  35.558  28.905  1.00  0.00    -0.744 OA
ENDBRANCH  96  99
ENDBRANCH  69  92
ENDBRANCH  43  44
ENDBRANCH  36  38
ENDBRANCH  35  36
ENDBRANCH  34  35
ENDBRANCH  33  34
ENDBRANCH  32  33
ENDBRANCH  31  32
ENDBRANCH  30  31
ENDBRANCH   1  30
TORSDOF 28
ENDMDL
MODEL 2
REMARK VINA RESULT:      -8.3      6.150      7.545
REMARK SMILES CCC(CC)(NC(=O)c1ccc(NC(C)=O)cc1)C(=O)OCCOCCOCCOCCOC(=O)c1ccc(-c2c3nc(c(-c4cccc(S(=O)(=O)[O-])c4F)c4ccc([nH]4)c(-c4cccc(S(=O)(=O)[O-])c4F)c4nc(c(-c5cccc(S(=O)(=O)[O-])c5F)c5ccc2[nH]5)C=C4)C=C3)cc1
REMARK SMILES IDX 27 1 26 2 25 3 24 4 23 5 22 6 21 7 19 8 20 9 3 10 2 11 1 12
REMARK SMILES IDX 4 13 5 14 6 15 7 16 8 18 9 19 10 20 18 21 11 22 17 23 12 24
REMARK SMILES IDX 13 25 14 26 15 28 16 29 28 30 29 31 30 32 31 33 32 34 33 35
REMARK SMILES IDX 34 36 35 37 36 38 37 39 98 40 38 41 97 42 39 43 40 44 41 45
REMARK SMILES IDX 91 46 42 47 96 48 90 49 92 50 43 51 95 52 89 53 88 54 44 56
REMARK SMILES IDX 76 57 56 58 75 59 57 60 60 61 74 62 93 63 58 64 59 65 73 67
REMARK SMILES IDX 94 68 61 69 45 70 46 71 54 72 47 73 49 74 55 75 48 76 50 77
REMARK SMILES IDX 51 78 52 79 53 80 77 81 78 82 86 83 79 84 81 85 87 86 80 87
REMARK SMILES IDX 82 88 83 89 84 90 85 91 62 92 63 93 71 94 64 95 66 96 72 97
REMARK SMILES IDX 65 98 67 99 68 100 69 101 70 102
REMARK H PARENT 6 17 13 27 92 55 60 66
REMARK Flexibility Score: inf
ROOT
ATOM      1  O   UNL A   1      34.324  33.559  28.472  1.00  0.00    -0.377 OA
ENDROOT
BRANCH   1   2
ATOM      2  C   UNL A   1      34.374  32.185  28.867  1.00  0.00     0.188 C 
BRANCH   2   3
ATOM      3  C   UNL A   1      35.188  31.281  27.922  1.00  0.00     0.188 C 
BRANCH   3   4
ATOM      4  O   UNL A   1      34.419  30.484  27.024  1.00  0.00    -0.376 OA
BRANCH   4   5
ATOM      5  C   UNL A   1      32.996  30.562  27.238  1.00  0.00     0.202 C 
BRANCH   5   6
ATOM      6  C   UNL A   1      32.047  30.630  26.015  1.00  0.00     0.261 C 
BRANCH   6   7
ATOM      7  O   UNL A   1      31.492  29.360  25.676  1.00  0.00    -0.461 OA
BRANCH   7   8
ATOM      8  C   UNL A   1      30.842  29.155  24.517  1.00  0.00     0.331 C 
ATOM      9  O   UNL A   1      30.395  30.058  23.820  1.00  0.00    -0.249 OA
BRANCH   8  10
ATOM     10  C   UNL A   1      30.848  27.630  24.136  1.00  0.00     0.137 C 
BRANCH  10  11
ATOM     11  C   UNL A   1      32.113  27.376  23.216  1.00  0.00     0.037 C 
ATOM     12  C   UNL A   1      31.924  26.470  22.000  1.00  0.00     0.007 C 
ENDBRANCH  10  11
BRANCH  10  13
ATOM     13  C   UNL A   1      29.533  27.330  23.365  1.00  0.00     0.037 C 
ATOM     14  C   UNL A   1      28.576  26.352  24.046  1.00  0.00     0.007 C 
ENDBRANCH  10  13
BRANCH  10  15
ATOM     15  N   UNL A   1      30.978  26.679  25.321  1.00  0.00    -0.336 N 
ATOM     16  C   UNL A   1      32.098  25.938  25.705  1.00  0.00     0.252 C 
ATOM     17  H   UNL A   1      30.175  26.574  25.881  1.00  0.00     0.165 HD
ATOM     18  O   UNL A   1      32.742  26.294  26.688  1.00  0.00    -0.269 OA
BRANCH  16  19
ATOM     19  C   UNL A   1      32.340  24.570  25.129  1.00  0.00     0.039 A 
ATOM     20  C   UNL A   1      31.294  23.668  25.159  1.00  0.00     0.016 A 
ATOM     21  C   UNL A   1      33.556  24.088  24.646  1.00  0.00     0.016 A 
ATOM     22  C   UNL A   1      31.388  22.346  24.720  1.00  0.00     0.027 A 
ATOM     23  C   UNL A   1      33.652  22.764  24.125  1.00  0.00     0.027 A 
ATOM     24  C   UNL A   1      32.560  21.880  24.161  1.00  0.00     0.041 A 
BRANCH  24  25
ATOM     25  N   UNL A   1      32.603  20.605  23.543  1.00  0.00    -0.326 N 
ATOM     26  C   UNL A   1      32.882  19.416  24.209  1.00  0.00     0.221 C 
ATOM     27  H   UNL A   1      32.422  20.558  22.576  1.00  0.00     0.169 HD
ATOM     28  C   UNL A   1      32.323  18.182  23.548  1.00  0.00     0.114 C 
ATOM     29  O   UNL A   1      33.506  19.310  25.262  1.00  0.00    -0.275 OA
ENDBRANCH  24  25
ENDBRANCH  16  19
ENDBRANCH  10  15
ENDBRANCH   8  10
ENDBRANCH   7   8
ENDBRANCH   6   7
ENDBRANCH   5   6
ENDBRANCH   4   5
ENDBRANCH   3   4
ENDBRANCH   2   3
ENDBRANCH   1   2
BRANCH   1  30
ATOM     30  C   UNL A   1      34.081  34.575  29.455  1.00  0.00     0.188 C 
BRANCH  30  31
ATOM     31  C   UNL A   1      34.622  34.355  30.869  1.00  0.00     0.188 C 
BRANCH  31  32
ATOM     32  O   UNL A   1      33.653  33.917  31.827  1.00  0.00    -0.376 OA
BRANCH  32  33
ATOM     33  C   UNL A   1      34.160  33.423  33.065  1.00  0.00     0.202 C 
BRANCH  33  34
ATOM     34  C   UNL A   1      35.668  33.121  33.125  1.00  0.00     0.261 C 
BRANCH  34  35
ATOM     35  O   UNL A   1      36.099  32.408  34.304  1.00  0.00    -0.460 OA
BRANCH  35  36
ATOM     36  C   UNL A   1      37.386  32.620  34.664  1.00  0.00     0.338 C 
ATOM     37  O   UNL A   1      37.765  33.327  35.598  1.00  0.00    -0.246 OA
BRANCH  36  38
ATOM     38  C   UNL A   1      38.338  31.817  33.861  1.00  0.00     0.060 A 
ATOM     39  C   UNL A   1      38.423  30.444  34.132  1.00  0.00     0.016 A 
ATOM     40  C   UNL A   1      39.261  32.416  33.001  1.00  0.00     0.016 A 
ATOM     41  C   UNL A   1      39.506  29.696  33.662  1.00  0.00     0.010 A 
ATOM     42  C   UNL A   1      40.347  31.663  32.526  1.00  0.00     0.010 A 
ATOM     43  C   UNL A   1      40.521  30.325  32.931  1.00  0.00    -0.014 A 
BRANCH  43  44
ATOM     44  C   UNL A   1      41.872  29.691  32.872  1.00  0.00     0.031 A 
ATOM     45  C   UNL A   1      42.193  28.819  31.677  1.00  0.00     0.074 A 
ATOM     46  C   UNL A   1      42.814  29.896  33.810  1.00  0.00     0.049 A 
ATOM     47  N   UNL A   1      43.286  28.158  31.394  1.00  0.00    -0.248 NA
ATOM     48  C   UNL A   1      41.130  28.668  30.667  1.00  0.00     0.031 C 
ATOM     49  C   UNL A   1      42.660  30.726  35.002  1.00  0.00     0.029 A 
ATOM     50  N   UNL A   1      44.093  29.399  33.908  1.00  0.00    -0.354 N 
ATOM     51  C   UNL A   1      43.027  27.485  30.203  1.00  0.00     0.074 A 
ATOM     52  C   UNL A   1      41.669  27.803  29.825  1.00  0.00     0.031 C 
ATOM     53  C   UNL A   1      43.793  30.663  35.725  1.00  0.00     0.029 A 
ATOM     54  C   UNL A   1      44.746  29.774  35.058  1.00  0.00     0.049 A 
ATOM     55  H   UNL A   1      44.502  28.827  33.219  1.00  0.00     0.167 HD
ATOM     56  C   UNL A   1      43.843  26.685  29.475  1.00  0.00     0.034 A 
ATOM     57  C   UNL A   1      45.966  29.430  35.524  1.00  0.00     0.034 A 
ATOM     58  C   UNL A   1      45.204  26.387  29.823  1.00  0.00     0.049 A 
ATOM     59  C   UNL A   1      46.852  28.522  34.703  1.00  0.00     0.074 A 
ATOM     60  C   UNL A   1      46.126  25.631  29.119  1.00  0.00     0.029 A 
ATOM     61  N   UNL A   1      45.838  26.816  30.978  1.00  0.00    -0.354 N 
ATOM     62  N   UNL A   1      46.631  27.987  33.526  1.00  0.00    -0.248 NA
ATOM     63  C   UNL A   1      48.177  28.204  35.260  1.00  0.00     0.031 C 
ATOM     64  C   UNL A   1      47.304  25.568  29.871  1.00  0.00     0.029 A 
ATOM     65  C   UNL A   1      47.133  26.329  31.016  1.00  0.00     0.049 A 
ATOM     66  H   UNL A   1      45.427  27.383  31.670  1.00  0.00     0.167 HD
ATOM     67  C   UNL A   1      47.801  27.316  33.183  1.00  0.00     0.074 A 
ATOM     68  C   UNL A   1      48.735  27.523  34.269  1.00  0.00     0.031 C 
ATOM     69  C   UNL A   1      48.078  26.589  32.071  1.00  0.00     0.034 A 
BRANCH  56  70
ATOM     70  C   UNL A   1      43.281  26.074  28.215  1.00  0.00     0.023 A 
ATOM     71  C   UNL A   1      43.320  26.793  27.002  1.00  0.00     0.012 A 
ATOM     72  C   UNL A   1      42.755  24.768  28.226  1.00  0.00     0.148 A 
ATOM     73  C   UNL A   1      42.804  26.237  25.831  1.00  0.00     0.002 A 
ATOM     74  C   UNL A   1      42.291  24.200  27.046  1.00  0.00     0.091 A 
ATOM     75  F   UNL A   1      42.709  24.107  29.391  1.00  0.00    -0.205 F 
ATOM     76  C   UNL A   1      42.301  24.939  25.851  1.00  0.00     0.022 A 
BRANCH  74  77
ATOM     77  S   UNL A   1      41.705  22.506  26.950  1.00  0.00     0.127 S 
ATOM     78  O   UNL A   1      42.705  21.801  27.752  1.00  0.00    -0.237 OA
ATOM     79  O   UNL A   1      40.384  22.603  27.571  1.00  0.00    -0.237 OA
ATOM     80  O   UNL A   1      41.687  22.164  25.535  1.00  0.00    -0.744 OA
ENDBRANCH  74  77
ENDBRANCH  56  70
BRANCH  57  81
ATOM     81  C   UNL A   1      46.458  29.978  36.823  1.00  0.00     0.023 A 
ATOM     82  C   UNL A   1      47.235  31.155  36.832  1.00  0.00     0.012 A 
ATOM     83  C   UNL A   1      46.178  29.334  38.043  1.00  0.00     0.148 A 
ATOM     84  C   UNL A   1      47.755  31.657  38.026  1.00  0.00     0.002 A 
ATOM     85  C   UNL A   1      46.649  29.872  39.235  1.00  0.00     0.091 A 
ATOM     86  F   UNL A   1      45.453  28.208  38.013  1.00  0.00    -0.205 F 
ATOM     87  C   UNL A   1      47.455  31.021  39.227  1.00  0.00     0.022 A 
BRANCH  85  88
ATOM     88  S   UNL A   1      46.213  29.199  40.842  1.00  0.00     0.127 S 
ATOM     89  O   UNL A   1      44.759  29.337  40.840  1.00  0.00    -0.237 OA
ATOM     90  O   UNL A   1      46.702  27.824  40.728  1.00  0.00    -0.237 OA
ATOM     91  O   UNL A   1      46.923  30.013  41.818  1.00  0.00    -0.744 OA
ENDBRANCH  85  88
ENDBRANCH  57  81
BRANCH  69  92
ATOM     92  C   UNL A   1      49.467  26.018  31.922  1.00  0.00     0.023 A 
ATOM     93  C   UNL A   1      50.448  26.708  31.183  1.00  0.00     0.012 A 
ATOM     94  C   UNL A   1      49.817  24.818  32.576  1.00  0.00     0.148 A 
ATOM     95  C   UNL A   1      51.739  26.191  31.059  1.00  0.00     0.002 A 
ATOM     96  C   UNL A   1      51.118  24.338  32.494  1.00  0.00     0.091 A 
ATOM     97  F   UNL A   1      48.869  24.164  33.263  1.00  0.00    -0.205 F 
ATOM     98  C   UNL A   1      52.077  25.014  31.722  1.00  0.00     0.022 A 
BRANCH  96  99
ATOM     99  S   UNL A   1      51.666  22.886  33.399  1.00  0.00     0.127 S 
ATOM    100  O   UNL A   1      51.381  23.272  34.781  1.00  0.00    -0.237 OA
ATOM    101  O   UNL A   1      50.793  21.839  32.867  1.00  0.00    -0.237 OA
ATOM    102  O   UNL A   1      53.076  22.718  33.074  1.00  0.00    -0.744 OA
ENDBRANCH  96  99
ENDBRANCH  69  92
ENDBRANCH  43  44
ENDBRANCH  36  38
ENDBRANCH  35  36
ENDBRANCH  34  35
ENDBRANCH  33  34
ENDBRANCH  32  33
ENDBRANCH  31  32
ENDBRANCH  30  31
ENDBRANCH   1  30
TORSDOF 28
ENDMDL
MODEL 3
REMARK VINA RESULT:      -8.1      5.460      6.575
REMARK SMILES CCC(CC)(NC(=O)c1ccc(NC(C)=O)cc1)C(=O)OCCOCCOCCOCCOC(=O)c1ccc(-c2c3nc(c(-c4cccc(S(=O)(=O)[O-])c4F)c4ccc([nH]4)c(-c4cccc(S(=O)(=O)[O-])c4F)c4nc(c(-c5cccc(S(=O)(=O)[O-])c5F)c5ccc2[nH]5)C=C4)C=C3)cc1
REMARK SMILES IDX 27 1 26 2 25 3 24 4 23 5 22 6 21 7 19 8 20 9 3 10 2 11 1 12
REMARK SMILES IDX 4 13 5 14 6 15 7 16 8 18 9 19 10 20 18 21 11 22 17 23 12 24
REMARK SMILES IDX 13 25 14 26 15 28 16 29 28 30 29 31 30 32 31 33 32 34 33 35
REMARK SMILES IDX 34 36 35 37 36 38 37 39 98 40 38 41 97 42 39 43 40 44 41 45
REMARK SMILES IDX 91 46 42 47 96 48 90 49 92 50 43 51 95 52 89 53 88 54 44 56
REMARK SMILES IDX 76 57 56 58 75 59 57 60 60 61 74 62 93 63 58 64 59 65 73 67
REMARK SMILES IDX 94 68 61 69 45 70 46 71 54 72 47 73 49 74 55 75 48 76 50 77
REMARK SMILES IDX 51 78 52 79 53 80 77 81 78 82 86 83 79 84 81 85 87 86 80 87
REMARK SMILES IDX 82 88 83 89 84 90 85 91 62 92 63 93 71 94 64 95 66 96 72 97
REMARK SMILES IDX 65 98 67 99 68 100 69 101 70 102
REMARK H PARENT 6 17 13 27 92 55 60 66
REMARK Flexibility Score: inf
ROOT
ATOM      1  O   UNL A   1      34.181  33.484  28.210  1.00  0.00    -0.377 OA
ENDROOT
BRANCH   1   2
ATOM      2  C   UNL A   1      34.025  32.107  28.562  1.00  0.00     0.188 C 
BRANCH   2   3
ATOM      3  C   UNL A   1      34.648  31.117  27.558  1.00  0.00     0.188 C 
BRANCH   3   4
ATOM      4  O   UNL A   1      33.720  30.289  26.861  1.00  0.00    -0.376 OA
BRANCH   4   5
ATOM      5  C   UNL A   1      32.380  30.815  26.814  1.00  0.00     0.202 C 
BRANCH   5   6
ATOM      6  C   UNL A   1      31.530  30.613  25.533  1.00  0.00     0.261 C 
BRANCH   6   7
ATOM      7  O   UNL A   1      31.255  29.240  25.264  1.00  0.00    -0.461 OA
BRANCH   7   8
ATOM      8  C   UNL A   1      31.468  28.696  24.053  1.00  0.00     0.331 C 
ATOM      9  O   UNL A   1      31.512  29.347  23.015  1.00  0.00    -0.249 OA
BRANCH   8  10
ATOM     10  C   UNL A   1      31.766  27.158  24.176  1.00  0.00     0.137 C 
BRANCH  10  11
ATOM     11  C   UNL A   1      30.621  26.390  23.396  1.00  0.00     0.037 C 
ATOM     12  C   UNL A   1      29.176  26.704  23.783  1.00  0.00     0.007 C 
ENDBRANCH  10  11
BRANCH  10  13
ATOM     13  C   UNL A   1      31.749  26.792  25.685  1.00  0.00     0.037 C 
ATOM     14  C   UNL A   1      33.113  26.768  26.375  1.00  0.00     0.007 C 
ENDBRANCH  10  13
BRANCH  10  15
ATOM     15  N   UNL A   1      33.085  26.714  23.554  1.00  0.00    -0.336 N 
ATOM     16  C   UNL A   1      33.310  25.620  22.713  1.00  0.00     0.252 C 
ATOM     17  H   UNL A   1      33.873  27.262  23.773  1.00  0.00     0.165 HD
ATOM     18  O   UNL A   1      33.501  25.817  21.516  1.00  0.00    -0.269 OA
BRANCH  16  19
ATOM     19  C   UNL A   1      33.619  24.267  23.290  1.00  0.00     0.039 A 
ATOM     20  C   UNL A   1      33.025  23.168  22.700  1.00  0.00     0.016 A 
ATOM     21  C   UNL A   1      34.382  24.017  24.429  1.00  0.00     0.016 A 
ATOM     22  C   UNL A   1      33.168  21.858  23.162  1.00  0.00     0.027 A 
ATOM     23  C   UNL A   1      34.599  22.679  24.875  1.00  0.00     0.027 A 
ATOM     24  C   UNL A   1      33.988  21.586  24.238  1.00  0.00     0.041 A 
BRANCH  24  25
ATOM     25  N   UNL A   1      34.285  20.246  24.592  1.00  0.00    -0.326 N 
ATOM     26  C   UNL A   1      33.329  19.267  24.845  1.00  0.00     0.221 C 
ATOM     27  H   UNL A   1      35.233  19.990  24.663  1.00  0.00     0.169 HD
ATOM     28  C   UNL A   1      33.805  17.854  24.627  1.00  0.00     0.114 C 
ATOM     29  O   UNL A   1      32.169  19.468  25.198  1.00  0.00    -0.275 OA
ENDBRANCH  24  25
ENDBRANCH  16  19
ENDBRANCH  10  15
ENDBRANCH   8  10
ENDBRANCH   7   8
ENDBRANCH   6   7
ENDBRANCH   5   6
ENDBRANCH   4   5
ENDBRANCH   3   4
ENDBRANCH   2   3
ENDBRANCH   1   2
BRANCH   1  30
ATOM     30  C   UNL A   1      34.094  34.494  29.223  1.00  0.00     0.188 C 
BRANCH  30  31
ATOM     31  C   UNL A   1      34.652  34.174  30.611  1.00  0.00     0.188 C 
BRANCH  31  32
ATOM     32  O   UNL A   1      33.667  33.932  31.621  1.00  0.00    -0.376 OA
BRANCH  32  33
ATOM     33  C   UNL A   1      34.148  33.481  32.884  1.00  0.00     0.202 C 
BRANCH  33  34
ATOM     34  C   UNL A   1      35.649  33.158  32.979  1.00  0.00     0.261 C 
BRANCH  34  35
ATOM     35  O   UNL A   1      36.053  32.497  34.197  1.00  0.00    -0.460 OA
BRANCH  35  36
ATOM     36  C   UNL A   1      37.343  32.695  34.557  1.00  0.00     0.338 C 
ATOM     37  O   UNL A   1      37.731  33.411  35.480  1.00  0.00    -0.246 OA
BRANCH  36  38
ATOM     38  C   UNL A   1      38.284  31.864  33.770  1.00  0.00     0.060 A 
ATOM     39  C   UNL A   1      38.389  30.506  34.100  1.00  0.00     0.016 A 
ATOM     40  C   UNL A   1      39.182  32.431  32.862  1.00  0.00     0.016 A 
ATOM     41  C   UNL A   1      39.468  29.747  33.639  1.00  0.00     0.010 A 
ATOM     42  C   UNL A   1      40.264  31.667  32.396  1.00  0.00     0.010 A 
ATOM     43  C   UNL A   1      40.461  30.351  32.857  1.00  0.00    -0.014 A 
BRANCH  43  44
ATOM     44  C   UNL A   1      41.815  29.726  32.796  1.00  0.00     0.031 A 
ATOM     45  C   UNL A   1      42.132  28.838  31.612  1.00  0.00     0.074 A 
ATOM     46  C   UNL A   1      42.764  29.954  33.722  1.00  0.00     0.049 A 
ATOM     47  N   UNL A   1      43.229  28.181  31.329  1.00  0.00    -0.248 NA
ATOM     48  C   UNL A   1      41.061  28.663  30.615  1.00  0.00     0.031 C 
ATOM     49  C   UNL A   1      42.614  30.802  34.902  1.00  0.00     0.029 A 
ATOM     50  N   UNL A   1      44.049  29.469  33.816  1.00  0.00    -0.354 N 
ATOM     51  C   UNL A   1      42.964  27.487  30.152  1.00  0.00     0.074 A 
ATOM     52  C   UNL A   1      41.600  27.789  29.782  1.00  0.00     0.031 C 
ATOM     53  C   UNL A   1      43.755  30.759  35.615  1.00  0.00     0.029 A 
ATOM     54  C   UNL A   1      44.709  29.867  34.953  1.00  0.00     0.049 A 
ATOM     55  H   UNL A   1      44.456  28.889  33.132  1.00  0.00     0.167 HD
ATOM     56  C   UNL A   1      43.779  26.682  29.429  1.00  0.00     0.034 A 
ATOM     57  C   UNL A   1      45.936  29.541  35.413  1.00  0.00     0.034 A 
ATOM     58  C   UNL A   1      45.146  26.401  29.768  1.00  0.00     0.049 A 
ATOM     59  C   UNL A   1      46.821  28.627  34.599  1.00  0.00     0.074 A 
ATOM     60  C   UNL A   1      46.068  25.642  29.068  1.00  0.00     0.029 A 
ATOM     61  N   UNL A   1      45.787  26.853  30.911  1.00  0.00    -0.354 N 
ATOM     62  N   UNL A   1      46.594  28.072  33.433  1.00  0.00    -0.248 NA
ATOM     63  C   UNL A   1      48.154  28.328  35.149  1.00  0.00     0.031 C 
ATOM     64  C   UNL A   1      47.253  25.600  29.810  1.00  0.00     0.029 A 
ATOM     65  C   UNL A   1      47.086  26.378  30.944  1.00  0.00     0.049 A 
ATOM     66  H   UNL A   1      45.378  27.428  31.597  1.00  0.00     0.167 HD
ATOM     67  C   UNL A   1      47.767  27.404  33.090  1.00  0.00     0.074 A 
ATOM     68  C   UNL A   1      48.708  27.635  34.164  1.00  0.00     0.031 C 
ATOM     69  C   UNL A   1      48.039  26.662  31.986  1.00  0.00     0.034 A 
BRANCH  56  70
ATOM     70  C   UNL A   1      43.211  26.047  28.184  1.00  0.00     0.023 A 
ATOM     71  C   UNL A   1      43.223  26.752  26.962  1.00  0.00     0.012 A 
ATOM     72  C   UNL A   1      42.706  24.733  28.218  1.00  0.00     0.148 A 
ATOM     73  C   UNL A   1      42.701  26.173  25.805  1.00  0.00     0.002 A 
ATOM     74  C   UNL A   1      42.235  24.144  27.051  1.00  0.00     0.091 A 
ATOM     75  F   UNL A   1      42.685  24.087  29.392  1.00  0.00    -0.205 F 
ATOM     76  C   UNL A   1      42.218  24.868  25.847  1.00  0.00     0.022 A 
BRANCH  74  77
ATOM     77  S   UNL A   1      41.674  22.440  26.984  1.00  0.00     0.127 S 
ATOM     78  O   UNL A   1      40.319  22.554  27.522  1.00  0.00    -0.237 OA
ATOM     79  O   UNL A   1      41.739  22.152  25.551  1.00  0.00    -0.237 OA
ATOM     80  O   UNL A   1      42.606  21.675  27.800  1.00  0.00    -0.744 OA
ENDBRANCH  74  77
ENDBRANCH  56  70
BRANCH  57  81
ATOM     81  C   UNL A   1      46.435  30.113  36.699  1.00  0.00     0.023 A 
ATOM     82  C   UNL A   1      46.176  29.438  37.909  1.00  0.00     0.012 A 
ATOM     83  C   UNL A   1      47.148  31.327  36.732  1.00  0.00     0.148 A 
ATOM     84  C   UNL A   1      46.581  29.979  39.129  1.00  0.00     0.002 A 
ATOM     85  C   UNL A   1      47.601  31.831  37.947  1.00  0.00     0.091 A 
ATOM     86  F   UNL A   1      47.371  31.963  35.575  1.00  0.00    -0.205 F 
ATOM     87  C   UNL A   1      47.302  31.170  39.148  1.00  0.00     0.022 A 
BRANCH  85  88
ATOM     88  S   UNL A   1      48.643  33.290  38.062  1.00  0.00     0.127 S 
ATOM     89  O   UNL A   1      49.844  32.857  37.353  1.00  0.00    -0.237 OA
ATOM     90  O   UNL A   1      47.835  34.286  37.356  1.00  0.00    -0.237 OA
ATOM     91  O   UNL A   1      48.809  33.546  39.485  1.00  0.00    -0.744 OA
ENDBRANCH  85  88
ENDBRANCH  57  81
BRANCH  69  92
ATOM     92  C   UNL A   1      49.431  26.099  31.834  1.00  0.00     0.023 A 
ATOM     93  C   UNL A   1      49.750  24.831  32.358  1.00  0.00     0.012 A 
ATOM     94  C   UNL A   1      50.410  26.811  31.110  1.00  0.00     0.148 A 
ATOM     95  C   UNL A   1      51.033  24.300  32.203  1.00  0.00     0.002 A 
ATOM     96  C   UNL A   1      51.668  26.253  30.912  1.00  0.00     0.091 A 
ATOM     97  F   UNL A   1      50.097  28.023  30.630  1.00  0.00    -0.205 F 
ATOM     98  C   UNL A   1      51.986  25.005  31.472  1.00  0.00     0.022 A 
BRANCH  96  99
ATOM     99  S   UNL A   1      52.922  27.044  29.898  1.00  0.00     0.127 S 
ATOM    100  O   UNL A   1      52.219  27.203  28.625  1.00  0.00    -0.237 OA
ATOM    101  O   UNL A   1      53.164  28.293  30.620  1.00  0.00    -0.237 OA
ATOM    102  O   UNL A   1      54.056  26.131  29.877  1.00  0.00    -0.744 OA
ENDBRANCH  96  99
ENDBRANCH  69  92
ENDBRANCH  43  44
ENDBRANCH  36  38
ENDBRANCH  35  36
ENDBRANCH  34  35
ENDBRANCH  33  34
ENDBRANCH  32  33
ENDBRANCH  31  32
ENDBRANCH  30  31
ENDBRANCH   1  30
TORSDOF 28
ENDMDL
