MODEL 1
REMARK VINA RESULT:     -10.1      0.000      0.000
REMARK SMILES [NH3+][C@H]1COC[C@H]1C(=O)N[C@@H]1C=C[C@@H](C(=O)OCCOCCOCCOCCOC(=O)c2ccc(-c3c4nc(c(-c5cccc(S(=O)(=O)[O-])c5F)c5ccc([nH]5)c(-c5cccc(S(=O)(=O)[O-])c5F)c5nc(c(-c6cccc(S(=O)(=O)[O-])c6F)c6ccc3[nH]6)C=C5)C=C4)cc2)C1
REMARK SMILES IDX 22 1 21 2 20 3 19 4 18 5 17 6 16 7 14 8 15 9 13 10 10 11
REMARK SMILES IDX 11 12 94 13 12 14 9 15 7 16 8 17 6 19 2 20 3 21 4 22 5 23
REMARK SMILES IDX 1 24 23 28 24 29 25 30 26 31 27 32 28 33 29 34 30 35 31 36
REMARK SMILES IDX 32 37 93 38 33 39 92 40 34 41 35 42 36 43 86 44 37 45 91 46
REMARK SMILES IDX 85 47 87 48 38 49 90 50 84 51 83 52 39 54 71 55 51 56 70 57
REMARK SMILES IDX 52 58 55 59 69 60 88 61 53 62 54 63 68 65 89 66 56 67 40 68
REMARK SMILES IDX 41 69 49 70 42 71 44 72 50 73 43 74 45 75 46 76 47 77 48 78
REMARK SMILES IDX 72 79 73 80 81 81 74 82 76 83 82 84 75 85 77 86 78 87 79 88
REMARK SMILES IDX 80 89 57 90 58 91 66 92 59 93 61 94 67 95 60 96 62 97 63 98
REMARK SMILES IDX 64 99 65 100
REMARK H PARENT 9 18 1 25 1 26 1 27 87 53 55 64
REMARK Flexibility Score: inf
ROOT
ATOM      1  O   UNL A   1      34.173  28.274  25.431  1.00  0.00    -0.377 OA
ENDROOT
BRANCH   1   2
ATOM      2  C   UNL A   1      33.883  28.440  24.063  1.00  0.00     0.188 C 
BRANCH   2   3
ATOM      3  C   UNL A   1      32.458  28.285  23.504  1.00  0.00     0.188 C 
BRANCH   3   4
ATOM      4  O   UNL A   1      31.893  29.290  22.688  1.00  0.00    -0.376 OA
BRANCH   4   5
ATOM      5  C   UNL A   1      30.552  29.356  22.244  1.00  0.00     0.202 C 
BRANCH   5   6
ATOM      6  C   UNL A   1      29.362  28.551  22.791  1.00  0.00     0.261 C 
BRANCH   6   7
ATOM      7  O   UNL A   1      29.571  27.156  22.969  1.00  0.00    -0.463 OA
BRANCH   7   8
ATOM      8  C   UNL A   1      28.841  26.507  23.905  1.00  0.00     0.312 C 
ATOM      9  O   UNL A   1      27.636  26.656  24.068  1.00  0.00    -0.252 OA
BRANCH   8  10
ATOM     10  C   UNL A   1      29.677  25.456  24.649  1.00  0.00     0.124 C 
ATOM     11  C   UNL A   1      32.079  25.050  25.143  1.00  0.00     0.106 C 
ATOM     12  C   UNL A   1      31.367  25.715  26.267  1.00  0.00    -0.006 C 
ATOM     13  C   UNL A   1      31.028  25.038  24.037  1.00  0.00     0.048 C 
ATOM     14  C   UNL A   1      30.078  25.950  26.002  1.00  0.00    -0.014 C 
BRANCH  11  15
ATOM     15  N   UNL A   1      32.436  23.705  25.543  1.00  0.00    -0.349 N 
ATOM     16  C   UNL A   1      33.560  22.978  25.312  1.00  0.00     0.232 C 
ATOM     17  O   UNL A   1      33.542  21.797  25.678  1.00  0.00    -0.274 OA
ATOM     18  H   UNL A   1      31.748  23.239  26.072  1.00  0.00     0.164 HD
BRANCH  16  19
ATOM     19  C   UNL A   1      34.801  23.542  24.644  1.00  0.00     0.164 C 
ATOM     20  C   UNL A   1      36.173  23.230  25.232  1.00  0.00     0.221 C 
ATOM     21  C   UNL A   1      37.063  23.031  23.998  1.00  0.00     0.225 C 
ATOM     22  O   UNL A   1      36.242  22.963  22.830  1.00  0.00    -0.374 OA
ATOM     23  C   UNL A   1      34.888  23.252  23.162  1.00  0.00     0.180 C 
BRANCH  20  24
ATOM     24  N   UNL A   1      36.313  22.151  26.207  1.00  0.00    -0.352 N 
ATOM     25  H   UNL A   1      35.886  21.301  25.839  1.00  0.00     0.344 HD
ATOM     26  H   UNL A   1      35.848  22.416  27.075  1.00  0.00     0.344 HD
ATOM     27  H   UNL A   1      37.303  21.984  26.388  1.00  0.00     0.344 HD
ENDBRANCH  20  24
ENDBRANCH  16  19
ENDBRANCH  11  15
ENDBRANCH   8  10
ENDBRANCH   7   8
ENDBRANCH   6   7
ENDBRANCH   5   6
ENDBRANCH   4   5
ENDBRANCH   3   4
ENDBRANCH   2   3
ENDBRANCH   1   2
BRANCH   1  28
ATOM     28  C   UNL A   1      33.827  29.378  26.249  1.00  0.00     0.188 C 
BRANCH  28  29
ATOM     29  C   UNL A   1      32.664  28.995  27.164  1.00  0.00     0.188 C 
BRANCH  29  30
ATOM     30  O   UNL A   1      31.603  29.941  27.097  1.00  0.00    -0.376 OA
BRANCH  30  31
ATOM     31  C   UNL A   1      31.804  31.128  26.331  1.00  0.00     0.202 C 
BRANCH  31  32
ATOM     32  C   UNL A   1      31.777  32.552  26.940  1.00  0.00     0.261 C 
BRANCH  32  33
ATOM     33  O   UNL A   1      32.992  33.319  26.957  1.00  0.00    -0.460 OA
BRANCH  33  34
ATOM     34  C   UNL A   1      33.435  33.809  28.129  1.00  0.00     0.338 C 
ATOM     35  O   UNL A   1      32.855  34.596  28.859  1.00  0.00    -0.246 OA
BRANCH  34  36
ATOM     36  C   UNL A   1      34.659  33.055  28.492  1.00  0.00     0.060 A 
ATOM     37  C   UNL A   1      34.522  31.746  28.972  1.00  0.00     0.016 A 
ATOM     38  C   UNL A   1      35.932  33.611  28.329  1.00  0.00     0.016 A 
ATOM     39  C   UNL A   1      35.649  31.003  29.323  1.00  0.00     0.010 A 
ATOM     40  C   UNL A   1      37.062  32.875  28.709  1.00  0.00     0.010 A 
ATOM     41  C   UNL A   1      36.923  31.581  29.242  1.00  0.00    -0.014 A 
BRANCH  41  42
ATOM     42  C   UNL A   1      38.065  30.907  29.910  1.00  0.00     0.031 A 
ATOM     43  C   UNL A   1      38.401  31.309  31.321  1.00  0.00     0.074 A 
ATOM     44  C   UNL A   1      38.772  29.938  29.299  1.00  0.00     0.049 A 
ATOM     45  N   UNL A   1      39.341  30.859  32.111  1.00  0.00    -0.248 NA
ATOM     46  C   UNL A   1      37.563  32.360  31.924  1.00  0.00     0.031 C 
ATOM     47  C   UNL A   1      38.542  29.451  27.940  1.00  0.00     0.029 A 
ATOM     48  N   UNL A   1      39.845  29.205  29.743  1.00  0.00    -0.354 N 
ATOM     49  C   UNL A   1      39.231  31.592  33.286  1.00  0.00     0.074 A 
ATOM     50  C   UNL A   1      38.135  32.518  33.108  1.00  0.00     0.031 C 
ATOM     51  C   UNL A   1      39.471  28.524  27.648  1.00  0.00     0.029 A 
ATOM     52  C   UNL A   1      40.374  28.369  28.788  1.00  0.00     0.049 A 
ATOM     53  H   UNL A   1      40.202  29.272  30.658  1.00  0.00     0.167 HD
ATOM     54  C   UNL A   1      39.969  31.498  34.415  1.00  0.00     0.034 A 
ATOM     55  C   UNL A   1      41.476  27.591  28.822  1.00  0.00     0.034 A 
ATOM     56  C   UNL A   1      41.049  30.568  34.599  1.00  0.00     0.049 A 
ATOM     57  C   UNL A   1      42.294  27.521  30.089  1.00  0.00     0.074 A 
ATOM     58  C   UNL A   1      41.815  30.358  35.732  1.00  0.00     0.029 A 
ATOM     59  N   UNL A   1      41.531  29.710  33.625  1.00  0.00    -0.354 N 
ATOM     60  N   UNL A   1      42.096  28.124  31.235  1.00  0.00    -0.248 NA
ATOM     61  C   UNL A   1      43.469  26.636  30.076  1.00  0.00     0.031 C 
ATOM     62  C   UNL A   1      42.793  29.406  35.426  1.00  0.00     0.029 A 
ATOM     63  C   UNL A   1      42.600  28.986  34.121  1.00  0.00     0.049 A 
ATOM     64  H   UNL A   1      41.167  29.629  32.714  1.00  0.00     0.167 HD
ATOM     65  C   UNL A   1      43.095  27.663  32.088  1.00  0.00     0.074 A 
ATOM     66  C   UNL A   1      43.882  26.712  31.333  1.00  0.00     0.031 C 
ATOM     67  C   UNL A   1      43.346  28.005  33.376  1.00  0.00     0.034 A 
BRANCH  54  68
ATOM     68  C   UNL A   1      39.641  32.430  35.551  1.00  0.00     0.023 A 
ATOM     69  C   UNL A   1      40.116  33.756  35.537  1.00  0.00     0.012 A 
ATOM     70  C   UNL A   1      38.792  32.008  36.593  1.00  0.00     0.148 A 
ATOM     71  C   UNL A   1      39.770  34.643  36.555  1.00  0.00     0.002 A 
ATOM     72  C   UNL A   1      38.410  32.911  37.577  1.00  0.00     0.091 A 
ATOM     73  F   UNL A   1      38.371  30.736  36.598  1.00  0.00    -0.205 F 
ATOM     74  C   UNL A   1      38.907  34.225  37.566  1.00  0.00     0.022 A 
BRANCH  72  75
ATOM     75  S   UNL A   1      37.239  32.495  38.872  1.00  0.00     0.127 S 
ATOM     76  O   UNL A   1      37.639  33.414  39.938  1.00  0.00    -0.237 OA
ATOM     77  O   UNL A   1      35.960  32.813  38.239  1.00  0.00    -0.237 OA
ATOM     78  O   UNL A   1      37.442  31.082  39.163  1.00  0.00    -0.744 OA
ENDBRANCH  72  75
ENDBRANCH  54  68
BRANCH  55  79
ATOM     79  C   UNL A   1      41.884  26.810  27.618  1.00  0.00     0.023 A 
ATOM     80  C   UNL A   1      42.477  27.463  26.519  1.00  0.00     0.012 A 
ATOM     81  C   UNL A   1      41.666  25.421  27.552  1.00  0.00     0.148 A 
ATOM     82  C   UNL A   1      42.804  26.755  25.362  1.00  0.00     0.002 A 
ATOM     83  C   UNL A   1      42.051  24.711  26.421  1.00  0.00     0.091 A 
ATOM     84  F   UNL A   1      41.082  24.819  28.598  1.00  0.00    -0.205 F 
ATOM     85  C   UNL A   1      42.599  25.378  25.316  1.00  0.00     0.022 A 
BRANCH  83  86
ATOM     86  S   UNL A   1      41.950  22.920  26.332  1.00  0.00     0.127 S 
ATOM     87  O   UNL A   1      40.507  22.698  26.390  1.00  0.00    -0.237 OA
ATOM     88  O   UNL A   1      42.565  22.651  25.031  1.00  0.00    -0.237 OA
ATOM     89  O   UNL A   1      42.714  22.426  27.469  1.00  0.00    -0.744 OA
ENDBRANCH  83  86
ENDBRANCH  55  79
BRANCH  67  90
ATOM     90  C   UNL A   1      44.487  27.313  34.080  1.00  0.00     0.023 A 
ATOM     91  C   UNL A   1      45.755  27.925  34.146  1.00  0.00     0.012 A 
ATOM     92  C   UNL A   1      44.281  26.083  34.735  1.00  0.00     0.148 A 
ATOM     93  C   UNL A   1      46.809  27.304  34.815  1.00  0.00     0.002 A 
ATOM     94  C   UNL A   1      45.319  25.496  35.448  1.00  0.00     0.091 A 
ATOM     95  F   UNL A   1      43.072  25.509  34.651  1.00  0.00    -0.205 F 
ATOM     96  C   UNL A   1      46.588  26.097  35.475  1.00  0.00     0.022 A 
BRANCH  94  97
ATOM     97  S   UNL A   1      45.101  23.996  36.410  1.00  0.00     0.127 S 
ATOM     98  O   UNL A   1      44.618  24.527  37.684  1.00  0.00    -0.237 OA
ATOM     99  O   UNL A   1      44.096  23.271  35.631  1.00  0.00    -0.237 OA
ATOM    100  O   UNL A   1      46.407  23.353  36.457  1.00  0.00    -0.744 OA
ENDBRANCH  94  97
ENDBRANCH  67  90
ENDBRANCH  41  42
ENDBRANCH  34  36
ENDBRANCH  33  34
ENDBRANCH  32  33
ENDBRANCH  31  32
ENDBRANCH  30  31
ENDBRANCH  29  30
ENDBRANCH  28  29
ENDBRANCH   1  28
TORSDOF 26
ENDMDL
MODEL 2
REMARK VINA RESULT:      -9.9      0.791      7.314
REMARK SMILES [NH3+][C@H]1COC[C@H]1C(=O)N[C@@H]1C=C[C@@H](C(=O)OCCOCCOCCOCCOC(=O)c2ccc(-c3c4nc(c(-c5cccc(S(=O)(=O)[O-])c5F)c5ccc([nH]5)c(-c5cccc(S(=O)(=O)[O-])c5F)c5nc(c(-c6cccc(S(=O)(=O)[O-])c6F)c6ccc3[nH]6)C=C5)C=C4)cc2)C1
REMARK SMILES IDX 22 1 21 2 20 3 19 4 18 5 17 6 16 7 14 8 15 9 13 10 10 11
REMARK SMILES IDX 11 12 94 13 12 14 9 15 7 16 8 17 6 19 2 20 3 21 4 22 5 23
REMARK SMILES IDX 1 24 23 28 24 29 25 30 26 31 27 32 28 33 29 34 30 35 31 36
REMARK SMILES IDX 32 37 93 38 33 39 92 40 34 41 35 42 36 43 86 44 37 45 91 46
REMARK SMILES IDX 85 47 87 48 38 49 90 50 84 51 83 52 39 54 71 55 51 56 70 57
REMARK SMILES IDX 52 58 55 59 69 60 88 61 53 62 54 63 68 65 89 66 56 67 40 68
REMARK SMILES IDX 41 69 49 70 42 71 44 72 50 73 43 74 45 75 46 76 47 77 48 78
REMARK SMILES IDX 72 79 73 80 81 81 74 82 76 83 82 84 75 85 77 86 78 87 79 88
REMARK SMILES IDX 80 89 57 90 58 91 66 92 59 93 61 94 67 95 60 96 62 97 63 98
REMARK SMILES IDX 64 99 65 100
REMARK H PARENT 9 18 1 25 1 26 1 27 87 53 55 64
REMARK Flexibility Score: inf
ROOT
ATOM      1  O   UNL A   1      34.041  27.879  25.376  1.00  0.00    -0.377 OA
ENDROOT
BRANCH   1   2
ATOM      2  C   UNL A   1      34.045  28.116  23.988  1.00  0.00     0.188 C 
BRANCH   2   3
ATOM      3  C   UNL A   1      32.768  28.012  23.135  1.00  0.00     0.188 C 
BRANCH   3   4
ATOM      4  O   UNL A   1      32.150  29.174  22.622  1.00  0.00    -0.376 OA
BRANCH   4   5
ATOM      5  C   UNL A   1      30.769  29.353  22.379  1.00  0.00     0.202 C 
BRANCH   5   6
ATOM      6  C   UNL A   1      29.624  28.457  22.880  1.00  0.00     0.261 C 
BRANCH   6   7
ATOM      7  O   UNL A   1      29.932  27.578  23.954  1.00  0.00    -0.463 OA
BRANCH   7   8
ATOM      8  C   UNL A   1      29.155  26.487  24.141  1.00  0.00     0.312 C 
ATOM      9  O   UNL A   1      27.939  26.472  23.996  1.00  0.00    -0.252 OA
BRANCH   8  10
ATOM     10  C   UNL A   1      29.995  25.232  24.418  1.00  0.00     0.124 C 
ATOM     11  C   UNL A   1      32.281  24.413  23.890  1.00  0.00     0.106 C 
ATOM     12  C   UNL A   1      32.187  25.015  25.247  1.00  0.00    -0.006 C 
ATOM     13  C   UNL A   1      30.908  24.707  23.293  1.00  0.00     0.048 C 
ATOM     14  C   UNL A   1      30.963  25.471  25.532  1.00  0.00    -0.014 C 
BRANCH  11  15
ATOM     15  N   UNL A   1      32.501  22.988  24.023  1.00  0.00    -0.349 N 
ATOM     16  C   UNL A   1      33.634  22.283  24.279  1.00  0.00     0.232 C 
ATOM     17  O   UNL A   1      33.547  21.052  24.219  1.00  0.00    -0.274 OA
ATOM     18  H   UNL A   1      31.693  22.437  23.909  1.00  0.00     0.164 HD
BRANCH  16  19
ATOM     19  C   UNL A   1      34.962  22.930  24.628  1.00  0.00     0.164 C 
ATOM     20  C   UNL A   1      35.596  22.648  25.985  1.00  0.00     0.221 C 
ATOM     21  C   UNL A   1      37.095  22.545  25.675  1.00  0.00     0.225 C 
ATOM     22  O   UNL A   1      37.281  22.498  24.259  1.00  0.00    -0.374 OA
ATOM     23  C   UNL A   1      36.043  22.714  23.591  1.00  0.00     0.180 C 
BRANCH  20  24
ATOM     24  N   UNL A   1      35.110  21.531  26.792  1.00  0.00    -0.352 N 
ATOM     25  H   UNL A   1      35.480  20.656  26.421  1.00  0.00     0.344 HD
ATOM     26  H   UNL A   1      34.091  21.510  26.763  1.00  0.00     0.344 HD
ATOM     27  H   UNL A   1      35.421  21.649  27.757  1.00  0.00     0.344 HD
ENDBRANCH  20  24
ENDBRANCH  16  19
ENDBRANCH  11  15
ENDBRANCH   8  10
ENDBRANCH   7   8
ENDBRANCH   6   7
ENDBRANCH   5   6
ENDBRANCH   4   5
ENDBRANCH   3   4
ENDBRANCH   2   3
ENDBRANCH   1   2
BRANCH   1  28
ATOM     28  C   UNL A   1      33.619  28.978  26.163  1.00  0.00     0.188 C 
BRANCH  28  29
ATOM     29  C   UNL A   1      32.468  28.547  27.073  1.00  0.00     0.188 C 
BRANCH  29  30
ATOM     30  O   UNL A   1      31.504  29.581  27.233  1.00  0.00    -0.376 OA
BRANCH  30  31
ATOM     31  C   UNL A   1      31.468  30.628  26.265  1.00  0.00     0.202 C 
BRANCH  31  32
ATOM     32  C   UNL A   1      31.475  32.133  26.633  1.00  0.00     0.261 C 
BRANCH  32  33
ATOM     33  O   UNL A   1      32.720  32.849  26.588  1.00  0.00    -0.460 OA
BRANCH  33  34
ATOM     34  C   UNL A   1      33.100  33.561  27.664  1.00  0.00     0.338 C 
ATOM     35  O   UNL A   1      32.457  34.431  28.230  1.00  0.00    -0.246 OA
BRANCH  34  36
ATOM     36  C   UNL A   1      34.348  32.951  28.184  1.00  0.00     0.060 A 
ATOM     37  C   UNL A   1      34.297  31.642  28.681  1.00  0.00     0.016 A 
ATOM     38  C   UNL A   1      35.565  33.640  28.149  1.00  0.00     0.016 A 
ATOM     39  C   UNL A   1      35.450  31.032  29.176  1.00  0.00     0.010 A 
ATOM     40  C   UNL A   1      36.715  33.038  28.673  1.00  0.00     0.010 A 
ATOM     41  C   UNL A   1      36.655  31.745  29.223  1.00  0.00    -0.014 A 
BRANCH  41  42
ATOM     42  C   UNL A   1      37.778  31.210  30.034  1.00  0.00     0.031 A 
ATOM     43  C   UNL A   1      38.726  30.238  29.382  1.00  0.00     0.074 A 
ATOM     44  C   UNL A   1      37.979  31.595  31.308  1.00  0.00     0.049 A 
ATOM     45  N   UNL A   1      39.779  29.646  29.880  1.00  0.00    -0.248 NA
ATOM     46  C   UNL A   1      38.448  29.888  27.979  1.00  0.00     0.031 C 
ATOM     47  C   UNL A   1      37.141  32.535  32.051  1.00  0.00     0.029 A 
ATOM     48  N   UNL A   1      38.946  31.221  32.209  1.00  0.00    -0.354 N 
ATOM     49  C   UNL A   1      40.269  28.830  28.868  1.00  0.00     0.074 A 
ATOM     50  C   UNL A   1      39.398  28.999  27.727  1.00  0.00     0.031 C 
ATOM     51  C   UNL A   1      37.610  32.636  33.307  1.00  0.00     0.029 A 
ATOM     52  C   UNL A   1      38.766  31.753  33.464  1.00  0.00     0.049 A 
ATOM     53  H   UNL A   1      39.697  30.627  31.978  1.00  0.00     0.167 HD
ATOM     54  C   UNL A   1      41.350  28.018  28.882  1.00  0.00     0.034 A 
ATOM     55  C   UNL A   1      39.437  31.529  34.613  1.00  0.00     0.034 A 
ATOM     56  C   UNL A   1      42.227  27.860  30.010  1.00  0.00     0.049 A 
ATOM     57  C   UNL A   1      40.628  30.602  34.604  1.00  0.00     0.074 A 
ATOM     58  C   UNL A   1      43.384  27.106  30.097  1.00  0.00     0.029 A 
ATOM     59  N   UNL A   1      42.034  28.444  31.251  1.00  0.00    -0.354 N 
ATOM     60  N   UNL A   1      41.155  29.941  33.603  1.00  0.00    -0.248 NA
ATOM     61  C   UNL A   1      41.338  30.418  35.880  1.00  0.00     0.031 C 
ATOM     62  C   UNL A   1      43.864  27.196  31.407  1.00  0.00     0.029 A 
ATOM     63  C   UNL A   1      43.037  28.049  32.119  1.00  0.00     0.049 A 
ATOM     64  H   UNL A   1      41.293  29.050  31.481  1.00  0.00     0.167 HD
ATOM     65  C   UNL A   1      42.276  29.295  34.117  1.00  0.00     0.074 A 
ATOM     66  C   UNL A   1      42.366  29.664  35.514  1.00  0.00     0.031 C 
ATOM     67  C   UNL A   1      43.145  28.462  33.494  1.00  0.00     0.034 A 
BRANCH  54  68
ATOM     68  C   UNL A   1      41.655  27.228  27.638  1.00  0.00     0.023 A 
ATOM     69  C   UNL A   1      42.164  27.877  26.496  1.00  0.00     0.012 A 
ATOM     70  C   UNL A   1      41.510  25.826  27.633  1.00  0.00     0.148 A 
ATOM     71  C   UNL A   1      42.503  27.146  25.359  1.00  0.00     0.002 A 
ATOM     72  C   UNL A   1      41.897  25.099  26.515  1.00  0.00     0.091 A 
ATOM     73  F   UNL A   1      41.002  25.234  28.722  1.00  0.00    -0.205 F 
ATOM     74  C   UNL A   1      42.383  25.758  25.372  1.00  0.00     0.022 A 
BRANCH  72  75
ATOM     75  S   UNL A   1      41.861  23.306  26.466  1.00  0.00     0.127 S 
ATOM     76  O   UNL A   1      42.525  23.032  25.191  1.00  0.00    -0.237 OA
ATOM     77  O   UNL A   1      42.643  22.952  27.650  1.00  0.00    -0.237 OA
ATOM     78  O   UNL A   1      40.456  22.928  26.526  1.00  0.00    -0.744 OA
ENDBRANCH  72  75
ENDBRANCH  54  68
BRANCH  55  79
ATOM     79  C   UNL A   1      39.005  32.189  35.878  1.00  0.00     0.023 A 
ATOM     80  C   UNL A   1      39.380  33.521  36.145  1.00  0.00     0.012 A 
ATOM     81  C   UNL A   1      38.238  31.490  36.831  1.00  0.00     0.148 A 
ATOM     82  C   UNL A   1      39.036  34.129  37.354  1.00  0.00     0.002 A 
ATOM     83  C   UNL A   1      37.846  32.122  38.004  1.00  0.00     0.091 A 
ATOM     84  F   UNL A   1      37.908  30.218  36.570  1.00  0.00    -0.205 F 
ATOM     85  C   UNL A   1      38.263  33.433  38.280  1.00  0.00     0.022 A 
BRANCH  83  86
ATOM     86  S   UNL A   1      36.738  31.348  39.187  1.00  0.00     0.127 S 
ATOM     87  O   UNL A   1      35.642  32.312  39.245  1.00  0.00    -0.237 OA
ATOM     88  O   UNL A   1      36.418  30.087  38.515  1.00  0.00    -0.237 OA
ATOM     89  O   UNL A   1      37.514  31.195  40.410  1.00  0.00    -0.744 OA
ENDBRANCH  83  86
ENDBRANCH  55  79
BRANCH  67  90
ATOM     90  C   UNL A   1      44.307  27.927  34.294  1.00  0.00     0.023 A 
ATOM     91  C   UNL A   1      45.520  28.642  34.350  1.00  0.00     0.012 A 
ATOM     92  C   UNL A   1      44.169  26.744  35.048  1.00  0.00     0.148 A 
ATOM     93  C   UNL A   1      46.590  28.167  35.107  1.00  0.00     0.002 A 
ATOM     94  C   UNL A   1      45.219  26.306  35.846  1.00  0.00     0.091 A 
ATOM     95  F   UNL A   1      43.012  26.069  34.974  1.00  0.00    -0.205 F 
ATOM     96  C   UNL A   1      46.436  27.007  35.863  1.00  0.00     0.022 A 
BRANCH  94  97
ATOM     97  S   UNL A   1      45.078  24.881  36.929  1.00  0.00     0.127 S 
ATOM     98  O   UNL A   1      46.337  24.944  37.669  1.00  0.00    -0.237 OA
ATOM     99  O   UNL A   1      43.889  25.207  37.717  1.00  0.00    -0.237 OA
ATOM    100  O   UNL A   1      44.925  23.725  36.055  1.00  0.00    -0.744 OA
ENDBRANCH  94  97
ENDBRANCH  67  90
ENDBRANCH  41  42
ENDBRANCH  34  36
ENDBRANCH  33  34
ENDBRANCH  32  33
ENDBRANCH  31  32
ENDBRANCH  30  31
ENDBRANCH  29  30
ENDBRANCH  28  29
ENDBRANCH   1  28
TORSDOF 26
ENDMDL
MODEL 3
REMARK VINA RESULT:      -9.3      1.869      2.367
REMARK SMILES [NH3+][C@H]1COC[C@H]1C(=O)N[C@@H]1C=C[C@@H](C(=O)OCCOCCOCCOCCOC(=O)c2ccc(-c3c4nc(c(-c5cccc(S(=O)(=O)[O-])c5F)c5ccc([nH]5)c(-c5cccc(S(=O)(=O)[O-])c5F)c5nc(c(-c6cccc(S(=O)(=O)[O-])c6F)c6ccc3[nH]6)C=C5)C=C4)cc2)C1
REMARK SMILES IDX 22 1 21 2 20 3 19 4 18 5 17 6 16 7 14 8 15 9 13 10 10 11
REMARK SMILES IDX 11 12 94 13 12 14 9 15 7 16 8 17 6 19 2 20 3 21 4 22 5 23
REMARK SMILES IDX 1 24 23 28 24 29 25 30 26 31 27 32 28 33 29 34 30 35 31 36
REMARK SMILES IDX 32 37 93 38 33 39 92 40 34 41 35 42 36 43 86 44 37 45 91 46
REMARK SMILES IDX 85 47 87 48 38 49 90 50 84 51 83 52 39 54 71 55 51 56 70 57
REMARK SMILES IDX 52 58 55 59 69 60 88 61 53 62 54 63 68 65 89 66 56 67 40 68
REMARK SMILES IDX 41 69 49 70 42 71 44 72 50 73 43 74 45 75 46 76 47 77 48 78
REMARK SMILES IDX 72 79 73 80 81 81 74 82 76 83 82 84 75 85 77 86 78 87 79 88
REMARK SMILES IDX 80 89 57 90 58 91 66 92 59 93 61 94 67 95 60 96 62 97 63 98
REMARK SMILES IDX 64 99 65 100
REMARK H PARENT 9 18 1 25 1 26 1 27 87 53 55 64
REMARK Flexibility Score: inf
ROOT
ATOM      1  O   UNL A   1      33.419  28.163  24.438  1.00  0.00    -0.377 OA
ENDROOT
BRANCH   1   2
ATOM      2  C   UNL A   1      32.713  28.422  23.247  1.00  0.00     0.188 C 
BRANCH   2   3
ATOM      3  C   UNL A   1      31.547  27.534  22.776  1.00  0.00     0.188 C 
BRANCH   3   4
ATOM      4  O   UNL A   1      30.223  27.812  23.183  1.00  0.00    -0.376 OA
BRANCH   4   5
ATOM      5  C   UNL A   1      29.283  26.877  23.674  1.00  0.00     0.202 C 
BRANCH   5   6
ATOM      6  C   UNL A   1      29.591  25.560  24.404  1.00  0.00     0.261 C 
BRANCH   6   7
ATOM      7  O   UNL A   1      30.965  25.251  24.597  1.00  0.00    -0.463 OA
BRANCH   7   8
ATOM      8  C   UNL A   1      31.442  25.184  25.861  1.00  0.00     0.312 C 
ATOM      9  O   UNL A   1      31.431  26.117  26.654  1.00  0.00    -0.252 OA
BRANCH   8  10
ATOM     10  C   UNL A   1      31.872  23.756  26.231  1.00  0.00     0.124 C 
ATOM     11  C   UNL A   1      32.428  21.651  25.034  1.00  0.00     0.106 C 
ATOM     12  C   UNL A   1      33.637  22.433  25.410  1.00  0.00    -0.006 C 
ATOM     13  C   UNL A   1      31.286  22.588  25.414  1.00  0.00     0.048 C 
ATOM     14  C   UNL A   1      33.344  23.574  26.040  1.00  0.00    -0.014 C 
BRANCH  11  15
ATOM     15  N   UNL A   1      32.393  20.435  25.820  1.00  0.00    -0.349 N 
ATOM     16  C   UNL A   1      32.739  19.160  25.502  1.00  0.00     0.232 C 
ATOM     17  O   UNL A   1      32.490  18.291  26.345  1.00  0.00    -0.274 OA
ATOM     18  H   UNL A   1      32.064  20.552  26.741  1.00  0.00     0.164 HD
BRANCH  16  19
ATOM     19  C   UNL A   1      33.402  18.774  24.192  1.00  0.00     0.164 C 
ATOM     20  C   UNL A   1      34.438  17.656  24.181  1.00  0.00     0.221 C 
ATOM     21  C   UNL A   1      34.156  16.907  22.872  1.00  0.00     0.225 C 
ATOM     22  O   UNL A   1      32.920  17.370  22.322  1.00  0.00    -0.374 OA
ATOM     23  C   UNL A   1      32.428  18.473  23.075  1.00  0.00     0.180 C 
BRANCH  20  24
ATOM     24  N   UNL A   1      34.547  16.760  25.330  1.00  0.00    -0.352 N 
ATOM     25  H   UNL A   1      34.598  15.794  25.005  1.00  0.00     0.344 HD
ATOM     26  H   UNL A   1      33.729  16.875  25.928  1.00  0.00     0.344 HD
ATOM     27  H   UNL A   1      35.390  16.986  25.858  1.00  0.00     0.344 HD
ENDBRANCH  20  24
ENDBRANCH  16  19
ENDBRANCH  11  15
ENDBRANCH   8  10
ENDBRANCH   7   8
ENDBRANCH   6   7
ENDBRANCH   5   6
ENDBRANCH   4   5
ENDBRANCH   3   4
ENDBRANCH   2   3
ENDBRANCH   1   2
BRANCH   1  28
ATOM     28  C   UNL A   1      33.421  29.228  25.370  1.00  0.00     0.188 C 
BRANCH  28  29
ATOM     29  C   UNL A   1      32.000  29.464  25.884  1.00  0.00     0.188 C 
BRANCH  29  30
ATOM     30  O   UNL A   1      31.953  30.503  26.856  1.00  0.00    -0.376 OA
BRANCH  30  31
ATOM     31  C   UNL A   1      31.315  31.729  26.505  1.00  0.00     0.202 C 
BRANCH  31  32
ATOM     32  C   UNL A   1      31.871  33.123  26.888  1.00  0.00     0.261 C 
BRANCH  32  33
ATOM     33  O   UNL A   1      33.231  33.223  27.341  1.00  0.00    -0.460 OA
BRANCH  33  34
ATOM     34  C   UNL A   1      33.530  34.102  28.315  1.00  0.00     0.338 C 
ATOM     35  O   UNL A   1      32.895  35.098  28.621  1.00  0.00    -0.246 OA
BRANCH  34  36
ATOM     36  C   UNL A   1      34.648  33.530  29.103  1.00  0.00     0.060 A 
ATOM     37  C   UNL A   1      35.942  34.024  28.885  1.00  0.00     0.016 A 
ATOM     38  C   UNL A   1      34.429  32.546  30.072  1.00  0.00     0.016 A 
ATOM     39  C   UNL A   1      37.020  33.514  29.608  1.00  0.00     0.010 A 
ATOM     40  C   UNL A   1      35.516  32.014  30.776  1.00  0.00     0.010 A 
ATOM     41  C   UNL A   1      36.822  32.470  30.521  1.00  0.00    -0.014 A 
BRANCH  41  42
ATOM     42  C   UNL A   1      38.001  31.729  31.037  1.00  0.00     0.031 A 
ATOM     43  C   UNL A   1      38.436  31.985  32.455  1.00  0.00     0.074 A 
ATOM     44  C   UNL A   1      38.656  30.827  30.283  1.00  0.00     0.049 A 
ATOM     45  N   UNL A   1      39.424  31.455  33.128  1.00  0.00    -0.248 NA
ATOM     46  C   UNL A   1      37.650  32.969  33.218  1.00  0.00     0.031 C 
ATOM     47  C   UNL A   1      38.331  30.482  28.901  1.00  0.00     0.029 A 
ATOM     48  N   UNL A   1      39.752  30.051  30.575  1.00  0.00    -0.354 N 
ATOM     49  C   UNL A   1      39.400  32.064  34.377  1.00  0.00     0.074 A 
ATOM     50  C   UNL A   1      38.303  33.005  34.370  1.00  0.00     0.031 C 
ATOM     51  C   UNL A   1      39.230  29.589  28.452  1.00  0.00     0.029 A 
ATOM     52  C   UNL A   1      40.207  29.316  29.506  1.00  0.00     0.049 A 
ATOM     53  H   UNL A   1      40.171  30.024  31.466  1.00  0.00     0.167 HD
ATOM     54  C   UNL A   1      40.213  31.854  35.437  1.00  0.00     0.034 A 
ATOM     55  C   UNL A   1      41.303  28.537  29.384  1.00  0.00     0.034 A 
ATOM     56  C   UNL A   1      41.295  30.908  35.451  1.00  0.00     0.049 A 
ATOM     57  C   UNL A   1      42.205  28.338  30.579  1.00  0.00     0.074 A 
ATOM     58  C   UNL A   1      42.134  30.583  36.502  1.00  0.00     0.029 A 
ATOM     59  N   UNL A   1      41.703  30.155  34.363  1.00  0.00    -0.354 N 
ATOM     60  N   UNL A   1      42.090  28.820  31.792  1.00  0.00    -0.248 NA
ATOM     61  C   UNL A   1      43.368  27.457  30.395  1.00  0.00     0.031 C 
ATOM     62  C   UNL A   1      43.082  29.667  36.034  1.00  0.00     0.029 A 
ATOM     63  C   UNL A   1      42.797  29.382  34.708  1.00  0.00     0.049 A 
ATOM     64  H   UNL A   1      41.276  30.167  33.476  1.00  0.00     0.167 HD
ATOM     65  C   UNL A   1      43.141  28.273  32.523  1.00  0.00     0.074 A 
ATOM     66  C   UNL A   1      43.867  27.404  31.622  1.00  0.00     0.031 C 
ATOM     67  C   UNL A   1      43.482  28.481  33.818  1.00  0.00     0.034 A 
BRANCH  54  68
ATOM     68  C   UNL A   1      39.971  32.665  36.682  1.00  0.00     0.023 A 
ATOM     69  C   UNL A   1      40.656  33.881  36.878  1.00  0.00     0.012 A 
ATOM     70  C   UNL A   1      39.001  32.257  37.618  1.00  0.00     0.148 A 
ATOM     71  C   UNL A   1      40.395  34.667  37.999  1.00  0.00     0.002 A 
ATOM     72  C   UNL A   1      38.711  33.069  38.707  1.00  0.00     0.091 A 
ATOM     73  F   UNL A   1      38.379  31.086  37.424  1.00  0.00    -0.205 F 
ATOM     74  C   UNL A   1      39.415  34.269  38.905  1.00  0.00     0.022 A 
BRANCH  72  75
ATOM     75  S   UNL A   1      37.409  32.687  39.882  1.00  0.00     0.127 S 
ATOM     76  O   UNL A   1      37.320  33.935  40.640  1.00  0.00    -0.237 OA
ATOM     77  O   UNL A   1      36.272  32.425  39.001  1.00  0.00    -0.237 OA
ATOM     78  O   UNL A   1      37.874  31.533  40.640  1.00  0.00    -0.744 OA
ENDBRANCH  72  75
ENDBRANCH  54  68
BRANCH  55  79
ATOM     79  C   UNL A   1      41.621  27.884  28.082  1.00  0.00     0.023 A 
ATOM     80  C   UNL A   1      42.000  28.665  26.973  1.00  0.00     0.012 A 
ATOM     81  C   UNL A   1      41.529  26.486  27.936  1.00  0.00     0.148 A 
ATOM     82  C   UNL A   1      42.238  28.071  25.732  1.00  0.00     0.002 A 
ATOM     83  C   UNL A   1      41.828  25.895  26.714  1.00  0.00     0.091 A 
ATOM     84  F   UNL A   1      41.147  25.760  28.996  1.00  0.00    -0.205 F 
ATOM     85  C   UNL A   1      42.160  26.686  25.604  1.00  0.00     0.022 A 
BRANCH  83  86
ATOM     86  S   UNL A   1      41.886  24.114  26.499  1.00  0.00     0.127 S 
ATOM     87  O   UNL A   1      42.656  23.986  25.264  1.00  0.00    -0.237 OA
ATOM     88  O   UNL A   1      42.587  23.689  27.711  1.00  0.00    -0.237 OA
ATOM     89  O   UNL A   1      40.497  23.681  26.427  1.00  0.00    -0.744 OA
ENDBRANCH  83  86
ENDBRANCH  55  79
BRANCH  67  90
ATOM     90  C   UNL A   1      44.663  27.720  34.367  1.00  0.00     0.023 A 
ATOM     91  C   UNL A   1      45.971  28.212  34.187  1.00  0.00     0.012 A 
ATOM     92  C   UNL A   1      44.466  26.547  35.124  1.00  0.00     0.148 A 
ATOM     93  C   UNL A   1      47.066  27.527  34.712  1.00  0.00     0.002 A 
ATOM     94  C   UNL A   1      45.557  25.900  35.693  1.00  0.00     0.091 A 
ATOM     95  F   UNL A   1      43.216  26.086  35.275  1.00  0.00    -0.205 F 
ATOM     96  C   UNL A   1      46.858  26.379  35.474  1.00  0.00     0.022 A 
BRANCH  94  97
ATOM     97  S   UNL A   1      45.377  24.475  36.770  1.00  0.00     0.127 S 
ATOM     98  O   UNL A   1      46.761  24.233  37.176  1.00  0.00    -0.237 OA
ATOM     99  O   UNL A   1      44.512  24.994  37.830  1.00  0.00    -0.237 OA
ATOM    100  O   UNL A   1      44.773  23.428  35.957  1.00  0.00    -0.744 OA
ENDBRANCH  94  97
ENDBRANCH  67  90
ENDBRANCH  41  42
ENDBRANCH  34  36
ENDBRANCH  33  34
ENDBRANCH  32  33
ENDBRANCH  31  32
ENDBRANCH  30  31
ENDBRANCH  29  30
ENDBRANCH  28  29
ENDBRANCH   1  28
TORSDOF 26
ENDMDL
