MODEL 1
REMARK VINA RESULT:      -9.3      0.000      0.000
REMARK SMILES C[C@@H](NC1=[NH+]CCC1)C(=O)OCCOCCOCCOCCOC(=O)c1ccc(-c2c3nc(c(-c4cccc(S(=O)(=O)[O-])c4F)c4ccc([nH]4)c(-c4cccc(S(=O)(=O)[O-])c4F)c4nc(c(-c5cccc(S(=O)(=O)[O-])c5F)c5ccc2[nH]5)C=C4)C=C3)cc1
REMARK SMILES IDX 18 1 17 2 16 3 15 4 14 5 13 6 12 7 11 8 9 9 10 10 2 11 1 12
REMARK SMILES IDX 3 13 4 14 5 16 8 17 6 18 7 20 19 21 20 22 21 23 22 24 23 25
REMARK SMILES IDX 24 26 25 27 26 28 27 29 88 30 28 31 87 32 29 33 30 34 31 35
REMARK SMILES IDX 81 36 32 37 86 38 80 39 82 40 33 41 85 42 79 43 78 44 34 46
REMARK SMILES IDX 66 47 46 48 65 49 47 50 50 51 64 52 83 53 48 54 49 55 63 57
REMARK SMILES IDX 84 58 51 59 35 60 36 61 44 62 37 63 39 64 45 65 38 66 40 67
REMARK SMILES IDX 41 68 42 69 43 70 67 71 68 72 76 73 69 74 71 75 77 76 70 77
REMARK SMILES IDX 72 78 73 79 74 80 75 81 52 82 53 83 61 84 54 85 56 86 62 87
REMARK SMILES IDX 55 88 57 89 58 90 59 91 60 92
REMARK H PARENT 3 15 5 19 82 45 50 56
REMARK Flexibility Score: inf
ROOT
ATOM      1  C   UNL A   1      36.867  22.219  24.098  1.00  0.00     0.188 C 
ENDROOT
BRANCH   1   2
ATOM      2  O   UNL A   1      36.304  23.420  24.618  1.00  0.00    -0.377 OA
BRANCH   2   3
ATOM      3  C   UNL A   1      35.668  23.338  25.877  1.00  0.00     0.188 C 
BRANCH   3   4
ATOM      4  C   UNL A   1      34.544  24.362  26.127  1.00  0.00     0.188 C 
BRANCH   4   5
ATOM      5  O   UNL A   1      33.770  24.917  25.073  1.00  0.00    -0.376 OA
BRANCH   5   6
ATOM      6  C   UNL A   1      32.627  25.716  25.320  1.00  0.00     0.202 C 
BRANCH   6   7
ATOM      7  C   UNL A   1      31.356  25.104  25.909  1.00  0.00     0.261 C 
BRANCH   7   8
ATOM      8  O   UNL A   1      30.919  23.831  25.410  1.00  0.00    -0.460 OA
BRANCH   8   9
ATOM      9  C   UNL A   1      31.346  22.728  26.079  1.00  0.00     0.350 C 
ATOM     10  O   UNL A   1      31.464  22.656  27.299  1.00  0.00    -0.247 OA
BRANCH   9  11
ATOM     11  C   UNL A   1      31.820  21.615  25.138  1.00  0.00     0.279 C 
ATOM     12  C   UNL A   1      32.394  22.101  23.803  1.00  0.00     0.071 C 
BRANCH  11  13
ATOM     13  N   UNL A   1      32.777  20.698  25.769  1.00  0.00    -0.265 N 
ATOM     14  C   UNL A   1      32.936  19.377  25.470  1.00  0.00     0.243 C 
ATOM     15  H   UNL A   1      33.358  21.070  26.471  1.00  0.00     0.305 HD
ATOM     16  N   UNL A   1      32.837  18.488  26.413  1.00  0.00    -0.279 N 
ATOM     17  C   UNL A   1      33.333  18.836  24.123  1.00  0.00     0.131 C 
ATOM     18  C   UNL A   1      33.019  17.182  25.745  1.00  0.00     0.234 C 
ATOM     19  H   UNL A   1      32.673  18.651  27.370  1.00  0.00     0.304 HD
ATOM     20  C   UNL A   1      32.778  17.443  24.271  1.00  0.00     0.058 C 
ENDBRANCH  11  13
ENDBRANCH   9  11
ENDBRANCH   8   9
ENDBRANCH   7   8
ENDBRANCH   6   7
ENDBRANCH   5   6
ENDBRANCH   4   5
ENDBRANCH   3   4
ENDBRANCH   2   3
ENDBRANCH   1   2
BRANCH   1  21
ATOM     21  C   UNL A   1      37.741  21.378  25.049  1.00  0.00     0.188 C 
BRANCH  21  22
ATOM     22  O   UNL A   1      37.694  19.981  24.784  1.00  0.00    -0.376 OA
BRANCH  22  23
ATOM     23  C   UNL A   1      38.697  19.141  25.331  1.00  0.00     0.202 C 
BRANCH  23  24
ATOM     24  C   UNL A   1      39.830  19.811  26.126  1.00  0.00     0.261 C 
BRANCH  24  25
ATOM     25  O   UNL A   1      40.955  18.979  26.446  1.00  0.00    -0.460 OA
BRANCH  25  26
ATOM     26  C   UNL A   1      42.181  19.448  26.122  1.00  0.00     0.338 C 
ATOM     27  O   UNL A   1      43.046  18.862  25.505  1.00  0.00    -0.246 OA
BRANCH  26  28
ATOM     28  C   UNL A   1      42.223  20.888  26.456  1.00  0.00     0.060 A 
ATOM     29  C   UNL A   1      42.071  21.810  25.413  1.00  0.00     0.016 A 
ATOM     30  C   UNL A   1      42.434  21.325  27.766  1.00  0.00     0.016 A 
ATOM     31  C   UNL A   1      42.196  23.172  25.668  1.00  0.00     0.010 A 
ATOM     32  C   UNL A   1      42.579  22.693  28.018  1.00  0.00     0.010 A 
ATOM     33  C   UNL A   1      42.511  23.616  26.959  1.00  0.00    -0.014 A 
BRANCH  33  34
ATOM     34  C   UNL A   1      42.975  25.013  27.126  1.00  0.00     0.031 A 
ATOM     35  C   UNL A   1      42.059  25.995  27.809  1.00  0.00     0.074 A 
ATOM     36  C   UNL A   1      44.214  25.381  26.759  1.00  0.00     0.049 A 
ATOM     37  N   UNL A   1      42.276  27.243  28.131  1.00  0.00    -0.248 NA
ATOM     38  C   UNL A   1      40.723  25.503  28.183  1.00  0.00     0.031 C 
ATOM     39  C   UNL A   1      45.191  24.519  26.097  1.00  0.00     0.029 A 
ATOM     40  N   UNL A   1      44.856  26.586  26.886  1.00  0.00    -0.354 N 
ATOM     41  C   UNL A   1      41.105  27.687  28.735  1.00  0.00     0.074 A 
ATOM     42  C   UNL A   1      40.170  26.584  28.709  1.00  0.00     0.031 C 
ATOM     43  C   UNL A   1      46.304  25.232  25.853  1.00  0.00     0.029 A 
ATOM     44  C   UNL A   1      46.112  26.601  26.327  1.00  0.00     0.049 A 
ATOM     45  H   UNL A   1      44.457  27.366  27.335  1.00  0.00     0.167 HD
ATOM     46  C   UNL A   1      40.839  28.895  29.286  1.00  0.00     0.034 A 
ATOM     47  C   UNL A   1      46.994  27.612  26.198  1.00  0.00     0.034 A 
ATOM     48  C   UNL A   1      41.771  29.989  29.313  1.00  0.00     0.049 A 
ATOM     49  C   UNL A   1      46.662  28.956  26.791  1.00  0.00     0.074 A 
ATOM     50  C   UNL A   1      41.603  31.249  29.861  1.00  0.00     0.029 A 
ATOM     51  N   UNL A   1      43.041  29.960  28.760  1.00  0.00    -0.354 N 
ATOM     52  N   UNL A   1      45.590  29.329  27.450  1.00  0.00    -0.248 NA
ATOM     53  C   UNL A   1      47.680  30.008  26.659  1.00  0.00     0.031 C 
ATOM     54  C   UNL A   1      42.762  31.992  29.611  1.00  0.00     0.029 A 
ATOM     55  C   UNL A   1      43.668  31.180  28.946  1.00  0.00     0.049 A 
ATOM     56  H   UNL A   1      43.440  29.185  28.302  1.00  0.00     0.167 HD
ATOM     57  C   UNL A   1      45.819  30.645  27.838  1.00  0.00     0.074 A 
ATOM     58  C   UNL A   1      47.145  30.992  27.369  1.00  0.00     0.031 C 
ATOM     59  C   UNL A   1      45.003  31.497  28.509  1.00  0.00     0.034 A 
BRANCH  46  60
ATOM     60  C   UNL A   1      39.489  29.085  29.927  1.00  0.00     0.023 A 
ATOM     61  C   UNL A   1      39.216  28.480  31.173  1.00  0.00     0.012 A 
ATOM     62  C   UNL A   1      38.510  29.899  29.327  1.00  0.00     0.148 A 
ATOM     63  C   UNL A   1      37.981  28.658  31.794  1.00  0.00     0.002 A 
ATOM     64  C   UNL A   1      37.298  30.110  29.974  1.00  0.00     0.091 A 
ATOM     65  F   UNL A   1      38.779  30.447  28.133  1.00  0.00    -0.205 F 
ATOM     66  C   UNL A   1      37.027  29.481  31.200  1.00  0.00     0.022 A 
BRANCH  64  67
ATOM     67  S   UNL A   1      36.033  31.213  29.334  1.00  0.00     0.127 S 
ATOM     68  O   UNL A   1      35.168  31.377  30.502  1.00  0.00    -0.237 OA
ATOM     69  O   UNL A   1      36.813  32.399  28.980  1.00  0.00    -0.237 OA
ATOM     70  O   UNL A   1      35.427  30.520  28.206  1.00  0.00    -0.744 OA
ENDBRANCH  64  67
ENDBRANCH  46  60
BRANCH  47  71
ATOM     71  C   UNL A   1      48.282  27.391  25.483  1.00  0.00     0.023 A 
ATOM     72  C   UNL A   1      49.444  27.050  26.204  1.00  0.00     0.012 A 
ATOM     73  C   UNL A   1      48.360  27.525  24.083  1.00  0.00     0.148 A 
ATOM     74  C   UNL A   1      50.665  26.887  25.548  1.00  0.00     0.002 A 
ATOM     75  C   UNL A   1      49.564  27.300  23.430  1.00  0.00     0.091 A 
ATOM     76  F   UNL A   1      47.248  27.868  23.417  1.00  0.00    -0.205 F 
ATOM     77  C   UNL A   1      50.723  27.002  24.161  1.00  0.00     0.022 A 
BRANCH  75  78
ATOM     78  S   UNL A   1      49.700  27.299  21.639  1.00  0.00     0.127 S 
ATOM     79  O   UNL A   1      48.668  26.338  21.263  1.00  0.00    -0.237 OA
ATOM     80  O   UNL A   1      49.394  28.693  21.316  1.00  0.00    -0.237 OA
ATOM     81  O   UNL A   1      51.071  26.902  21.351  1.00  0.00    -0.744 OA
ENDBRANCH  75  78
ENDBRANCH  47  71
BRANCH  59  82
ATOM     82  C   UNL A   1      45.535  32.876  28.809  1.00  0.00     0.023 A 
ATOM     83  C   UNL A   1      46.245  33.116  30.003  1.00  0.00     0.012 A 
ATOM     84  C   UNL A   1      45.365  33.928  27.886  1.00  0.00     0.148 A 
ATOM     85  C   UNL A   1      46.728  34.391  30.298  1.00  0.00     0.002 A 
ATOM     86  C   UNL A   1      45.897  35.181  28.161  1.00  0.00     0.091 A 
ATOM     87  F   UNL A   1      44.676  33.687  26.761  1.00  0.00    -0.205 F 
ATOM     88  C   UNL A   1      46.562  35.419  29.374  1.00  0.00     0.022 A 
BRANCH  86  89
ATOM     89  S   UNL A   1      45.818  36.539  26.988  1.00  0.00     0.127 S 
ATOM     90  O   UNL A   1      46.420  35.938  25.798  1.00  0.00    -0.237 OA
ATOM     91  O   UNL A   1      44.378  36.778  26.887  1.00  0.00    -0.237 OA
ATOM     92  O   UNL A   1      46.571  37.632  27.587  1.00  0.00    -0.744 OA
ENDBRANCH  86  89
ENDBRANCH  59  82
ENDBRANCH  33  34
ENDBRANCH  26  28
ENDBRANCH  25  26
ENDBRANCH  24  25
ENDBRANCH  23  24
ENDBRANCH  22  23
ENDBRANCH  21  22
ENDBRANCH   1  21
TORSDOF 24
ENDMDL
MODEL 2
REMARK VINA RESULT:      -8.8      1.724      3.088
REMARK SMILES C[C@@H](NC1=[NH+]CCC1)C(=O)OCCOCCOCCOCCOC(=O)c1ccc(-c2c3nc(c(-c4cccc(S(=O)(=O)[O-])c4F)c4ccc([nH]4)c(-c4cccc(S(=O)(=O)[O-])c4F)c4nc(c(-c5cccc(S(=O)(=O)[O-])c5F)c5ccc2[nH]5)C=C4)C=C3)cc1
REMARK SMILES IDX 18 1 17 2 16 3 15 4 14 5 13 6 12 7 11 8 9 9 10 10 2 11 1 12
REMARK SMILES IDX 3 13 4 14 5 16 8 17 6 18 7 20 19 21 20 22 21 23 22 24 23 25
REMARK SMILES IDX 24 26 25 27 26 28 27 29 88 30 28 31 87 32 29 33 30 34 31 35
REMARK SMILES IDX 81 36 32 37 86 38 80 39 82 40 33 41 85 42 79 43 78 44 34 46
REMARK SMILES IDX 66 47 46 48 65 49 47 50 50 51 64 52 83 53 48 54 49 55 63 57
REMARK SMILES IDX 84 58 51 59 35 60 36 61 44 62 37 63 39 64 45 65 38 66 40 67
REMARK SMILES IDX 41 68 42 69 43 70 67 71 68 72 76 73 69 74 71 75 77 76 70 77
REMARK SMILES IDX 72 78 73 79 74 80 75 81 52 82 53 83 61 84 54 85 56 86 62 87
REMARK SMILES IDX 55 88 57 89 58 90 59 91 60 92
REMARK H PARENT 3 15 5 19 82 45 50 56
REMARK Flexibility Score: inf
ROOT
ATOM      1  C   UNL A   1      35.532  20.508  24.643  1.00  0.00     0.188 C 
ENDROOT
BRANCH   1   2
ATOM      2  O   UNL A   1      34.851  21.166  25.708  1.00  0.00    -0.377 OA
BRANCH   2   3
ATOM      3  C   UNL A   1      33.469  21.403  25.534  1.00  0.00     0.188 C 
BRANCH   3   4
ATOM      4  C   UNL A   1      32.928  21.190  24.107  1.00  0.00     0.188 C 
BRANCH   4   5
ATOM      5  O   UNL A   1      33.131  22.134  23.065  1.00  0.00    -0.376 OA
BRANCH   5   6
ATOM      6  C   UNL A   1      33.842  23.341  23.273  1.00  0.00     0.202 C 
BRANCH   6   7
ATOM      7  C   UNL A   1      33.357  24.652  22.656  1.00  0.00     0.261 C 
BRANCH   7   8
ATOM      8  O   UNL A   1      32.184  25.270  23.205  1.00  0.00    -0.460 OA
BRANCH   8   9
ATOM      9  C   UNL A   1      32.241  25.651  24.508  1.00  0.00     0.350 C 
ATOM     10  O   UNL A   1      33.282  25.846  25.131  1.00  0.00    -0.247 OA
BRANCH   9  11
ATOM     11  C   UNL A   1      30.863  25.667  25.179  1.00  0.00     0.279 C 
ATOM     12  C   UNL A   1      30.652  26.800  26.189  1.00  0.00     0.071 C 
BRANCH  11  13
ATOM     13  N   UNL A   1      29.755  25.667  24.216  1.00  0.00    -0.265 N 
ATOM     14  C   UNL A   1      29.148  26.771  23.695  1.00  0.00     0.243 C 
ATOM     15  H   UNL A   1      29.420  24.790  23.919  1.00  0.00     0.305 HD
ATOM     16  N   UNL A   1      27.861  26.911  23.810  1.00  0.00    -0.279 N 
ATOM     17  C   UNL A   1      29.834  27.831  22.877  1.00  0.00     0.131 C 
ATOM     18  C   UNL A   1      27.547  28.212  23.182  1.00  0.00     0.234 C 
ATOM     19  H   UNL A   1      27.229  26.283  24.230  1.00  0.00     0.304 HD
ATOM     20  C   UNL A   1      28.866  28.959  23.119  1.00  0.00     0.058 C 
ENDBRANCH  11  13
ENDBRANCH   9  11
ENDBRANCH   8   9
ENDBRANCH   7   8
ENDBRANCH   6   7
ENDBRANCH   5   6
ENDBRANCH   4   5
ENDBRANCH   3   4
ENDBRANCH   2   3
ENDBRANCH   1   2
BRANCH   1  21
ATOM     21  C   UNL A   1      36.342  19.245  24.995  1.00  0.00     0.188 C 
BRANCH  21  22
ATOM     22  O   UNL A   1      37.714  19.323  24.625  1.00  0.00    -0.376 OA
BRANCH  22  23
ATOM     23  C   UNL A   1      38.565  20.223  25.316  1.00  0.00     0.202 C 
BRANCH  23  24
ATOM     24  C   UNL A   1      39.629  19.622  26.249  1.00  0.00     0.261 C 
BRANCH  24  25
ATOM     25  O   UNL A   1      40.858  19.219  25.627  1.00  0.00    -0.460 OA
BRANCH  25  26
ATOM     26  C   UNL A   1      42.001  19.449  26.311  1.00  0.00     0.338 C 
ATOM     27  O   UNL A   1      42.912  18.669  26.491  1.00  0.00    -0.246 OA
BRANCH  26  28
ATOM     28  C   UNL A   1      42.062  20.893  26.625  1.00  0.00     0.060 A 
ATOM     29  C   UNL A   1      41.937  21.802  25.568  1.00  0.00     0.016 A 
ATOM     30  C   UNL A   1      42.266  21.345  27.931  1.00  0.00     0.016 A 
ATOM     31  C   UNL A   1      42.081  23.166  25.805  1.00  0.00     0.010 A 
ATOM     32  C   UNL A   1      42.432  22.714  28.165  1.00  0.00     0.010 A 
ATOM     33  C   UNL A   1      42.390  23.623  27.092  1.00  0.00    -0.014 A 
BRANCH  33  34
ATOM     34  C   UNL A   1      42.874  25.014  27.245  1.00  0.00     0.031 A 
ATOM     35  C   UNL A   1      41.967  26.021  27.903  1.00  0.00     0.074 A 
ATOM     36  C   UNL A   1      44.123  25.358  26.887  1.00  0.00     0.049 A 
ATOM     37  N   UNL A   1      42.201  27.270  28.210  1.00  0.00    -0.248 NA
ATOM     38  C   UNL A   1      40.619  25.556  28.270  1.00  0.00     0.031 C 
ATOM     39  C   UNL A   1      45.093  24.471  26.248  1.00  0.00     0.029 A 
ATOM     40  N   UNL A   1      44.784  26.553  27.004  1.00  0.00    -0.354 N 
ATOM     41  C   UNL A   1      41.031  27.742  28.795  1.00  0.00     0.074 A 
ATOM     42  C   UNL A   1      40.078  26.653  28.774  1.00  0.00     0.031 C 
ATOM     43  C   UNL A   1      46.220  25.161  26.006  1.00  0.00     0.029 A 
ATOM     44  C   UNL A   1      46.045  26.540  26.459  1.00  0.00     0.049 A 
ATOM     45  H   UNL A   1      44.392  27.346  27.437  1.00  0.00     0.167 HD
ATOM     46  C   UNL A   1      40.778  28.961  29.326  1.00  0.00     0.034 A 
ATOM     47  C   UNL A   1      46.945  27.535  26.325  1.00  0.00     0.034 A 
ATOM     48  C   UNL A   1      41.727  30.041  29.348  1.00  0.00     0.049 A 
ATOM     49  C   UNL A   1      46.628  28.893  26.896  1.00  0.00     0.074 A 
ATOM     50  C   UNL A   1      41.574  31.310  29.876  1.00  0.00     0.029 A 
ATOM     51  N   UNL A   1      43.003  29.982  28.810  1.00  0.00    -0.354 N 
ATOM     52  N   UNL A   1      45.556  29.292  27.537  1.00  0.00    -0.248 NA
ATOM     53  C   UNL A   1      47.665  29.926  26.761  1.00  0.00     0.031 C 
ATOM     54  C   UNL A   1      42.748  32.031  29.628  1.00  0.00     0.029 A 
ATOM     55  C   UNL A   1      43.648  31.195  28.986  1.00  0.00     0.049 A 
ATOM     56  H   UNL A   1      43.395  29.195  28.367  1.00  0.00     0.167 HD
ATOM     57  C   UNL A   1      45.802  30.610  27.909  1.00  0.00     0.074 A 
ATOM     58  C   UNL A   1      47.138  30.928  27.450  1.00  0.00     0.031 C 
ATOM     59  C   UNL A   1      44.992  31.484  28.558  1.00  0.00     0.034 A 
BRANCH  46  60
ATOM     60  C   UNL A   1      39.424  29.182  29.949  1.00  0.00     0.023 A 
ATOM     61  C   UNL A   1      39.194  28.777  31.281  1.00  0.00     0.012 A 
ATOM     62  C   UNL A   1      38.398  29.833  29.239  1.00  0.00     0.148 A 
ATOM     63  C   UNL A   1      37.956  28.988  31.884  1.00  0.00     0.002 A 
ATOM     64  C   UNL A   1      37.181  30.082  29.863  1.00  0.00     0.091 A 
ATOM     65  F   UNL A   1      38.628  30.190  27.968  1.00  0.00    -0.205 F 
ATOM     66  C   UNL A   1      36.954  29.651  31.179  1.00  0.00     0.022 A 
BRANCH  64  67
ATOM     67  S   UNL A   1      35.853  30.996  29.071  1.00  0.00     0.127 S 
ATOM     68  O   UNL A   1      35.122  29.925  28.394  1.00  0.00    -0.237 OA
ATOM     69  O   UNL A   1      35.156  31.580  30.218  1.00  0.00    -0.237 OA
ATOM     70  O   UNL A   1      36.495  31.961  28.190  1.00  0.00    -0.744 OA
ENDBRANCH  64  67
ENDBRANCH  46  60
BRANCH  47  71
ATOM     71  C   UNL A   1      48.238  27.282  25.628  1.00  0.00     0.023 A 
ATOM     72  C   UNL A   1      49.375  26.888  26.362  1.00  0.00     0.012 A 
ATOM     73  C   UNL A   1      48.345  27.440  24.233  1.00  0.00     0.148 A 
ATOM     74  C   UNL A   1      50.600  26.696  25.724  1.00  0.00     0.002 A 
ATOM     75  C   UNL A   1      49.552  27.187  23.596  1.00  0.00     0.091 A 
ATOM     76  F   UNL A   1      47.257  27.834  23.555  1.00  0.00    -0.205 F 
ATOM     77  C   UNL A   1      50.687  26.835  24.341  1.00  0.00     0.022 A 
BRANCH  75  78
ATOM     78  S   UNL A   1      49.718  27.214  21.807  1.00  0.00     0.127 S 
ATOM     79  O   UNL A   1      51.074  26.705  21.627  1.00  0.00    -0.237 OA
ATOM     80  O   UNL A   1      48.654  26.299  21.395  1.00  0.00    -0.237 OA
ATOM     81  O   UNL A   1      49.504  28.601  21.416  1.00  0.00    -0.744 OA
ENDBRANCH  75  78
ENDBRANCH  47  71
BRANCH  59  82
ATOM     82  C   UNL A   1      45.544  32.859  28.845  1.00  0.00     0.023 A 
ATOM     83  C   UNL A   1      46.274  33.095  30.027  1.00  0.00     0.012 A 
ATOM     84  C   UNL A   1      45.370  33.909  27.921  1.00  0.00     0.148 A 
ATOM     85  C   UNL A   1      46.775  34.366  30.310  1.00  0.00     0.002 A 
ATOM     86  C   UNL A   1      45.920  35.158  28.183  1.00  0.00     0.091 A 
ATOM     87  F   UNL A   1      44.661  33.672  26.807  1.00  0.00    -0.205 F 
ATOM     88  C   UNL A   1      46.606  35.393  29.385  1.00  0.00     0.022 A 
BRANCH  86  89
ATOM     89  S   UNL A   1      45.837  36.511  27.006  1.00  0.00     0.127 S 
ATOM     90  O   UNL A   1      46.646  37.533  27.669  1.00  0.00    -0.237 OA
ATOM     91  O   UNL A   1      46.454  35.925  25.815  1.00  0.00    -0.237 OA
ATOM     92  O   UNL A   1      44.423  36.829  26.858  1.00  0.00    -0.744 OA
ENDBRANCH  86  89
ENDBRANCH  59  82
ENDBRANCH  33  34
ENDBRANCH  26  28
ENDBRANCH  25  26
ENDBRANCH  24  25
ENDBRANCH  23  24
ENDBRANCH  22  23
ENDBRANCH  21  22
ENDBRANCH   1  21
TORSDOF 24
ENDMDL
MODEL 3
REMARK VINA RESULT:      -8.2      1.938      2.996
REMARK SMILES C[C@@H](NC1=[NH+]CCC1)C(=O)OCCOCCOCCOCCOC(=O)c1ccc(-c2c3nc(c(-c4cccc(S(=O)(=O)[O-])c4F)c4ccc([nH]4)c(-c4cccc(S(=O)(=O)[O-])c4F)c4nc(c(-c5cccc(S(=O)(=O)[O-])c5F)c5ccc2[nH]5)C=C4)C=C3)cc1
REMARK SMILES IDX 18 1 17 2 16 3 15 4 14 5 13 6 12 7 11 8 9 9 10 10 2 11 1 12
REMARK SMILES IDX 3 13 4 14 5 16 8 17 6 18 7 20 19 21 20 22 21 23 22 24 23 25
REMARK SMILES IDX 24 26 25 27 26 28 27 29 88 30 28 31 87 32 29 33 30 34 31 35
REMARK SMILES IDX 81 36 32 37 86 38 80 39 82 40 33 41 85 42 79 43 78 44 34 46
REMARK SMILES IDX 66 47 46 48 65 49 47 50 50 51 64 52 83 53 48 54 49 55 63 57
REMARK SMILES IDX 84 58 51 59 35 60 36 61 44 62 37 63 39 64 45 65 38 66 40 67
REMARK SMILES IDX 41 68 42 69 43 70 67 71 68 72 76 73 69 74 71 75 77 76 70 77
REMARK SMILES IDX 72 78 73 79 74 80 75 81 52 82 53 83 61 84 54 85 56 86 62 87
REMARK SMILES IDX 55 88 57 89 58 90 59 91 60 92
REMARK H PARENT 3 15 5 19 82 45 50 56
REMARK Flexibility Score: inf
ROOT
ATOM      1  C   UNL A   1      34.950  20.774  24.858  1.00  0.00     0.188 C 
ENDROOT
BRANCH   1   2
ATOM      2  O   UNL A   1      33.869  20.603  25.770  1.00  0.00    -0.377 OA
BRANCH   2   3
ATOM      3  C   UNL A   1      32.579  20.455  25.215  1.00  0.00     0.188 C 
BRANCH   3   4
ATOM      4  C   UNL A   1      32.221  21.438  24.082  1.00  0.00     0.188 C 
BRANCH   4   5
ATOM      5  O   UNL A   1      32.026  22.826  24.311  1.00  0.00    -0.376 OA
BRANCH   5   6
ATOM      6  C   UNL A   1      30.987  23.312  25.143  1.00  0.00     0.202 C 
BRANCH   6   7
ATOM      7  C   UNL A   1      31.306  24.040  26.448  1.00  0.00     0.261 C 
BRANCH   7   8
ATOM      8  O   UNL A   1      32.304  25.072  26.426  1.00  0.00    -0.460 OA
BRANCH   8   9
ATOM      9  C   UNL A   1      31.862  26.357  26.451  1.00  0.00     0.350 C 
ATOM     10  O   UNL A   1      30.823  26.725  26.992  1.00  0.00    -0.247 OA
BRANCH   9  11
ATOM     11  C   UNL A   1      32.722  27.293  25.595  1.00  0.00     0.279 C 
ATOM     12  C   UNL A   1      33.457  28.386  26.377  1.00  0.00     0.071 C 
BRANCH  11  13
ATOM     13  N   UNL A   1      33.683  26.576  24.747  1.00  0.00    -0.265 N 
ATOM     14  C   UNL A   1      33.447  26.112  23.487  1.00  0.00     0.243 C 
ATOM     15  H   UNL A   1      34.579  26.417  25.122  1.00  0.00     0.305 HD
ATOM     16  N   UNL A   1      33.642  24.855  23.219  1.00  0.00    -0.279 N 
ATOM     17  C   UNL A   1      33.070  26.965  22.307  1.00  0.00     0.131 C 
ATOM     18  C   UNL A   1      33.259  24.690  21.800  1.00  0.00     0.234 C 
ATOM     19  H   UNL A   1      33.974  24.160  23.831  1.00  0.00     0.304 HD
ATOM     20  C   UNL A   1      32.410  25.903  21.467  1.00  0.00     0.058 C 
ENDBRANCH  11  13
ENDBRANCH   9  11
ENDBRANCH   8   9
ENDBRANCH   7   8
ENDBRANCH   6   7
ENDBRANCH   5   6
ENDBRANCH   4   5
ENDBRANCH   3   4
ENDBRANCH   2   3
ENDBRANCH   1   2
BRANCH   1  21
ATOM     21  C   UNL A   1      36.171  19.849  25.027  1.00  0.00     0.188 C 
BRANCH  21  22
ATOM     22  O   UNL A   1      37.338  20.314  24.359  1.00  0.00    -0.376 OA
BRANCH  22  23
ATOM     23  C   UNL A   1      38.147  21.295  24.988  1.00  0.00     0.202 C 
BRANCH  23  24
ATOM     24  C   UNL A   1      38.990  20.855  26.196  1.00  0.00     0.261 C 
BRANCH  24  25
ATOM     25  O   UNL A   1      39.894  19.764  25.972  1.00  0.00    -0.460 OA
BRANCH  25  26
ATOM     26  C   UNL A   1      41.213  20.011  26.134  1.00  0.00     0.338 C 
ATOM     27  O   UNL A   1      42.136  19.316  25.764  1.00  0.00    -0.246 OA
BRANCH  26  28
ATOM     28  C   UNL A   1      41.360  21.389  26.651  1.00  0.00     0.060 A 
ATOM     29  C   UNL A   1      41.411  22.437  25.723  1.00  0.00     0.016 A 
ATOM     30  C   UNL A   1      41.471  21.645  28.019  1.00  0.00     0.016 A 
ATOM     31  C   UNL A   1      41.641  23.738  26.159  1.00  0.00     0.010 A 
ATOM     32  C   UNL A   1      41.723  22.950  28.455  1.00  0.00     0.010 A 
ATOM     33  C   UNL A   1      41.858  23.991  27.520  1.00  0.00    -0.014 A 
BRANCH  33  34
ATOM     34  C   UNL A   1      42.436  25.300  27.906  1.00  0.00     0.031 A 
ATOM     35  C   UNL A   1      41.513  26.357  28.455  1.00  0.00     0.074 A 
ATOM     36  C   UNL A   1      43.761  25.516  27.852  1.00  0.00     0.049 A 
ATOM     37  N   UNL A   1      41.800  27.543  28.924  1.00  0.00    -0.248 NA
ATOM     38  C   UNL A   1      40.078  26.031  28.484  1.00  0.00     0.031 C 
ATOM     39  C   UNL A   1      44.752  24.569  27.347  1.00  0.00     0.029 A 
ATOM     40  N   UNL A   1      44.498  26.612  28.221  1.00  0.00    -0.354 N 
ATOM     41  C   UNL A   1      40.584  28.107  29.294  1.00  0.00     0.074 A 
ATOM     42  C   UNL A   1      39.554  27.145  28.969  1.00  0.00     0.031 C 
ATOM     43  C   UNL A   1      45.970  25.135  27.415  1.00  0.00     0.029 A 
ATOM     44  C   UNL A   1      45.840  26.488  27.954  1.00  0.00     0.049 A 
ATOM     45  H   UNL A   1      44.103  27.412  28.638  1.00  0.00     0.167 HD
ATOM     46  C   UNL A   1      40.346  29.306  29.877  1.00  0.00     0.034 A 
ATOM     47  C   UNL A   1      46.843  27.375  28.109  1.00  0.00     0.034 A 
ATOM     48  C   UNL A   1      41.372  30.259  30.203  1.00  0.00     0.049 A 
ATOM     49  C   UNL A   1      46.549  28.715  28.731  1.00  0.00     0.074 A 
ATOM     50  C   UNL A   1      41.236  31.496  30.808  1.00  0.00     0.029 A 
ATOM     51  N   UNL A   1      42.722  30.088  29.941  1.00  0.00    -0.354 N 
ATOM     52  N   UNL A   1      45.408  29.192  29.169  1.00  0.00    -0.248 NA
ATOM     53  C   UNL A   1      47.689  29.624  28.917  1.00  0.00     0.031 C 
ATOM     54  C   UNL A   1      42.502  32.086  30.884  1.00  0.00     0.029 A 
ATOM     55  C   UNL A   1      43.432  31.198  30.365  1.00  0.00     0.049 A 
ATOM     56  H   UNL A   1      43.119  29.294  29.515  1.00  0.00     0.167 HD
ATOM     57  C   UNL A   1      45.699  30.440  29.711  1.00  0.00     0.074 A 
ATOM     58  C   UNL A   1      47.128  30.628  29.576  1.00  0.00     0.031 C 
ATOM     59  C   UNL A   1      44.860  31.355  30.259  1.00  0.00     0.034 A 
BRANCH  46  60
ATOM     60  C   UNL A   1      38.918  29.641  30.222  1.00  0.00     0.023 A 
ATOM     61  C   UNL A   1      38.396  29.263  31.477  1.00  0.00     0.012 A 
ATOM     62  C   UNL A   1      38.110  30.370  29.330  1.00  0.00     0.148 A 
ATOM     63  C   UNL A   1      37.084  29.579  31.825  1.00  0.00     0.002 A 
ATOM     64  C   UNL A   1      36.818  30.723  29.702  1.00  0.00     0.091 A 
ATOM     65  F   UNL A   1      38.616  30.700  28.133  1.00  0.00    -0.205 F 
ATOM     66  C   UNL A   1      36.299  30.319  30.943  1.00  0.00     0.022 A 
BRANCH  64  67
ATOM     67  S   UNL A   1      35.753  31.738  28.673  1.00  0.00     0.127 S 
ATOM     68  O   UNL A   1      34.624  31.984  29.570  1.00  0.00    -0.237 OA
ATOM     69  O   UNL A   1      36.596  32.907  28.419  1.00  0.00    -0.237 OA
ATOM     70  O   UNL A   1      35.446  30.938  27.496  1.00  0.00    -0.744 OA
ENDBRANCH  64  67
ENDBRANCH  46  60
BRANCH  47  71
ATOM     71  C   UNL A   1      48.225  27.021  27.677  1.00  0.00     0.023 A 
ATOM     72  C   UNL A   1      49.107  26.383  28.572  1.00  0.00     0.012 A 
ATOM     73  C   UNL A   1      48.670  27.324  26.376  1.00  0.00     0.148 A 
ATOM     74  C   UNL A   1      50.417  26.091  28.190  1.00  0.00     0.002 A 
ATOM     75  C   UNL A   1      49.955  26.975  25.982  1.00  0.00     0.091 A 
ATOM     76  F   UNL A   1      47.822  27.948  25.545  1.00  0.00    -0.205 F 
ATOM     77  C   UNL A   1      50.838  26.377  26.894  1.00  0.00     0.022 A 
BRANCH  75  78
ATOM     78  S   UNL A   1      50.535  27.187  24.296  1.00  0.00     0.127 S 
ATOM     79  O   UNL A   1      50.659  28.638  24.204  1.00  0.00    -0.237 OA
ATOM     80  O   UNL A   1      51.803  26.458  24.323  1.00  0.00    -0.237 OA
ATOM     81  O   UNL A   1      49.512  26.584  23.452  1.00  0.00    -0.744 OA
ENDBRANCH  75  78
ENDBRANCH  47  71
BRANCH  59  82
ATOM     82  C   UNL A   1      45.471  32.628  30.788  1.00  0.00     0.023 A 
ATOM     83  C   UNL A   1      45.940  32.689  32.115  1.00  0.00     0.012 A 
ATOM     84  C   UNL A   1      45.616  33.755  29.953  1.00  0.00     0.148 A 
ATOM     85  C   UNL A   1      46.493  33.867  32.620  1.00  0.00     0.002 A 
ATOM     86  C   UNL A   1      46.218  34.906  30.446  1.00  0.00     0.091 A 
ATOM     87  F   UNL A   1      45.152  33.686  28.697  1.00  0.00    -0.205 F 
ATOM     88  C   UNL A   1      46.640  34.970  31.783  1.00  0.00     0.022 A 
BRANCH  86  89
ATOM     89  S   UNL A   1      46.539  36.340  29.414  1.00  0.00     0.127 S 
ATOM     90  O   UNL A   1      47.357  35.763  28.348  1.00  0.00    -0.237 OA
ATOM     91  O   UNL A   1      45.191  36.734  29.001  1.00  0.00    -0.237 OA
ATOM     92  O   UNL A   1      47.214  37.307  30.268  1.00  0.00    -0.744 OA
ENDBRANCH  86  89
ENDBRANCH  59  82
ENDBRANCH  33  34
ENDBRANCH  26  28
ENDBRANCH  25  26
ENDBRANCH  24  25
ENDBRANCH  23  24
ENDBRANCH  22  23
ENDBRANCH  21  22
ENDBRANCH   1  21
TORSDOF 24
ENDMDL
