MODEL 1
REMARK VINA RESULT:     -10.3      0.000      0.000
REMARK SMILES O=C(OCCOCCOCCOCCOC(=O)c1ccccc1Nc1nc(Cl)nc(Nc2ccc(N3CCOCC3=O)cc2)n1)c1ccc(-c2c3nc(c(-c4cccc(S(=O)(=O)[O-])c4F)c4ccc([nH]4)c(-c4cccc(S(=O)(=O)[O-])c4F)c4nc(c(-c5cccc(S(=O)(=O)[O-])c5F)c5ccc2[nH]5)C=C4)C=C3)cc1
REMARK SMILES IDX 10 1 9 2 8 3 7 4 6 5 5 6 4 7 3 8 2 9 1 10 46 11 47 12 108 13
REMARK SMILES IDX 48 14 107 15 49 16 50 17 51 18 101 19 52 20 106 21 100 22
REMARK SMILES IDX 102 23 53 24 105 25 99 26 98 27 54 29 86 30 66 31 85 32
REMARK SMILES IDX 67 33 70 34 84 35 103 36 68 37 69 38 83 40 104 41 71 42
REMARK SMILES IDX 55 43 56 44 64 45 57 46 59 47 65 48 58 49 60 50 61 51 62 52
REMARK SMILES IDX 63 53 87 54 88 55 96 56 89 57 91 58 97 59 90 60 92 61 93 62
REMARK SMILES IDX 94 63 95 64 72 65 73 66 81 67 74 68 76 69 82 70 75 71 77 72
REMARK SMILES IDX 78 73 79 74 80 75 11 76 12 77 13 78 14 79 15 80 16 81 17 82
REMARK SMILES IDX 18 83 19 84 23 85 20 86 22 87 21 88 24 89 25 91 26 92 45 93
REMARK SMILES IDX 27 94 30 95 28 96 29 97 31 98 32 100 33 101 44 102 34 103
REMARK SMILES IDX 43 104 35 105 36 106 37 107 41 108 38 109 40 110 42 111
REMARK SMILES IDX 39 112
REMARK H PARENT 102 28 70 39 24 90 31 99
REMARK Flexibility Score: inf
ROOT
ATOM      1  C   UNL A   1      32.353  26.441  26.696  1.00  0.00     0.188 C 
ENDROOT
BRANCH   1   2
ATOM      2  O   UNL A   1      33.156  27.430  26.061  1.00  0.00    -0.377 OA
BRANCH   2   3
ATOM      3  C   UNL A   1      32.476  28.375  25.234  1.00  0.00     0.188 C 
BRANCH   3   4
ATOM      4  C   UNL A   1      31.667  29.432  25.989  1.00  0.00     0.188 C 
BRANCH   4   5
ATOM      5  O   UNL A   1      31.547  30.621  25.205  1.00  0.00    -0.376 OA
BRANCH   5   6
ATOM      6  C   UNL A   1      30.659  31.612  25.718  1.00  0.00     0.202 C 
BRANCH   6   7
ATOM      7  C   UNL A   1      31.342  32.659  26.598  1.00  0.00     0.261 C 
BRANCH   7   8
ATOM      8  O   UNL A   1      32.607  32.199  27.090  1.00  0.00    -0.460 OA
BRANCH   8   9
ATOM      9  C   UNL A   1      33.490  32.888  27.858  1.00  0.00     0.338 C 
ATOM     10  O   UNL A   1      33.249  34.074  28.080  1.00  0.00    -0.246 OA
BRANCH   9  11
ATOM     11  C   UNL A   1      34.729  32.296  28.464  1.00  0.00     0.060 A 
ATOM     12  C   UNL A   1      35.926  32.028  27.792  1.00  0.00     0.016 A 
ATOM     13  C   UNL A   1      34.699  32.064  29.850  1.00  0.00     0.016 A 
ATOM     14  C   UNL A   1      37.039  31.515  28.445  1.00  0.00     0.010 A 
ATOM     15  C   UNL A   1      35.817  31.563  30.522  1.00  0.00     0.010 A 
ATOM     16  C   UNL A   1      36.987  31.272  29.811  1.00  0.00    -0.014 A 
BRANCH  16  17
ATOM     17  C   UNL A   1      38.125  30.590  30.447  1.00  0.00     0.031 A 
ATOM     18  C   UNL A   1      38.456  30.955  31.860  1.00  0.00     0.074 A 
ATOM     19  C   UNL A   1      38.790  29.629  29.783  1.00  0.00     0.049 A 
ATOM     20  N   UNL A   1      39.461  30.572  32.596  1.00  0.00    -0.248 NA
ATOM     21  C   UNL A   1      37.519  31.867  32.542  1.00  0.00     0.031 C 
ATOM     22  C   UNL A   1      38.462  29.148  28.439  1.00  0.00     0.029 A 
ATOM     23  N   UNL A   1      39.889  28.894  30.142  1.00  0.00    -0.354 N 
ATOM     24  C   UNL A   1      39.319  31.252  33.798  1.00  0.00     0.074 A 
ATOM     25  C   UNL A   1      38.109  32.036  33.715  1.00  0.00     0.031 C 
ATOM     26  C   UNL A   1      39.364  28.224  28.072  1.00  0.00     0.029 A 
ATOM     27  C   UNL A   1      40.363  28.093  29.128  1.00  0.00     0.049 A 
ATOM     28  H   UNL A   1      40.299  28.935  31.036  1.00  0.00     0.167 HD
ATOM     29  C   UNL A   1      40.147  31.231  34.865  1.00  0.00     0.034 A 
ATOM     30  C   UNL A   1      41.509  27.389  29.050  1.00  0.00     0.034 A 
ATOM     31  C   UNL A   1      41.332  30.426  34.921  1.00  0.00     0.049 A 
ATOM     32  C   UNL A   1      42.437  27.427  30.238  1.00  0.00     0.074 A 
ATOM     33  C   UNL A   1      42.244  30.305  35.951  1.00  0.00     0.029 A 
ATOM     34  N   UNL A   1      41.776  29.617  33.886  1.00  0.00    -0.354 N 
ATOM     35  N   UNL A   1      42.265  28.015  31.399  1.00  0.00    -0.248 NA
ATOM     36  C   UNL A   1      43.711  26.707  30.112  1.00  0.00     0.031 C 
ATOM     37  C   UNL A   1      43.264  29.450  35.521  1.00  0.00     0.029 A 
ATOM     38  C   UNL A   1      42.969  29.016  34.237  1.00  0.00     0.049 A 
ATOM     39  H   UNL A   1      41.311  29.490  33.027  1.00  0.00     0.167 HD
ATOM     40  C   UNL A   1      43.401  27.728  32.146  1.00  0.00     0.074 A 
ATOM     41  C   UNL A   1      44.237  26.883  31.316  1.00  0.00     0.031 C 
ATOM     42  C   UNL A   1      43.742  28.141  33.392  1.00  0.00     0.034 A 
BRANCH  29  43
ATOM     43  C   UNL A   1      39.821  32.138  36.016  1.00  0.00     0.023 A 
ATOM     44  C   UNL A   1      40.507  33.357  36.182  1.00  0.00     0.012 A 
ATOM     45  C   UNL A   1      38.814  31.777  36.933  1.00  0.00     0.148 A 
ATOM     46  C   UNL A   1      40.210  34.194  37.258  1.00  0.00     0.002 A 
ATOM     47  C   UNL A   1      38.499  32.632  37.981  1.00  0.00     0.091 A 
ATOM     48  F   UNL A   1      38.197  30.598  36.771  1.00  0.00    -0.205 F 
ATOM     49  C   UNL A   1      39.202  33.836  38.151  1.00  0.00     0.022 A 
BRANCH  47  50
ATOM     50  S   UNL A   1      37.184  32.287  39.154  1.00  0.00     0.127 S 
ATOM     51  O   UNL A   1      37.538  33.174  40.262  1.00  0.00    -0.237 OA
ATOM     52  O   UNL A   1      35.995  32.692  38.405  1.00  0.00    -0.237 OA
ATOM     53  O   UNL A   1      37.268  30.865  39.451  1.00  0.00    -0.744 OA
ENDBRANCH  47  50
ENDBRANCH  29  43
BRANCH  30  54
ATOM     54  C   UNL A   1      41.861  26.641  27.808  1.00  0.00     0.023 A 
ATOM     55  C   UNL A   1      42.442  27.319  26.720  1.00  0.00     0.012 A 
ATOM     56  C   UNL A   1      41.623  25.255  27.697  1.00  0.00     0.148 A 
ATOM     57  C   UNL A   1      42.750  26.640  25.539  1.00  0.00     0.002 A 
ATOM     58  C   UNL A   1      41.986  24.574  26.541  1.00  0.00     0.091 A 
ATOM     59  F   UNL A   1      41.039  24.624  28.727  1.00  0.00    -0.205 F 
ATOM     60  C   UNL A   1      42.533  25.267  25.452  1.00  0.00     0.022 A 
BRANCH  58  61
ATOM     61  S   UNL A   1      41.865  22.785  26.411  1.00  0.00     0.127 S 
ATOM     62  O   UNL A   1      42.440  22.542  25.091  1.00  0.00    -0.237 OA
ATOM     63  O   UNL A   1      42.690  22.339  27.534  1.00  0.00    -0.237 OA
ATOM     64  O   UNL A   1      40.448  22.485  26.558  1.00  0.00    -0.744 OA
ENDBRANCH  58  61
ENDBRANCH  30  54
BRANCH  42  65
ATOM     65  C   UNL A   1      45.062  27.678  33.936  1.00  0.00     0.023 A 
ATOM     66  C   UNL A   1      46.209  28.474  33.746  1.00  0.00     0.012 A 
ATOM     67  C   UNL A   1      45.138  26.522  34.736  1.00  0.00     0.148 A 
ATOM     68  C   UNL A   1      47.419  28.116  34.334  1.00  0.00     0.002 A 
ATOM     69  C   UNL A   1      46.335  26.202  35.361  1.00  0.00     0.091 A 
ATOM     70  F   UNL A   1      44.035  25.775  34.886  1.00  0.00    -0.205 F 
ATOM     71  C   UNL A   1      47.479  26.990  35.153  1.00  0.00     0.022 A 
BRANCH  69  72
ATOM     72  S   UNL A   1      46.476  24.838  36.521  1.00  0.00     0.127 S 
ATOM     73  O   UNL A   1      45.589  23.842  35.919  1.00  0.00    -0.237 OA
ATOM     74  O   UNL A   1      47.900  24.514  36.446  1.00  0.00    -0.237 OA
ATOM     75  O   UNL A   1      46.041  25.359  37.810  1.00  0.00    -0.744 OA
ENDBRANCH  69  72
ENDBRANCH  42  65
ENDBRANCH  16  17
ENDBRANCH   9  11
ENDBRANCH   8   9
ENDBRANCH   7   8
ENDBRANCH   6   7
ENDBRANCH   5   6
ENDBRANCH   4   5
ENDBRANCH   3   4
ENDBRANCH   2   3
ENDBRANCH   1   2
BRANCH   1  76
ATOM     76  C   UNL A   1      31.066  25.951  25.995  1.00  0.00     0.188 C 
BRANCH  76  77
ATOM     77  O   UNL A   1      31.031  24.563  25.701  1.00  0.00    -0.376 OA
BRANCH  77  78
ATOM     78  C   UNL A   1      30.930  23.694  26.828  1.00  0.00     0.202 C 
BRANCH  78  79
ATOM     79  C   UNL A   1      32.082  22.688  26.935  1.00  0.00     0.261 C 
BRANCH  79  80
ATOM     80  O   UNL A   1      33.279  23.078  26.232  1.00  0.00    -0.460 OA
BRANCH  80  81
ATOM     81  C   UNL A   1      34.460  23.080  26.891  1.00  0.00     0.340 C 
ATOM     82  O   UNL A   1      34.624  23.186  28.093  1.00  0.00    -0.246 OA
BRANCH  81  83
ATOM     83  C   UNL A   1      35.536  22.729  25.916  1.00  0.00     0.083 A 
ATOM     84  C   UNL A   1      36.343  21.626  26.241  1.00  0.00     0.018 A 
ATOM     85  C   UNL A   1      35.688  23.390  24.673  1.00  0.00     0.055 A 
ATOM     86  C   UNL A   1      37.294  21.163  25.334  1.00  0.00     0.001 A 
ATOM     87  C   UNL A   1      36.677  22.924  23.795  1.00  0.00     0.027 A 
ATOM     88  C   UNL A   1      37.465  21.815  24.116  1.00  0.00     0.002 A 
BRANCH  85  89
ATOM     89  N   UNL A   1      34.876  24.489  24.352  1.00  0.00    -0.323 N 
ATOM     90  H   UNL A   1      35.124  25.332  24.796  1.00  0.00     0.170 HD
BRANCH  89  91
ATOM     91  C   UNL A   1      33.783  24.574  23.511  1.00  0.00     0.233 A 
ATOM     92  N   UNL A   1      33.165  25.719  23.283  1.00  0.00    -0.182 NA
ATOM     93  N   UNL A   1      33.398  23.403  23.020  1.00  0.00    -0.176 NA
ATOM     94  C   UNL A   1      32.138  25.599  22.462  1.00  0.00     0.228 A 
ATOM     95  C   UNL A   1      32.292  23.396  22.298  1.00  0.00     0.233 A 
ATOM     96  Cl  UNL A   1      31.302  27.043  22.090  1.00  0.00    -0.041 Cl
ATOM     97  N   UNL A   1      31.636  24.491  21.949  1.00  0.00    -0.182 NA
BRANCH  95  98
ATOM     98  N   UNL A   1      31.769  22.135  22.039  1.00  0.00    -0.324 N 
ATOM     99  H   UNL A   1      31.144  22.075  21.279  1.00  0.00     0.170 HD
BRANCH  98 100
ATOM    100  C   UNL A   1      32.018  20.949  22.719  1.00  0.00     0.041 A 
ATOM    101  C   UNL A   1      32.056  19.736  22.026  1.00  0.00     0.028 A 
ATOM    102  C   UNL A   1      32.347  20.965  24.075  1.00  0.00     0.028 A 
ATOM    103  C   UNL A   1      32.456  18.564  22.674  1.00  0.00     0.028 A 
ATOM    104  C   UNL A   1      32.691  19.790  24.736  1.00  0.00     0.028 A 
ATOM    105  C   UNL A   1      32.771  18.584  24.037  1.00  0.00     0.044 A 
BRANCH 105 106
ATOM    106  N   UNL A   1      33.251  17.418  24.693  1.00  0.00    -0.308 N 
ATOM    107  C   UNL A   1      32.268  16.353  24.926  1.00  0.00     0.154 C 
ATOM    108  C   UNL A   1      34.623  17.153  24.755  1.00  0.00     0.253 C 
ATOM    109  C   UNL A   1      32.803  15.228  25.800  1.00  0.00     0.183 C 
ATOM    110  C   UNL A   1      35.008  15.767  25.290  1.00  0.00     0.260 C 
ATOM    111  O   UNL A   1      35.508  17.973  24.499  1.00  0.00    -0.272 OA
ATOM    112  O   UNL A   1      34.028  14.742  25.256  1.00  0.00    -0.370 OA
ENDBRANCH 105 106
ENDBRANCH  98 100
ENDBRANCH  95  98
ENDBRANCH  89  91
ENDBRANCH  85  89
ENDBRANCH  81  83
ENDBRANCH  80  81
ENDBRANCH  79  80
ENDBRANCH  78  79
ENDBRANCH  77  78
ENDBRANCH  76  77
ENDBRANCH   1  76
TORSDOF 28
ENDMDL
MODEL 2
REMARK VINA RESULT:      -9.5      4.223     10.079
REMARK SMILES O=C(OCCOCCOCCOCCOC(=O)c1ccccc1Nc1nc(Cl)nc(Nc2ccc(N3CCOCC3=O)cc2)n1)c1ccc(-c2c3nc(c(-c4cccc(S(=O)(=O)[O-])c4F)c4ccc([nH]4)c(-c4cccc(S(=O)(=O)[O-])c4F)c4nc(c(-c5cccc(S(=O)(=O)[O-])c5F)c5ccc2[nH]5)C=C4)C=C3)cc1
REMARK SMILES IDX 10 1 9 2 8 3 7 4 6 5 5 6 4 7 3 8 2 9 1 10 46 11 47 12 108 13
REMARK SMILES IDX 48 14 107 15 49 16 50 17 51 18 101 19 52 20 106 21 100 22
REMARK SMILES IDX 102 23 53 24 105 25 99 26 98 27 54 29 86 30 66 31 85 32
REMARK SMILES IDX 67 33 70 34 84 35 103 36 68 37 69 38 83 40 104 41 71 42
REMARK SMILES IDX 55 43 56 44 64 45 57 46 59 47 65 48 58 49 60 50 61 51 62 52
REMARK SMILES IDX 63 53 87 54 88 55 96 56 89 57 91 58 97 59 90 60 92 61 93 62
REMARK SMILES IDX 94 63 95 64 72 65 73 66 81 67 74 68 76 69 82 70 75 71 77 72
REMARK SMILES IDX 78 73 79 74 80 75 11 76 12 77 13 78 14 79 15 80 16 81 17 82
REMARK SMILES IDX 18 83 19 84 23 85 20 86 22 87 21 88 24 89 25 91 26 92 45 93
REMARK SMILES IDX 27 94 30 95 28 96 29 97 31 98 32 100 33 101 44 102 34 103
REMARK SMILES IDX 43 104 35 105 36 106 37 107 41 108 38 109 40 110 42 111
REMARK SMILES IDX 39 112
REMARK H PARENT 102 28 70 39 24 90 31 99
REMARK Flexibility Score: inf
ROOT
ATOM      1  C   UNL A   1      42.420  24.505  28.518  1.00  0.00     0.188 C 
ENDROOT
BRANCH   1   2
ATOM      2  O   UNL A   1      41.362  25.439  28.702  1.00  0.00    -0.377 OA
BRANCH   2   3
ATOM      3  C   UNL A   1      40.469  25.621  27.602  1.00  0.00     0.188 C 
BRANCH   3   4
ATOM      4  C   UNL A   1      39.980  27.056  27.395  1.00  0.00     0.188 C 
BRANCH   4   5
ATOM      5  O   UNL A   1      39.517  27.608  28.629  1.00  0.00    -0.376 OA
BRANCH   5   6
ATOM      6  C   UNL A   1      38.368  28.447  28.537  1.00  0.00     0.202 C 
BRANCH   6   7
ATOM      7  C   UNL A   1      38.680  29.938  28.654  1.00  0.00     0.261 C 
BRANCH   7   8
ATOM      8  O   UNL A   1      38.284  30.469  29.925  1.00  0.00    -0.460 OA
BRANCH   8   9
ATOM      9  C   UNL A   1      38.966  30.392  31.096  1.00  0.00     0.338 C 
ATOM     10  O   UNL A   1      38.407  30.810  32.110  1.00  0.00    -0.246 OA
BRANCH   9  11
ATOM     11  C   UNL A   1      40.345  29.817  31.239  1.00  0.00     0.060 A 
ATOM     12  C   UNL A   1      40.655  28.514  31.640  1.00  0.00     0.016 A 
ATOM     13  C   UNL A   1      41.412  30.649  30.858  1.00  0.00     0.016 A 
ATOM     14  C   UNL A   1      41.964  28.055  31.705  1.00  0.00     0.010 A 
ATOM     15  C   UNL A   1      42.733  30.194  30.904  1.00  0.00     0.010 A 
ATOM     16  C   UNL A   1      43.010  28.895  31.346  1.00  0.00    -0.014 A 
BRANCH  16  17
ATOM     17  C   UNL A   1      44.389  28.435  31.567  1.00  0.00     0.031 A 
ATOM     18  C   UNL A   1      45.121  27.841  30.405  1.00  0.00     0.074 A 
ATOM     19  C   UNL A   1      44.974  28.609  32.765  1.00  0.00     0.049 A 
ATOM     20  N   UNL A   1      46.296  27.277  30.371  1.00  0.00    -0.248 NA
ATOM     21  C   UNL A   1      44.441  27.902  29.097  1.00  0.00     0.031 C 
ATOM     22  C   UNL A   1      44.357  29.270  33.918  1.00  0.00     0.029 A 
ATOM     23  N   UNL A   1      46.210  28.232  33.218  1.00  0.00    -0.354 N 
ATOM     24  C   UNL A   1      46.464  26.851  29.061  1.00  0.00     0.074 A 
ATOM     25  C   UNL A   1      45.296  27.259  28.317  1.00  0.00     0.031 C 
ATOM     26  C   UNL A   1      45.205  29.220  34.957  1.00  0.00     0.029 A 
ATOM     27  C   UNL A   1      46.395  28.473  34.560  1.00  0.00     0.049 A 
ATOM     28  H   UNL A   1      46.899  27.830  32.641  1.00  0.00     0.167 HD
ATOM     29  C   UNL A   1      47.502  26.161  28.540  1.00  0.00     0.034 A 
ATOM     30  C   UNL A   1      47.388  28.074  35.378  1.00  0.00     0.034 A 
ATOM     31  C   UNL A   1      48.656  25.788  29.305  1.00  0.00     0.049 A 
ATOM     32  C   UNL A   1      48.507  27.261  34.778  1.00  0.00     0.074 A 
ATOM     33  C   UNL A   1      49.781  25.102  28.889  1.00  0.00     0.029 A 
ATOM     34  N   UNL A   1      48.820  26.058  30.656  1.00  0.00    -0.354 N 
ATOM     35  N   UNL A   1      48.696  26.920  33.525  1.00  0.00    -0.248 NA
ATOM     36  C   UNL A   1      49.547  26.779  35.696  1.00  0.00     0.031 C 
ATOM     37  C   UNL A   1      50.608  24.923  30.003  1.00  0.00     0.029 A 
ATOM     38  C   UNL A   1      50.012  25.524  31.102  1.00  0.00     0.049 A 
ATOM     39  H   UNL A   1      48.179  26.556  31.214  1.00  0.00     0.167 HD
ATOM     40  C   UNL A   1      49.881  26.194  33.500  1.00  0.00     0.074 A 
ATOM     41  C   UNL A   1      50.383  26.177  34.860  1.00  0.00     0.031 C 
ATOM     42  C   UNL A   1      50.492  25.575  32.460  1.00  0.00     0.034 A 
BRANCH  29  43
ATOM     43  C   UNL A   1      47.402  25.730  27.106  1.00  0.00     0.023 A 
ATOM     44  C   UNL A   1      46.835  24.483  26.773  1.00  0.00     0.012 A 
ATOM     45  C   UNL A   1      47.863  26.579  26.081  1.00  0.00     0.148 A 
ATOM     46  C   UNL A   1      46.752  24.078  25.440  1.00  0.00     0.002 A 
ATOM     47  C   UNL A   1      47.744  26.186  24.755  1.00  0.00     0.091 A 
ATOM     48  F   UNL A   1      48.425  27.746  26.426  1.00  0.00    -0.205 F 
ATOM     49  C   UNL A   1      47.197  24.932  24.433  1.00  0.00     0.022 A 
BRANCH  47  50
ATOM     50  S   UNL A   1      48.240  27.232  23.384  1.00  0.00     0.127 S 
ATOM     51  O   UNL A   1      48.383  26.255  22.304  1.00  0.00    -0.237 OA
ATOM     52  O   UNL A   1      47.088  28.123  23.250  1.00  0.00    -0.237 OA
ATOM     53  O   UNL A   1      49.475  27.883  23.795  1.00  0.00    -0.744 OA
ENDBRANCH  47  50
ENDBRANCH  29  43
BRANCH  30  54
ATOM     54  C   UNL A   1      47.347  28.389  36.836  1.00  0.00     0.023 A 
ATOM     55  C   UNL A   1      47.888  29.599  37.310  1.00  0.00     0.012 A 
ATOM     56  C   UNL A   1      46.772  27.493  37.762  1.00  0.00     0.148 A 
ATOM     57  C   UNL A   1      47.885  29.896  38.675  1.00  0.00     0.002 A 
ATOM     58  C   UNL A   1      46.719  27.821  39.112  1.00  0.00     0.091 A 
ATOM     59  F   UNL A   1      46.288  26.328  37.305  1.00  0.00    -0.205 F 
ATOM     60  C   UNL A   1      47.292  29.014  39.574  1.00  0.00     0.022 A 
BRANCH  58  61
ATOM     61  S   UNL A   1      45.848  26.799  40.307  1.00  0.00     0.127 S 
ATOM     62  O   UNL A   1      46.432  25.484  40.058  1.00  0.00    -0.237 OA
ATOM     63  O   UNL A   1      46.235  27.415  41.577  1.00  0.00    -0.237 OA
ATOM     64  O   UNL A   1      44.436  26.946  39.981  1.00  0.00    -0.744 OA
ENDBRANCH  58  61
ENDBRANCH  30  54
BRANCH  42  65
ATOM     65  C   UNL A   1      51.770  24.840  32.748  1.00  0.00     0.023 A 
ATOM     66  C   UNL A   1      52.979  25.557  32.832  1.00  0.00     0.012 A 
ATOM     67  C   UNL A   1      51.748  23.467  33.055  1.00  0.00     0.148 A 
ATOM     68  C   UNL A   1      54.155  24.911  33.202  1.00  0.00     0.002 A 
ATOM     69  C   UNL A   1      52.914  22.842  33.475  1.00  0.00     0.091 A 
ATOM     70  F   UNL A   1      50.586  22.807  32.951  1.00  0.00    -0.205 F 
ATOM     71  C   UNL A   1      54.120  23.560  33.539  1.00  0.00     0.022 A 
BRANCH  69  72
ATOM     72  S   UNL A   1      52.940  21.137  34.035  1.00  0.00     0.127 S 
ATOM     73  O   UNL A   1      53.704  20.486  32.970  1.00  0.00    -0.237 OA
ATOM     74  O   UNL A   1      53.642  21.242  35.314  1.00  0.00    -0.237 OA
ATOM     75  O   UNL A   1      51.547  20.725  34.140  1.00  0.00    -0.744 OA
ENDBRANCH  69  72
ENDBRANCH  42  65
ENDBRANCH  16  17
ENDBRANCH   9  11
ENDBRANCH   8   9
ENDBRANCH   7   8
ENDBRANCH   6   7
ENDBRANCH   5   6
ENDBRANCH   4   5
ENDBRANCH   3   4
ENDBRANCH   2   3
ENDBRANCH   1   2
BRANCH   1  76
ATOM     76  C   UNL A   1      42.394  23.568  27.290  1.00  0.00     0.188 C 
BRANCH  76  77
ATOM     77  O   UNL A   1      42.709  22.210  27.562  1.00  0.00    -0.376 OA
BRANCH  77  78
ATOM     78  C   UNL A   1      41.781  21.249  27.066  1.00  0.00     0.202 C 
BRANCH  78  79
ATOM     79  C   UNL A   1      40.581  21.869  26.341  1.00  0.00     0.261 C 
BRANCH  79  80
ATOM     80  O   UNL A   1      39.321  21.228  26.621  1.00  0.00    -0.460 OA
BRANCH  80  81
ATOM     81  C   UNL A   1      38.460  20.990  25.605  1.00  0.00     0.340 C 
ATOM     82  O   UNL A   1      38.488  20.050  24.832  1.00  0.00    -0.246 OA
BRANCH  81  83
ATOM     83  C   UNL A   1      37.340  21.972  25.706  1.00  0.00     0.083 A 
ATOM     84  C   UNL A   1      37.697  23.325  25.821  1.00  0.00     0.018 A 
ATOM     85  C   UNL A   1      35.979  21.595  25.590  1.00  0.00     0.055 A 
ATOM     86  C   UNL A   1      36.716  24.314  25.806  1.00  0.00     0.001 A 
ATOM     87  C   UNL A   1      35.010  22.609  25.614  1.00  0.00     0.027 A 
ATOM     88  C   UNL A   1      35.374  23.955  25.709  1.00  0.00     0.002 A 
BRANCH  85  89
ATOM     89  N   UNL A   1      35.627  20.242  25.472  1.00  0.00    -0.323 N 
ATOM     90  H   UNL A   1      36.216  19.616  25.953  1.00  0.00     0.170 HD
BRANCH  89  91
ATOM     91  C   UNL A   1      34.585  19.649  24.786  1.00  0.00     0.233 A 
ATOM     92  N   UNL A   1      34.520  18.341  24.610  1.00  0.00    -0.182 NA
ATOM     93  N   UNL A   1      33.714  20.516  24.289  1.00  0.00    -0.176 NA
ATOM     94  C   UNL A   1      33.458  17.963  23.923  1.00  0.00     0.228 A 
ATOM     95  C   UNL A   1      32.753  20.025  23.527  1.00  0.00     0.233 A 
ATOM     96  Cl  UNL A   1      33.283  16.280  23.677  1.00  0.00    -0.041 Cl
ATOM     97  N   UNL A   1      32.552  18.730  23.343  1.00  0.00    -0.182 NA
BRANCH  95  98
ATOM     98  N   UNL A   1      32.037  20.969  22.803  1.00  0.00    -0.324 N 
ATOM     99  H   UNL A   1      31.456  20.617  22.089  1.00  0.00     0.170 HD
BRANCH  98 100
ATOM    100  C   UNL A   1      32.039  22.351  22.962  1.00  0.00     0.041 A 
ATOM    101  C   UNL A   1      31.175  22.954  23.881  1.00  0.00     0.028 A 
ATOM    102  C   UNL A   1      32.978  23.140  22.296  1.00  0.00     0.028 A 
ATOM    103  C   UNL A   1      31.278  24.320  24.156  1.00  0.00     0.028 A 
ATOM    104  C   UNL A   1      33.045  24.510  22.526  1.00  0.00     0.028 A 
ATOM    105  C   UNL A   1      32.213  25.108  23.475  1.00  0.00     0.044 A 
BRANCH 105 106
ATOM    106  N   UNL A   1      32.381  26.482  23.796  1.00  0.00    -0.308 N 
ATOM    107  C   UNL A   1      33.759  26.932  24.026  1.00  0.00     0.154 C 
ATOM    108  C   UNL A   1      31.362  27.402  23.528  1.00  0.00     0.253 C 
ATOM    109  C   UNL A   1      33.843  28.357  24.552  1.00  0.00     0.183 C 
ATOM    110  C   UNL A   1      31.736  28.880  23.712  1.00  0.00     0.260 C 
ATOM    111  O   UNL A   1      30.199  27.100  23.252  1.00  0.00    -0.272 OA
ATOM    112  O   UNL A   1      33.111  29.227  23.691  1.00  0.00    -0.370 OA
ENDBRANCH 105 106
ENDBRANCH  98 100
ENDBRANCH  95  98
ENDBRANCH  89  91
ENDBRANCH  85  89
ENDBRANCH  81  83
ENDBRANCH  80  81
ENDBRANCH  79  80
ENDBRANCH  78  79
ENDBRANCH  77  78
ENDBRANCH  76  77
ENDBRANCH   1  76
TORSDOF 28
ENDMDL
MODEL 3
REMARK VINA RESULT:      -9.1      6.209     10.816
REMARK SMILES O=C(OCCOCCOCCOCCOC(=O)c1ccccc1Nc1nc(Cl)nc(Nc2ccc(N3CCOCC3=O)cc2)n1)c1ccc(-c2c3nc(c(-c4cccc(S(=O)(=O)[O-])c4F)c4ccc([nH]4)c(-c4cccc(S(=O)(=O)[O-])c4F)c4nc(c(-c5cccc(S(=O)(=O)[O-])c5F)c5ccc2[nH]5)C=C4)C=C3)cc1
REMARK SMILES IDX 10 1 9 2 8 3 7 4 6 5 5 6 4 7 3 8 2 9 1 10 46 11 47 12 108 13
REMARK SMILES IDX 48 14 107 15 49 16 50 17 51 18 101 19 52 20 106 21 100 22
REMARK SMILES IDX 102 23 53 24 105 25 99 26 98 27 54 29 86 30 66 31 85 32
REMARK SMILES IDX 67 33 70 34 84 35 103 36 68 37 69 38 83 40 104 41 71 42
REMARK SMILES IDX 55 43 56 44 64 45 57 46 59 47 65 48 58 49 60 50 61 51 62 52
REMARK SMILES IDX 63 53 87 54 88 55 96 56 89 57 91 58 97 59 90 60 92 61 93 62
REMARK SMILES IDX 94 63 95 64 72 65 73 66 81 67 74 68 76 69 82 70 75 71 77 72
REMARK SMILES IDX 78 73 79 74 80 75 11 76 12 77 13 78 14 79 15 80 16 81 17 82
REMARK SMILES IDX 18 83 19 84 23 85 20 86 22 87 21 88 24 89 25 91 26 92 45 93
REMARK SMILES IDX 27 94 30 95 28 96 29 97 31 98 32 100 33 101 44 102 34 103
REMARK SMILES IDX 43 104 35 105 36 106 37 107 41 108 38 109 40 110 42 111
REMARK SMILES IDX 39 112
REMARK H PARENT 102 28 70 39 24 90 31 99
REMARK Flexibility Score: inf
ROOT
ATOM      1  C   UNL A   1      42.283  24.064  27.956  1.00  0.00     0.188 C 
ENDROOT
BRANCH   1   2
ATOM      2  O   UNL A   1      41.421  25.193  28.037  1.00  0.00    -0.377 OA
BRANCH   2   3
ATOM      3  C   UNL A   1      40.989  25.759  26.799  1.00  0.00     0.188 C 
BRANCH   3   4
ATOM      4  C   UNL A   1      40.793  27.276  26.814  1.00  0.00     0.188 C 
BRANCH   4   5
ATOM      5  O   UNL A   1      40.413  27.718  28.118  1.00  0.00    -0.376 OA
BRANCH   5   6
ATOM      6  C   UNL A   1      39.012  27.734  28.381  1.00  0.00     0.202 C 
BRANCH   6   7
ATOM      7  C   UNL A   1      38.322  29.038  27.983  1.00  0.00     0.261 C 
BRANCH   7   8
ATOM      8  O   UNL A   1      37.232  29.354  28.858  1.00  0.00    -0.460 OA
BRANCH   8   9
ATOM      9  C   UNL A   1      37.303  29.699  30.169  1.00  0.00     0.338 C 
ATOM     10  O   UNL A   1      36.563  29.109  30.955  1.00  0.00    -0.246 OA
BRANCH   9  11
ATOM     11  C   UNL A   1      38.234  30.737  30.724  1.00  0.00     0.060 A 
ATOM     12  C   UNL A   1      39.439  30.489  31.389  1.00  0.00     0.016 A 
ATOM     13  C   UNL A   1      37.894  32.078  30.479  1.00  0.00     0.016 A 
ATOM     14  C   UNL A   1      40.260  31.518  31.834  1.00  0.00     0.010 A 
ATOM     15  C   UNL A   1      38.718  33.122  30.909  1.00  0.00     0.010 A 
ATOM     16  C   UNL A   1      39.899  32.838  31.604  1.00  0.00    -0.014 A 
BRANCH  16  17
ATOM     17  C   UNL A   1      40.707  33.904  32.216  1.00  0.00     0.031 A 
ATOM     18  C   UNL A   1      41.713  34.600  31.353  1.00  0.00     0.074 A 
ATOM     19  C   UNL A   1      40.489  34.267  33.492  1.00  0.00     0.049 A 
ATOM     20  N   UNL A   1      42.604  35.492  31.682  1.00  0.00    -0.248 NA
ATOM     21  C   UNL A   1      41.704  34.252  29.920  1.00  0.00     0.031 C 
ATOM     22  C   UNL A   1      39.458  33.702  34.366  1.00  0.00     0.029 A 
ATOM     23  N   UNL A   1      41.130  35.185  34.281  1.00  0.00    -0.354 N 
ATOM     24  C   UNL A   1      43.310  35.757  30.516  1.00  0.00     0.074 A 
ATOM     25  C   UNL A   1      42.718  34.969  29.461  1.00  0.00     0.031 C 
ATOM     26  C   UNL A   1      39.561  34.261  35.583  1.00  0.00     0.029 A 
ATOM     27  C   UNL A   1      40.699  35.175  35.588  1.00  0.00     0.049 A 
ATOM     28  H   UNL A   1      41.829  35.792  33.946  1.00  0.00     0.167 HD
ATOM     29  C   UNL A   1      44.372  36.576  30.358  1.00  0.00     0.034 A 
ATOM     30  C   UNL A   1      41.214  35.790  36.670  1.00  0.00     0.034 A 
ATOM     31  C   UNL A   1      44.924  37.358  31.425  1.00  0.00     0.049 A 
ATOM     32  C   UNL A   1      42.432  36.656  36.470  1.00  0.00     0.074 A 
ATOM     33  C   UNL A   1      45.988  38.237  31.389  1.00  0.00     0.029 A 
ATOM     34  N   UNL A   1      44.457  37.337  32.731  1.00  0.00    -0.354 N 
ATOM     35  N   UNL A   1      43.054  36.959  35.353  1.00  0.00    -0.248 NA
ATOM     36  C   UNL A   1      43.020  37.268  37.669  1.00  0.00     0.031 C 
ATOM     37  C   UNL A   1      46.190  38.718  32.686  1.00  0.00     0.029 A 
ATOM     38  C   UNL A   1      45.232  38.162  33.522  1.00  0.00     0.049 A 
ATOM     39  H   UNL A   1      43.688  36.810  33.049  1.00  0.00     0.167 HD
ATOM     40  C   UNL A   1      44.097  37.803  35.713  1.00  0.00     0.074 A 
ATOM     41  C   UNL A   1      44.001  37.992  37.147  1.00  0.00     0.031 C 
ATOM     42  C   UNL A   1      45.065  38.355  34.940  1.00  0.00     0.034 A 
BRANCH  29  43
ATOM     43  C   UNL A   1      45.025  36.615  29.006  1.00  0.00     0.023 A 
ATOM     44  C   UNL A   1      44.811  37.707  28.141  1.00  0.00     0.012 A 
ATOM     45  C   UNL A   1      45.868  35.562  28.601  1.00  0.00     0.148 A 
ATOM     46  C   UNL A   1      45.410  37.737  26.881  1.00  0.00     0.002 A 
ATOM     47  C   UNL A   1      46.490  35.616  27.360  1.00  0.00     0.091 A 
ATOM     48  F   UNL A   1      46.031  34.522  29.430  1.00  0.00    -0.205 F 
ATOM     49  C   UNL A   1      46.254  36.698  26.496  1.00  0.00     0.022 A 
BRANCH  47  50
ATOM     50  S   UNL A   1      47.634  34.356  26.791  1.00  0.00     0.127 S 
ATOM     51  O   UNL A   1      47.585  34.546  25.342  1.00  0.00    -0.237 OA
ATOM     52  O   UNL A   1      48.886  34.776  27.420  1.00  0.00    -0.237 OA
ATOM     53  O   UNL A   1      47.105  33.085  27.265  1.00  0.00    -0.744 OA
ENDBRANCH  47  50
ENDBRANCH  29  43
BRANCH  30  54
ATOM     54  C   UNL A   1      40.623  35.576  38.022  1.00  0.00     0.023 A 
ATOM     55  C   UNL A   1      39.618  36.441  38.496  1.00  0.00     0.012 A 
ATOM     56  C   UNL A   1      41.050  34.514  38.847  1.00  0.00     0.148 A 
ATOM     57  C   UNL A   1      39.075  36.273  39.772  1.00  0.00     0.002 A 
ATOM     58  C   UNL A   1      40.463  34.316  40.092  1.00  0.00     0.091 A 
ATOM     59  F   UNL A   1      42.030  33.715  38.401  1.00  0.00    -0.205 F 
ATOM     60  C   UNL A   1      39.488  35.206  40.565  1.00  0.00     0.022 A 
BRANCH  58  61
ATOM     61  S   UNL A   1      40.845  32.885  41.109  1.00  0.00     0.127 S 
ATOM     62  O   UNL A   1      39.513  32.427  41.494  1.00  0.00    -0.237 OA
ATOM     63  O   UNL A   1      41.546  32.015  40.163  1.00  0.00    -0.237 OA
ATOM     64  O   UNL A   1      41.685  33.391  42.185  1.00  0.00    -0.744 OA
ENDBRANCH  58  61
ENDBRANCH  30  54
BRANCH  42  65
ATOM     65  C   UNL A   1      46.085  39.220  35.623  1.00  0.00     0.023 A 
ATOM     66  C   UNL A   1      47.314  38.661  36.022  1.00  0.00     0.012 A 
ATOM     67  C   UNL A   1      45.871  40.605  35.755  1.00  0.00     0.148 A 
ATOM     68  C   UNL A   1      48.313  39.469  36.560  1.00  0.00     0.002 A 
ATOM     69  C   UNL A   1      46.891  41.411  36.242  1.00  0.00     0.091 A 
ATOM     70  F   UNL A   1      44.685  41.107  35.382  1.00  0.00    -0.205 F 
ATOM     71  C   UNL A   1      48.108  40.844  36.655  1.00  0.00     0.022 A 
BRANCH  69  72
ATOM     72  S   UNL A   1      46.757  43.200  36.294  1.00  0.00     0.127 S 
ATOM     73  O   UNL A   1      45.655  43.390  37.236  1.00  0.00    -0.237 OA
ATOM     74  O   UNL A   1      48.071  43.594  36.802  1.00  0.00    -0.237 OA
ATOM     75  O   UNL A   1      46.486  43.625  34.927  1.00  0.00    -0.744 OA
ENDBRANCH  69  72
ENDBRANCH  42  65
ENDBRANCH  16  17
ENDBRANCH   9  11
ENDBRANCH   8   9
ENDBRANCH   7   8
ENDBRANCH   6   7
ENDBRANCH   5   6
ENDBRANCH   4   5
ENDBRANCH   3   4
ENDBRANCH   2   3
ENDBRANCH   1   2
BRANCH   1  76
ATOM     76  C   UNL A   1      42.341  23.251  26.643  1.00  0.00     0.188 C 
BRANCH  76  77
ATOM     77  O   UNL A   1      42.531  21.853  26.808  1.00  0.00    -0.376 OA
BRANCH  77  78
ATOM     78  C   UNL A   1      41.434  21.030  26.418  1.00  0.00     0.202 C 
BRANCH  78  79
ATOM     79  C   UNL A   1      40.126  21.802  26.218  1.00  0.00     0.261 C 
BRANCH  79  80
ATOM     80  O   UNL A   1      38.935  21.031  26.477  1.00  0.00    -0.460 OA
BRANCH  80  81
ATOM     81  C   UNL A   1      38.004  20.906  25.504  1.00  0.00     0.340 C 
ATOM     82  O   UNL A   1      37.903  19.992  24.706  1.00  0.00    -0.246 OA
BRANCH  81  83
ATOM     83  C   UNL A   1      36.988  21.984  25.692  1.00  0.00     0.083 A 
ATOM     84  C   UNL A   1      37.467  23.304  25.714  1.00  0.00     0.018 A 
ATOM     85  C   UNL A   1      35.597  21.722  25.744  1.00  0.00     0.055 A 
ATOM     86  C   UNL A   1      36.575  24.372  25.770  1.00  0.00     0.001 A 
ATOM     87  C   UNL A   1      34.724  22.817  25.837  1.00  0.00     0.027 A 
ATOM     88  C   UNL A   1      35.206  24.128  25.839  1.00  0.00     0.002 A 
BRANCH  85  89
ATOM     89  N   UNL A   1      35.123  20.402  25.719  1.00  0.00    -0.323 N 
ATOM     90  H   UNL A   1      35.496  19.814  26.415  1.00  0.00     0.170 HD
BRANCH  89  91
ATOM     91  C   UNL A   1      34.215  19.797  24.871  1.00  0.00     0.233 A 
ATOM     92  N   UNL A   1      34.249  18.499  24.625  1.00  0.00    -0.182 NA
ATOM     93  N   UNL A   1      33.370  20.646  24.303  1.00  0.00    -0.176 NA
ATOM     94  C   UNL A   1      33.310  18.107  23.783  1.00  0.00     0.228 A 
ATOM     95  C   UNL A   1      32.548  20.150  23.396  1.00  0.00     0.233 A 
ATOM     96  Cl  UNL A   1      33.264  16.434  23.435  1.00  0.00    -0.041 Cl
ATOM     97  N   UNL A   1      32.446  18.859  23.125  1.00  0.00    -0.182 NA
BRANCH  95  98
ATOM     98  N   UNL A   1      31.880  21.097  22.629  1.00  0.00    -0.324 N 
ATOM     99  H   UNL A   1      31.256  20.743  21.954  1.00  0.00     0.170 HD
BRANCH  98 100
ATOM    100  C   UNL A   1      31.986  22.481  22.696  1.00  0.00     0.041 A 
ATOM    101  C   UNL A   1      30.892  23.251  23.100  1.00  0.00     0.028 A 
ATOM    102  C   UNL A   1      33.212  23.111  22.475  1.00  0.00     0.028 A 
ATOM    103  C   UNL A   1      31.035  24.624  23.317  1.00  0.00     0.028 A 
ATOM    104  C   UNL A   1      33.343  24.486  22.635  1.00  0.00     0.028 A 
ATOM    105  C   UNL A   1      32.263  25.251  23.081  1.00  0.00     0.044 A 
BRANCH 105 106
ATOM    106  N   UNL A   1      32.445  26.631  23.367  1.00  0.00    -0.308 N 
ATOM    107  C   UNL A   1      32.373  27.017  24.781  1.00  0.00     0.154 C 
ATOM    108  C   UNL A   1      33.032  27.480  22.422  1.00  0.00     0.253 C 
ATOM    109  C   UNL A   1      32.382  28.524  24.992  1.00  0.00     0.183 C 
ATOM    110  C   UNL A   1      33.376  28.891  22.919  1.00  0.00     0.260 C 
ATOM    111  O   UNL A   1      33.197  27.198  21.233  1.00  0.00    -0.272 OA
ATOM    112  O   UNL A   1      33.503  29.093  24.318  1.00  0.00    -0.370 OA
ENDBRANCH 105 106
ENDBRANCH  98 100
ENDBRANCH  95  98
ENDBRANCH  89  91
ENDBRANCH  85  89
ENDBRANCH  81  83
ENDBRANCH  80  81
ENDBRANCH  79  80
ENDBRANCH  78  79
ENDBRANCH  77  78
ENDBRANCH  76  77
ENDBRANCH   1  76
TORSDOF 28
ENDMDL
