MODEL 1
REMARK VINA RESULT:      -9.2      0.000      0.000
REMARK SMILES CN1C(=O)/C(=C\c2ccc(C(=O)Nc3ccc(O)cc3C(=O)OCCOCCOCCOCCOC(=O)c3ccc(-c4c5nc(c(-c6cccc(S(=O)(=O)[O-])c6F)c6ccc([nH]6)c(-c6cccc(S(=O)(=O)[O-])c6F)c6nc(c(-c7cccc(S(=O)(=O)[O-])c7F)c7ccc4[nH]7)C=C6)C=C5)cc3)cc2)SC1=S
REMARK SMILES IDX 29 1 28 2 27 3 26 4 25 5 24 6 23 7 21 8 22 9 20 10 14 11
REMARK SMILES IDX 15 12 16 13 19 14 17 15 13 16 11 17 12 18 10 20 7 21 8 22
REMARK SMILES IDX 102 23 9 24 101 25 6 26 1 27 2 28 3 29 104 30 4 31 5 32
REMARK SMILES IDX 103 33 105 34 18 35 30 37 31 38 32 39 33 40 34 41 35 42
REMARK SMILES IDX 36 43 37 44 38 45 39 46 100 47 40 48 99 49 41 50 42 51 43 52
REMARK SMILES IDX 93 53 44 54 98 55 92 56 94 57 45 58 97 59 91 60 90 61 46 63
REMARK SMILES IDX 78 64 58 65 77 66 59 67 62 68 76 69 95 70 60 71 61 72 75 74
REMARK SMILES IDX 96 75 63 76 47 77 48 78 56 79 49 80 51 81 57 82 50 83 52 84
REMARK SMILES IDX 53 85 54 86 55 87 79 88 80 89 88 90 81 91 83 92 89 93 82 94
REMARK SMILES IDX 84 95 85 96 86 97 87 98 64 99 65 100 73 101 66 102 68 103
REMARK SMILES IDX 74 104 67 105 69 106 70 107 71 108 72 109
REMARK H PARENT 13 19 18 36 94 62 62 73
REMARK Flexibility Score: inf
ROOT
ATOM      1  O   UNL A   1      41.025  23.564  27.591  1.00  0.00    -0.377 OA
ENDROOT
BRANCH   1   2
ATOM      2  C   UNL A   1      39.676  23.969  27.556  1.00  0.00     0.188 C 
BRANCH   2   3
ATOM      3  C   UNL A   1      38.814  23.492  26.366  1.00  0.00     0.188 C 
BRANCH   3   4
ATOM      4  O   UNL A   1      38.515  22.125  26.161  1.00  0.00    -0.376 OA
BRANCH   4   5
ATOM      5  C   UNL A   1      37.477  21.653  25.326  1.00  0.00     0.202 C 
BRANCH   5   6
ATOM      6  C   UNL A   1      35.979  21.799  25.585  1.00  0.00     0.261 C 
BRANCH   6   7
ATOM      7  O   UNL A   1      35.084  21.470  24.532  1.00  0.00    -0.460 OA
BRANCH   7   8
ATOM      8  C   UNL A   1      34.736  22.503  23.744  1.00  0.00     0.340 C 
ATOM      9  O   UNL A   1      35.449  23.032  22.900  1.00  0.00    -0.246 OA
BRANCH   8  10
ATOM     10  C   UNL A   1      33.294  22.827  23.885  1.00  0.00     0.087 A 
ATOM     11  C   UNL A   1      32.531  23.699  23.073  1.00  0.00     0.056 A 
ATOM     12  C   UNL A   1      31.210  23.971  23.479  1.00  0.00     0.031 A 
ATOM     13  C   UNL A   1      30.639  23.345  24.594  1.00  0.00     0.048 A 
ATOM     14  C   UNL A   1      32.708  22.208  25.011  1.00  0.00     0.064 A 
ATOM     15  C   UNL A   1      31.390  22.462  25.348  1.00  0.00     0.116 A 
BRANCH  11  16
ATOM     16  N   UNL A   1      32.900  24.319  21.850  1.00  0.00    -0.321 N 
ATOM     17  C   UNL A   1      33.193  25.625  21.491  1.00  0.00     0.255 C 
ATOM     18  O   UNL A   1      33.255  25.935  20.305  1.00  0.00    -0.269 OA
ATOM     19  H   UNL A   1      32.959  23.688  21.097  1.00  0.00     0.170 HD
BRANCH  17  20
ATOM     20  C   UNL A   1      33.484  26.655  22.512  1.00  0.00     0.040 A 
ATOM     21  C   UNL A   1      33.101  28.697  24.376  1.00  0.00    -0.024 A 
ATOM     22  C   UNL A   1      33.487  29.012  23.067  1.00  0.00     0.009 A 
ATOM     23  C   UNL A   1      33.054  27.350  24.741  1.00  0.00     0.009 A 
ATOM     24  C   UNL A   1      33.660  27.989  22.124  1.00  0.00     0.014 A 
ATOM     25  C   UNL A   1      33.375  26.336  23.855  1.00  0.00     0.014 A 
BRANCH  21  26
ATOM     26  C   UNL A   1      32.636  29.752  25.292  1.00  0.00     0.029 C 
ATOM     27  C   UNL A   1      36.606  30.374  27.815  1.00  0.00     0.155 C 
ATOM     28  N   UNL A   1      35.192  30.593  27.585  1.00  0.00    -0.296 N 
ATOM     29  C   UNL A   1      34.468  29.564  27.041  1.00  0.00     0.265 C 
ATOM     30  C   UNL A   1      34.467  31.706  27.929  1.00  0.00     0.148 C 
ATOM     31  O   UNL A   1      34.774  28.389  27.162  1.00  0.00    -0.268 OA
ATOM     32  C   UNL A   1      33.221  30.112  26.445  1.00  0.00     0.081 C 
ATOM     33  S   UNL A   1      32.815  31.552  27.311  1.00  0.00    -0.054 SA
ATOM     34  S   UNL A   1      34.995  33.032  28.788  1.00  0.00    -0.052 S 
ENDBRANCH  21  26
ENDBRANCH  17  20
ENDBRANCH  11  16
BRANCH  15  35
ATOM     35  O   UNL A   1      30.809  21.863  26.425  1.00  0.00    -0.508 OA
ATOM     36  H   UNL A   1      30.882  22.253  27.274  1.00  0.00     0.293 HD
ENDBRANCH  15  35
ENDBRANCH   8  10
ENDBRANCH   7   8
ENDBRANCH   6   7
ENDBRANCH   5   6
ENDBRANCH   4   5
ENDBRANCH   3   4
ENDBRANCH   2   3
ENDBRANCH   1   2
BRANCH   1  37
ATOM     37  C   UNL A   1      41.651  23.057  26.422  1.00  0.00     0.188 C 
BRANCH  37  38
ATOM     38  C   UNL A   1      42.688  23.885  25.631  1.00  0.00     0.188 C 
BRANCH  38  39
ATOM     39  O   UNL A   1      44.040  23.661  25.989  1.00  0.00    -0.376 OA
BRANCH  39  40
ATOM     40  C   UNL A   1      44.738  24.644  26.730  1.00  0.00     0.202 C 
BRANCH  40  41
ATOM     41  C   UNL A   1      44.174  26.072  26.756  1.00  0.00     0.261 C 
BRANCH  41  42
ATOM     42  O   UNL A   1      42.941  26.255  27.461  1.00  0.00    -0.460 OA
BRANCH  42  43
ATOM     43  C   UNL A   1      42.931  25.941  28.777  1.00  0.00     0.338 C 
ATOM     44  O   UNL A   1      43.087  24.847  29.270  1.00  0.00    -0.246 OA
BRANCH  43  45
ATOM     45  C   UNL A   1      42.898  27.216  29.526  1.00  0.00     0.060 A 
ATOM     46  C   UNL A   1      42.364  28.354  28.906  1.00  0.00     0.016 A 
ATOM     47  C   UNL A   1      43.380  27.277  30.835  1.00  0.00     0.016 A 
ATOM     48  C   UNL A   1      42.351  29.572  29.583  1.00  0.00     0.010 A 
ATOM     49  C   UNL A   1      43.389  28.503  31.502  1.00  0.00     0.010 A 
ATOM     50  C   UNL A   1      42.914  29.661  30.860  1.00  0.00    -0.014 A 
BRANCH  50  51
ATOM     51  C   UNL A   1      43.219  30.994  31.429  1.00  0.00     0.031 A 
ATOM     52  C   UNL A   1      42.193  31.626  32.328  1.00  0.00     0.074 A 
ATOM     53  C   UNL A   1      44.373  31.626  31.158  1.00  0.00     0.049 A 
ATOM     54  N   UNL A   1      42.204  32.796  32.907  1.00  0.00    -0.248 NA
ATOM     55  C   UNL A   1      40.985  30.828  32.607  1.00  0.00     0.031 C 
ATOM     56  C   UNL A   1      45.445  31.107  30.311  1.00  0.00     0.029 A 
ATOM     57  N   UNL A   1      44.818  32.864  31.549  1.00  0.00    -0.354 N 
ATOM     58  C   UNL A   1      40.995  32.892  33.585  1.00  0.00     0.074 A 
ATOM     59  C   UNL A   1      40.270  31.665  33.342  1.00  0.00     0.031 C 
ATOM     60  C   UNL A   1      46.410  32.039  30.216  1.00  0.00     0.029 A 
ATOM     61  C   UNL A   1      46.010  33.225  30.970  1.00  0.00     0.049 A 
ATOM     62  H   UNL A   1      44.329  33.437  32.184  1.00  0.00     0.167 HD
ATOM     63  C   UNL A   1      40.532  33.908  34.350  1.00  0.00     0.034 A 
ATOM     64  C   UNL A   1      46.681  34.394  31.019  1.00  0.00     0.034 A 
ATOM     65  C   UNL A   1      41.261  35.122  34.595  1.00  0.00     0.049 A 
ATOM     66  C   UNL A   1      46.132  35.522  31.855  1.00  0.00     0.074 A 
ATOM     67  C   UNL A   1      40.904  36.192  35.395  1.00  0.00     0.029 A 
ATOM     68  N   UNL A   1      42.485  35.437  34.025  1.00  0.00    -0.354 N 
ATOM     69  N   UNL A   1      45.042  35.559  32.585  1.00  0.00    -0.248 NA
ATOM     70  C   UNL A   1      46.922  36.761  31.900  1.00  0.00     0.031 C 
ATOM     71  C   UNL A   1      41.891  37.174  35.273  1.00  0.00     0.029 A 
ATOM     72  C   UNL A   1      42.888  36.695  34.438  1.00  0.00     0.049 A 
ATOM     73  H   UNL A   1      42.992  34.853  33.415  1.00  0.00     0.167 HD
ATOM     74  C   UNL A   1      45.036  36.805  33.203  1.00  0.00     0.074 A 
ATOM     75  C   UNL A   1      46.241  37.486  32.776  1.00  0.00     0.031 C 
ATOM     76  C   UNL A   1      44.113  37.341  34.041  1.00  0.00     0.034 A 
BRANCH  63  77
ATOM     77  C   UNL A   1      39.170  33.749  34.971  1.00  0.00     0.023 A 
ATOM     78  C   UNL A   1      38.021  34.175  34.273  1.00  0.00     0.012 A 
ATOM     79  C   UNL A   1      39.026  33.141  36.232  1.00  0.00     0.148 A 
ATOM     80  C   UNL A   1      36.754  34.030  34.837  1.00  0.00     0.002 A 
ATOM     81  C   UNL A   1      37.757  32.954  36.766  1.00  0.00     0.091 A 
ATOM     82  F   UNL A   1      40.132  32.767  36.892  1.00  0.00    -0.205 F 
ATOM     83  C   UNL A   1      36.622  33.411  36.077  1.00  0.00     0.022 A 
BRANCH  81  84
ATOM     84  S   UNL A   1      37.477  32.093  38.316  1.00  0.00     0.127 S 
ATOM     85  O   UNL A   1      36.258  32.742  38.798  1.00  0.00    -0.237 OA
ATOM     86  O   UNL A   1      37.296  30.711  37.870  1.00  0.00    -0.237 OA
ATOM     87  O   UNL A   1      38.666  32.321  39.125  1.00  0.00    -0.744 OA
ENDBRANCH  81  84
ENDBRANCH  63  77
BRANCH  64  88
ATOM     88  C   UNL A   1      47.954  34.554  30.262  1.00  0.00     0.023 A 
ATOM     89  C   UNL A   1      49.184  34.309  30.901  1.00  0.00     0.012 A 
ATOM     90  C   UNL A   1      47.949  34.945  28.908  1.00  0.00     0.148 A 
ATOM     91  C   UNL A   1      50.388  34.480  30.217  1.00  0.00     0.002 A 
ATOM     92  C   UNL A   1      49.149  35.062  28.217  1.00  0.00     0.091 A 
ATOM     93  F   UNL A   1      46.769  35.190  28.323  1.00  0.00    -0.205 F 
ATOM     94  C   UNL A   1      50.370  34.846  28.873  1.00  0.00     0.022 A 
BRANCH  92  95
ATOM     95  S   UNL A   1      49.221  35.424  26.459  1.00  0.00     0.127 S 
ATOM     96  O   UNL A   1      50.621  35.134  26.154  1.00  0.00    -0.237 OA
ATOM     97  O   UNL A   1      48.263  34.462  25.916  1.00  0.00    -0.237 OA
ATOM     98  O   UNL A   1      48.826  36.819  26.325  1.00  0.00    -0.744 OA
ENDBRANCH  92  95
ENDBRANCH  64  88
BRANCH  76  99
ATOM     99  C   UNL A   1      44.386  38.715  34.600  1.00  0.00     0.023 A 
ATOM    100  C   UNL A   1      45.242  38.875  35.706  1.00  0.00     0.012 A 
ATOM    101  C   UNL A   1      43.847  39.858  33.973  1.00  0.00     0.148 A 
ATOM    102  C   UNL A   1      45.527  40.146  36.205  1.00  0.00     0.002 A 
ATOM    103  C   UNL A   1      44.179  41.123  34.440  1.00  0.00     0.091 A 
ATOM    104  F   UNL A   1      43.023  39.685  32.929  1.00  0.00    -0.205 F 
ATOM    105  C   UNL A   1      45.007  41.269  35.566  1.00  0.00     0.022 A 
BRANCH 103 106
ATOM    106  S   UNL A   1      43.639  42.627  33.620  1.00  0.00     0.127 S 
ATOM    107  O   UNL A   1      43.979  42.344  32.226  1.00  0.00    -0.237 OA
ATOM    108  O   UNL A   1      42.204  42.636  33.907  1.00  0.00    -0.237 OA
ATOM    109  O   UNL A   1      44.387  43.715  34.236  1.00  0.00    -0.744 OA
ENDBRANCH 103 106
ENDBRANCH  76  99
ENDBRANCH  50  51
ENDBRANCH  43  45
ENDBRANCH  42  43
ENDBRANCH  41  42
ENDBRANCH  40  41
ENDBRANCH  39  40
ENDBRANCH  38  39
ENDBRANCH  37  38
ENDBRANCH   1  37
TORSDOF 27
ENDMDL
MODEL 2
REMARK VINA RESULT:      -9.1      5.857     11.952
REMARK SMILES CN1C(=O)/C(=C\c2ccc(C(=O)Nc3ccc(O)cc3C(=O)OCCOCCOCCOCCOC(=O)c3ccc(-c4c5nc(c(-c6cccc(S(=O)(=O)[O-])c6F)c6ccc([nH]6)c(-c6cccc(S(=O)(=O)[O-])c6F)c6nc(c(-c7cccc(S(=O)(=O)[O-])c7F)c7ccc4[nH]7)C=C6)C=C5)cc3)cc2)SC1=S
REMARK SMILES IDX 29 1 28 2 27 3 26 4 25 5 24 6 23 7 21 8 22 9 20 10 14 11
REMARK SMILES IDX 15 12 16 13 19 14 17 15 13 16 11 17 12 18 10 20 7 21 8 22
REMARK SMILES IDX 102 23 9 24 101 25 6 26 1 27 2 28 3 29 104 30 4 31 5 32
REMARK SMILES IDX 103 33 105 34 18 35 30 37 31 38 32 39 33 40 34 41 35 42
REMARK SMILES IDX 36 43 37 44 38 45 39 46 100 47 40 48 99 49 41 50 42 51 43 52
REMARK SMILES IDX 93 53 44 54 98 55 92 56 94 57 45 58 97 59 91 60 90 61 46 63
REMARK SMILES IDX 78 64 58 65 77 66 59 67 62 68 76 69 95 70 60 71 61 72 75 74
REMARK SMILES IDX 96 75 63 76 47 77 48 78 56 79 49 80 51 81 57 82 50 83 52 84
REMARK SMILES IDX 53 85 54 86 55 87 79 88 80 89 88 90 81 91 83 92 89 93 82 94
REMARK SMILES IDX 84 95 85 96 86 97 87 98 64 99 65 100 73 101 66 102 68 103
REMARK SMILES IDX 74 104 67 105 69 106 70 107 71 108 72 109
REMARK H PARENT 13 19 18 36 94 62 62 73
REMARK Flexibility Score: inf
ROOT
ATOM      1  O   UNL A   1      44.369  40.358  31.994  1.00  0.00    -0.377 OA
ENDROOT
BRANCH   1   2
ATOM      2  C   UNL A   1      43.361  39.383  32.133  1.00  0.00     0.188 C 
BRANCH   2   3
ATOM      3  C   UNL A   1      43.581  38.266  33.177  1.00  0.00     0.188 C 
BRANCH   3   4
ATOM      4  O   UNL A   1      42.677  38.050  34.242  1.00  0.00    -0.376 OA
BRANCH   4   5
ATOM      5  C   UNL A   1      42.358  36.779  34.772  1.00  0.00     0.202 C 
BRANCH   5   6
ATOM      6  C   UNL A   1      40.960  36.280  35.127  1.00  0.00     0.261 C 
BRANCH   6   7
ATOM      7  O   UNL A   1      40.739  34.877  35.153  1.00  0.00    -0.460 OA
BRANCH   7   8
ATOM      8  C   UNL A   1      40.370  34.342  33.975  1.00  0.00     0.340 C 
ATOM      9  O   UNL A   1      40.671  34.771  32.868  1.00  0.00    -0.246 OA
BRANCH   8  10
ATOM     10  C   UNL A   1      39.687  33.037  34.165  1.00  0.00     0.087 A 
ATOM     11  C   UNL A   1      38.319  32.823  34.450  1.00  0.00     0.056 A 
ATOM     12  C   UNL A   1      37.917  31.503  34.735  1.00  0.00     0.031 A 
ATOM     13  C   UNL A   1      38.811  30.428  34.660  1.00  0.00     0.048 A 
ATOM     14  C   UNL A   1      40.581  31.944  34.099  1.00  0.00     0.064 A 
ATOM     15  C   UNL A   1      40.136  30.656  34.335  1.00  0.00     0.116 A 
BRANCH  11  16
ATOM     16  N   UNL A   1      37.255  33.764  34.447  1.00  0.00    -0.321 N 
ATOM     17  C   UNL A   1      36.551  34.406  33.442  1.00  0.00     0.255 C 
ATOM     18  O   UNL A   1      35.828  35.360  33.714  1.00  0.00    -0.269 OA
ATOM     19  H   UNL A   1      36.955  34.013  35.351  1.00  0.00     0.170 HD
BRANCH  17  20
ATOM     20  C   UNL A   1      36.612  33.936  32.040  1.00  0.00     0.040 A 
ATOM     21  C   UNL A   1      37.285  32.413  29.800  1.00  0.00    -0.024 A 
ATOM     22  C   UNL A   1      37.988  33.592  30.078  1.00  0.00     0.009 A 
ATOM     23  C   UNL A   1      36.171  32.112  30.587  1.00  0.00     0.009 A 
ATOM     24  C   UNL A   1      37.665  34.348  31.213  1.00  0.00     0.014 A 
ATOM     25  C   UNL A   1      35.753  32.937  31.616  1.00  0.00     0.014 A 
BRANCH  21  26
ATOM     26  C   UNL A   1      37.787  31.462  28.795  1.00  0.00     0.029 C 
ATOM     27  C   UNL A   1      39.434  28.087  31.694  1.00  0.00     0.155 C 
ATOM     28  N   UNL A   1      39.299  28.689  30.383  1.00  0.00    -0.296 N 
ATOM     29  C   UNL A   1      39.263  30.057  30.310  1.00  0.00     0.265 C 
ATOM     30  C   UNL A   1      39.281  28.035  29.176  1.00  0.00     0.148 C 
ATOM     31  O   UNL A   1      39.779  30.788  31.141  1.00  0.00    -0.268 OA
ATOM     32  C   UNL A   1      38.649  30.458  29.018  1.00  0.00     0.081 C 
ATOM     33  S   UNL A   1      38.954  29.193  27.878  1.00  0.00    -0.054 SA
ATOM     34  S   UNL A   1      39.518  26.409  28.905  1.00  0.00    -0.052 S 
ENDBRANCH  21  26
ENDBRANCH  17  20
ENDBRANCH  11  16
BRANCH  15  35
ATOM     35  O   UNL A   1      40.984  29.592  34.264  1.00  0.00    -0.508 OA
ATOM     36  H   UNL A   1      41.399  29.377  33.451  1.00  0.00     0.293 HD
ENDBRANCH  15  35
ENDBRANCH   8  10
ENDBRANCH   7   8
ENDBRANCH   6   7
ENDBRANCH   5   6
ENDBRANCH   4   5
ENDBRANCH   3   4
ENDBRANCH   2   3
ENDBRANCH   1   2
BRANCH   1  37
ATOM     37  C   UNL A   1      44.064  41.628  31.438  1.00  0.00     0.188 C 
BRANCH  37  38
ATOM     38  C   UNL A   1      43.879  41.825  29.916  1.00  0.00     0.188 C 
BRANCH  38  39
ATOM     39  O   UNL A   1      45.071  41.787  29.152  1.00  0.00    -0.376 OA
BRANCH  39  40
ATOM     40  C   UNL A   1      45.125  40.992  27.983  1.00  0.00     0.202 C 
BRANCH  40  41
ATOM     41  C   UNL A   1      45.546  39.522  28.121  1.00  0.00     0.261 C 
BRANCH  41  42
ATOM     42  O   UNL A   1      44.560  38.626  28.645  1.00  0.00    -0.460 OA
BRANCH  42  43
ATOM     43  C   UNL A   1      43.788  37.966  27.749  1.00  0.00     0.338 C 
ATOM     44  O   UNL A   1      43.307  38.409  26.731  1.00  0.00    -0.246 OA
BRANCH  43  45
ATOM     45  C   UNL A   1      43.803  36.538  28.134  1.00  0.00     0.060 A 
ATOM     46  C   UNL A   1      42.588  35.896  28.410  1.00  0.00     0.016 A 
ATOM     47  C   UNL A   1      45.010  35.841  28.206  1.00  0.00     0.016 A 
ATOM     48  C   UNL A   1      42.583  34.559  28.803  1.00  0.00     0.010 A 
ATOM     49  C   UNL A   1      45.005  34.510  28.625  1.00  0.00     0.010 A 
ATOM     50  C   UNL A   1      43.795  33.880  28.965  1.00  0.00    -0.014 A 
BRANCH  50  51
ATOM     51  C   UNL A   1      43.816  32.599  29.708  1.00  0.00     0.031 A 
ATOM     52  C   UNL A   1      43.917  32.658  31.207  1.00  0.00     0.074 A 
ATOM     53  C   UNL A   1      43.746  31.417  29.073  1.00  0.00     0.049 A 
ATOM     54  N   UNL A   1      43.999  31.684  32.073  1.00  0.00    -0.248 NA
ATOM     55  C   UNL A   1      43.933  34.002  31.812  1.00  0.00     0.031 C 
ATOM     56  C   UNL A   1      43.634  31.238  27.628  1.00  0.00     0.029 A 
ATOM     57  N   UNL A   1      43.790  30.140  29.572  1.00  0.00    -0.354 N 
ATOM     58  C   UNL A   1      44.115  32.293  33.316  1.00  0.00     0.074 A 
ATOM     59  C   UNL A   1      44.099  33.722  33.094  1.00  0.00     0.031 C 
ATOM     60  C   UNL A   1      43.656  29.922  27.352  1.00  0.00     0.029 A 
ATOM     61  C   UNL A   1      43.812  29.173  28.597  1.00  0.00     0.049 A 
ATOM     62  H   UNL A   1      43.804  29.937  30.536  1.00  0.00     0.167 HD
ATOM     63  C   UNL A   1      44.217  31.716  34.535  1.00  0.00     0.034 A 
ATOM     64  C   UNL A   1      43.974  27.838  28.701  1.00  0.00     0.034 A 
ATOM     65  C   UNL A   1      44.223  30.295  34.750  1.00  0.00     0.049 A 
ATOM     66  C   UNL A   1      44.115  27.219  30.069  1.00  0.00     0.074 A 
ATOM     67  C   UNL A   1      44.272  29.608  35.949  1.00  0.00     0.029 A 
ATOM     68  N   UNL A   1      44.203  29.344  33.742  1.00  0.00    -0.354 N 
ATOM     69  N   UNL A   1      44.107  27.799  31.246  1.00  0.00    -0.248 NA
ATOM     70  C   UNL A   1      44.253  25.756  30.125  1.00  0.00     0.031 C 
ATOM     71  C   UNL A   1      44.327  28.240  35.664  1.00  0.00     0.029 A 
ATOM     72  C   UNL A   1      44.260  28.074  34.290  1.00  0.00     0.049 A 
ATOM     73  H   UNL A   1      44.156  29.542  32.779  1.00  0.00     0.167 HD
ATOM     74  C   UNL A   1      44.202  26.772  32.180  1.00  0.00     0.074 A 
ATOM     75  C   UNL A   1      44.246  25.533  31.432  1.00  0.00     0.031 C 
ATOM     76  C   UNL A   1      44.256  26.847  33.534  1.00  0.00     0.034 A 
BRANCH  63  77
ATOM     77  C   UNL A   1      44.336  32.624  35.730  1.00  0.00     0.023 A 
ATOM     78  C   UNL A   1      43.181  33.023  36.433  1.00  0.00     0.012 A 
ATOM     79  C   UNL A   1      45.600  33.052  36.179  1.00  0.00     0.148 A 
ATOM     80  C   UNL A   1      43.280  33.861  37.543  1.00  0.00     0.002 A 
ATOM     81  C   UNL A   1      45.696  33.846  37.315  1.00  0.00     0.091 A 
ATOM     82  F   UNL A   1      46.685  32.684  35.482  1.00  0.00    -0.205 F 
ATOM     83  C   UNL A   1      44.536  34.264  37.990  1.00  0.00     0.022 A 
BRANCH  81  84
ATOM     84  S   UNL A   1      47.270  34.346  38.017  1.00  0.00     0.127 S 
ATOM     85  O   UNL A   1      48.100  33.172  37.746  1.00  0.00    -0.237 OA
ATOM     86  O   UNL A   1      47.602  35.524  37.214  1.00  0.00    -0.237 OA
ATOM     87  O   UNL A   1      47.017  34.619  39.424  1.00  0.00    -0.744 OA
ENDBRANCH  81  84
ENDBRANCH  63  77
BRANCH  64  88
ATOM     88  C   UNL A   1      44.001  26.993  27.474  1.00  0.00     0.023 A 
ATOM     89  C   UNL A   1      42.796  26.659  26.828  1.00  0.00     0.012 A 
ATOM     90  C   UNL A   1      45.220  26.523  26.943  1.00  0.00     0.148 A 
ATOM     91  C   UNL A   1      42.800  25.846  25.694  1.00  0.00     0.002 A 
ATOM     92  C   UNL A   1      45.220  25.758  25.783  1.00  0.00     0.091 A 
ATOM     93  F   UNL A   1      46.354  26.838  27.584  1.00  0.00    -0.205 F 
ATOM     94  C   UNL A   1      44.011  25.405  25.166  1.00  0.00     0.022 A 
BRANCH  92  95
ATOM     95  S   UNL A   1      46.733  25.234  24.970  1.00  0.00     0.127 S 
ATOM     96  O   UNL A   1      47.573  24.875  26.111  1.00  0.00    -0.237 OA
ATOM     97  O   UNL A   1      46.266  24.101  24.172  1.00  0.00    -0.237 OA
ATOM     98  O   UNL A   1      47.184  26.380  24.195  1.00  0.00    -0.744 OA
ENDBRANCH  92  95
ENDBRANCH  64  88
BRANCH  76  99
ATOM     99  C   UNL A   1      44.319  25.555  34.308  1.00  0.00     0.023 A 
ATOM    100  C   UNL A   1      43.137  24.853  34.614  1.00  0.00     0.012 A 
ATOM    101  C   UNL A   1      45.565  24.998  34.665  1.00  0.00     0.148 A 
ATOM    102  C   UNL A   1      43.191  23.638  35.299  1.00  0.00     0.002 A 
ATOM    103  C   UNL A   1      45.613  23.762  35.297  1.00  0.00     0.091 A 
ATOM    104  F   UNL A   1      46.678  25.688  34.377  1.00  0.00    -0.205 F 
ATOM    105  C   UNL A   1      44.427  23.088  35.628  1.00  0.00     0.022 A 
BRANCH 103 106
ATOM    106  S   UNL A   1      47.161  22.930  35.668  1.00  0.00     0.127 S 
ATOM    107  O   UNL A   1      46.713  21.557  35.899  1.00  0.00    -0.237 OA
ATOM    108  O   UNL A   1      47.920  23.122  34.431  1.00  0.00    -0.237 OA
ATOM    109  O   UNL A   1      47.717  23.609  36.831  1.00  0.00    -0.744 OA
ENDBRANCH 103 106
ENDBRANCH  76  99
ENDBRANCH  50  51
ENDBRANCH  43  45
ENDBRANCH  42  43
ENDBRANCH  41  42
ENDBRANCH  40  41
ENDBRANCH  39  40
ENDBRANCH  38  39
ENDBRANCH  37  38
ENDBRANCH   1  37
TORSDOF 27
ENDMDL
MODEL 3
REMARK VINA RESULT:      -9.1      5.881     10.311
REMARK SMILES CN1C(=O)/C(=C\c2ccc(C(=O)Nc3ccc(O)cc3C(=O)OCCOCCOCCOCCOC(=O)c3ccc(-c4c5nc(c(-c6cccc(S(=O)(=O)[O-])c6F)c6ccc([nH]6)c(-c6cccc(S(=O)(=O)[O-])c6F)c6nc(c(-c7cccc(S(=O)(=O)[O-])c7F)c7ccc4[nH]7)C=C6)C=C5)cc3)cc2)SC1=S
REMARK SMILES IDX 29 1 28 2 27 3 26 4 25 5 24 6 23 7 21 8 22 9 20 10 14 11
REMARK SMILES IDX 15 12 16 13 19 14 17 15 13 16 11 17 12 18 10 20 7 21 8 22
REMARK SMILES IDX 102 23 9 24 101 25 6 26 1 27 2 28 3 29 104 30 4 31 5 32
REMARK SMILES IDX 103 33 105 34 18 35 30 37 31 38 32 39 33 40 34 41 35 42
REMARK SMILES IDX 36 43 37 44 38 45 39 46 100 47 40 48 99 49 41 50 42 51 43 52
REMARK SMILES IDX 93 53 44 54 98 55 92 56 94 57 45 58 97 59 91 60 90 61 46 63
REMARK SMILES IDX 78 64 58 65 77 66 59 67 62 68 76 69 95 70 60 71 61 72 75 74
REMARK SMILES IDX 96 75 63 76 47 77 48 78 56 79 49 80 51 81 57 82 50 83 52 84
REMARK SMILES IDX 53 85 54 86 55 87 79 88 80 89 88 90 81 91 83 92 89 93 82 94
REMARK SMILES IDX 84 95 85 96 86 97 87 98 64 99 65 100 73 101 66 102 68 103
REMARK SMILES IDX 74 104 67 105 69 106 70 107 71 108 72 109
REMARK H PARENT 13 19 18 36 94 62 62 73
REMARK Flexibility Score: inf
ROOT
ATOM      1  O   UNL A   1      32.631  35.490  32.071  1.00  0.00    -0.377 OA
ENDROOT
BRANCH   1   2
ATOM      2  C   UNL A   1      32.721  36.395  30.995  1.00  0.00     0.188 C 
BRANCH   2   3
ATOM      3  C   UNL A   1      33.076  35.825  29.604  1.00  0.00     0.188 C 
BRANCH   3   4
ATOM      4  O   UNL A   1      33.419  34.466  29.420  1.00  0.00    -0.376 OA
BRANCH   4   5
ATOM      5  C   UNL A   1      34.535  34.020  28.675  1.00  0.00     0.202 C 
BRANCH   5   6
ATOM      6  C   UNL A   1      35.339  32.749  28.938  1.00  0.00     0.261 C 
BRANCH   6   7
ATOM      7  O   UNL A   1      36.667  32.887  29.424  1.00  0.00    -0.460 OA
BRANCH   7   8
ATOM      8  C   UNL A   1      36.906  32.269  30.594  1.00  0.00     0.340 C 
ATOM      9  O   UNL A   1      36.068  31.722  31.300  1.00  0.00    -0.246 OA
BRANCH   8  10
ATOM     10  C   UNL A   1      38.363  32.163  30.860  1.00  0.00     0.087 A 
ATOM     11  C   UNL A   1      39.004  31.292  31.772  1.00  0.00     0.056 A 
ATOM     12  C   UNL A   1      40.388  31.464  31.967  1.00  0.00     0.031 A 
ATOM     13  C   UNL A   1      41.125  32.402  31.232  1.00  0.00     0.048 A 
ATOM     14  C   UNL A   1      39.117  33.109  30.130  1.00  0.00     0.064 A 
ATOM     15  C   UNL A   1      40.484  33.213  30.313  1.00  0.00     0.116 A 
BRANCH  11  16
ATOM     16  N   UNL A   1      38.446  30.210  32.505  1.00  0.00    -0.321 N 
ATOM     17  C   UNL A   1      37.943  28.971  32.145  1.00  0.00     0.255 C 
ATOM     18  O   UNL A   1      37.300  28.312  32.957  1.00  0.00    -0.269 OA
ATOM     19  H   UNL A   1      38.409  30.377  33.474  1.00  0.00     0.170 HD
BRANCH  17  20
ATOM     20  C   UNL A   1      38.204  28.395  30.808  1.00  0.00     0.040 A 
ATOM     21  C   UNL A   1      39.383  27.947  28.318  1.00  0.00    -0.024 A 
ATOM     22  C   UNL A   1      38.251  28.767  28.416  1.00  0.00     0.009 A 
ATOM     23  C   UNL A   1      39.803  27.267  29.463  1.00  0.00     0.009 A 
ATOM     24  C   UNL A   1      37.670  29.008  29.668  1.00  0.00     0.014 A 
ATOM     25  C   UNL A   1      39.139  27.382  30.671  1.00  0.00     0.014 A 
BRANCH  21  26
ATOM     26  C   UNL A   1      40.174  27.911  27.077  1.00  0.00     0.029 C 
ATOM     27  C   UNL A   1      44.443  28.955  28.866  1.00  0.00     0.155 C 
ATOM     28  N   UNL A   1      43.540  28.757  27.750  1.00  0.00    -0.296 N 
ATOM     29  C   UNL A   1      42.234  29.141  27.910  1.00  0.00     0.265 C 
ATOM     30  C   UNL A   1      43.868  28.293  26.501  1.00  0.00     0.148 C 
ATOM     31  O   UNL A   1      41.881  30.017  28.684  1.00  0.00    -0.268 OA
ATOM     32  C   UNL A   1      41.396  28.439  26.903  1.00  0.00     0.081 C 
ATOM     33  S   UNL A   1      42.398  28.095  25.536  1.00  0.00    -0.054 SA
ATOM     34  S   UNL A   1      45.390  27.946  25.919  1.00  0.00    -0.052 S 
ENDBRANCH  21  26
ENDBRANCH  17  20
ENDBRANCH  11  16
BRANCH  15  35
ATOM     35  O   UNL A   1      41.225  34.112  29.607  1.00  0.00    -0.508 OA
ATOM     36  H   UNL A   1      42.151  34.165  29.742  1.00  0.00     0.293 HD
ENDBRANCH  15  35
ENDBRANCH   8  10
ENDBRANCH   7   8
ENDBRANCH   6   7
ENDBRANCH   5   6
ENDBRANCH   4   5
ENDBRANCH   3   4
ENDBRANCH   2   3
ENDBRANCH   1   2
BRANCH   1  37
ATOM     37  C   UNL A   1      33.642  35.461  33.068  1.00  0.00     0.188 C 
BRANCH  37  38
ATOM     38  C   UNL A   1      34.973  34.705  32.853  1.00  0.00     0.188 C 
BRANCH  38  39
ATOM     39  O   UNL A   1      35.915  34.830  33.903  1.00  0.00    -0.376 OA
BRANCH  39  40
ATOM     40  C   UNL A   1      37.079  34.027  33.895  1.00  0.00     0.202 C 
BRANCH  40  41
ATOM     41  C   UNL A   1      36.993  32.615  34.493  1.00  0.00     0.261 C 
BRANCH  41  42
ATOM     42  O   UNL A   1      38.207  32.079  35.032  1.00  0.00    -0.460 OA
BRANCH  42  43
ATOM     43  C   UNL A   1      38.248  31.870  36.369  1.00  0.00     0.338 C 
ATOM     44  O   UNL A   1      37.788  30.932  36.978  1.00  0.00    -0.246 OA
BRANCH  43  45
ATOM     45  C   UNL A   1      39.142  32.901  36.940  1.00  0.00     0.060 A 
ATOM     46  C   UNL A   1      38.594  34.125  37.348  1.00  0.00     0.016 A 
ATOM     47  C   UNL A   1      40.508  32.649  37.081  1.00  0.00     0.016 A 
ATOM     48  C   UNL A   1      39.424  35.121  37.861  1.00  0.00     0.010 A 
ATOM     49  C   UNL A   1      41.341  33.657  37.570  1.00  0.00     0.010 A 
ATOM     50  C   UNL A   1      40.805  34.909  37.921  1.00  0.00    -0.014 A 
BRANCH  50  51
ATOM     51  C   UNL A   1      41.709  36.064  38.125  1.00  0.00     0.031 A 
ATOM     52  C   UNL A   1      41.928  36.545  39.532  1.00  0.00     0.074 A 
ATOM     53  C   UNL A   1      42.320  36.669  37.093  1.00  0.00     0.049 A 
ATOM     54  N   UNL A   1      42.630  37.557  39.965  1.00  0.00    -0.248 NA
ATOM     55  C   UNL A   1      41.256  35.780  40.599  1.00  0.00     0.031 C 
ATOM     56  C   UNL A   1      42.193  36.284  35.689  1.00  0.00     0.029 A 
ATOM     57  N   UNL A   1      43.150  37.761  37.072  1.00  0.00    -0.354 N 
ATOM     58  C   UNL A   1      42.456  37.576  41.343  1.00  0.00     0.074 A 
ATOM     59  C   UNL A   1      41.576  36.478  41.677  1.00  0.00     0.031 C 
ATOM     60  C   UNL A   1      42.892  37.153  34.937  1.00  0.00     0.029 A 
ATOM     61  C   UNL A   1      43.488  38.167  35.804  1.00  0.00     0.049 A 
ATOM     62  H   UNL A   1      43.472  38.210  37.887  1.00  0.00     0.167 HD
ATOM     63  C   UNL A   1      42.987  38.426  42.252  1.00  0.00     0.034 A 
ATOM     64  C   UNL A   1      44.173  39.254  35.393  1.00  0.00     0.034 A 
ATOM     65  C   UNL A   1      43.868  39.510  41.915  1.00  0.00     0.049 A 
ATOM     66  C   UNL A   1      44.732  40.203  36.423  1.00  0.00     0.074 A 
ATOM     67  C   UNL A   1      44.501  40.398  42.765  1.00  0.00     0.029 A 
ATOM     68  N   UNL A   1      44.222  39.867  40.623  1.00  0.00    -0.354 N 
ATOM     69  N   UNL A   1      44.656  40.145  37.731  1.00  0.00    -0.248 NA
ATOM     70  C   UNL A   1      45.500  41.352  35.920  1.00  0.00     0.031 C 
ATOM     71  C   UNL A   1      45.202  41.321  41.983  1.00  0.00     0.029 A 
ATOM     72  C   UNL A   1      45.049  40.977  40.650  1.00  0.00     0.049 A 
ATOM     73  H   UNL A   1      43.928  39.401  39.807  1.00  0.00     0.167 HD
ATOM     74  C   UNL A   1      45.395  41.224  38.207  1.00  0.00     0.074 A 
ATOM     75  C   UNL A   1      45.926  41.907  37.046  1.00  0.00     0.031 C 
ATOM     76  C   UNL A   1      45.608  41.619  39.488  1.00  0.00     0.034 A 
BRANCH  63  77
ATOM     77  C   UNL A   1      42.623  38.218  43.698  1.00  0.00     0.023 A 
ATOM     78  C   UNL A   1      43.497  37.518  44.554  1.00  0.00     0.012 A 
ATOM     79  C   UNL A   1      41.428  38.753  44.218  1.00  0.00     0.148 A 
ATOM     80  C   UNL A   1      43.172  37.322  45.896  1.00  0.00     0.002 A 
ATOM     81  C   UNL A   1      41.134  38.598  45.567  1.00  0.00     0.091 A 
ATOM     82  F   UNL A   1      40.597  39.393  43.382  1.00  0.00    -0.205 F 
ATOM     83  C   UNL A   1      41.996  37.871  46.404  1.00  0.00     0.022 A 
BRANCH  81  84
ATOM     84  S   UNL A   1      39.689  39.338  46.332  1.00  0.00     0.127 S 
ATOM     85  O   UNL A   1      39.383  38.367  47.383  1.00  0.00    -0.237 OA
ATOM     86  O   UNL A   1      40.219  40.613  46.817  1.00  0.00    -0.237 OA
ATOM     87  O   UNL A   1      38.689  39.453  45.281  1.00  0.00    -0.744 OA
ENDBRANCH  81  84
ENDBRANCH  63  77
BRANCH  64  88
ATOM     88  C   UNL A   1      44.379  39.498  33.938  1.00  0.00     0.023 A 
ATOM     89  C   UNL A   1      45.413  38.830  33.255  1.00  0.00     0.012 A 
ATOM     90  C   UNL A   1      43.549  40.388  33.227  1.00  0.00     0.148 A 
ATOM     91  C   UNL A   1      45.639  39.067  31.899  1.00  0.00     0.002 A 
ATOM     92  C   UNL A   1      43.746  40.579  31.864  1.00  0.00     0.091 A 
ATOM     93  F   UNL A   1      42.582  41.027  33.899  1.00  0.00    -0.205 F 
ATOM     94  C   UNL A   1      44.799  39.932  31.202  1.00  0.00     0.022 A 
BRANCH  92  95
ATOM     95  S   UNL A   1      42.652  41.591  30.862  1.00  0.00     0.127 S 
ATOM     96  O   UNL A   1      42.964  42.934  31.345  1.00  0.00    -0.237 OA
ATOM     97  O   UNL A   1      43.130  41.299  29.511  1.00  0.00    -0.237 OA
ATOM     98  O   UNL A   1      41.304  41.119  31.146  1.00  0.00    -0.744 OA
ENDBRANCH  92  95
ENDBRANCH  64  88
BRANCH  76  99
ATOM     99  C   UNL A   1      46.493  42.818  39.715  1.00  0.00     0.023 A 
ATOM    100  C   UNL A   1      47.885  42.656  39.857  1.00  0.00     0.012 A 
ATOM    101  C   UNL A   1      45.946  44.118  39.712  1.00  0.00     0.148 A 
ATOM    102  C   UNL A   1      48.714  43.765  40.032  1.00  0.00     0.002 A 
ATOM    103  C   UNL A   1      46.783  45.220  39.831  1.00  0.00     0.091 A 
ATOM    104  F   UNL A   1      44.618  44.251  39.590  1.00  0.00    -0.205 F 
ATOM    105  C   UNL A   1      48.165  45.045  40.006  1.00  0.00     0.022 A 
BRANCH 103 106
ATOM    106  S   UNL A   1      46.179  46.907  39.707  1.00  0.00     0.127 S 
ATOM    107  O   UNL A   1      45.169  46.940  40.764  1.00  0.00    -0.237 OA
ATOM    108  O   UNL A   1      47.384  47.688  39.992  1.00  0.00    -0.237 OA
ATOM    109  O   UNL A   1      45.668  47.055  38.351  1.00  0.00    -0.744 OA
ENDBRANCH 103 106
ENDBRANCH  76  99
ENDBRANCH  50  51
ENDBRANCH  43  45
ENDBRANCH  42  43
ENDBRANCH  41  42
ENDBRANCH  40  41
ENDBRANCH  39  40
ENDBRANCH  38  39
ENDBRANCH  37  38
ENDBRANCH   1  37
TORSDOF 27
ENDMDL
