MODEL 1
REMARK VINA RESULT:      -9.8      0.000      0.000
REMARK SMILES O=C(OCCOCCOCCOCCOC(=O)[C@H]1CC2=c3ccccc3=N[C@H]2[C@@H](c2ccccc2)[NH2+]1)c1ccc(-c2c3nc(c(-c4cccc(S(=O)(=O)[O-])c4F)c4ccc([nH]4)c(-c4cccc(S(=O)(=O)[O-])c4F)c4nc(c(-c5cccc(S(=O)(=O)[O-])c5F)c5ccc2[nH]5)C=C4)C=C3)cc1
REMARK SMILES IDX 8 1 7 2 6 3 5 4 4 5 3 6 2 7 1 8 37 9 38 10 99 11 39 12 98 13
REMARK SMILES IDX 40 14 41 15 42 16 92 17 43 18 97 19 91 20 93 21 44 22 96 23
REMARK SMILES IDX 90 24 89 25 45 27 77 28 57 29 76 30 58 31 61 32 75 33 94 34
REMARK SMILES IDX 59 35 60 36 74 38 95 39 62 40 46 41 47 42 55 43 48 44 50 45
REMARK SMILES IDX 56 46 49 47 51 48 52 49 53 50 54 51 78 52 79 53 87 54 80 55
REMARK SMILES IDX 82 56 88 57 81 58 83 59 84 60 85 61 86 62 63 63 64 64 72 65
REMARK SMILES IDX 65 66 67 67 73 68 66 69 68 70 69 71 70 72 71 73 9 74 10 75
REMARK SMILES IDX 11 76 12 77 13 78 14 79 15 80 16 81 17 82 18 83 19 84 36 85
REMARK SMILES IDX 20 86 29 87 21 90 28 91 22 92 26 93 27 94 23 95 25 96 24 97
REMARK SMILES IDX 30 98 31 99 35 100 32 101 34 102 33 103
REMARK H PARENT 93 26 61 37 36 88 36 89
REMARK Flexibility Score: inf
ROOT
ATOM      1  C   UNL A   1      37.946  22.159  25.302  1.00  0.00     0.188 C 
ENDROOT
BRANCH   1   2
ATOM      2  C   UNL A   1      38.770  20.964  25.773  1.00  0.00     0.188 C 
BRANCH   2   3
ATOM      3  O   UNL A   1      40.137  21.299  26.027  1.00  0.00    -0.376 OA
BRANCH   3   4
ATOM      4  C   UNL A   1      40.383  22.125  27.164  1.00  0.00     0.202 C 
BRANCH   4   5
ATOM      5  C   UNL A   1      41.602  23.038  27.078  1.00  0.00     0.261 C 
BRANCH   5   6
ATOM      6  O   UNL A   1      42.270  22.978  25.816  1.00  0.00    -0.460 OA
BRANCH   6   7
ATOM      7  C   UNL A   1      43.142  23.872  25.288  1.00  0.00     0.338 C 
ATOM      8  O   UNL A   1      43.799  23.497  24.315  1.00  0.00    -0.246 OA
BRANCH   7   9
ATOM      9  C   UNL A   1      43.439  25.241  25.849  1.00  0.00     0.060 A 
ATOM     10  C   UNL A   1      42.800  26.318  25.208  1.00  0.00     0.016 A 
ATOM     11  C   UNL A   1      44.317  25.550  26.894  1.00  0.00     0.016 A 
ATOM     12  C   UNL A   1      43.038  27.640  25.594  1.00  0.00     0.010 A 
ATOM     13  C   UNL A   1      44.597  26.862  27.258  1.00  0.00     0.010 A 
ATOM     14  C   UNL A   1      43.939  27.910  26.628  1.00  0.00    -0.014 A 
BRANCH  14  15
ATOM     15  C   UNL A   1      43.999  29.233  27.264  1.00  0.00     0.031 A 
ATOM     16  C   UNL A   1      45.200  30.109  27.151  1.00  0.00     0.074 A 
ATOM     17  C   UNL A   1      42.969  29.533  28.078  1.00  0.00     0.049 A 
ATOM     18  N   UNL A   1      45.344  31.335  27.571  1.00  0.00    -0.248 NA
ATOM     19  C   UNL A   1      46.402  29.543  26.514  1.00  0.00     0.031 C 
ATOM     20  C   UNL A   1      41.847  28.629  28.365  1.00  0.00     0.029 A 
ATOM     21  N   UNL A   1      42.701  30.642  28.826  1.00  0.00    -0.354 N 
ATOM     22  C   UNL A   1      46.649  31.693  27.260  1.00  0.00     0.074 A 
ATOM     23  C   UNL A   1      47.266  30.546  26.633  1.00  0.00     0.031 C 
ATOM     24  C   UNL A   1      40.999  29.233  29.205  1.00  0.00     0.029 A 
ATOM     25  C   UNL A   1      41.510  30.562  29.505  1.00  0.00     0.049 A 
ATOM     26  H   UNL A   1      43.302  31.421  28.874  1.00  0.00     0.167 HD
ATOM     27  C   UNL A   1      47.246  32.887  27.473  1.00  0.00     0.034 A 
ATOM     28  C   UNL A   1      40.878  31.482  30.255  1.00  0.00     0.034 A 
ATOM     29  C   UNL A   1      46.574  33.996  28.099  1.00  0.00     0.049 A 
ATOM     30  C   UNL A   1      41.511  32.831  30.380  1.00  0.00     0.074 A 
ATOM     31  C   UNL A   1      47.014  35.297  28.246  1.00  0.00     0.029 A 
ATOM     32  N   UNL A   1      45.328  33.918  28.706  1.00  0.00    -0.354 N 
ATOM     33  N   UNL A   1      42.653  33.240  29.879  1.00  0.00    -0.248 NA
ATOM     34  C   UNL A   1      40.775  33.852  31.131  1.00  0.00     0.031 C 
ATOM     35  C   UNL A   1      46.046  35.999  28.968  1.00  0.00     0.029 A 
ATOM     36  C   UNL A   1      44.992  35.141  29.251  1.00  0.00     0.049 A 
ATOM     37  H   UNL A   1      44.766  33.110  28.743  1.00  0.00     0.167 HD
ATOM     38  C   UNL A   1      42.772  34.571  30.240  1.00  0.00     0.074 A 
ATOM     39  C   UNL A   1      41.577  34.904  30.994  1.00  0.00     0.031 C 
ATOM     40  C   UNL A   1      43.781  35.435  29.979  1.00  0.00     0.034 A 
BRANCH  27  41
ATOM     41  C   UNL A   1      48.651  33.100  26.976  1.00  0.00     0.023 A 
ATOM     42  C   UNL A   1      48.857  33.851  25.802  1.00  0.00     0.012 A 
ATOM     43  C   UNL A   1      49.764  32.683  27.734  1.00  0.00     0.148 A 
ATOM     44  C   UNL A   1      50.146  34.179  25.384  1.00  0.00     0.002 A 
ATOM     45  C   UNL A   1      51.046  33.039  27.326  1.00  0.00     0.091 A 
ATOM     46  F   UNL A   1      49.548  31.965  28.844  1.00  0.00    -0.205 F 
ATOM     47  C   UNL A   1      51.239  33.784  26.151  1.00  0.00     0.022 A 
BRANCH  45  48
ATOM     48  S   UNL A   1      52.522  32.627  28.266  1.00  0.00     0.127 S 
ATOM     49  O   UNL A   1      53.534  32.562  27.212  1.00  0.00    -0.237 OA
ATOM     50  O   UNL A   1      52.647  33.779  29.159  1.00  0.00    -0.237 OA
ATOM     51  O   UNL A   1      52.241  31.362  28.929  1.00  0.00    -0.744 OA
ENDBRANCH  45  48
ENDBRANCH  27  41
BRANCH  28  52
ATOM     52  C   UNL A   1      39.524  31.155  30.773  1.00  0.00     0.023 A 
ATOM     53  C   UNL A   1      39.416  30.444  31.983  1.00  0.00     0.012 A 
ATOM     54  C   UNL A   1      38.368  31.716  30.194  1.00  0.00     0.148 A 
ATOM     55  C   UNL A   1      38.180  30.302  32.615  1.00  0.00     0.002 A 
ATOM     56  C   UNL A   1      37.145  31.600  30.847  1.00  0.00     0.091 A 
ATOM     57  F   UNL A   1      38.504  32.408  29.055  1.00  0.00    -0.205 F 
ATOM     58  C   UNL A   1      37.049  30.891  32.054  1.00  0.00     0.022 A 
BRANCH  56  59
ATOM     59  S   UNL A   1      35.656  32.425  30.270  1.00  0.00     0.127 S 
ATOM     60  O   UNL A   1      36.112  33.808  30.144  1.00  0.00    -0.237 OA
ATOM     61  O   UNL A   1      35.407  31.741  29.000  1.00  0.00    -0.237 OA
ATOM     62  O   UNL A   1      34.647  32.188  31.292  1.00  0.00    -0.744 OA
ENDBRANCH  56  59
ENDBRANCH  28  52
BRANCH  40  63
ATOM     63  C   UNL A   1      43.662  36.826  30.524  1.00  0.00     0.023 A 
ATOM     64  C   UNL A   1      44.117  37.087  31.830  1.00  0.00     0.012 A 
ATOM     65  C   UNL A   1      43.273  37.887  29.687  1.00  0.00     0.148 A 
ATOM     66  C   UNL A   1      44.193  38.397  32.295  1.00  0.00     0.002 A 
ATOM     67  C   UNL A   1      43.383  39.191  30.145  1.00  0.00     0.091 A 
ATOM     68  F   UNL A   1      42.845  37.599  28.450  1.00  0.00    -0.205 F 
ATOM     69  C   UNL A   1      43.841  39.448  31.449  1.00  0.00     0.022 A 
BRANCH  67  70
ATOM     70  S   UNL A   1      43.032  40.614  29.109  1.00  0.00     0.127 S 
ATOM     71  O   UNL A   1      41.598  40.456  28.865  1.00  0.00    -0.237 OA
ATOM     72  O   UNL A   1      43.385  41.728  29.988  1.00  0.00    -0.237 OA
ATOM     73  O   UNL A   1      43.873  40.474  27.928  1.00  0.00    -0.744 OA
ENDBRANCH  67  70
ENDBRANCH  40  63
ENDBRANCH  14  15
ENDBRANCH   7   9
ENDBRANCH   6   7
ENDBRANCH   5   6
ENDBRANCH   4   5
ENDBRANCH   3   4
ENDBRANCH   2   3
ENDBRANCH   1   2
BRANCH   1  74
ATOM     74  O   UNL A   1      36.727  21.835  24.651  1.00  0.00    -0.377 OA
BRANCH  74  75
ATOM     75  C   UNL A   1      35.650  22.744  24.826  1.00  0.00     0.188 C 
BRANCH  75  76
ATOM     76  C   UNL A   1      35.352  23.307  26.223  1.00  0.00     0.188 C 
BRANCH  76  77
ATOM     77  O   UNL A   1      34.058  23.854  26.314  1.00  0.00    -0.376 OA
BRANCH  77  78
ATOM     78  C   UNL A   1      33.868  25.158  25.798  1.00  0.00     0.202 C 
BRANCH  78  79
ATOM     79  C   UNL A   1      32.611  25.982  26.127  1.00  0.00     0.261 C 
BRANCH  79  80
ATOM     80  O   UNL A   1      32.722  27.371  26.477  1.00  0.00    -0.459 OA
BRANCH  80  81
ATOM     81  C   UNL A   1      33.566  28.225  25.822  1.00  0.00     0.365 C 
ATOM     82  O   UNL A   1      34.534  28.766  26.317  1.00  0.00    -0.245 OA
BRANCH  81  83
ATOM     83  C   UNL A   1      33.070  28.447  24.357  1.00  0.00     0.298 C 
ATOM     84  C   UNL A   1      33.569  27.504  23.177  1.00  0.00     0.111 C 
ATOM     85  N   UNL A   1      31.595  28.562  24.447  1.00  0.00    -0.326 N 
ATOM     86  C   UNL A   1      32.448  26.676  22.553  1.00  0.00    -0.024 C 
ATOM     87  C   UNL A   1      31.034  28.656  23.102  1.00  0.00     0.243 C 
ATOM     88  H   UNL A   1      31.351  29.398  24.977  1.00  0.00     0.347 HD
ATOM     89  H   UNL A   1      31.217  27.740  24.918  1.00  0.00     0.347 HD
ATOM     90  C   UNL A   1      32.376  25.358  22.390  1.00  0.00     0.002 A 
ATOM     91  C   UNL A   1      31.044  27.247  22.468  1.00  0.00     0.196 C 
ATOM     92  C   UNL A   1      33.290  24.285  22.174  1.00  0.00     0.010 A 
ATOM     93  C   UNL A   1      31.017  25.132  22.956  1.00  0.00     0.066 A 
ATOM     94  N   UNL A   1      30.234  26.169  23.105  1.00  0.00    -0.270 NA
ATOM     95  C   UNL A   1      32.907  23.034  22.474  1.00  0.00     0.001 A 
ATOM     96  C   UNL A   1      30.760  23.746  23.435  1.00  0.00     0.028 A 
ATOM     97  C   UNL A   1      31.670  22.785  23.193  1.00  0.00     0.002 A 
BRANCH  87  98
ATOM     98  C   UNL A   1      29.871  29.625  23.057  1.00  0.00     0.012 A 
ATOM     99  C   UNL A   1      29.895  30.853  23.723  1.00  0.00     0.010 A 
ATOM    100  C   UNL A   1      28.625  29.148  22.587  1.00  0.00     0.010 A 
ATOM    101  C   UNL A   1      28.703  31.556  23.939  1.00  0.00     0.001 A 
ATOM    102  C   UNL A   1      27.444  29.849  22.798  1.00  0.00     0.001 A 
ATOM    103  C   UNL A   1      27.482  31.050  23.490  1.00  0.00     0.000 A 
ENDBRANCH  87  98
ENDBRANCH  81  83
ENDBRANCH  80  81
ENDBRANCH  79  80
ENDBRANCH  78  79
ENDBRANCH  77  78
ENDBRANCH  76  77
ENDBRANCH  75  76
ENDBRANCH  74  75
ENDBRANCH   1  74
TORSDOF 24
ENDMDL
MODEL 2
REMARK VINA RESULT:      -9.7      3.514      8.601
REMARK SMILES O=C(OCCOCCOCCOCCOC(=O)[C@H]1CC2=c3ccccc3=N[C@H]2[C@@H](c2ccccc2)[NH2+]1)c1ccc(-c2c3nc(c(-c4cccc(S(=O)(=O)[O-])c4F)c4ccc([nH]4)c(-c4cccc(S(=O)(=O)[O-])c4F)c4nc(c(-c5cccc(S(=O)(=O)[O-])c5F)c5ccc2[nH]5)C=C4)C=C3)cc1
REMARK SMILES IDX 8 1 7 2 6 3 5 4 4 5 3 6 2 7 1 8 37 9 38 10 99 11 39 12 98 13
REMARK SMILES IDX 40 14 41 15 42 16 92 17 43 18 97 19 91 20 93 21 44 22 96 23
REMARK SMILES IDX 90 24 89 25 45 27 77 28 57 29 76 30 58 31 61 32 75 33 94 34
REMARK SMILES IDX 59 35 60 36 74 38 95 39 62 40 46 41 47 42 55 43 48 44 50 45
REMARK SMILES IDX 56 46 49 47 51 48 52 49 53 50 54 51 78 52 79 53 87 54 80 55
REMARK SMILES IDX 82 56 88 57 81 58 83 59 84 60 85 61 86 62 63 63 64 64 72 65
REMARK SMILES IDX 65 66 67 67 73 68 66 69 68 70 69 71 70 72 71 73 9 74 10 75
REMARK SMILES IDX 11 76 12 77 13 78 14 79 15 80 16 81 17 82 18 83 19 84 36 85
REMARK SMILES IDX 20 86 29 87 21 90 28 91 22 92 26 93 27 94 23 95 25 96 24 97
REMARK SMILES IDX 30 98 31 99 35 100 32 101 34 102 33 103
REMARK H PARENT 93 26 61 37 36 88 36 89
REMARK Flexibility Score: inf
ROOT
ATOM      1  C   UNL A   1      38.334  21.255  25.737  1.00  0.00     0.188 C 
ENDROOT
BRANCH   1   2
ATOM      2  C   UNL A   1      39.445  22.094  26.366  1.00  0.00     0.188 C 
BRANCH   2   3
ATOM      3  O   UNL A   1      40.702  21.414  26.396  1.00  0.00    -0.376 OA
BRANCH   3   4
ATOM      4  C   UNL A   1      40.651  20.003  26.602  1.00  0.00     0.202 C 
BRANCH   4   5
ATOM      5  C   UNL A   1      41.965  19.251  26.415  1.00  0.00     0.261 C 
BRANCH   5   6
ATOM      6  O   UNL A   1      42.514  19.382  25.103  1.00  0.00    -0.460 OA
BRANCH   6   7
ATOM      7  C   UNL A   1      43.590  20.111  24.715  1.00  0.00     0.338 C 
ATOM      8  O   UNL A   1      44.378  19.566  23.940  1.00  0.00    -0.246 OA
BRANCH   7   9
ATOM      9  C   UNL A   1      43.945  21.485  25.226  1.00  0.00     0.060 A 
ATOM     10  C   UNL A   1      44.533  21.531  26.504  1.00  0.00     0.016 A 
ATOM     11  C   UNL A   1      43.701  22.708  24.592  1.00  0.00     0.016 A 
ATOM     12  C   UNL A   1      44.853  22.747  27.115  1.00  0.00     0.010 A 
ATOM     13  C   UNL A   1      43.973  23.926  25.206  1.00  0.00     0.010 A 
ATOM     14  C   UNL A   1      44.575  23.948  26.457  1.00  0.00    -0.014 A 
BRANCH  14  15
ATOM     15  C   UNL A   1      45.153  25.220  26.912  1.00  0.00     0.031 A 
ATOM     16  C   UNL A   1      44.432  26.122  27.856  1.00  0.00     0.074 A 
ATOM     17  C   UNL A   1      46.296  25.588  26.304  1.00  0.00     0.049 A 
ATOM     18  N   UNL A   1      44.870  27.216  28.416  1.00  0.00    -0.248 NA
ATOM     19  C   UNL A   1      43.041  25.781  28.200  1.00  0.00     0.031 C 
ATOM     20  C   UNL A   1      46.954  24.821  25.238  1.00  0.00     0.029 A 
ATOM     21  N   UNL A   1      47.091  26.686  26.461  1.00  0.00    -0.354 N 
ATOM     22  C   UNL A   1      43.815  27.703  29.176  1.00  0.00     0.074 A 
ATOM     23  C   UNL A   1      42.703  26.797  28.988  1.00  0.00     0.031 C 
ATOM     24  C   UNL A   1      48.066  25.459  24.857  1.00  0.00     0.029 A 
ATOM     25  C   UNL A   1      48.204  26.668  25.656  1.00  0.00     0.049 A 
ATOM     26  H   UNL A   1      46.888  27.418  27.088  1.00  0.00     0.167 HD
ATOM     27  C   UNL A   1      43.808  28.801  29.964  1.00  0.00     0.034 A 
ATOM     28  C   UNL A   1      49.246  27.516  25.600  1.00  0.00     0.034 A 
ATOM     29  C   UNL A   1      44.952  29.661  30.114  1.00  0.00     0.049 A 
ATOM     30  C   UNL A   1      49.263  28.660  26.563  1.00  0.00     0.074 A 
ATOM     31  C   UNL A   1      45.125  30.719  30.985  1.00  0.00     0.029 A 
ATOM     32  N   UNL A   1      46.106  29.574  29.348  1.00  0.00    -0.354 N 
ATOM     33  N   UNL A   1      48.354  28.984  27.453  1.00  0.00    -0.248 NA
ATOM     34  C   UNL A   1      50.441  29.532  26.551  1.00  0.00     0.031 C 
ATOM     35  C   UNL A   1      46.373  31.290  30.726  1.00  0.00     0.029 A 
ATOM     36  C   UNL A   1      46.988  30.573  29.708  1.00  0.00     0.049 A 
ATOM     37  H   UNL A   1      46.273  28.898  28.651  1.00  0.00     0.167 HD
ATOM     38  C   UNL A   1      48.852  30.090  28.120  1.00  0.00     0.074 A 
ATOM     39  C   UNL A   1      50.152  30.374  27.538  1.00  0.00     0.031 C 
ATOM     40  C   UNL A   1      48.282  30.809  29.116  1.00  0.00     0.034 A 
BRANCH  27  41
ATOM     41  C   UNL A   1      42.580  29.107  30.780  1.00  0.00     0.023 A 
ATOM     42  C   UNL A   1      42.481  28.595  32.089  1.00  0.00     0.012 A 
ATOM     43  C   UNL A   1      41.598  30.003  30.312  1.00  0.00     0.148 A 
ATOM     44  C   UNL A   1      41.423  28.965  32.919  1.00  0.00     0.002 A 
ATOM     45  C   UNL A   1      40.561  30.389  31.155  1.00  0.00     0.091 A 
ATOM     46  F   UNL A   1      41.707  30.473  29.062  1.00  0.00    -0.205 F 
ATOM     47  C   UNL A   1      40.470  29.869  32.457  1.00  0.00     0.022 A 
BRANCH  45  48
ATOM     48  S   UNL A   1      39.308  31.588  30.682  1.00  0.00     0.127 S 
ATOM     49  O   UNL A   1      38.584  31.771  31.940  1.00  0.00    -0.237 OA
ATOM     50  O   UNL A   1      40.120  32.735  30.275  1.00  0.00    -0.237 OA
ATOM     51  O   UNL A   1      38.539  30.968  29.612  1.00  0.00    -0.744 OA
ENDBRANCH  45  48
ENDBRANCH  27  41
BRANCH  28  52
ATOM     52  C   UNL A   1      50.382  27.175  24.705  1.00  0.00     0.023 A 
ATOM     53  C   UNL A   1      50.486  27.831  23.464  1.00  0.00     0.012 A 
ATOM     54  C   UNL A   1      51.449  26.375  25.157  1.00  0.00     0.148 A 
ATOM     55  C   UNL A   1      51.640  27.705  22.690  1.00  0.00     0.002 A 
ATOM     56  C   UNL A   1      52.610  26.280  24.396  1.00  0.00     0.091 A 
ATOM     57  F   UNL A   1      51.332  25.781  26.352  1.00  0.00    -0.205 F 
ATOM     58  C   UNL A   1      52.705  26.942  23.161  1.00  0.00     0.022 A 
BRANCH  56  59
ATOM     59  S   UNL A   1      54.081  25.423  24.972  1.00  0.00     0.127 S 
ATOM     60  O   UNL A   1      53.703  24.024  24.782  1.00  0.00    -0.237 OA
ATOM     61  O   UNL A   1      55.099  25.916  24.044  1.00  0.00    -0.237 OA
ATOM     62  O   UNL A   1      54.269  25.838  26.354  1.00  0.00    -0.744 OA
ENDBRANCH  56  59
ENDBRANCH  28  52
BRANCH  40  63
ATOM     63  C   UNL A   1      49.040  31.992  29.639  1.00  0.00     0.023 A 
ATOM     64  C   UNL A   1      50.002  31.793  30.647  1.00  0.00     0.012 A 
ATOM     65  C   UNL A   1      48.924  33.246  29.011  1.00  0.00     0.148 A 
ATOM     66  C   UNL A   1      50.849  32.833  31.020  1.00  0.00     0.002 A 
ATOM     67  C   UNL A   1      49.794  34.266  29.364  1.00  0.00     0.091 A 
ATOM     68  F   UNL A   1      47.996  33.396  28.056  1.00  0.00    -0.205 F 
ATOM     69  C   UNL A   1      50.755  34.063  30.369  1.00  0.00     0.022 A 
BRANCH  67  70
ATOM     70  S   UNL A   1      49.806  35.856  28.533  1.00  0.00     0.127 S 
ATOM     71  O   UNL A   1      50.866  36.561  29.255  1.00  0.00    -0.237 OA
ATOM     72  O   UNL A   1      50.145  35.482  27.161  1.00  0.00    -0.237 OA
ATOM     73  O   UNL A   1      48.472  36.415  28.704  1.00  0.00    -0.744 OA
ENDBRANCH  67  70
ENDBRANCH  40  63
ENDBRANCH  14  15
ENDBRANCH   7   9
ENDBRANCH   6   7
ENDBRANCH   5   6
ENDBRANCH   4   5
ENDBRANCH   3   4
ENDBRANCH   2   3
ENDBRANCH   1   2
BRANCH   1  74
ATOM     74  O   UNL A   1      37.069  21.894  25.651  1.00  0.00    -0.377 OA
BRANCH  74  75
ATOM     75  C   UNL A   1      37.074  23.313  25.605  1.00  0.00     0.188 C 
BRANCH  75  76
ATOM     76  C   UNL A   1      35.882  24.056  24.986  1.00  0.00     0.188 C 
BRANCH  76  77
ATOM     77  O   UNL A   1      34.998  24.555  25.961  1.00  0.00    -0.376 OA
BRANCH  77  78
ATOM     78  C   UNL A   1      34.091  25.564  25.559  1.00  0.00     0.202 C 
BRANCH  78  79
ATOM     79  C   UNL A   1      33.935  25.968  24.082  1.00  0.00     0.261 C 
BRANCH  79  80
ATOM     80  O   UNL A   1      33.938  27.354  23.702  1.00  0.00    -0.459 OA
BRANCH  80  81
ATOM     81  C   UNL A   1      33.739  27.758  22.410  1.00  0.00     0.365 C 
ATOM     82  O   UNL A   1      34.582  28.268  21.701  1.00  0.00    -0.245 OA
BRANCH  81  83
ATOM     83  C   UNL A   1      32.251  27.518  21.999  1.00  0.00     0.298 C 
ATOM     84  C   UNL A   1      31.669  26.044  21.871  1.00  0.00     0.111 C 
ATOM     85  N   UNL A   1      31.447  28.404  22.873  1.00  0.00    -0.326 N 
ATOM     86  C   UNL A   1      30.573  25.739  22.888  1.00  0.00    -0.024 C 
ATOM     87  C   UNL A   1      30.027  28.159  22.636  1.00  0.00     0.243 C 
ATOM     88  H   UNL A   1      31.664  29.379  22.663  1.00  0.00     0.347 HD
ATOM     89  H   UNL A   1      31.667  28.212  23.850  1.00  0.00     0.347 HD
ATOM     90  C   UNL A   1      30.502  24.742  23.766  1.00  0.00     0.002 A 
ATOM     91  C   UNL A   1      29.633  26.842  23.341  1.00  0.00     0.196 C 
ATOM     92  C   UNL A   1      30.951  23.390  23.842  1.00  0.00     0.010 A 
ATOM     93  C   UNL A   1      30.177  25.533  24.985  1.00  0.00     0.066 A 
ATOM     94  N   UNL A   1      29.754  26.760  24.826  1.00  0.00    -0.270 NA
ATOM     95  C   UNL A   1      31.065  22.810  25.048  1.00  0.00     0.001 A 
ATOM     96  C   UNL A   1      30.519  24.870  26.273  1.00  0.00     0.028 A 
ATOM     97  C   UNL A   1      30.936  23.590  26.266  1.00  0.00     0.002 A 
BRANCH  87  98
ATOM     98  C   UNL A   1      29.230  29.446  22.684  1.00  0.00     0.012 A 
ATOM     99  C   UNL A   1      28.542  29.941  21.573  1.00  0.00     0.010 A 
ATOM    100  C   UNL A   1      29.435  30.317  23.779  1.00  0.00     0.010 A 
ATOM    101  C   UNL A   1      28.110  31.273  21.551  1.00  0.00     0.001 A 
ATOM    102  C   UNL A   1      29.002  31.637  23.759  1.00  0.00     0.001 A 
ATOM    103  C   UNL A   1      28.350  32.120  22.634  1.00  0.00     0.000 A 
ENDBRANCH  87  98
ENDBRANCH  81  83
ENDBRANCH  80  81
ENDBRANCH  79  80
ENDBRANCH  78  79
ENDBRANCH  77  78
ENDBRANCH  76  77
ENDBRANCH  75  76
ENDBRANCH  74  75
ENDBRANCH   1  74
TORSDOF 24
ENDMDL
MODEL 3
REMARK VINA RESULT:      -9.7      2.669      7.965
REMARK SMILES O=C(OCCOCCOCCOCCOC(=O)[C@H]1CC2=c3ccccc3=N[C@H]2[C@@H](c2ccccc2)[NH2+]1)c1ccc(-c2c3nc(c(-c4cccc(S(=O)(=O)[O-])c4F)c4ccc([nH]4)c(-c4cccc(S(=O)(=O)[O-])c4F)c4nc(c(-c5cccc(S(=O)(=O)[O-])c5F)c5ccc2[nH]5)C=C4)C=C3)cc1
REMARK SMILES IDX 8 1 7 2 6 3 5 4 4 5 3 6 2 7 1 8 37 9 38 10 99 11 39 12 98 13
REMARK SMILES IDX 40 14 41 15 42 16 92 17 43 18 97 19 91 20 93 21 44 22 96 23
REMARK SMILES IDX 90 24 89 25 45 27 77 28 57 29 76 30 58 31 61 32 75 33 94 34
REMARK SMILES IDX 59 35 60 36 74 38 95 39 62 40 46 41 47 42 55 43 48 44 50 45
REMARK SMILES IDX 56 46 49 47 51 48 52 49 53 50 54 51 78 52 79 53 87 54 80 55
REMARK SMILES IDX 82 56 88 57 81 58 83 59 84 60 85 61 86 62 63 63 64 64 72 65
REMARK SMILES IDX 65 66 67 67 73 68 66 69 68 70 69 71 70 72 71 73 9 74 10 75
REMARK SMILES IDX 11 76 12 77 13 78 14 79 15 80 16 81 17 82 18 83 19 84 36 85
REMARK SMILES IDX 20 86 29 87 21 90 28 91 22 92 26 93 27 94 23 95 25 96 24 97
REMARK SMILES IDX 30 98 31 99 35 100 32 101 34 102 33 103
REMARK H PARENT 93 26 61 37 36 88 36 89
REMARK Flexibility Score: inf
ROOT
ATOM      1  C   UNL A   1      38.305  21.280  25.701  1.00  0.00     0.188 C 
ENDROOT
BRANCH   1   2
ATOM      2  C   UNL A   1      39.393  22.112  26.376  1.00  0.00     0.188 C 
BRANCH   2   3
ATOM      3  O   UNL A   1      40.669  21.468  26.364  1.00  0.00    -0.376 OA
BRANCH   3   4
ATOM      4  C   UNL A   1      40.656  20.041  26.383  1.00  0.00     0.202 C 
BRANCH   4   5
ATOM      5  C   UNL A   1      42.020  19.358  26.350  1.00  0.00     0.261 C 
BRANCH   5   6
ATOM      6  O   UNL A   1      42.820  19.737  25.229  1.00  0.00    -0.460 OA
BRANCH   6   7
ATOM      7  C   UNL A   1      43.808  20.663  25.181  1.00  0.00     0.338 C 
ATOM      8  O   UNL A   1      44.879  20.306  24.687  1.00  0.00    -0.246 OA
BRANCH   7   9
ATOM      9  C   UNL A   1      43.734  22.052  25.765  1.00  0.00     0.060 A 
ATOM     10  C   UNL A   1      43.846  22.135  27.166  1.00  0.00     0.016 A 
ATOM     11  C   UNL A   1      43.510  23.247  25.071  1.00  0.00     0.016 A 
ATOM     12  C   UNL A   1      43.733  23.358  27.833  1.00  0.00     0.010 A 
ATOM     13  C   UNL A   1      43.351  24.462  25.726  1.00  0.00     0.010 A 
ATOM     14  C   UNL A   1      43.489  24.526  27.106  1.00  0.00    -0.014 A 
BRANCH  14  15
ATOM     15  C   UNL A   1      43.657  25.853  27.713  1.00  0.00     0.031 A 
ATOM     16  C   UNL A   1      42.501  26.629  28.249  1.00  0.00     0.074 A 
ATOM     17  C   UNL A   1      44.890  26.385  27.612  1.00  0.00     0.049 A 
ATOM     18  N   UNL A   1      42.523  27.758  28.901  1.00  0.00    -0.248 NA
ATOM     19  C   UNL A   1      41.150  26.097  28.006  1.00  0.00     0.031 C 
ATOM     20  C   UNL A   1      46.021  25.738  26.935  1.00  0.00     0.029 A 
ATOM     21  N   UNL A   1      45.399  27.577  28.043  1.00  0.00    -0.354 N 
ATOM     22  C   UNL A   1      41.196  28.082  29.146  1.00  0.00     0.074 A 
ATOM     23  C   UNL A   1      40.388  27.040  28.552  1.00  0.00     0.031 C 
ATOM     24  C   UNL A   1      47.097  26.528  27.019  1.00  0.00     0.029 A 
ATOM     25  C   UNL A   1      46.735  27.726  27.763  1.00  0.00     0.049 A 
ATOM     26  H   UNL A   1      44.862  28.260  28.506  1.00  0.00     0.167 HD
ATOM     27  C   UNL A   1      40.722  29.151  29.824  1.00  0.00     0.034 A 
ATOM     28  C   UNL A   1      47.587  28.708  28.108  1.00  0.00     0.034 A 
ATOM     29  C   UNL A   1      41.580  30.154  30.398  1.00  0.00     0.049 A 
ATOM     30  C   UNL A   1      47.057  29.821  28.954  1.00  0.00     0.074 A 
ATOM     31  C   UNL A   1      41.241  31.205  31.227  1.00  0.00     0.029 A 
ATOM     32  N   UNL A   1      42.948  30.239  30.174  1.00  0.00    -0.354 N 
ATOM     33  N   UNL A   1      45.831  30.000  29.384  1.00  0.00    -0.248 NA
ATOM     34  C   UNL A   1      48.012  30.843  29.395  1.00  0.00     0.031 C 
ATOM     35  C   UNL A   1      42.399  31.944  31.481  1.00  0.00     0.029 A 
ATOM     36  C   UNL A   1      43.465  31.340  30.829  1.00  0.00     0.049 A 
ATOM     37  H   UNL A   1      43.472  29.609  29.630  1.00  0.00     0.167 HD
ATOM     38  C   UNL A   1      45.861  31.148  30.158  1.00  0.00     0.074 A 
ATOM     39  C   UNL A   1      47.235  31.616  30.148  1.00  0.00     0.031 C 
ATOM     40  C   UNL A   1      44.845  31.761  30.808  1.00  0.00     0.034 A 
BRANCH  27  41
ATOM     41  C   UNL A   1      39.240  29.271  30.057  1.00  0.00     0.023 A 
ATOM     42  C   UNL A   1      38.687  28.753  31.245  1.00  0.00     0.012 A 
ATOM     43  C   UNL A   1      38.421  30.008  29.178  1.00  0.00     0.148 A 
ATOM     44  C   UNL A   1      37.343  28.961  31.554  1.00  0.00     0.002 A 
ATOM     45  C   UNL A   1      37.089  30.236  29.507  1.00  0.00     0.091 A 
ATOM     46  F   UNL A   1      38.963  30.486  28.050  1.00  0.00    -0.205 F 
ATOM     47  C   UNL A   1      36.547  29.711  30.692  1.00  0.00     0.022 A 
BRANCH  45  48
ATOM     48  S   UNL A   1      35.986  31.231  28.495  1.00  0.00     0.127 S 
ATOM     49  O   UNL A   1      34.821  31.364  29.369  1.00  0.00    -0.237 OA
ATOM     50  O   UNL A   1      36.758  32.461  28.320  1.00  0.00    -0.237 OA
ATOM     51  O   UNL A   1      35.758  30.470  27.275  1.00  0.00    -0.744 OA
ENDBRANCH  45  48
ENDBRANCH  27  41
BRANCH  28  52
ATOM     52  C   UNL A   1      49.024  28.542  27.767  1.00  0.00     0.023 A 
ATOM     53  C   UNL A   1      49.521  29.168  26.608  1.00  0.00     0.012 A 
ATOM     54  C   UNL A   1      49.925  27.955  28.677  1.00  0.00     0.148 A 
ATOM     55  C   UNL A   1      50.893  29.221  26.364  1.00  0.00     0.002 A 
ATOM     56  C   UNL A   1      51.294  28.042  28.445  1.00  0.00     0.091 A 
ATOM     57  F   UNL A   1      49.426  27.388  29.784  1.00  0.00    -0.205 F 
ATOM     58  C   UNL A   1      51.779  28.671  27.287  1.00  0.00     0.022 A 
BRANCH  56  59
ATOM     59  S   UNL A   1      52.518  27.472  29.632  1.00  0.00     0.127 S 
ATOM     60  O   UNL A   1      52.226  28.318  30.788  1.00  0.00    -0.237 OA
ATOM     61  O   UNL A   1      52.150  26.065  29.791  1.00  0.00    -0.237 OA
ATOM     62  O   UNL A   1      53.813  27.692  29.006  1.00  0.00    -0.744 OA
ENDBRANCH  56  59
ENDBRANCH  28  52
BRANCH  40  63
ATOM     63  C   UNL A   1      45.159  33.023  31.554  1.00  0.00     0.023 A 
ATOM     64  C   UNL A   1      45.669  32.931  32.863  1.00  0.00     0.012 A 
ATOM     65  C   UNL A   1      45.118  34.266  30.898  1.00  0.00     0.148 A 
ATOM     66  C   UNL A   1      46.143  34.069  33.509  1.00  0.00     0.002 A 
ATOM     67  C   UNL A   1      45.624  35.389  31.535  1.00  0.00     0.091 A 
ATOM     68  F   UNL A   1      44.626  34.313  29.652  1.00  0.00    -0.205 F 
ATOM     69  C   UNL A   1      46.135  35.293  32.841  1.00  0.00     0.022 A 
BRANCH  67  70
ATOM     70  S   UNL A   1      45.731  36.990  30.732  1.00  0.00     0.127 S 
ATOM     71  O   UNL A   1      44.319  37.346  30.590  1.00  0.00    -0.237 OA
ATOM     72  O   UNL A   1      46.464  37.780  31.720  1.00  0.00    -0.237 OA
ATOM     73  O   UNL A   1      46.437  36.769  29.477  1.00  0.00    -0.744 OA
ENDBRANCH  67  70
ENDBRANCH  40  63
ENDBRANCH  14  15
ENDBRANCH   7   9
ENDBRANCH   6   7
ENDBRANCH   5   6
ENDBRANCH   4   5
ENDBRANCH   3   4
ENDBRANCH   2   3
ENDBRANCH   1   2
BRANCH   1  74
ATOM     74  O   UNL A   1      37.019  21.880  25.667  1.00  0.00    -0.377 OA
BRANCH  74  75
ATOM     75  C   UNL A   1      36.977  23.298  25.726  1.00  0.00     0.188 C 
BRANCH  75  76
ATOM     76  C   UNL A   1      35.822  24.051  25.049  1.00  0.00     0.188 C 
BRANCH  76  77
ATOM     77  O   UNL A   1      34.853  24.486  25.974  1.00  0.00    -0.376 OA
BRANCH  77  78
ATOM     78  C   UNL A   1      33.970  25.509  25.554  1.00  0.00     0.202 C 
BRANCH  78  79
ATOM     79  C   UNL A   1      33.910  25.974  24.089  1.00  0.00     0.261 C 
BRANCH  79  80
ATOM     80  O   UNL A   1      33.886  27.375  23.769  1.00  0.00    -0.459 OA
BRANCH  80  81
ATOM     81  C   UNL A   1      33.696  27.831  22.494  1.00  0.00     0.365 C 
ATOM     82  O   UNL A   1      34.539  28.382  21.816  1.00  0.00    -0.245 OA
BRANCH  81  83
ATOM     83  C   UNL A   1      32.215  27.590  22.057  1.00  0.00     0.298 C 
ATOM     84  C   UNL A   1      31.638  26.115  21.913  1.00  0.00     0.111 C 
ATOM     85  N   UNL A   1      31.394  28.471  22.920  1.00  0.00    -0.326 N 
ATOM     86  C   UNL A   1      30.525  25.804  22.910  1.00  0.00    -0.024 C 
ATOM     87  C   UNL A   1      29.979  28.224  22.657  1.00  0.00     0.243 C 
ATOM     88  H   UNL A   1      31.613  29.447  22.717  1.00  0.00     0.347 HD
ATOM     89  H   UNL A   1      31.598  28.276  23.899  1.00  0.00     0.347 HD
ATOM     90  C   UNL A   1      30.441  24.803  23.783  1.00  0.00     0.002 A 
ATOM     91  C   UNL A   1      29.575  26.904  23.350  1.00  0.00     0.196 C 
ATOM     92  C   UNL A   1      30.891  23.452  23.862  1.00  0.00     0.010 A 
ATOM     93  C   UNL A   1      30.094  25.589  24.999  1.00  0.00     0.066 A 
ATOM     94  N   UNL A   1      29.671  26.817  24.837  1.00  0.00    -0.270 NA
ATOM     95  C   UNL A   1      30.986  22.868  25.067  1.00  0.00     0.001 A 
ATOM     96  C   UNL A   1      30.415  24.922  26.290  1.00  0.00     0.028 A 
ATOM     97  C   UNL A   1      30.834  23.644  26.285  1.00  0.00     0.002 A 
BRANCH  87  98
ATOM     98  C   UNL A   1      29.179  29.509  22.695  1.00  0.00     0.012 A 
ATOM     99  C   UNL A   1      28.467  29.979  21.590  1.00  0.00     0.010 A 
ATOM    100  C   UNL A   1      29.404  30.402  23.769  1.00  0.00     0.010 A 
ATOM    101  C   UNL A   1      28.029  31.309  21.551  1.00  0.00     0.001 A 
ATOM    102  C   UNL A   1      28.966  31.721  23.731  1.00  0.00     0.001 A 
ATOM    103  C   UNL A   1      28.289  32.179  22.611  1.00  0.00     0.000 A 
ENDBRANCH  87  98
ENDBRANCH  81  83
ENDBRANCH  80  81
ENDBRANCH  79  80
ENDBRANCH  78  79
ENDBRANCH  77  78
ENDBRANCH  76  77
ENDBRANCH  75  76
ENDBRANCH  74  75
ENDBRANCH   1  74
TORSDOF 24
ENDMDL
