MODEL 1
REMARK VINA RESULT:     -10.2      0.000      0.000
REMARK SMILES Cc1cc(Br)cc2c1O[C@H](C(F)(F)F)C(C(=O)OCCOCCOCCOCCOC(=O)c1ccc(-c3c4nc(c(-c5cccc(S(=O)(=O)[O-])c5F)c5ccc([nH]5)c(-c5cccc(S(=O)(=O)[O-])c5F)c5nc(c(-c6cccc(S(=O)(=O)[O-])c6F)c6ccc3[nH]6)C=C5)C=C4)cc1)=C2
REMARK SMILES IDX 25 1 24 2 23 3 22 4 21 5 20 6 19 7 18 8 16 9 17 10 15 11
REMARK SMILES IDX 1 12 2 13 3 14 8 15 4 16 7 17 9 18 5 19 6 20 96 21 10 22
REMARK SMILES IDX 11 23 12 24 13 25 14 26 26 27 27 28 28 29 29 30 30 31 31 32
REMARK SMILES IDX 32 33 33 34 34 35 95 36 35 37 94 38 36 39 37 40 38 41 88 42
REMARK SMILES IDX 39 43 93 44 87 45 89 46 40 47 92 48 86 49 85 50 41 52 73 53
REMARK SMILES IDX 53 54 72 55 54 56 57 57 71 58 90 59 55 60 56 61 70 63 91 64
REMARK SMILES IDX 58 65 42 66 43 67 51 68 44 69 46 70 52 71 45 72 47 73 48 74
REMARK SMILES IDX 49 75 50 76 74 77 75 78 83 79 76 80 78 81 84 82 77 83 79 84
REMARK SMILES IDX 80 85 81 86 82 87 59 88 60 89 68 90 61 91 63 92 69 93 62 94
REMARK SMILES IDX 64 95 65 96 66 97 67 98
REMARK H PARENT 89 51 57 62
REMARK Flexibility Score: inf
ROOT
ATOM      1  C   UNL A   1      32.229  29.258  24.893  1.00  0.00     0.188 C 
ENDROOT
BRANCH   1   2
ATOM      2  O   UNL A   1      31.264  29.035  23.868  1.00  0.00    -0.377 OA
BRANCH   2   3
ATOM      3  C   UNL A   1      30.711  27.735  23.779  1.00  0.00     0.188 C 
BRANCH   3   4
ATOM      4  C   UNL A   1      30.858  27.107  22.380  1.00  0.00     0.188 C 
BRANCH   4   5
ATOM      5  O   UNL A   1      32.001  26.324  22.090  1.00  0.00    -0.376 OA
BRANCH   5   6
ATOM      6  C   UNL A   1      32.093  24.933  22.356  1.00  0.00     0.202 C 
BRANCH   6   7
ATOM      7  C   UNL A   1      31.155  24.089  23.243  1.00  0.00     0.261 C 
BRANCH   7   8
ATOM      8  O   UNL A   1      31.173  24.326  24.645  1.00  0.00    -0.460 OA
BRANCH   8   9
ATOM      9  C   UNL A   1      31.082  23.244  25.437  1.00  0.00     0.338 C 
ATOM     10  O   UNL A   1      30.133  22.912  26.125  1.00  0.00    -0.246 OA
BRANCH   9  11
ATOM     11  C   UNL A   1      32.273  22.405  25.188  1.00  0.00     0.087 C 
ATOM     12  C   UNL A   1      36.994  20.431  24.971  1.00  0.00     0.048 C 
ATOM     13  C   UNL A   1      35.592  19.915  24.798  1.00  0.00    -0.007 A 
ATOM     14  C   UNL A   1      35.389  18.540  24.599  1.00  0.00     0.023 A 
ATOM     15  C   UNL A   1      34.482  20.774  24.821  1.00  0.00     0.130 A 
ATOM     16  C   UNL A   1      34.100  18.036  24.438  1.00  0.00     0.019 A 
ATOM     17  C   UNL A   1      33.189  20.251  24.719  1.00  0.00     0.019 A 
ATOM     18  O   UNL A   1      34.736  22.109  24.956  1.00  0.00    -0.475 OA
ATOM     19  Br  UNL A   1      33.839  16.181  24.187  1.00  0.00    -0.051 Br
ATOM     20  C   UNL A   1      32.998  18.884  24.497  1.00  0.00     0.027 A 
ATOM     21  C   UNL A   1      32.043  21.113  24.929  1.00  0.00     0.027 C 
ATOM     22  C   UNL A   1      33.639  23.038  25.178  1.00  0.00     0.316 C 
BRANCH  22  23
ATOM     23  C   UNL A   1      33.926  23.811  26.472  1.00  0.00     0.430 C 
ATOM     24  F   UNL A   1      33.246  23.289  27.518  1.00  0.00    -0.167 F 
ATOM     25  F   UNL A   1      35.238  23.790  26.795  1.00  0.00    -0.167 F 
ATOM     26  F   UNL A   1      33.558  25.110  26.357  1.00  0.00    -0.167 F 
ENDBRANCH  22  23
ENDBRANCH   9  11
ENDBRANCH   8   9
ENDBRANCH   7   8
ENDBRANCH   6   7
ENDBRANCH   5   6
ENDBRANCH   4   5
ENDBRANCH   3   4
ENDBRANCH   2   3
ENDBRANCH   1   2
BRANCH   1  27
ATOM     27  C   UNL A   1      31.790  29.239  26.374  1.00  0.00     0.188 C 
BRANCH  27  28
ATOM     28  O   UNL A   1      31.947  30.483  27.047  1.00  0.00    -0.376 OA
BRANCH  28  29
ATOM     29  C   UNL A   1      31.420  31.657  26.454  1.00  0.00     0.202 C 
BRANCH  29  30
ATOM     30  C   UNL A   1      32.142  32.976  26.761  1.00  0.00     0.261 C 
BRANCH  30  31
ATOM     31  O   UNL A   1      32.724  33.081  28.066  1.00  0.00    -0.460 OA
BRANCH  31  32
ATOM     32  C   UNL A   1      33.719  33.978  28.227  1.00  0.00     0.338 C 
ATOM     33  O   UNL A   1      33.624  35.194  28.200  1.00  0.00    -0.246 OA
BRANCH  32  34
ATOM     34  C   UNL A   1      34.925  33.236  28.641  1.00  0.00     0.060 A 
ATOM     35  C   UNL A   1      34.778  32.047  29.368  1.00  0.00     0.016 A 
ATOM     36  C   UNL A   1      36.194  33.716  28.309  1.00  0.00     0.016 A 
ATOM     37  C   UNL A   1      35.907  31.357  29.808  1.00  0.00     0.010 A 
ATOM     38  C   UNL A   1      37.321  33.037  28.769  1.00  0.00     0.010 A 
ATOM     39  C   UNL A   1      37.181  31.878  29.552  1.00  0.00    -0.014 A 
BRANCH  39  40
ATOM     40  C   UNL A   1      38.362  31.338  30.263  1.00  0.00     0.031 A 
ATOM     41  C   UNL A   1      39.145  30.238  29.602  1.00  0.00     0.074 A 
ATOM     42  C   UNL A   1      38.716  31.798  31.475  1.00  0.00     0.049 A 
ATOM     43  N   UNL A   1      40.138  29.532  30.069  1.00  0.00    -0.248 NA
ATOM     44  C   UNL A   1      38.750  29.888  28.225  1.00  0.00     0.031 C 
ATOM     45  C   UNL A   1      38.055  32.885  32.193  1.00  0.00     0.029 A 
ATOM     46  N   UNL A   1      39.707  31.380  32.327  1.00  0.00    -0.354 N 
ATOM     47  C   UNL A   1      40.470  28.636  29.060  1.00  0.00     0.074 A 
ATOM     48  C   UNL A   1      39.568  28.881  27.957  1.00  0.00     0.031 C 
ATOM     49  C   UNL A   1      38.640  33.030  33.395  1.00  0.00     0.029 A 
ATOM     50  C   UNL A   1      39.689  32.021  33.544  1.00  0.00     0.049 A 
ATOM     51  H   UNL A   1      40.368  30.689  32.091  1.00  0.00     0.167 HD
ATOM     52  C   UNL A   1      41.447  27.701  29.050  1.00  0.00     0.034 A 
ATOM     53  C   UNL A   1      40.414  31.795  34.657  1.00  0.00     0.034 A 
ATOM     54  C   UNL A   1      42.343  27.469  30.151  1.00  0.00     0.049 A 
ATOM     55  C   UNL A   1      41.461  30.710  34.641  1.00  0.00     0.074 A 
ATOM     56  C   UNL A   1      43.373  26.550  30.240  1.00  0.00     0.029 A 
ATOM     57  N   UNL A   1      42.312  28.153  31.357  1.00  0.00    -0.354 N 
ATOM     58  N   UNL A   1      41.808  29.909  33.662  1.00  0.00    -0.248 NA
ATOM     59  C   UNL A   1      42.238  30.517  35.874  1.00  0.00     0.031 C 
ATOM     60  C   UNL A   1      43.945  26.656  31.511  1.00  0.00     0.029 A 
ATOM     61  C   UNL A   1      43.302  27.676  32.198  1.00  0.00     0.049 A 
ATOM     62  H   UNL A   1      41.678  28.873  31.582  1.00  0.00     0.167 HD
ATOM     63  C   UNL A   1      42.871  29.152  34.143  1.00  0.00     0.074 A 
ATOM     64  C   UNL A   1      43.121  29.601  35.497  1.00  0.00     0.031 C 
ATOM     65  C   UNL A   1      43.573  28.169  33.524  1.00  0.00     0.034 A 
BRANCH  52  66
ATOM     66  C   UNL A   1      41.620  26.869  27.806  1.00  0.00     0.023 A 
ATOM     67  C   UNL A   1      42.295  27.410  26.693  1.00  0.00     0.012 A 
ATOM     68  C   UNL A   1      41.193  25.527  27.771  1.00  0.00     0.148 A 
ATOM     69  C   UNL A   1      42.528  26.634  25.558  1.00  0.00     0.002 A 
ATOM     70  C   UNL A   1      41.474  24.745  26.657  1.00  0.00     0.091 A 
ATOM     71  F   UNL A   1      40.530  25.040  28.828  1.00  0.00    -0.205 F 
ATOM     72  C   UNL A   1      42.131  25.299  25.546  1.00  0.00     0.022 A 
BRANCH  70  73
ATOM     73  S   UNL A   1      41.088  22.992  26.578  1.00  0.00     0.127 S 
ATOM     74  O   UNL A   1      39.673  23.018  26.210  1.00  0.00    -0.237 OA
ATOM     75  O   UNL A   1      41.985  22.530  25.520  1.00  0.00    -0.237 OA
ATOM     76  O   UNL A   1      41.373  22.455  27.901  1.00  0.00    -0.744 OA
ENDBRANCH  70  73
ENDBRANCH  52  66
BRANCH  53  77
ATOM     77  C   UNL A   1      40.203  32.642  35.865  1.00  0.00     0.023 A 
ATOM     78  C   UNL A   1      40.914  33.851  35.996  1.00  0.00     0.012 A 
ATOM     79  C   UNL A   1      39.277  32.280  36.863  1.00  0.00     0.148 A 
ATOM     80  C   UNL A   1      40.723  34.672  37.107  1.00  0.00     0.002 A 
ATOM     81  C   UNL A   1      39.046  33.132  37.937  1.00  0.00     0.091 A 
ATOM     82  F   UNL A   1      38.623  31.118  36.730  1.00  0.00    -0.205 F 
ATOM     83  C   UNL A   1      39.781  34.322  38.069  1.00  0.00     0.022 A 
BRANCH  81  84
ATOM     84  S   UNL A   1      37.756  32.835  39.150  1.00  0.00     0.127 S 
ATOM     85  O   UNL A   1      36.590  32.614  38.300  1.00  0.00    -0.237 OA
ATOM     86  O   UNL A   1      38.260  31.641  39.830  1.00  0.00    -0.237 OA
ATOM     87  O   UNL A   1      37.711  34.030  39.981  1.00  0.00    -0.744 OA
ENDBRANCH  81  84
ENDBRANCH  53  77
BRANCH  65  88
ATOM     88  C   UNL A   1      44.719  27.536  34.276  1.00  0.00     0.023 A 
ATOM     89  C   UNL A   1      46.004  28.112  34.224  1.00  0.00     0.012 A 
ATOM     90  C   UNL A   1      44.498  26.420  35.108  1.00  0.00     0.148 A 
ATOM     91  C   UNL A   1      47.058  27.560  34.953  1.00  0.00     0.002 A 
ATOM     92  C   UNL A   1      45.537  25.913  35.876  1.00  0.00     0.091 A 
ATOM     93  F   UNL A   1      43.272  25.875  35.136  1.00  0.00    -0.205 F 
ATOM     94  C   UNL A   1      46.822  26.471  35.788  1.00  0.00     0.022 A 
BRANCH  92  95
ATOM     95  S   UNL A   1      45.300  24.586  37.065  1.00  0.00     0.127 S 
ATOM     96  O   UNL A   1      45.257  23.411  36.195  1.00  0.00    -0.237 OA
ATOM     97  O   UNL A   1      46.504  24.689  37.889  1.00  0.00    -0.237 OA
ATOM     98  O   UNL A   1      44.059  24.891  37.765  1.00  0.00    -0.744 OA
ENDBRANCH  92  95
ENDBRANCH  65  88
ENDBRANCH  39  40
ENDBRANCH  32  34
ENDBRANCH  31  32
ENDBRANCH  30  31
ENDBRANCH  29  30
ENDBRANCH  28  29
ENDBRANCH  27  28
ENDBRANCH   1  27
TORSDOF 24
ENDMDL
MODEL 2
REMARK VINA RESULT:     -10.0      2.347      7.980
REMARK SMILES Cc1cc(Br)cc2c1O[C@H](C(F)(F)F)C(C(=O)OCCOCCOCCOCCOC(=O)c1ccc(-c3c4nc(c(-c5cccc(S(=O)(=O)[O-])c5F)c5ccc([nH]5)c(-c5cccc(S(=O)(=O)[O-])c5F)c5nc(c(-c6cccc(S(=O)(=O)[O-])c6F)c6ccc3[nH]6)C=C5)C=C4)cc1)=C2
REMARK SMILES IDX 25 1 24 2 23 3 22 4 21 5 20 6 19 7 18 8 16 9 17 10 15 11
REMARK SMILES IDX 1 12 2 13 3 14 8 15 4 16 7 17 9 18 5 19 6 20 96 21 10 22
REMARK SMILES IDX 11 23 12 24 13 25 14 26 26 27 27 28 28 29 29 30 30 31 31 32
REMARK SMILES IDX 32 33 33 34 34 35 95 36 35 37 94 38 36 39 37 40 38 41 88 42
REMARK SMILES IDX 39 43 93 44 87 45 89 46 40 47 92 48 86 49 85 50 41 52 73 53
REMARK SMILES IDX 53 54 72 55 54 56 57 57 71 58 90 59 55 60 56 61 70 63 91 64
REMARK SMILES IDX 58 65 42 66 43 67 51 68 44 69 46 70 52 71 45 72 47 73 48 74
REMARK SMILES IDX 49 75 50 76 74 77 75 78 83 79 76 80 78 81 84 82 77 83 79 84
REMARK SMILES IDX 80 85 81 86 82 87 59 88 60 89 68 90 61 91 63 92 69 93 62 94
REMARK SMILES IDX 64 95 65 96 66 97 67 98
REMARK H PARENT 89 51 57 62
REMARK Flexibility Score: inf
ROOT
ATOM      1  C   UNL A   1      34.315  30.467  27.404  1.00  0.00     0.188 C 
ENDROOT
BRANCH   1   2
ATOM      2  O   UNL A   1      33.138  30.503  26.602  1.00  0.00    -0.377 OA
BRANCH   2   3
ATOM      3  C   UNL A   1      32.002  29.816  27.094  1.00  0.00     0.188 C 
BRANCH   3   4
ATOM      4  C   UNL A   1      31.681  28.531  26.310  1.00  0.00     0.188 C 
BRANCH   4   5
ATOM      5  O   UNL A   1      31.495  28.604  24.908  1.00  0.00    -0.376 OA
BRANCH   5   6
ATOM      6  C   UNL A   1      30.717  27.678  24.166  1.00  0.00     0.202 C 
BRANCH   6   7
ATOM      7  C   UNL A   1      30.310  26.252  24.588  1.00  0.00     0.261 C 
BRANCH   7   8
ATOM      8  O   UNL A   1      30.503  25.200  23.652  1.00  0.00    -0.460 OA
BRANCH   8   9
ATOM      9  C   UNL A   1      31.604  25.275  22.884  1.00  0.00     0.338 C 
ATOM     10  O   UNL A   1      31.888  26.152  22.086  1.00  0.00    -0.246 OA
BRANCH   9  11
ATOM     11  C   UNL A   1      32.521  24.198  23.309  1.00  0.00     0.087 C 
ATOM     12  C   UNL A   1      36.300  21.425  25.375  1.00  0.00     0.048 C 
ATOM     13  C   UNL A   1      34.939  21.147  24.799  1.00  0.00    -0.007 A 
ATOM     14  C   UNL A   1      34.427  19.841  24.854  1.00  0.00     0.023 A 
ATOM     15  C   UNL A   1      34.172  22.158  24.199  1.00  0.00     0.130 A 
ATOM     16  C   UNL A   1      33.167  19.558  24.330  1.00  0.00     0.019 A 
ATOM     17  C   UNL A   1      32.885  21.876  23.729  1.00  0.00     0.019 A 
ATOM     18  O   UNL A   1      34.739  23.398  24.114  1.00  0.00    -0.475 OA
ATOM     19  Br  UNL A   1      32.481  17.798  24.424  1.00  0.00    -0.051 Br
ATOM     20  C   UNL A   1      32.393  20.568  23.767  1.00  0.00     0.027 A 
ATOM     21  C   UNL A   1      32.027  22.955  23.282  1.00  0.00     0.027 C 
ATOM     22  C   UNL A   1      33.941  24.533  23.681  1.00  0.00     0.316 C 
BRANCH  22  23
ATOM     23  C   UNL A   1      34.012  25.607  24.774  1.00  0.00     0.430 C 
ATOM     24  F   UNL A   1      35.145  25.494  25.504  1.00  0.00    -0.167 F 
ATOM     25  F   UNL A   1      33.989  26.857  24.260  1.00  0.00    -0.167 F 
ATOM     26  F   UNL A   1      32.967  25.503  25.630  1.00  0.00    -0.167 F 
ENDBRANCH  22  23
ENDBRANCH   9  11
ENDBRANCH   8   9
ENDBRANCH   7   8
ENDBRANCH   6   7
ENDBRANCH   5   6
ENDBRANCH   4   5
ENDBRANCH   3   4
ENDBRANCH   2   3
ENDBRANCH   1   2
BRANCH   1  27
ATOM     27  C   UNL A   1      34.701  31.701  28.250  1.00  0.00     0.188 C 
BRANCH  27  28
ATOM     28  O   UNL A   1      34.398  32.948  27.637  1.00  0.00    -0.376 OA
BRANCH  28  29
ATOM     29  C   UNL A   1      33.251  33.663  28.063  1.00  0.00     0.202 C 
BRANCH  29  30
ATOM     30  C   UNL A   1      33.473  34.790  29.082  1.00  0.00     0.261 C 
BRANCH  30  31
ATOM     31  O   UNL A   1      32.647  34.746  30.252  1.00  0.00    -0.460 OA
BRANCH  31  32
ATOM     32  C   UNL A   1      32.997  35.540  31.285  1.00  0.00     0.338 C 
ATOM     33  O   UNL A   1      32.426  36.552  31.660  1.00  0.00    -0.246 OA
BRANCH  32  34
ATOM     34  C   UNL A   1      34.089  34.869  32.015  1.00  0.00     0.060 A 
ATOM     35  C   UNL A   1      35.368  35.441  32.005  1.00  0.00     0.016 A 
ATOM     36  C   UNL A   1      33.846  33.679  32.704  1.00  0.00     0.016 A 
ATOM     37  C   UNL A   1      36.423  34.796  32.650  1.00  0.00     0.010 A 
ATOM     38  C   UNL A   1      34.906  33.025  33.329  1.00  0.00     0.010 A 
ATOM     39  C   UNL A   1      36.204  33.561  33.270  1.00  0.00    -0.014 A 
BRANCH  39  40
ATOM     40  C   UNL A   1      37.352  32.723  33.685  1.00  0.00     0.031 A 
ATOM     41  C   UNL A   1      38.091  33.104  34.938  1.00  0.00     0.074 A 
ATOM     42  C   UNL A   1      37.743  31.665  32.954  1.00  0.00     0.049 A 
ATOM     43  N   UNL A   1      39.186  32.601  35.439  1.00  0.00    -0.248 NA
ATOM     44  C   UNL A   1      37.513  34.204  35.732  1.00  0.00     0.031 C 
ATOM     45  C   UNL A   1      37.080  31.181  31.746  1.00  0.00     0.029 A 
ATOM     46  N   UNL A   1      38.816  30.825  33.113  1.00  0.00    -0.354 N 
ATOM     47  C   UNL A   1      39.446  33.338  36.589  1.00  0.00     0.074 A 
ATOM     48  C   UNL A   1      38.400  34.328  36.708  1.00  0.00     0.031 C 
ATOM     49  C   UNL A   1      37.780  30.145  31.252  1.00  0.00     0.029 A 
ATOM     50  C   UNL A   1      38.959  29.920  32.088  1.00  0.00     0.049 A 
ATOM     51  H   UNL A   1      39.425  30.866  33.887  1.00  0.00     0.167 HD
ATOM     52  C   UNL A   1      40.461  33.193  37.471  1.00  0.00     0.034 A 
ATOM     53  C   UNL A   1      39.946  29.036  31.840  1.00  0.00     0.034 A 
ATOM     54  C   UNL A   1      41.494  32.201  37.346  1.00  0.00     0.049 A 
ATOM     55  C   UNL A   1      41.096  28.930  32.809  1.00  0.00     0.074 A 
ATOM     56  C   UNL A   1      42.564  31.965  38.191  1.00  0.00     0.029 A 
ATOM     57  N   UNL A   1      41.594  31.285  36.310  1.00  0.00    -0.354 N 
ATOM     58  N   UNL A   1      41.301  29.589  33.925  1.00  0.00    -0.248 NA
ATOM     59  C   UNL A   1      42.135  27.936  32.503  1.00  0.00     0.031 C 
ATOM     60  C   UNL A   1      43.328  30.928  37.649  1.00  0.00     0.029 A 
ATOM     61  C   UNL A   1      42.707  30.484  36.491  1.00  0.00     0.049 A 
ATOM     62  H   UNL A   1      40.964  31.215  35.556  1.00  0.00     0.167 HD
ATOM     63  C   UNL A   1      42.464  29.060  34.475  1.00  0.00     0.074 A 
ATOM     64  C   UNL A   1      42.910  28.015  33.577  1.00  0.00     0.031 C 
ATOM     65  C   UNL A   1      43.109  29.412  35.616  1.00  0.00     0.034 A 
BRANCH  52  66
ATOM     66  C   UNL A   1      40.498  34.112  38.665  1.00  0.00     0.023 A 
ATOM     67  C   UNL A   1      41.269  35.292  38.614  1.00  0.00     0.012 A 
ATOM     68  C   UNL A   1      39.704  33.853  39.799  1.00  0.00     0.148 A 
ATOM     69  C   UNL A   1      41.261  36.191  39.680  1.00  0.00     0.002 A 
ATOM     70  C   UNL A   1      39.662  34.778  40.835  1.00  0.00     0.091 A 
ATOM     71  F   UNL A   1      39.001  32.714  39.839  1.00  0.00    -0.205 F 
ATOM     72  C   UNL A   1      40.447  35.942  40.782  1.00  0.00     0.022 A 
BRANCH  70  73
ATOM     73  S   UNL A   1      38.579  34.598  42.256  1.00  0.00     0.127 S 
ATOM     74  O   UNL A   1      39.073  35.653  43.140  1.00  0.00    -0.237 OA
ATOM     75  O   UNL A   1      37.263  34.857  41.672  1.00  0.00    -0.237 OA
ATOM     76  O   UNL A   1      38.775  33.240  42.744  1.00  0.00    -0.744 OA
ENDBRANCH  70  73
ENDBRANCH  52  66
BRANCH  53  77
ATOM     77  C   UNL A   1      39.866  28.152  30.642  1.00  0.00     0.023 A 
ATOM     78  C   UNL A   1      38.992  27.047  30.654  1.00  0.00     0.012 A 
ATOM     79  C   UNL A   1      40.618  28.418  29.481  1.00  0.00     0.148 A 
ATOM     80  C   UNL A   1      38.883  26.213  29.542  1.00  0.00     0.002 A 
ATOM     81  C   UNL A   1      40.458  27.620  28.354  1.00  0.00     0.091 A 
ATOM     82  F   UNL A   1      41.456  29.463  29.495  1.00  0.00    -0.205 F 
ATOM     83  C   UNL A   1      39.604  26.506  28.388  1.00  0.00     0.022 A 
BRANCH  81  84
ATOM     84  S   UNL A   1      41.237  28.000  26.781  1.00  0.00     0.127 S 
ATOM     85  O   UNL A   1      40.906  26.818  25.990  1.00  0.00    -0.237 OA
ATOM     86  O   UNL A   1      40.534  29.222  26.390  1.00  0.00    -0.237 OA
ATOM     87  O   UNL A   1      42.652  28.184  27.074  1.00  0.00    -0.744 OA
ENDBRANCH  81  84
ENDBRANCH  53  77
BRANCH  65  88
ATOM     88  C   UNL A   1      44.343  28.632  36.001  1.00  0.00     0.023 A 
ATOM     89  C   UNL A   1      45.618  29.087  35.611  1.00  0.00     0.012 A 
ATOM     90  C   UNL A   1      44.240  27.493  36.826  1.00  0.00     0.148 A 
ATOM     91  C   UNL A   1      46.767  28.397  36.001  1.00  0.00     0.002 A 
ATOM     92  C   UNL A   1      45.391  26.847  37.259  1.00  0.00     0.091 A 
ATOM     93  F   UNL A   1      43.018  27.065  37.177  1.00  0.00    -0.205 F 
ATOM     94  C   UNL A   1      46.654  27.287  36.834  1.00  0.00     0.022 A 
BRANCH  92  95
ATOM     95  S   UNL A   1      45.348  25.480  38.425  1.00  0.00     0.127 S 
ATOM     96  O   UNL A   1      46.771  25.186  38.591  1.00  0.00    -0.237 OA
ATOM     97  O   UNL A   1      44.711  26.089  39.593  1.00  0.00    -0.237 OA
ATOM     98  O   UNL A   1      44.564  24.432  37.785  1.00  0.00    -0.744 OA
ENDBRANCH  92  95
ENDBRANCH  65  88
ENDBRANCH  39  40
ENDBRANCH  32  34
ENDBRANCH  31  32
ENDBRANCH  30  31
ENDBRANCH  29  30
ENDBRANCH  28  29
ENDBRANCH  27  28
ENDBRANCH   1  27
TORSDOF 24
ENDMDL
MODEL 3
REMARK VINA RESULT:      -9.9      6.615     10.662
REMARK SMILES Cc1cc(Br)cc2c1O[C@H](C(F)(F)F)C(C(=O)OCCOCCOCCOCCOC(=O)c1ccc(-c3c4nc(c(-c5cccc(S(=O)(=O)[O-])c5F)c5ccc([nH]5)c(-c5cccc(S(=O)(=O)[O-])c5F)c5nc(c(-c6cccc(S(=O)(=O)[O-])c6F)c6ccc3[nH]6)C=C5)C=C4)cc1)=C2
REMARK SMILES IDX 25 1 24 2 23 3 22 4 21 5 20 6 19 7 18 8 16 9 17 10 15 11
REMARK SMILES IDX 1 12 2 13 3 14 8 15 4 16 7 17 9 18 5 19 6 20 96 21 10 22
REMARK SMILES IDX 11 23 12 24 13 25 14 26 26 27 27 28 28 29 29 30 30 31 31 32
REMARK SMILES IDX 32 33 33 34 34 35 95 36 35 37 94 38 36 39 37 40 38 41 88 42
REMARK SMILES IDX 39 43 93 44 87 45 89 46 40 47 92 48 86 49 85 50 41 52 73 53
REMARK SMILES IDX 53 54 72 55 54 56 57 57 71 58 90 59 55 60 56 61 70 63 91 64
REMARK SMILES IDX 58 65 42 66 43 67 51 68 44 69 46 70 52 71 45 72 47 73 48 74
REMARK SMILES IDX 49 75 50 76 74 77 75 78 83 79 76 80 78 81 84 82 77 83 79 84
REMARK SMILES IDX 80 85 81 86 82 87 59 88 60 89 68 90 61 91 63 92 69 93 62 94
REMARK SMILES IDX 64 95 65 96 66 97 67 98
REMARK H PARENT 89 51 57 62
REMARK Flexibility Score: inf
ROOT
ATOM      1  C   UNL A   1      40.567  21.978  26.597  1.00  0.00     0.188 C 
ENDROOT
BRANCH   1   2
ATOM      2  O   UNL A   1      39.199  21.646  26.370  1.00  0.00    -0.377 OA
BRANCH   2   3
ATOM      3  C   UNL A   1      38.936  20.443  25.672  1.00  0.00     0.188 C 
BRANCH   3   4
ATOM      4  C   UNL A   1      37.669  20.512  24.800  1.00  0.00     0.188 C 
BRANCH   4   5
ATOM      5  O   UNL A   1      36.806  21.627  24.920  1.00  0.00    -0.376 OA
BRANCH   5   6
ATOM      6  C   UNL A   1      35.803  21.745  25.917  1.00  0.00     0.202 C 
BRANCH   6   7
ATOM      7  C   UNL A   1      34.289  21.503  25.750  1.00  0.00     0.261 C 
BRANCH   7   8
ATOM      8  O   UNL A   1      33.396  22.366  26.443  1.00  0.00    -0.460 OA
BRANCH   8   9
ATOM      9  C   UNL A   1      32.355  22.841  25.740  1.00  0.00     0.338 C 
ATOM     10  O   UNL A   1      31.238  22.359  25.657  1.00  0.00    -0.246 OA
BRANCH   9  11
ATOM     11  C   UNL A   1      32.735  24.171  25.220  1.00  0.00     0.087 C 
ATOM     12  C   UNL A   1      34.016  28.176  22.295  1.00  0.00     0.048 C 
ATOM     13  C   UNL A   1      33.483  27.975  23.687  1.00  0.00    -0.007 A 
ATOM     14  C   UNL A   1      33.133  29.096  24.454  1.00  0.00     0.023 A 
ATOM     15  C   UNL A   1      33.335  26.693  24.241  1.00  0.00     0.130 A 
ATOM     16  C   UNL A   1      32.635  28.936  25.746  1.00  0.00     0.019 A 
ATOM     17  C   UNL A   1      32.778  26.540  25.515  1.00  0.00     0.019 A 
ATOM     18  O   UNL A   1      33.747  25.637  23.478  1.00  0.00    -0.475 OA
ATOM     19  Br  UNL A   1      32.152  30.454  26.764  1.00  0.00    -0.051 Br
ATOM     20  C   UNL A   1      32.455  27.664  26.281  1.00  0.00     0.027 A 
ATOM     21  C   UNL A   1      32.455  25.216  26.008  1.00  0.00     0.027 C 
ATOM     22  C   UNL A   1      33.453  24.278  23.901  1.00  0.00     0.316 C 
BRANCH  22  23
ATOM     23  C   UNL A   1      32.684  23.584  22.769  1.00  0.00     0.430 C 
ATOM     24  F   UNL A   1      33.038  24.075  21.560  1.00  0.00    -0.167 F 
ATOM     25  F   UNL A   1      32.910  22.252  22.745  1.00  0.00    -0.167 F 
ATOM     26  F   UNL A   1      31.348  23.764  22.904  1.00  0.00    -0.167 F 
ENDBRANCH  22  23
ENDBRANCH   9  11
ENDBRANCH   8   9
ENDBRANCH   7   8
ENDBRANCH   6   7
ENDBRANCH   5   6
ENDBRANCH   4   5
ENDBRANCH   3   4
ENDBRANCH   2   3
ENDBRANCH   1   2
BRANCH   1  27
ATOM     27  C   UNL A   1      41.677  21.025  26.098  1.00  0.00     0.188 C 
BRANCH  27  28
ATOM     28  O   UNL A   1      42.167  20.130  27.090  1.00  0.00    -0.376 OA
BRANCH  28  29
ATOM     29  C   UNL A   1      42.583  18.832  26.700  1.00  0.00     0.202 C 
BRANCH  29  30
ATOM     30  C   UNL A   1      43.261  18.702  25.329  1.00  0.00     0.261 C 
BRANCH  30  31
ATOM     31  O   UNL A   1      44.693  18.742  25.335  1.00  0.00    -0.460 OA
BRANCH  31  32
ATOM     32  C   UNL A   1      45.293  19.521  24.410  1.00  0.00     0.338 C 
ATOM     33  O   UNL A   1      45.747  19.168  23.334  1.00  0.00    -0.246 OA
BRANCH  32  34
ATOM     34  C   UNL A   1      45.132  20.924  24.838  1.00  0.00     0.060 A 
ATOM     35  C   UNL A   1      44.744  21.884  23.893  1.00  0.00     0.016 A 
ATOM     36  C   UNL A   1      45.366  21.285  26.166  1.00  0.00     0.016 A 
ATOM     37  C   UNL A   1      44.632  23.222  24.268  1.00  0.00     0.010 A 
ATOM     38  C   UNL A   1      45.276  22.627  26.533  1.00  0.00     0.010 A 
ATOM     39  C   UNL A   1      44.947  23.604  25.576  1.00  0.00    -0.014 A 
BRANCH  39  40
ATOM     40  C   UNL A   1      45.135  25.034  25.910  1.00  0.00     0.031 A 
ATOM     41  C   UNL A   1      46.526  25.600  25.841  1.00  0.00     0.074 A 
ATOM     42  C   UNL A   1      44.099  25.804  26.287  1.00  0.00     0.049 A 
ATOM     43  N   UNL A   1      46.958  26.781  26.193  1.00  0.00    -0.248 NA
ATOM     44  C   UNL A   1      47.571  24.711  25.302  1.00  0.00     0.031 C 
ATOM     45  C   UNL A   1      42.705  25.373  26.352  1.00  0.00     0.029 A 
ATOM     46  N   UNL A   1      44.073  27.107  26.715  1.00  0.00    -0.354 N 
ATOM     47  C   UNL A   1      48.326  26.770  25.946  1.00  0.00     0.074 A 
ATOM     48  C   UNL A   1      48.655  25.463  25.423  1.00  0.00     0.031 C 
ATOM     49  C   UNL A   1      41.959  26.386  26.825  1.00  0.00     0.029 A 
ATOM     50  C   UNL A   1      42.830  27.521  27.131  1.00  0.00     0.049 A 
ATOM     51  H   UNL A   1      44.867  27.690  26.722  1.00  0.00     0.167 HD
ATOM     52  C   UNL A   1      49.224  27.764  26.130  1.00  0.00     0.034 A 
ATOM     53  C   UNL A   1      42.449  28.671  27.721  1.00  0.00     0.034 A 
ATOM     54  C   UNL A   1      48.885  29.063  26.646  1.00  0.00     0.049 A 
ATOM     55  C   UNL A   1      43.478  29.745  27.966  1.00  0.00     0.074 A 
ATOM     56  C   UNL A   1      49.720  30.144  26.863  1.00  0.00     0.029 A 
ATOM     57  N   UNL A   1      47.612  29.455  27.034  1.00  0.00    -0.354 N 
ATOM     58  N   UNL A   1      44.757  29.747  27.674  1.00  0.00    -0.248 NA
ATOM     59  C   UNL A   1      43.007  30.988  28.594  1.00  0.00     0.031 C 
ATOM     60  C   UNL A   1      48.958  31.180  27.412  1.00  0.00     0.029 A 
ATOM     61  C   UNL A   1      47.639  30.760  27.492  1.00  0.00     0.049 A 
ATOM     62  H   UNL A   1      46.809  28.888  26.989  1.00  0.00     0.167 HD
ATOM     63  C   UNL A   1      45.232  31.003  28.038  1.00  0.00     0.074 A 
ATOM     64  C   UNL A   1      44.099  31.740  28.559  1.00  0.00     0.031 C 
ATOM     65  C   UNL A   1      46.493  31.500  27.957  1.00  0.00     0.034 A 
BRANCH  52  66
ATOM     66  C   UNL A   1      50.658  27.502  25.751  1.00  0.00     0.023 A 
ATOM     67  C   UNL A   1      51.575  27.083  26.738  1.00  0.00     0.012 A 
ATOM     68  C   UNL A   1      51.077  27.584  24.409  1.00  0.00     0.148 A 
ATOM     69  C   UNL A   1      52.889  26.767  26.396  1.00  0.00     0.002 A 
ATOM     70  C   UNL A   1      52.373  27.218  24.069  1.00  0.00     0.091 A 
ATOM     71  F   UNL A   1      50.198  28.009  23.491  1.00  0.00    -0.205 F 
ATOM     72  C   UNL A   1      53.284  26.820  25.061  1.00  0.00     0.022 A 
BRANCH  70  73
ATOM     73  S   UNL A   1      52.954  27.163  22.370  1.00  0.00     0.127 S 
ATOM     74  O   UNL A   1      53.176  28.580  22.088  1.00  0.00    -0.237 OA
ATOM     75  O   UNL A   1      54.174  26.366  22.490  1.00  0.00    -0.237 OA
ATOM     76  O   UNL A   1      51.888  26.539  21.599  1.00  0.00    -0.744 OA
ENDBRANCH  70  73
ENDBRANCH  52  66
BRANCH  53  77
ATOM     77  C   UNL A   1      41.017  28.881  28.082  1.00  0.00     0.023 A 
ATOM     78  C   UNL A   1      40.094  29.226  27.076  1.00  0.00     0.012 A 
ATOM     79  C   UNL A   1      40.559  28.705  29.402  1.00  0.00     0.148 A 
ATOM     80  C   UNL A   1      38.745  29.411  27.380  1.00  0.00     0.002 A 
ATOM     81  C   UNL A   1      39.204  28.831  29.688  1.00  0.00     0.091 A 
ATOM     82  F   UNL A   1      41.456  28.395  30.348  1.00  0.00    -0.205 F 
ATOM     83  C   UNL A   1      38.298  29.201  28.681  1.00  0.00     0.022 A 
BRANCH  81  84
ATOM     84  S   UNL A   1      38.515  28.443  31.300  1.00  0.00     0.127 S 
ATOM     85  O   UNL A   1      38.742  27.004  31.385  1.00  0.00    -0.237 OA
ATOM     86  O   UNL A   1      39.354  29.254  32.183  1.00  0.00    -0.237 OA
ATOM     87  O   UNL A   1      37.120  28.858  31.244  1.00  0.00    -0.744 OA
ENDBRANCH  81  84
ENDBRANCH  53  77
BRANCH  65  88
ATOM     88  C   UNL A   1      46.720  32.927  28.391  1.00  0.00     0.023 A 
ATOM     89  C   UNL A   1      46.896  33.234  29.755  1.00  0.00     0.012 A 
ATOM     90  C   UNL A   1      46.848  33.953  27.432  1.00  0.00     0.148 A 
ATOM     91  C   UNL A   1      47.153  34.544  30.160  1.00  0.00     0.002 A 
ATOM     92  C   UNL A   1      47.163  35.244  27.838  1.00  0.00     0.091 A 
ATOM     93  F   UNL A   1      46.664  33.648  26.139  1.00  0.00    -0.205 F 
ATOM     94  C   UNL A   1      47.299  35.545  29.202  1.00  0.00     0.022 A 
BRANCH  92  95
ATOM     95  S   UNL A   1      47.483  36.571  26.670  1.00  0.00     0.127 S 
ATOM     96  O   UNL A   1      48.634  36.050  25.935  1.00  0.00    -0.237 OA
ATOM     97  O   UNL A   1      46.239  36.615  25.902  1.00  0.00    -0.237 OA
ATOM     98  O   UNL A   1      47.741  37.759  27.474  1.00  0.00    -0.744 OA
ENDBRANCH  92  95
ENDBRANCH  65  88
ENDBRANCH  39  40
ENDBRANCH  32  34
ENDBRANCH  31  32
ENDBRANCH  30  31
ENDBRANCH  29  30
ENDBRANCH  28  29
ENDBRANCH  27  28
ENDBRANCH   1  27
TORSDOF 24
ENDMDL
