MODEL 1
REMARK VINA RESULT:      -9.0      0.000      0.000
REMARK SMILES Cc1cc(=O)c(Oc2ccc(C(=O)OCCOCCOCCOCCOC(=O)c3ccc(-c4c5nc(c(-c6cccc(S(=O)(=O)[O-])c6F)c6ccc([nH]6)c(-c6cccc(S(=O)(=O)[O-])c6F)c6nc(c(-c7cccc(S(=O)(=O)[O-])c7F)c7ccc4[nH]7)C=C6)C=C5)cc3)cc2)c(-c2ccc(S(C)(=O)=O)cc2)o1
REMARK SMILES IDX 19 1 18 2 17 3 16 4 15 5 14 6 12 7 13 8 11 9 8 10 9 11 93 12
REMARK SMILES IDX 10 13 92 14 7 15 6 16 1 17 2 18 3 19 105 20 4 21 94 22 5 23
REMARK SMILES IDX 95 24 96 25 104 26 97 27 103 28 98 29 99 30 100 31 101 32
REMARK SMILES IDX 102 33 20 34 21 35 22 36 23 37 24 38 25 39 26 40 27 41 28 42
REMARK SMILES IDX 29 43 30 44 91 45 31 46 90 47 32 48 33 49 34 50 84 51 35 52
REMARK SMILES IDX 89 53 83 54 85 55 36 56 88 57 82 58 81 59 37 61 69 62 49 63
REMARK SMILES IDX 68 64 50 65 53 66 67 67 86 68 51 69 52 70 66 72 87 73 54 74
REMARK SMILES IDX 38 75 39 76 47 77 40 78 42 79 48 80 41 81 43 82 44 83 45 84
REMARK SMILES IDX 46 85 70 86 71 87 79 88 72 89 74 90 80 91 73 92 75 93 76 94
REMARK SMILES IDX 77 95 78 96 55 97 56 98 64 99 57 100 59 101 65 102 58 103
REMARK SMILES IDX 60 104 61 105 62 106 63 107
REMARK H PARENT 85 60 53 71
REMARK Flexibility Score: inf
ROOT
ATOM      1  C   UNL A   1      38.041  29.583  29.463  1.00  0.00     0.188 C 
ENDROOT
BRANCH   1   2
ATOM      2  C   UNL A   1      39.237  29.025  28.749  1.00  0.00     0.188 C 
BRANCH   2   3
ATOM      3  O   UNL A   1      38.997  27.807  28.063  1.00  0.00    -0.376 OA
BRANCH   3   4
ATOM      4  C   UNL A   1      39.815  26.725  28.526  1.00  0.00     0.202 C 
BRANCH   4   5
ATOM      5  C   UNL A   1      39.294  25.311  28.193  1.00  0.00     0.261 C 
BRANCH   5   6
ATOM      6  O   UNL A   1      39.095  25.053  26.777  1.00  0.00    -0.460 OA
BRANCH   6   7
ATOM      7  C   UNL A   1      38.770  23.799  26.375  1.00  0.00     0.338 C 
ATOM      8  O   UNL A   1      39.413  22.789  26.607  1.00  0.00    -0.246 OA
BRANCH   7   9
ATOM      9  C   UNL A   1      37.389  23.798  25.769  1.00  0.00     0.060 A 
ATOM     10  C   UNL A   1      34.807  23.518  24.632  1.00  0.00     0.127 A 
ATOM     11  C   UNL A   1      35.938  23.230  23.875  1.00  0.00     0.048 A 
ATOM     12  C   UNL A   1      34.970  23.990  25.941  1.00  0.00     0.048 A 
ATOM     13  C   UNL A   1      37.220  23.342  24.451  1.00  0.00     0.019 A 
ATOM     14  C   UNL A   1      36.245  24.133  26.507  1.00  0.00     0.019 A 
BRANCH  10  15
ATOM     15  O   UNL A   1      33.527  23.565  24.154  1.00  0.00    -0.449 OA
BRANCH  15  16
ATOM     16  C   UNL A   1      32.355  23.192  24.785  1.00  0.00     0.217 A 
ATOM     17  C   UNL A   1      28.964  22.582  27.402  1.00  0.00     0.088 C 
ATOM     18  C   UNL A   1      30.053  22.923  26.437  1.00  0.00     0.105 A 
ATOM     19  C   UNL A   1      30.418  24.173  26.145  1.00  0.00     0.098 A 
ATOM     20  O   UNL A   1      30.678  21.831  25.881  1.00  0.00    -0.457 OA
ATOM     21  C   UNL A   1      31.537  24.381  25.212  1.00  0.00     0.228 A 
ATOM     22  C   UNL A   1      31.859  21.986  25.160  1.00  0.00     0.180 A 
ATOM     23  O   UNL A   1      31.788  25.522  24.833  1.00  0.00    -0.285 OA
BRANCH  22  24
ATOM     24  C   UNL A   1      32.442  20.663  24.916  1.00  0.00     0.021 A 
ATOM     25  C   UNL A   1      33.253  20.071  25.904  1.00  0.00     0.013 A 
ATOM     26  C   UNL A   1      32.291  20.025  23.688  1.00  0.00     0.013 A 
ATOM     27  C   UNL A   1      33.815  18.809  25.711  1.00  0.00     0.021 A 
ATOM     28  C   UNL A   1      32.877  18.778  23.488  1.00  0.00     0.021 A 
ATOM     29  C   UNL A   1      33.598  18.153  24.505  1.00  0.00     0.067 A 
BRANCH  29  30
ATOM     30  S   UNL A   1      34.080  16.450  24.310  1.00  0.00     0.175 S 
ATOM     31  C   UNL A   1      32.762  15.528  25.048  1.00  0.00     0.163 C 
ATOM     32  O   UNL A   1      34.078  16.170  22.883  1.00  0.00    -0.224 OA
ATOM     33  O   UNL A   1      35.284  16.263  25.089  1.00  0.00    -0.224 OA
ENDBRANCH  29  30
ENDBRANCH  22  24
ENDBRANCH  15  16
ENDBRANCH  10  15
ENDBRANCH   7   9
ENDBRANCH   6   7
ENDBRANCH   5   6
ENDBRANCH   4   5
ENDBRANCH   3   4
ENDBRANCH   2   3
ENDBRANCH   1   2
BRANCH   1  34
ATOM     34  O   UNL A   1      36.794  29.186  28.933  1.00  0.00    -0.377 OA
BRANCH  34  35
ATOM     35  C   UNL A   1      36.464  29.874  27.740  1.00  0.00     0.188 C 
BRANCH  35  36
ATOM     36  C   UNL A   1      35.187  30.752  27.724  1.00  0.00     0.188 C 
BRANCH  36  37
ATOM     37  O   UNL A   1      35.061  31.980  28.449  1.00  0.00    -0.376 OA
BRANCH  37  38
ATOM     38  C   UNL A   1      36.167  32.836  28.693  1.00  0.00     0.202 C 
BRANCH  38  39
ATOM     39  C   UNL A   1      36.390  33.272  30.132  1.00  0.00     0.261 C 
BRANCH  39  40
ATOM     40  O   UNL A   1      36.006  32.201  30.995  1.00  0.00    -0.460 OA
BRANCH  40  41
ATOM     41  C   UNL A   1      35.173  32.544  31.996  1.00  0.00     0.338 C 
ATOM     42  O   UNL A   1      33.949  32.545  31.957  1.00  0.00    -0.246 OA
BRANCH  41  43
ATOM     43  C   UNL A   1      35.967  32.694  33.234  1.00  0.00     0.060 A 
ATOM     44  C   UNL A   1      36.994  31.801  33.566  1.00  0.00     0.016 A 
ATOM     45  C   UNL A   1      35.583  33.700  34.134  1.00  0.00     0.016 A 
ATOM     46  C   UNL A   1      37.672  31.952  34.772  1.00  0.00     0.010 A 
ATOM     47  C   UNL A   1      36.254  33.846  35.345  1.00  0.00     0.010 A 
ATOM     48  C   UNL A   1      37.336  33.006  35.639  1.00  0.00    -0.014 A 
BRANCH  48  49
ATOM     49  C   UNL A   1      38.328  33.431  36.643  1.00  0.00     0.031 A 
ATOM     50  C   UNL A   1      38.265  33.024  38.075  1.00  0.00     0.074 A 
ATOM     51  C   UNL A   1      39.313  34.225  36.180  1.00  0.00     0.049 A 
ATOM     52  N   UNL A   1      39.163  33.213  39.004  1.00  0.00    -0.248 NA
ATOM     53  C   UNL A   1      37.052  32.331  38.532  1.00  0.00     0.031 C 
ATOM     54  C   UNL A   1      39.401  34.724  34.802  1.00  0.00     0.029 A 
ATOM     55  N   UNL A   1      40.424  34.736  36.790  1.00  0.00    -0.354 N 
ATOM     56  C   UNL A   1      38.636  32.656  40.159  1.00  0.00     0.074 A 
ATOM     57  C   UNL A   1      37.323  32.147  39.821  1.00  0.00     0.031 C 
ATOM     58  C   UNL A   1      40.528  35.429  34.660  1.00  0.00     0.029 A 
ATOM     59  C   UNL A   1      41.233  35.443  35.935  1.00  0.00     0.049 A 
ATOM     60  H   UNL A   1      40.624  34.610  37.746  1.00  0.00     0.167 HD
ATOM     61  C   UNL A   1      39.222  32.563  41.376  1.00  0.00     0.034 A 
ATOM     62  C   UNL A   1      42.431  36.016  36.142  1.00  0.00     0.034 A 
ATOM     63  C   UNL A   1      40.530  33.084  41.677  1.00  0.00     0.049 A 
ATOM     64  C   UNL A   1      43.064  35.879  37.490  1.00  0.00     0.074 A 
ATOM     65  C   UNL A   1      41.231  33.004  42.866  1.00  0.00     0.029 A 
ATOM     66  N   UNL A   1      41.327  33.790  40.787  1.00  0.00    -0.354 N 
ATOM     67  N   UNL A   1      42.610  35.239  38.540  1.00  0.00    -0.248 NA
ATOM     68  C   UNL A   1      44.373  36.512  37.682  1.00  0.00     0.031 C 
ATOM     69  C   UNL A   1      42.448  33.672  42.700  1.00  0.00     0.029 A 
ATOM     70  C   UNL A   1      42.511  34.155  41.400  1.00  0.00     0.049 A 
ATOM     71  H   UNL A   1      41.085  34.001  39.856  1.00  0.00     0.167 HD
ATOM     72  C   UNL A   1      43.585  35.372  39.516  1.00  0.00     0.074 A 
ATOM     73  C   UNL A   1      44.660  36.149  38.928  1.00  0.00     0.031 C 
ATOM     74  C   UNL A   1      43.582  34.898  40.784  1.00  0.00     0.034 A 
BRANCH  61  75
ATOM     75  C   UNL A   1      38.497  31.808  42.456  1.00  0.00     0.023 A 
ATOM     76  C   UNL A   1      38.714  30.420  42.575  1.00  0.00     0.012 A 
ATOM     77  C   UNL A   1      37.703  32.469  43.412  1.00  0.00     0.148 A 
ATOM     78  C   UNL A   1      38.143  29.698  43.621  1.00  0.00     0.002 A 
ATOM     79  C   UNL A   1      37.156  31.747  44.468  1.00  0.00     0.091 A 
ATOM     80  F   UNL A   1      37.506  33.788  43.277  1.00  0.00    -0.205 F 
ATOM     81  C   UNL A   1      37.372  30.362  44.572  1.00  0.00     0.022 A 
BRANCH  79  82
ATOM     82  S   UNL A   1      36.184  32.508  45.773  1.00  0.00     0.127 S 
ATOM     83  O   UNL A   1      35.233  31.443  46.090  1.00  0.00    -0.237 OA
ATOM     84  O   UNL A   1      37.192  32.753  46.805  1.00  0.00    -0.237 OA
ATOM     85  O   UNL A   1      35.598  33.708  45.193  1.00  0.00    -0.744 OA
ENDBRANCH  79  82
ENDBRANCH  61  75
BRANCH  62  86
ATOM     86  C   UNL A   1      43.121  36.652  34.990  1.00  0.00     0.023 A 
ATOM     87  C   UNL A   1      42.927  38.025  34.753  1.00  0.00     0.012 A 
ATOM     88  C   UNL A   1      44.078  35.944  34.237  1.00  0.00     0.148 A 
ATOM     89  C   UNL A   1      43.680  38.687  33.782  1.00  0.00     0.002 A 
ATOM     90  C   UNL A   1      44.849  36.618  33.298  1.00  0.00     0.091 A 
ATOM     91  F   UNL A   1      44.255  34.642  34.503  1.00  0.00    -0.205 F 
ATOM     92  C   UNL A   1      44.647  37.987  33.065  1.00  0.00     0.022 A 
BRANCH  90  93
ATOM     93  S   UNL A   1      46.192  35.831  32.402  1.00  0.00     0.127 S 
ATOM     94  O   UNL A   1      45.463  35.011  31.436  1.00  0.00    -0.237 OA
ATOM     95  O   UNL A   1      46.885  36.987  31.831  1.00  0.00    -0.237 OA
ATOM     96  O   UNL A   1      46.957  35.092  33.395  1.00  0.00    -0.744 OA
ENDBRANCH  90  93
ENDBRANCH  62  86
BRANCH  74  97
ATOM     97  C   UNL A   1      44.773  35.194  41.649  1.00  0.00     0.023 A 
ATOM     98  C   UNL A   1      45.881  34.328  41.612  1.00  0.00     0.012 A 
ATOM     99  C   UNL A   1      44.857  36.412  42.350  1.00  0.00     0.148 A 
ATOM    100  C   UNL A   1      47.067  34.676  42.257  1.00  0.00     0.002 A 
ATOM    101  C   UNL A   1      46.052  36.768  42.961  1.00  0.00     0.091 A 
ATOM    102  F   UNL A   1      43.782  37.213  42.368  1.00  0.00    -0.205 F 
ATOM    103  C   UNL A   1      47.157  35.900  42.916  1.00  0.00     0.022 A 
BRANCH 101 104
ATOM    104  S   UNL A   1      46.295  38.354  43.767  1.00  0.00     0.127 S 
ATOM    105  O   UNL A   1      47.586  38.157  44.427  1.00  0.00    -0.237 OA
ATOM    106  O   UNL A   1      46.323  39.274  42.631  1.00  0.00    -0.237 OA
ATOM    107  O   UNL A   1      45.166  38.527  44.672  1.00  0.00    -0.744 OA
ENDBRANCH 101 104
ENDBRANCH  74  97
ENDBRANCH  48  49
ENDBRANCH  41  43
ENDBRANCH  40  41
ENDBRANCH  39  40
ENDBRANCH  38  39
ENDBRANCH  37  38
ENDBRANCH  36  37
ENDBRANCH  35  36
ENDBRANCH  34  35
ENDBRANCH   1  34
TORSDOF 27
ENDMDL
MODEL 2
REMARK VINA RESULT:      -9.0      7.558     15.373
REMARK SMILES Cc1cc(=O)c(Oc2ccc(C(=O)OCCOCCOCCOCCOC(=O)c3ccc(-c4c5nc(c(-c6cccc(S(=O)(=O)[O-])c6F)c6ccc([nH]6)c(-c6cccc(S(=O)(=O)[O-])c6F)c6nc(c(-c7cccc(S(=O)(=O)[O-])c7F)c7ccc4[nH]7)C=C6)C=C5)cc3)cc2)c(-c2ccc(S(C)(=O)=O)cc2)o1
REMARK SMILES IDX 19 1 18 2 17 3 16 4 15 5 14 6 12 7 13 8 11 9 8 10 9 11 93 12
REMARK SMILES IDX 10 13 92 14 7 15 6 16 1 17 2 18 3 19 105 20 4 21 94 22 5 23
REMARK SMILES IDX 95 24 96 25 104 26 97 27 103 28 98 29 99 30 100 31 101 32
REMARK SMILES IDX 102 33 20 34 21 35 22 36 23 37 24 38 25 39 26 40 27 41 28 42
REMARK SMILES IDX 29 43 30 44 91 45 31 46 90 47 32 48 33 49 34 50 84 51 35 52
REMARK SMILES IDX 89 53 83 54 85 55 36 56 88 57 82 58 81 59 37 61 69 62 49 63
REMARK SMILES IDX 68 64 50 65 53 66 67 67 86 68 51 69 52 70 66 72 87 73 54 74
REMARK SMILES IDX 38 75 39 76 47 77 40 78 42 79 48 80 41 81 43 82 44 83 45 84
REMARK SMILES IDX 46 85 70 86 71 87 79 88 72 89 74 90 80 91 73 92 75 93 76 94
REMARK SMILES IDX 77 95 78 96 55 97 56 98 64 99 57 100 59 101 65 102 58 103
REMARK SMILES IDX 60 104 61 105 62 106 63 107
REMARK H PARENT 85 60 53 71
REMARK Flexibility Score: inf
ROOT
ATOM      1  C   UNL A   1      32.801  23.967  25.498  1.00  0.00     0.188 C 
ENDROOT
BRANCH   1   2
ATOM      2  C   UNL A   1      31.978  24.972  26.250  1.00  0.00     0.188 C 
BRANCH   2   3
ATOM      3  O   UNL A   1      32.566  26.260  26.344  1.00  0.00    -0.376 OA
BRANCH   3   4
ATOM      4  C   UNL A   1      31.631  27.326  26.140  1.00  0.00     0.202 C 
BRANCH   4   5
ATOM      5  C   UNL A   1      31.667  28.451  27.195  1.00  0.00     0.261 C 
BRANCH   5   6
ATOM      6  O   UNL A   1      32.989  28.753  27.718  1.00  0.00    -0.460 OA
BRANCH   6   7
ATOM      7  C   UNL A   1      33.910  29.318  26.899  1.00  0.00     0.338 C 
ATOM      8  O   UNL A   1      33.842  29.369  25.683  1.00  0.00    -0.246 OA
BRANCH   7   9
ATOM      9  C   UNL A   1      34.936  30.059  27.718  1.00  0.00     0.060 A 
ATOM     10  C   UNL A   1      36.654  31.552  29.408  1.00  0.00     0.127 A 
ATOM     11  C   UNL A   1      35.848  32.205  28.482  1.00  0.00     0.048 A 
ATOM     12  C   UNL A   1      36.635  30.151  29.456  1.00  0.00     0.048 A 
ATOM     13  C   UNL A   1      34.973  31.463  27.662  1.00  0.00     0.019 A 
ATOM     14  C   UNL A   1      35.789  29.409  28.620  1.00  0.00     0.019 A 
BRANCH  10  15
ATOM     15  O   UNL A   1      37.624  32.144  30.167  1.00  0.00    -0.449 OA
BRANCH  15  16
ATOM     16  C   UNL A   1      37.796  32.100  31.539  1.00  0.00     0.217 A 
ATOM     17  C   UNL A   1      38.264  31.077  35.717  1.00  0.00     0.088 C 
ATOM     18  C   UNL A   1      38.265  31.407  34.259  1.00  0.00     0.105 A 
ATOM     19  C   UNL A   1      39.018  30.773  33.358  1.00  0.00     0.098 A 
ATOM     20  O   UNL A   1      37.400  32.417  33.907  1.00  0.00    -0.457 OA
ATOM     21  C   UNL A   1      38.898  31.159  31.942  1.00  0.00     0.228 A 
ATOM     22  C   UNL A   1      37.115  32.666  32.567  1.00  0.00     0.180 A 
ATOM     23  O   UNL A   1      39.684  30.678  31.129  1.00  0.00    -0.285 OA
BRANCH  22  24
ATOM     24  C   UNL A   1      35.982  33.593  32.488  1.00  0.00     0.021 A 
ATOM     25  C   UNL A   1      36.138  34.917  32.944  1.00  0.00     0.013 A 
ATOM     26  C   UNL A   1      34.728  33.163  32.063  1.00  0.00     0.013 A 
ATOM     27  C   UNL A   1      35.085  35.830  32.874  1.00  0.00     0.021 A 
ATOM     28  C   UNL A   1      33.672  34.070  32.021  1.00  0.00     0.021 A 
ATOM     29  C   UNL A   1      33.857  35.404  32.383  1.00  0.00     0.067 A 
BRANCH  29  30
ATOM     30  S   UNL A   1      32.568  36.584  32.042  1.00  0.00     0.175 S 
ATOM     31  C   UNL A   1      31.208  36.060  33.047  1.00  0.00     0.163 C 
ATOM     32  O   UNL A   1      33.026  37.870  32.544  1.00  0.00    -0.224 OA
ATOM     33  O   UNL A   1      32.215  36.428  30.648  1.00  0.00    -0.224 OA
ENDBRANCH  29  30
ENDBRANCH  22  24
ENDBRANCH  15  16
ENDBRANCH  10  15
ENDBRANCH   7   9
ENDBRANCH   6   7
ENDBRANCH   5   6
ENDBRANCH   4   5
ENDBRANCH   3   4
ENDBRANCH   2   3
ENDBRANCH   1   2
BRANCH   1  34
ATOM     34  O   UNL A   1      33.814  23.341  26.256  1.00  0.00    -0.377 OA
BRANCH  34  35
ATOM     35  C   UNL A   1      34.032  21.996  25.872  1.00  0.00     0.188 C 
BRANCH  35  36
ATOM     36  C   UNL A   1      35.139  21.696  24.828  1.00  0.00     0.188 C 
BRANCH  36  37
ATOM     37  O   UNL A   1      35.938  20.509  24.840  1.00  0.00    -0.376 OA
BRANCH  37  38
ATOM     38  C   UNL A   1      37.352  20.542  24.725  1.00  0.00     0.202 C 
BRANCH  38  39
ATOM     39  C   UNL A   1      38.116  21.196  25.865  1.00  0.00     0.261 C 
BRANCH  39  40
ATOM     40  O   UNL A   1      39.443  21.476  25.419  1.00  0.00    -0.460 OA
BRANCH  40  41
ATOM     41  C   UNL A   1      40.402  20.688  25.944  1.00  0.00     0.338 C 
ATOM     42  O   UNL A   1      40.421  19.464  25.936  1.00  0.00    -0.246 OA
BRANCH  41  43
ATOM     43  C   UNL A   1      41.549  21.538  26.324  1.00  0.00     0.060 A 
ATOM     44  C   UNL A   1      41.409  22.914  26.545  1.00  0.00     0.016 A 
ATOM     45  C   UNL A   1      42.820  20.943  26.343  1.00  0.00     0.016 A 
ATOM     46  C   UNL A   1      42.532  23.680  26.843  1.00  0.00     0.010 A 
ATOM     47  C   UNL A   1      43.945  21.709  26.632  1.00  0.00     0.010 A 
ATOM     48  C   UNL A   1      43.794  23.068  26.936  1.00  0.00    -0.014 A 
BRANCH  48  49
ATOM     49  C   UNL A   1      44.856  23.763  27.688  1.00  0.00     0.031 A 
ATOM     50  C   UNL A   1      46.059  24.355  27.039  1.00  0.00     0.074 A 
ATOM     51  C   UNL A   1      44.670  23.829  29.020  1.00  0.00     0.049 A 
ATOM     52  N   UNL A   1      46.971  25.116  27.581  1.00  0.00    -0.248 NA
ATOM     53  C   UNL A   1      46.281  24.059  25.616  1.00  0.00     0.031 C 
ATOM     54  C   UNL A   1      43.549  23.209  29.735  1.00  0.00     0.029 A 
ATOM     55  N   UNL A   1      45.389  24.449  30.003  1.00  0.00    -0.354 N 
ATOM     56  C   UNL A   1      47.876  25.403  26.571  1.00  0.00     0.074 A 
ATOM     57  C   UNL A   1      47.418  24.708  25.385  1.00  0.00     0.031 C 
ATOM     58  C   UNL A   1      43.629  23.518  31.034  1.00  0.00     0.029 A 
ATOM     59  C   UNL A   1      44.810  24.345  31.244  1.00  0.00     0.049 A 
ATOM     60  H   UNL A   1      46.236  24.924  29.837  1.00  0.00     0.167 HD
ATOM     61  C   UNL A   1      48.968  26.199  26.638  1.00  0.00     0.034 A 
ATOM     62  C   UNL A   1      45.170  24.882  32.422  1.00  0.00     0.034 A 
ATOM     63  C   UNL A   1      49.396  26.873  27.836  1.00  0.00     0.049 A 
ATOM     64  C   UNL A   1      46.369  25.775  32.462  1.00  0.00     0.074 A 
ATOM     65  C   UNL A   1      50.464  27.736  27.999  1.00  0.00     0.029 A 
ATOM     66  N   UNL A   1      48.784  26.752  29.076  1.00  0.00    -0.354 N 
ATOM     67  N   UNL A   1      47.145  26.141  31.470  1.00  0.00    -0.248 NA
ATOM     68  C   UNL A   1      46.733  26.349  33.762  1.00  0.00     0.031 C 
ATOM     69  C   UNL A   1      50.506  28.127  29.341  1.00  0.00     0.029 A 
ATOM     70  C   UNL A   1      49.453  27.520  30.010  1.00  0.00     0.049 A 
ATOM     71  H   UNL A   1      47.991  26.199  29.263  1.00  0.00     0.167 HD
ATOM     72  C   UNL A   1      48.079  27.005  32.018  1.00  0.00     0.074 A 
ATOM     73  C   UNL A   1      47.768  27.114  33.431  1.00  0.00     0.031 C 
ATOM     74  C   UNL A   1      49.104  27.641  31.404  1.00  0.00     0.034 A 
BRANCH  61  75
ATOM     75  C   UNL A   1      49.739  26.455  25.371  1.00  0.00     0.023 A 
ATOM     76  C   UNL A   1      49.107  27.152  24.322  1.00  0.00     0.012 A 
ATOM     77  C   UNL A   1      51.101  26.115  25.255  1.00  0.00     0.148 A 
ATOM     78  C   UNL A   1      49.813  27.498  23.172  1.00  0.00     0.002 A 
ATOM     79  C   UNL A   1      51.806  26.484  24.116  1.00  0.00     0.091 A 
ATOM     80  F   UNL A   1      51.680  25.447  26.264  1.00  0.00    -0.205 F 
ATOM     81  C   UNL A   1      51.164  27.173  23.072  1.00  0.00     0.022 A 
BRANCH  79  82
ATOM     82  S   UNL A   1      53.559  26.156  23.901  1.00  0.00     0.127 S 
ATOM     83  O   UNL A   1      54.150  27.068  24.880  1.00  0.00    -0.237 OA
ATOM     84  O   UNL A   1      53.654  24.740  24.253  1.00  0.00    -0.237 OA
ATOM     85  O   UNL A   1      53.860  26.463  22.510  1.00  0.00    -0.744 OA
ENDBRANCH  79  82
ENDBRANCH  61  75
BRANCH  62  86
ATOM     86  C   UNL A   1      44.292  24.661  33.599  1.00  0.00     0.023 A 
ATOM     87  C   UNL A   1      44.448  23.485  34.355  1.00  0.00     0.012 A 
ATOM     88  C   UNL A   1      43.425  25.672  34.057  1.00  0.00     0.148 A 
ATOM     89  C   UNL A   1      43.754  23.318  35.554  1.00  0.00     0.002 A 
ATOM     90  C   UNL A   1      42.765  25.515  35.270  1.00  0.00     0.091 A 
ATOM     91  F   UNL A   1      43.316  26.791  33.326  1.00  0.00    -0.205 F 
ATOM     92  C   UNL A   1      42.923  24.337  36.016  1.00  0.00     0.022 A 
BRANCH  90  93
ATOM     93  S   UNL A   1      41.761  26.811  36.002  1.00  0.00     0.127 S 
ATOM     94  O   UNL A   1      42.736  27.505  36.840  1.00  0.00    -0.237 OA
ATOM     95  O   UNL A   1      41.324  27.554  34.820  1.00  0.00    -0.237 OA
ATOM     96  O   UNL A   1      40.694  26.130  36.722  1.00  0.00    -0.744 OA
ENDBRANCH  90  93
ENDBRANCH  62  86
BRANCH  74  97
ATOM     97  C   UNL A   1      49.985  28.525  32.239  1.00  0.00     0.023 A 
ATOM     98  C   UNL A   1      51.104  27.967  32.885  1.00  0.00     0.012 A 
ATOM     99  C   UNL A   1      49.801  29.921  32.231  1.00  0.00     0.148 A 
ATOM    100  C   UNL A   1      52.038  28.792  33.507  1.00  0.00     0.002 A 
ATOM    101  C   UNL A   1      50.755  30.738  32.825  1.00  0.00     0.091 A 
ATOM    102  F   UNL A   1      48.723  30.419  31.610  1.00  0.00    -0.205 F 
ATOM    103  C   UNL A   1      51.872  30.175  33.464  1.00  0.00     0.022 A 
BRANCH 101 104
ATOM    104  S   UNL A   1      50.673  32.531  32.756  1.00  0.00     0.127 S 
ATOM    105  O   UNL A   1      51.642  32.912  33.785  1.00  0.00    -0.237 OA
ATOM    106  O   UNL A   1      51.100  32.804  31.384  1.00  0.00    -0.237 OA
ATOM    107  O   UNL A   1      49.293  32.887  33.054  1.00  0.00    -0.744 OA
ENDBRANCH 101 104
ENDBRANCH  74  97
ENDBRANCH  48  49
ENDBRANCH  41  43
ENDBRANCH  40  41
ENDBRANCH  39  40
ENDBRANCH  38  39
ENDBRANCH  37  38
ENDBRANCH  36  37
ENDBRANCH  35  36
ENDBRANCH  34  35
ENDBRANCH   1  34
TORSDOF 27
ENDMDL
MODEL 3
REMARK VINA RESULT:      -8.8      8.863     12.396
REMARK SMILES Cc1cc(=O)c(Oc2ccc(C(=O)OCCOCCOCCOCCOC(=O)c3ccc(-c4c5nc(c(-c6cccc(S(=O)(=O)[O-])c6F)c6ccc([nH]6)c(-c6cccc(S(=O)(=O)[O-])c6F)c6nc(c(-c7cccc(S(=O)(=O)[O-])c7F)c7ccc4[nH]7)C=C6)C=C5)cc3)cc2)c(-c2ccc(S(C)(=O)=O)cc2)o1
REMARK SMILES IDX 19 1 18 2 17 3 16 4 15 5 14 6 12 7 13 8 11 9 8 10 9 11 93 12
REMARK SMILES IDX 10 13 92 14 7 15 6 16 1 17 2 18 3 19 105 20 4 21 94 22 5 23
REMARK SMILES IDX 95 24 96 25 104 26 97 27 103 28 98 29 99 30 100 31 101 32
REMARK SMILES IDX 102 33 20 34 21 35 22 36 23 37 24 38 25 39 26 40 27 41 28 42
REMARK SMILES IDX 29 43 30 44 91 45 31 46 90 47 32 48 33 49 34 50 84 51 35 52
REMARK SMILES IDX 89 53 83 54 85 55 36 56 88 57 82 58 81 59 37 61 69 62 49 63
REMARK SMILES IDX 68 64 50 65 53 66 67 67 86 68 51 69 52 70 66 72 87 73 54 74
REMARK SMILES IDX 38 75 39 76 47 77 40 78 42 79 48 80 41 81 43 82 44 83 45 84
REMARK SMILES IDX 46 85 70 86 71 87 79 88 72 89 74 90 80 91 73 92 75 93 76 94
REMARK SMILES IDX 77 95 78 96 55 97 56 98 64 99 57 100 59 101 65 102 58 103
REMARK SMILES IDX 60 104 61 105 62 106 63 107
REMARK H PARENT 85 60 53 71
REMARK Flexibility Score: inf
ROOT
ATOM      1  C   UNL A   1      40.763  27.046  28.765  1.00  0.00     0.188 C 
ENDROOT
BRANCH   1   2
ATOM      2  C   UNL A   1      41.447  26.181  27.746  1.00  0.00     0.188 C 
BRANCH   2   3
ATOM      3  O   UNL A   1      41.186  24.793  27.885  1.00  0.00    -0.376 OA
BRANCH   3   4
ATOM      4  C   UNL A   1      41.071  24.111  26.630  1.00  0.00     0.202 C 
BRANCH   4   5
ATOM      5  C   UNL A   1      41.012  22.571  26.715  1.00  0.00     0.261 C 
BRANCH   5   6
ATOM      6  O   UNL A   1      39.691  22.026  26.977  1.00  0.00    -0.460 OA
BRANCH   6   7
ATOM      7  C   UNL A   1      39.046  21.357  25.989  1.00  0.00     0.338 C 
ATOM      8  O   UNL A   1      39.190  20.177  25.719  1.00  0.00    -0.246 OA
BRANCH   7   9
ATOM      9  C   UNL A   1      37.970  22.232  25.397  1.00  0.00     0.060 A 
ATOM     10  C   UNL A   1      35.770  23.667  24.330  1.00  0.00     0.127 A 
ATOM     11  C   UNL A   1      36.315  22.600  23.624  1.00  0.00     0.048 A 
ATOM     12  C   UNL A   1      36.356  24.045  25.546  1.00  0.00     0.048 A 
ATOM     13  C   UNL A   1      37.391  21.869  24.170  1.00  0.00     0.019 A 
ATOM     14  C   UNL A   1      37.445  23.340  26.077  1.00  0.00     0.019 A 
BRANCH  10  15
ATOM     15  O   UNL A   1      34.815  24.522  23.856  1.00  0.00    -0.449 OA
BRANCH  15  16
ATOM     16  C   UNL A   1      33.479  24.604  24.204  1.00  0.00     0.217 A 
ATOM     17  C   UNL A   1      29.602  25.362  25.968  1.00  0.00     0.088 C 
ATOM     18  C   UNL A   1      30.922  25.243  25.277  1.00  0.00     0.105 A 
ATOM     19  C   UNL A   1      31.734  26.277  25.050  1.00  0.00     0.098 A 
ATOM     20  O   UNL A   1      31.253  23.960  24.908  1.00  0.00    -0.457 OA
ATOM     21  C   UNL A   1      33.030  26.027  24.400  1.00  0.00     0.228 A 
ATOM     22  C   UNL A   1      32.544  23.661  24.480  1.00  0.00     0.180 A 
ATOM     23  O   UNL A   1      33.720  26.987  24.064  1.00  0.00    -0.285 OA
BRANCH  22  24
ATOM     24  C   UNL A   1      32.694  22.204  24.410  1.00  0.00     0.021 A 
ATOM     25  C   UNL A   1      32.175  21.508  23.302  1.00  0.00     0.013 A 
ATOM     26  C   UNL A   1      33.251  21.486  25.465  1.00  0.00     0.013 A 
ATOM     27  C   UNL A   1      32.309  20.122  23.196  1.00  0.00     0.021 A 
ATOM     28  C   UNL A   1      33.358  20.101  25.369  1.00  0.00     0.021 A 
ATOM     29  C   UNL A   1      32.929  19.426  24.226  1.00  0.00     0.067 A 
BRANCH  29  30
ATOM     30  S   UNL A   1      33.345  17.707  24.025  1.00  0.00     0.175 S 
ATOM     31  C   UNL A   1      32.445  16.879  25.306  1.00  0.00     0.163 C 
ATOM     32  O   UNL A   1      32.795  17.284  22.747  1.00  0.00    -0.224 OA
ATOM     33  O   UNL A   1      34.762  17.584  24.287  1.00  0.00    -0.224 OA
ENDBRANCH  29  30
ENDBRANCH  22  24
ENDBRANCH  15  16
ENDBRANCH  10  15
ENDBRANCH   7   9
ENDBRANCH   6   7
ENDBRANCH   5   6
ENDBRANCH   4   5
ENDBRANCH   3   4
ENDBRANCH   2   3
ENDBRANCH   1   2
BRANCH   1  34
ATOM     34  O   UNL A   1      40.472  28.357  28.331  1.00  0.00    -0.377 OA
BRANCH  34  35
ATOM     35  C   UNL A   1      39.307  28.888  28.937  1.00  0.00     0.188 C 
BRANCH  35  36
ATOM     36  C   UNL A   1      38.945  28.424  30.371  1.00  0.00     0.188 C 
BRANCH  36  37
ATOM     37  O   UNL A   1      37.746  28.812  31.050  1.00  0.00    -0.376 OA
BRANCH  37  38
ATOM     38  C   UNL A   1      37.643  30.025  31.779  1.00  0.00     0.202 C 
BRANCH  38  39
ATOM     39  C   UNL A   1      37.815  29.934  33.287  1.00  0.00     0.261 C 
BRANCH  39  40
ATOM     40  O   UNL A   1      38.946  29.107  33.564  1.00  0.00    -0.460 OA
BRANCH  40  41
ATOM     41  C   UNL A   1      39.935  29.704  34.258  1.00  0.00     0.338 C 
ATOM     42  O   UNL A   1      39.824  30.683  34.985  1.00  0.00    -0.246 OA
BRANCH  41  43
ATOM     43  C   UNL A   1      41.136  28.847  34.190  1.00  0.00     0.060 A 
ATOM     44  C   UNL A   1      41.350  27.955  33.130  1.00  0.00     0.016 A 
ATOM     45  C   UNL A   1      42.011  28.866  35.287  1.00  0.00     0.016 A 
ATOM     46  C   UNL A   1      42.468  27.127  33.144  1.00  0.00     0.010 A 
ATOM     47  C   UNL A   1      43.125  28.032  35.307  1.00  0.00     0.010 A 
ATOM     48  C   UNL A   1      43.383  27.201  34.209  1.00  0.00    -0.014 A 
BRANCH  48  49
ATOM     49  C   UNL A   1      44.750  26.691  33.995  1.00  0.00     0.031 A 
ATOM     50  C   UNL A   1      45.849  27.519  33.424  1.00  0.00     0.074 A 
ATOM     51  C   UNL A   1      44.949  25.407  34.351  1.00  0.00     0.049 A 
ATOM     52  N   UNL A   1      47.117  27.221  33.337  1.00  0.00    -0.248 NA
ATOM     53  C   UNL A   1      45.494  28.836  32.876  1.00  0.00     0.031 C 
ATOM     54  C   UNL A   1      43.900  24.511  34.852  1.00  0.00     0.029 A 
ATOM     55  N   UNL A   1      46.079  24.639  34.369  1.00  0.00    -0.354 N 
ATOM     56  C   UNL A   1      47.723  28.312  32.733  1.00  0.00     0.074 A 
ATOM     57  C   UNL A   1      46.675  29.271  32.447  1.00  0.00     0.031 C 
ATOM     58  C   UNL A   1      44.444  23.331  35.172  1.00  0.00     0.029 A 
ATOM     59  C   UNL A   1      45.871  23.384  34.888  1.00  0.00     0.049 A 
ATOM     60  H   UNL A   1      46.954  24.954  34.045  1.00  0.00     0.167 HD
ATOM     61  C   UNL A   1      49.039  28.492  32.474  1.00  0.00     0.034 A 
ATOM     62  C   UNL A   1      46.740  22.390  35.139  1.00  0.00     0.034 A 
ATOM     63  C   UNL A   1      50.054  27.514  32.770  1.00  0.00     0.049 A 
ATOM     64  C   UNL A   1      48.191  22.624  34.862  1.00  0.00     0.074 A 
ATOM     65  C   UNL A   1      51.421  27.615  32.587  1.00  0.00     0.029 A 
ATOM     66  N   UNL A   1      49.812  26.255  33.301  1.00  0.00    -0.354 N 
ATOM     67  N   UNL A   1      48.768  23.710  34.408  1.00  0.00    -0.248 NA
ATOM     68  C   UNL A   1      49.113  21.520  35.151  1.00  0.00     0.031 C 
ATOM     69  C   UNL A   1      52.005  26.412  32.994  1.00  0.00     0.029 A 
ATOM     70  C   UNL A   1      51.002  25.567  33.447  1.00  0.00     0.049 A 
ATOM     71  H   UNL A   1      48.923  25.902  33.536  1.00  0.00     0.167 HD
ATOM     72  C   UNL A   1      50.125  23.432  34.374  1.00  0.00     0.074 A 
ATOM     73  C   UNL A   1      50.286  22.075  34.861  1.00  0.00     0.031 C 
ATOM     74  C   UNL A   1      51.141  24.229  33.968  1.00  0.00     0.034 A 
BRANCH  61  75
ATOM     75  C   UNL A   1      49.478  29.817  31.913  1.00  0.00     0.023 A 
ATOM     76  C   UNL A   1      49.834  30.847  32.807  1.00  0.00     0.012 A 
ATOM     77  C   UNL A   1      49.648  30.012  30.529  1.00  0.00     0.148 A 
ATOM     78  C   UNL A   1      50.340  32.055  32.334  1.00  0.00     0.002 A 
ATOM     79  C   UNL A   1      50.177  31.210  30.064  1.00  0.00     0.091 A 
ATOM     80  F   UNL A   1      49.299  29.020  29.697  1.00  0.00    -0.205 F 
ATOM     81  C   UNL A   1      50.521  32.234  30.965  1.00  0.00     0.022 A 
BRANCH  79  82
ATOM     82  S   UNL A   1      50.494  31.531  28.325  1.00  0.00     0.127 S 
ATOM     83  O   UNL A   1      49.341  30.890  27.694  1.00  0.00    -0.237 OA
ATOM     84  O   UNL A   1      50.483  32.993  28.274  1.00  0.00    -0.237 OA
ATOM     85  O   UNL A   1      51.781  30.917  28.030  1.00  0.00    -0.744 OA
ENDBRANCH  79  82
ENDBRANCH  61  75
BRANCH  62  86
ATOM     86  C   UNL A   1      46.233  21.155  35.789  1.00  0.00     0.023 A 
ATOM     87  C   UNL A   1      45.658  20.150  34.990  1.00  0.00     0.012 A 
ATOM     88  C   UNL A   1      46.462  20.909  37.157  1.00  0.00     0.148 A 
ATOM     89  C   UNL A   1      45.318  18.915  35.543  1.00  0.00     0.002 A 
ATOM     90  C   UNL A   1      46.156  19.664  37.693  1.00  0.00     0.091 A 
ATOM     91  F   UNL A   1      47.034  21.878  37.886  1.00  0.00    -0.205 F 
ATOM     92  C   UNL A   1      45.578  18.669  36.890  1.00  0.00     0.022 A 
BRANCH  90  93
ATOM     93  S   UNL A   1      46.551  19.213  39.386  1.00  0.00     0.127 S 
ATOM     94  O   UNL A   1      45.712  20.139  40.144  1.00  0.00    -0.237 OA
ATOM     95  O   UNL A   1      46.122  17.815  39.429  1.00  0.00    -0.237 OA
ATOM     96  O   UNL A   1      47.986  19.414  39.529  1.00  0.00    -0.744 OA
ENDBRANCH  90  93
ENDBRANCH  62  86
BRANCH  74  97
ATOM     97  C   UNL A   1      52.536  23.676  34.024  1.00  0.00     0.023 A 
ATOM     98  C   UNL A   1      53.078  23.062  32.880  1.00  0.00     0.012 A 
ATOM     99  C   UNL A   1      53.354  23.926  35.142  1.00  0.00     0.148 A 
ATOM    100  C   UNL A   1      54.426  22.710  32.844  1.00  0.00     0.002 A 
ATOM    101  C   UNL A   1      54.704  23.604  35.086  1.00  0.00     0.091 A 
ATOM    102  F   UNL A   1      52.805  24.510  36.216  1.00  0.00    -0.205 F 
ATOM    103  C   UNL A   1      55.240  22.995  33.938  1.00  0.00     0.022 A 
BRANCH 101 104
ATOM    104  S   UNL A   1      55.851  24.000  36.409  1.00  0.00     0.127 S 
ATOM    105  O   UNL A   1      56.992  23.145  36.080  1.00  0.00    -0.237 OA
ATOM    106  O   UNL A   1      56.079  25.429  36.200  1.00  0.00    -0.237 OA
ATOM    107  O   UNL A   1      55.171  23.661  37.652  1.00  0.00    -0.744 OA
ENDBRANCH 101 104
ENDBRANCH  74  97
ENDBRANCH  48  49
ENDBRANCH  41  43
ENDBRANCH  40  41
ENDBRANCH  39  40
ENDBRANCH  38  39
ENDBRANCH  37  38
ENDBRANCH  36  37
ENDBRANCH  35  36
ENDBRANCH  34  35
ENDBRANCH   1  34
TORSDOF 27
ENDMDL
