MODEL 1
REMARK VINA RESULT:      -9.4      0.000      0.000
REMARK SMILES Cn1cnnc1S[C@@H]1CCC[C@]([NH3+])(C(=O)OCCOCCOCCOCCOC(=O)c2ccc(-c3c4nc(c(-c5cccc(S(=O)(=O)[O-])c5F)c5ccc([nH]5)c(-c5cccc(S(=O)(=O)[O-])c5F)c5nc(c(-c6cccc(S(=O)(=O)[O-])c6F)c6ccc3[nH]6)C=C5)C=C4)cc2)C1
REMARK SMILES IDX 23 1 22 2 21 3 20 4 19 5 18 6 17 7 16 8 14 9 15 10 12 11
REMARK SMILES IDX 8 12 9 13 94 14 10 15 11 16 7 17 6 18 1 19 2 20 3 21 4 22
REMARK SMILES IDX 5 23 13 24 24 28 25 29 26 30 27 31 28 32 29 33 30 34 31 35
REMARK SMILES IDX 32 36 93 37 33 38 92 39 34 40 35 41 36 42 86 43 37 44 91 45
REMARK SMILES IDX 85 46 87 47 38 48 90 49 84 50 83 51 39 53 71 54 51 55 70 56
REMARK SMILES IDX 52 57 55 58 69 59 88 60 53 61 54 62 68 64 89 65 56 66 40 67
REMARK SMILES IDX 41 68 49 69 42 70 44 71 50 72 43 73 45 74 46 75 47 76 48 77
REMARK SMILES IDX 72 78 73 79 81 80 74 81 76 82 82 83 75 84 77 85 78 86 79 87
REMARK SMILES IDX 80 88 57 89 58 90 66 91 59 92 61 93 67 94 60 95 62 96 63 97
REMARK SMILES IDX 64 98 65 99
REMARK H PARENT 13 25 13 26 13 27 87 52 55 63
REMARK Flexibility Score: inf
ROOT
ATOM      1  C   UNL A   1      33.742  27.896  24.726  1.00  0.00     0.188 C 
ENDROOT
BRANCH   1   2
ATOM      2  O   UNL A   1      34.026  26.762  25.533  1.00  0.00    -0.377 OA
BRANCH   2   3
ATOM      3  C   UNL A   1      33.681  25.508  24.992  1.00  0.00     0.188 C 
BRANCH   3   4
ATOM      4  C   UNL A   1      34.830  24.507  24.811  1.00  0.00     0.188 C 
BRANCH   4   5
ATOM      5  O   UNL A   1      35.406  23.816  25.909  1.00  0.00    -0.376 OA
BRANCH   5   6
ATOM      6  C   UNL A   1      36.131  22.610  25.735  1.00  0.00     0.202 C 
BRANCH   6   7
ATOM      7  C   UNL A   1      37.583  22.603  25.213  1.00  0.00     0.261 C 
BRANCH   7   8
ATOM      8  O   UNL A   1      38.506  21.649  25.774  1.00  0.00    -0.459 OA
BRANCH   8   9
ATOM      9  C   UNL A   1      39.494  22.183  26.526  1.00  0.00     0.368 C 
ATOM     10  O   UNL A   1      39.464  23.318  27.004  1.00  0.00    -0.245 OA
BRANCH   9  11
ATOM     11  C   UNL A   1      40.747  21.265  26.710  1.00  0.00     0.193 C 
ATOM     12  C   UNL A   1      43.265  21.463  26.151  1.00  0.00     0.061 C 
ATOM     13  C   UNL A   1      43.305  20.036  25.609  1.00  0.00     0.015 C 
ATOM     14  C   UNL A   1      41.917  22.168  26.277  1.00  0.00     0.096 C 
ATOM     15  C   UNL A   1      42.133  19.192  26.058  1.00  0.00     0.008 C 
ATOM     16  C   UNL A   1      40.792  19.915  25.963  1.00  0.00     0.081 C 
BRANCH  12  17
ATOM     17  S   UNL A   1      44.503  22.453  25.293  1.00  0.00    -0.082 SA
BRANCH  17  18
ATOM     18  C   UNL A   1      45.610  23.252  26.361  1.00  0.00     0.191 A 
ATOM     19  C   UNL A   1      44.455  23.820  28.605  1.00  0.00     0.153 C 
ATOM     20  N   UNL A   1      45.485  23.812  27.608  1.00  0.00    -0.312 N 
ATOM     21  C   UNL A   1      46.673  24.462  27.839  1.00  0.00     0.226 A 
ATOM     22  N   UNL A   1      47.484  24.277  26.830  1.00  0.00    -0.138 NA
ATOM     23  N   UNL A   1      46.820  23.518  25.907  1.00  0.00    -0.124 NA
ENDBRANCH  17  18
ENDBRANCH  12  17
BRANCH  11  24
ATOM     24  N   UNL A   1      40.824  20.921  28.165  1.00  0.00    -0.343 N 
ATOM     25  H   UNL A   1      41.802  20.894  28.457  1.00  0.00     0.345 HD
ATOM     26  H   UNL A   1      40.398  20.008  28.321  1.00  0.00     0.345 HD
ATOM     27  H   UNL A   1      40.327  21.626  28.708  1.00  0.00     0.345 HD
ENDBRANCH  11  24
ENDBRANCH   9  11
ENDBRANCH   8   9
ENDBRANCH   7   8
ENDBRANCH   6   7
ENDBRANCH   5   6
ENDBRANCH   4   5
ENDBRANCH   3   4
ENDBRANCH   2   3
ENDBRANCH   1   2
BRANCH   1  28
ATOM     28  C   UNL A   1      32.865  28.991  25.362  1.00  0.00     0.188 C 
BRANCH  28  29
ATOM     29  O   UNL A   1      33.528  29.754  26.363  1.00  0.00    -0.376 OA
BRANCH  29  30
ATOM     30  C   UNL A   1      32.880  30.894  26.910  1.00  0.00     0.202 C 
BRANCH  30  31
ATOM     31  C   UNL A   1      33.705  31.873  27.764  1.00  0.00     0.261 C 
BRANCH  31  32
ATOM     32  O   UNL A   1      33.519  33.273  27.506  1.00  0.00    -0.460 OA
BRANCH  32  33
ATOM     33  C   UNL A   1      33.505  34.118  28.557  1.00  0.00     0.338 C 
ATOM     34  O   UNL A   1      32.642  34.939  28.824  1.00  0.00    -0.246 OA
BRANCH  33  35
ATOM     35  C   UNL A   1      34.605  33.727  29.463  1.00  0.00     0.060 A 
ATOM     36  C   UNL A   1      35.910  34.137  29.156  1.00  0.00     0.016 A 
ATOM     37  C   UNL A   1      34.353  32.971  30.610  1.00  0.00     0.016 A 
ATOM     38  C   UNL A   1      36.974  33.755  29.971  1.00  0.00     0.010 A 
ATOM     39  C   UNL A   1      35.423  32.566  31.412  1.00  0.00     0.010 A 
ATOM     40  C   UNL A   1      36.741  32.922  31.072  1.00  0.00    -0.014 A 
BRANCH  40  41
ATOM     41  C   UNL A   1      37.885  32.250  31.731  1.00  0.00     0.031 A 
ATOM     42  C   UNL A   1      38.291  32.718  33.101  1.00  0.00     0.074 A 
ATOM     43  C   UNL A   1      38.546  31.241  31.137  1.00  0.00     0.049 A 
ATOM     44  N   UNL A   1      39.275  32.314  33.859  1.00  0.00    -0.248 NA
ATOM     45  C   UNL A   1      37.476  33.793  33.693  1.00  0.00     0.031 C 
ATOM     46  C   UNL A   1      38.233  30.680  29.825  1.00  0.00     0.029 A 
ATOM     47  N   UNL A   1      39.637  30.524  31.561  1.00  0.00    -0.354 N 
ATOM     48  C   UNL A   1      39.223  33.107  34.999  1.00  0.00     0.074 A 
ATOM     49  C   UNL A   1      38.115  34.021  34.831  1.00  0.00     0.031 C 
ATOM     50  C   UNL A   1      39.132  29.722  29.538  1.00  0.00     0.029 A 
ATOM     51  C   UNL A   1      40.099  29.626  30.630  1.00  0.00     0.049 A 
ATOM     52  H   UNL A   1      40.050  30.643  32.447  1.00  0.00     0.167 HD
ATOM     53  C   UNL A   1      40.020  33.074  36.092  1.00  0.00     0.034 A 
ATOM     54  C   UNL A   1      41.193  28.838  30.649  1.00  0.00     0.034 A 
ATOM     55  C   UNL A   1      41.114  32.158  36.261  1.00  0.00     0.049 A 
ATOM     56  C   UNL A   1      42.093  28.850  31.858  1.00  0.00     0.074 A 
ATOM     57  C   UNL A   1      41.949  32.010  37.354  1.00  0.00     0.029 A 
ATOM     58  N   UNL A   1      41.541  31.250  35.304  1.00  0.00    -0.354 N 
ATOM     59  N   UNL A   1      41.970  29.528  32.973  1.00  0.00    -0.248 NA
ATOM     60  C   UNL A   1      43.267  27.965  31.822  1.00  0.00     0.031 C 
ATOM     61  C   UNL A   1      42.912  31.046  37.039  1.00  0.00     0.029 A 
ATOM     62  C   UNL A   1      42.644  30.555  35.771  1.00  0.00     0.049 A 
ATOM     63  H   UNL A   1      41.122  31.118  34.424  1.00  0.00     0.167 HD
ATOM     64  C   UNL A   1      43.023  29.121  33.786  1.00  0.00     0.074 A 
ATOM     65  C   UNL A   1      43.766  28.127  33.039  1.00  0.00     0.031 C 
ATOM     66  C   UNL A   1      43.349  29.536  35.036  1.00  0.00     0.034 A 
BRANCH  53  67
ATOM     67  C   UNL A   1      39.741  34.069  37.188  1.00  0.00     0.023 A 
ATOM     68  C   UNL A   1      40.047  35.433  37.001  1.00  0.00     0.012 A 
ATOM     69  C   UNL A   1      39.144  33.653  38.393  1.00  0.00     0.148 A 
ATOM     70  C   UNL A   1      39.798  36.360  38.012  1.00  0.00     0.002 A 
ATOM     71  C   UNL A   1      38.853  34.590  39.376  1.00  0.00     0.091 A 
ATOM     72  F   UNL A   1      38.885  32.348  38.562  1.00  0.00    -0.205 F 
ATOM     73  C   UNL A   1      39.192  35.941  39.194  1.00  0.00     0.022 A 
BRANCH  71  74
ATOM     74  S   UNL A   1      38.000  34.162  40.897  1.00  0.00     0.127 S 
ATOM     75  O   UNL A   1      36.832  33.445  40.387  1.00  0.00    -0.237 OA
ATOM     76  O   UNL A   1      38.986  33.317  41.572  1.00  0.00    -0.237 OA
ATOM     77  O   UNL A   1      37.717  35.421  41.569  1.00  0.00    -0.744 OA
ENDBRANCH  71  74
ENDBRANCH  53  67
BRANCH  54  78
ATOM     78  C   UNL A   1      41.492  27.955  29.487  1.00  0.00     0.023 A 
ATOM     79  C   UNL A   1      40.900  26.679  29.406  1.00  0.00     0.012 A 
ATOM     80  C   UNL A   1      42.349  28.381  28.455  1.00  0.00     0.148 A 
ATOM     81  C   UNL A   1      41.179  25.833  28.333  1.00  0.00     0.002 A 
ATOM     82  C   UNL A   1      42.574  27.558  27.358  1.00  0.00     0.091 A 
ATOM     83  F   UNL A   1      42.914  29.593  28.558  1.00  0.00    -0.205 F 
ATOM     84  C   UNL A   1      42.007  26.276  27.304  1.00  0.00     0.022 A 
BRANCH  82  85
ATOM     85  S   UNL A   1      43.504  28.105  25.923  1.00  0.00     0.127 S 
ATOM     86  O   UNL A   1      43.634  29.537  26.179  1.00  0.00    -0.237 OA
ATOM     87  O   UNL A   1      44.739  27.333  26.061  1.00  0.00    -0.237 OA
ATOM     88  O   UNL A   1      42.700  27.740  24.763  1.00  0.00    -0.744 OA
ENDBRANCH  82  85
ENDBRANCH  54  78
BRANCH  66  89
ATOM     89  C   UNL A   1      44.531  28.885  35.710  1.00  0.00     0.023 A 
ATOM     90  C   UNL A   1      45.824  29.423  35.554  1.00  0.00     0.012 A 
ATOM     91  C   UNL A   1      44.343  27.777  36.561  1.00  0.00     0.148 A 
ATOM     92  C   UNL A   1      46.914  28.848  36.207  1.00  0.00     0.002 A 
ATOM     93  C   UNL A   1      45.424  27.244  37.251  1.00  0.00     0.091 A 
ATOM     94  F   UNL A   1      43.107  27.269  36.684  1.00  0.00    -0.205 F 
ATOM     95  C   UNL A   1      46.712  27.768  37.063  1.00  0.00     0.022 A 
BRANCH  93  96
ATOM     96  S   UNL A   1      45.245  25.919  38.452  1.00  0.00     0.127 S 
ATOM     97  O   UNL A   1      46.628  25.716  38.879  1.00  0.00    -0.237 OA
ATOM     98  O   UNL A   1      44.379  26.532  39.459  1.00  0.00    -0.237 OA
ATOM     99  O   UNL A   1      44.643  24.803  37.735  1.00  0.00    -0.744 OA
ENDBRANCH  93  96
ENDBRANCH  66  89
ENDBRANCH  40  41
ENDBRANCH  33  35
ENDBRANCH  32  33
ENDBRANCH  31  32
ENDBRANCH  30  31
ENDBRANCH  29  30
ENDBRANCH  28  29
ENDBRANCH   1  28
TORSDOF 26
ENDMDL
MODEL 2
REMARK VINA RESULT:      -9.3      2.022      8.269
REMARK SMILES Cn1cnnc1S[C@@H]1CCC[C@]([NH3+])(C(=O)OCCOCCOCCOCCOC(=O)c2ccc(-c3c4nc(c(-c5cccc(S(=O)(=O)[O-])c5F)c5ccc([nH]5)c(-c5cccc(S(=O)(=O)[O-])c5F)c5nc(c(-c6cccc(S(=O)(=O)[O-])c6F)c6ccc3[nH]6)C=C5)C=C4)cc2)C1
REMARK SMILES IDX 23 1 22 2 21 3 20 4 19 5 18 6 17 7 16 8 14 9 15 10 12 11
REMARK SMILES IDX 8 12 9 13 94 14 10 15 11 16 7 17 6 18 1 19 2 20 3 21 4 22
REMARK SMILES IDX 5 23 13 24 24 28 25 29 26 30 27 31 28 32 29 33 30 34 31 35
REMARK SMILES IDX 32 36 93 37 33 38 92 39 34 40 35 41 36 42 86 43 37 44 91 45
REMARK SMILES IDX 85 46 87 47 38 48 90 49 84 50 83 51 39 53 71 54 51 55 70 56
REMARK SMILES IDX 52 57 55 58 69 59 88 60 53 61 54 62 68 64 89 65 56 66 40 67
REMARK SMILES IDX 41 68 49 69 42 70 44 71 50 72 43 73 45 74 46 75 47 76 48 77
REMARK SMILES IDX 72 78 73 79 81 80 74 81 76 82 82 83 75 84 77 85 78 86 79 87
REMARK SMILES IDX 80 88 57 89 58 90 66 91 59 92 61 93 67 94 60 95 62 96 63 97
REMARK SMILES IDX 64 98 65 99
REMARK H PARENT 13 25 13 26 13 27 87 52 55 63
REMARK Flexibility Score: inf
ROOT
ATOM      1  C   UNL A   1      31.013  29.926  24.524  1.00  0.00     0.188 C 
ENDROOT
BRANCH   1   2
ATOM      2  O   UNL A   1      31.013  28.649  23.902  1.00  0.00    -0.377 OA
BRANCH   2   3
ATOM      3  C   UNL A   1      29.756  28.146  23.510  1.00  0.00     0.188 C 
BRANCH   3   4
ATOM      4  C   UNL A   1      29.464  26.687  23.880  1.00  0.00     0.188 C 
BRANCH   4   5
ATOM      5  O   UNL A   1      29.727  26.172  25.177  1.00  0.00    -0.376 OA
BRANCH   5   6
ATOM      6  C   UNL A   1      30.980  25.598  25.513  1.00  0.00     0.202 C 
BRANCH   6   7
ATOM      7  C   UNL A   1      31.083  24.322  26.373  1.00  0.00     0.261 C 
BRANCH   7   8
ATOM      8  O   UNL A   1      31.888  23.232  25.884  1.00  0.00    -0.459 OA
BRANCH   8   9
ATOM      9  C   UNL A   1      33.214  23.348  26.121  1.00  0.00     0.368 C 
ATOM     10  O   UNL A   1      33.792  24.419  26.309  1.00  0.00    -0.245 OA
BRANCH   9  11
ATOM     11  C   UNL A   1      34.008  22.001  26.082  1.00  0.00     0.193 C 
ATOM     12  C   UNL A   1      36.502  21.346  25.884  1.00  0.00     0.061 C 
ATOM     13  C   UNL A   1      36.183  20.251  24.868  1.00  0.00     0.015 C 
ATOM     14  C   UNL A   1      35.479  22.453  26.124  1.00  0.00     0.096 C 
ATOM     15  C   UNL A   1      34.726  19.847  24.862  1.00  0.00     0.008 C 
ATOM     16  C   UNL A   1      33.766  21.033  24.904  1.00  0.00     0.081 C 
BRANCH  12  17
ATOM     17  S   UNL A   1      38.163  21.974  25.570  1.00  0.00    -0.082 SA
BRANCH  17  18
ATOM     18  C   UNL A   1      39.416  20.846  25.975  1.00  0.00     0.191 A 
ATOM     19  C   UNL A   1      41.136  21.935  27.570  1.00  0.00     0.153 C 
ATOM     20  N   UNL A   1      40.573  20.939  26.706  1.00  0.00    -0.312 N 
ATOM     21  C   UNL A   1      41.238  19.756  26.494  1.00  0.00     0.226 A 
ATOM     22  N   UNL A   1      40.522  18.976  25.727  1.00  0.00    -0.138 NA
ATOM     23  N   UNL A   1      39.382  19.657  25.404  1.00  0.00    -0.124 NA
ENDBRANCH  17  18
ENDBRANCH  12  17
BRANCH  11  24
ATOM     24  N   UNL A   1      33.629  21.238  27.313  1.00  0.00    -0.343 N 
ATOM     25  H   UNL A   1      33.690  21.851  28.126  1.00  0.00     0.345 HD
ATOM     26  H   UNL A   1      34.267  20.450  27.434  1.00  0.00     0.345 HD
ATOM     27  H   UNL A   1      32.675  20.891  27.219  1.00  0.00     0.345 HD
ENDBRANCH  11  24
ENDBRANCH   9  11
ENDBRANCH   8   9
ENDBRANCH   7   8
ENDBRANCH   6   7
ENDBRANCH   5   6
ENDBRANCH   4   5
ENDBRANCH   3   4
ENDBRANCH   2   3
ENDBRANCH   1   2
BRANCH   1  28
ATOM     28  C   UNL A   1      31.925  30.091  25.755  1.00  0.00     0.188 C 
BRANCH  28  29
ATOM     29  O   UNL A   1      31.694  31.289  26.488  1.00  0.00    -0.376 OA
BRANCH  29  30
ATOM     30  C   UNL A   1      32.552  31.616  27.572  1.00  0.00     0.202 C 
BRANCH  30  31
ATOM     31  C   UNL A   1      33.391  32.903  27.486  1.00  0.00     0.261 C 
BRANCH  31  32
ATOM     32  O   UNL A   1      32.760  34.118  27.918  1.00  0.00    -0.460 OA
BRANCH  32  33
ATOM     33  C   UNL A   1      33.179  34.679  29.070  1.00  0.00     0.338 C 
ATOM     34  O   UNL A   1      32.591  35.521  29.731  1.00  0.00    -0.246 OA
BRANCH  33  35
ATOM     35  C   UNL A   1      34.373  33.936  29.524  1.00  0.00     0.060 A 
ATOM     36  C   UNL A   1      34.213  32.919  30.476  1.00  0.00     0.016 A 
ATOM     37  C   UNL A   1      35.639  34.232  29.012  1.00  0.00     0.016 A 
ATOM     38  C   UNL A   1      35.324  32.225  30.952  1.00  0.00     0.010 A 
ATOM     39  C   UNL A   1      36.755  33.554  29.510  1.00  0.00     0.010 A 
ATOM     40  C   UNL A   1      36.605  32.577  30.510  1.00  0.00    -0.014 A 
BRANCH  40  41
ATOM     41  C   UNL A   1      37.790  32.083  31.249  1.00  0.00     0.031 A 
ATOM     42  C   UNL A   1      38.581  30.953  30.649  1.00  0.00     0.074 A 
ATOM     43  C   UNL A   1      38.167  32.626  32.420  1.00  0.00     0.049 A 
ATOM     44  N   UNL A   1      39.628  30.331  31.121  1.00  0.00    -0.248 NA
ATOM     45  C   UNL A   1      38.124  30.458  29.339  1.00  0.00     0.031 C 
ATOM     46  C   UNL A   1      37.500  33.739  33.091  1.00  0.00     0.029 A 
ATOM     47  N   UNL A   1      39.198  32.291  33.261  1.00  0.00    -0.354 N 
ATOM     48  C   UNL A   1      39.933  29.347  30.187  1.00  0.00     0.074 A 
ATOM     49  C   UNL A   1      38.957  29.450  29.125  1.00  0.00     0.031 C 
ATOM     50  C   UNL A   1      38.123  33.979  34.257  1.00  0.00     0.029 A 
ATOM     51  C   UNL A   1      39.211  33.016  34.429  1.00  0.00     0.049 A 
ATOM     52  H   UNL A   1      39.864  31.597  33.050  1.00  0.00     0.167 HD
ATOM     53  C   UNL A   1      40.939  28.442  30.207  1.00  0.00     0.034 A 
ATOM     54  C   UNL A   1      39.994  32.895  35.520  1.00  0.00     0.034 A 
ATOM     55  C   UNL A   1      41.914  28.348  31.258  1.00  0.00     0.049 A 
ATOM     56  C   UNL A   1      41.080  31.851  35.539  1.00  0.00     0.074 A 
ATOM     57  C   UNL A   1      43.004  27.500  31.345  1.00  0.00     0.029 A 
ATOM     58  N   UNL A   1      41.906  29.111  32.416  1.00  0.00    -0.354 N 
ATOM     59  N   UNL A   1      41.424  30.999  34.604  1.00  0.00    -0.248 NA
ATOM     60  C   UNL A   1      41.905  31.772  36.754  1.00  0.00     0.031 C 
ATOM     61  C   UNL A   1      43.626  27.716  32.579  1.00  0.00     0.029 A 
ATOM     62  C   UNL A   1      42.956  28.736  33.236  1.00  0.00     0.049 A 
ATOM     63  H   UNL A   1      41.251  29.815  32.624  1.00  0.00     0.167 HD
ATOM     64  C   UNL A   1      42.530  30.314  35.099  1.00  0.00     0.074 A 
ATOM     65  C   UNL A   1      42.805  30.860  36.412  1.00  0.00     0.031 C 
ATOM     66  C   UNL A   1      43.248  29.318  34.521  1.00  0.00     0.034 A 
BRANCH  53  67
ATOM     67  C   UNL A   1      41.027  27.473  29.057  1.00  0.00     0.023 A 
ATOM     68  C   UNL A   1      40.251  26.297  29.061  1.00  0.00     0.012 A 
ATOM     69  C   UNL A   1      41.860  27.749  27.955  1.00  0.00     0.148 A 
ATOM     70  C   UNL A   1      40.331  25.391  28.004  1.00  0.00     0.002 A 
ATOM     71  C   UNL A   1      41.896  26.867  26.883  1.00  0.00     0.091 A 
ATOM     72  F   UNL A   1      42.611  28.860  27.983  1.00  0.00    -0.205 F 
ATOM     73  C   UNL A   1      41.144  25.681  26.911  1.00  0.00     0.022 A 
BRANCH  71  74
ATOM     74  S   UNL A   1      42.850  27.193  25.397  1.00  0.00     0.127 S 
ATOM     75  O   UNL A   1      44.193  27.380  25.944  1.00  0.00    -0.237 OA
ATOM     76  O   UNL A   1      42.668  25.954  24.639  1.00  0.00    -0.237 OA
ATOM     77  O   UNL A   1      42.254  28.372  24.786  1.00  0.00    -0.744 OA
ENDBRANCH  71  74
ENDBRANCH  53  67
BRANCH  54  78
ATOM     78  C   UNL A   1      39.791  33.802  36.684  1.00  0.00     0.023 A 
ATOM     79  C   UNL A   1      40.192  35.150  36.600  1.00  0.00     0.012 A 
ATOM     80  C   UNL A   1      39.186  33.337  37.867  1.00  0.00     0.148 A 
ATOM     81  C   UNL A   1      40.022  36.010  37.685  1.00  0.00     0.002 A 
ATOM     82  C   UNL A   1      38.963  34.215  38.921  1.00  0.00     0.091 A 
ATOM     83  F   UNL A   1      38.825  32.048  37.931  1.00  0.00    -0.205 F 
ATOM     84  C   UNL A   1      39.398  35.547  38.841  1.00  0.00     0.022 A 
BRANCH  82  85
ATOM     85  S   UNL A   1      38.037  33.741  40.385  1.00  0.00     0.127 S 
ATOM     86  O   UNL A   1      38.933  32.767  41.003  1.00  0.00    -0.237 OA
ATOM     87  O   UNL A   1      37.925  35.019  41.088  1.00  0.00    -0.237 OA
ATOM     88  O   UNL A   1      36.768  33.214  39.900  1.00  0.00    -0.744 OA
ENDBRANCH  82  85
ENDBRANCH  54  78
BRANCH  66  89
ATOM     89  C   UNL A   1      44.440  28.781  35.274  1.00  0.00     0.023 A 
ATOM     90  C   UNL A   1      45.711  29.365  35.101  1.00  0.00     0.012 A 
ATOM     91  C   UNL A   1      44.280  27.742  36.213  1.00  0.00     0.148 A 
ATOM     92  C   UNL A   1      46.809  28.898  35.824  1.00  0.00     0.002 A 
ATOM     93  C   UNL A   1      45.366  27.321  36.970  1.00  0.00     0.091 A 
ATOM     94  F   UNL A   1      43.066  27.189  36.353  1.00  0.00    -0.205 F 
ATOM     95  C   UNL A   1      46.634  27.886  36.765  1.00  0.00     0.022 A 
BRANCH  93  96
ATOM     96  S   UNL A   1      45.215  26.096  38.276  1.00  0.00     0.127 S 
ATOM     97  O   UNL A   1      44.511  26.850  39.311  1.00  0.00    -0.237 OA
ATOM     98  O   UNL A   1      44.417  25.054  37.630  1.00  0.00    -0.237 OA
ATOM     99  O   UNL A   1      46.575  25.695  38.612  1.00  0.00    -0.744 OA
ENDBRANCH  93  96
ENDBRANCH  66  89
ENDBRANCH  40  41
ENDBRANCH  33  35
ENDBRANCH  32  33
ENDBRANCH  31  32
ENDBRANCH  30  31
ENDBRANCH  29  30
ENDBRANCH  28  29
ENDBRANCH   1  28
TORSDOF 26
ENDMDL
MODEL 3
REMARK VINA RESULT:      -8.8      6.002     10.744
REMARK SMILES Cn1cnnc1S[C@@H]1CCC[C@]([NH3+])(C(=O)OCCOCCOCCOCCOC(=O)c2ccc(-c3c4nc(c(-c5cccc(S(=O)(=O)[O-])c5F)c5ccc([nH]5)c(-c5cccc(S(=O)(=O)[O-])c5F)c5nc(c(-c6cccc(S(=O)(=O)[O-])c6F)c6ccc3[nH]6)C=C5)C=C4)cc2)C1
REMARK SMILES IDX 23 1 22 2 21 3 20 4 19 5 18 6 17 7 16 8 14 9 15 10 12 11
REMARK SMILES IDX 8 12 9 13 94 14 10 15 11 16 7 17 6 18 1 19 2 20 3 21 4 22
REMARK SMILES IDX 5 23 13 24 24 28 25 29 26 30 27 31 28 32 29 33 30 34 31 35
REMARK SMILES IDX 32 36 93 37 33 38 92 39 34 40 35 41 36 42 86 43 37 44 91 45
REMARK SMILES IDX 85 46 87 47 38 48 90 49 84 50 83 51 39 53 71 54 51 55 70 56
REMARK SMILES IDX 52 57 55 58 69 59 88 60 53 61 54 62 68 64 89 65 56 66 40 67
REMARK SMILES IDX 41 68 49 69 42 70 44 71 50 72 43 73 45 74 46 75 47 76 48 77
REMARK SMILES IDX 72 78 73 79 81 80 74 81 76 82 82 83 75 84 77 85 78 86 79 87
REMARK SMILES IDX 80 88 57 89 58 90 66 91 59 92 61 93 67 94 60 95 62 96 63 97
REMARK SMILES IDX 64 98 65 99
REMARK H PARENT 13 25 13 26 13 27 87 52 55 63
REMARK Flexibility Score: inf
ROOT
ATOM      1  C   UNL A   1      35.149  29.876  27.603  1.00  0.00     0.188 C 
ENDROOT
BRANCH   1   2
ATOM      2  O   UNL A   1      34.426  28.731  27.173  1.00  0.00    -0.377 OA
BRANCH   2   3
ATOM      3  C   UNL A   1      33.620  28.896  26.028  1.00  0.00     0.188 C 
BRANCH   3   4
ATOM      4  C   UNL A   1      33.723  27.797  24.963  1.00  0.00     0.188 C 
BRANCH   4   5
ATOM      5  O   UNL A   1      32.589  27.064  24.525  1.00  0.00    -0.376 OA
BRANCH   5   6
ATOM      6  C   UNL A   1      31.309  27.250  25.106  1.00  0.00     0.202 C 
BRANCH   6   7
ATOM      7  C   UNL A   1      30.674  26.188  26.028  1.00  0.00     0.261 C 
BRANCH   7   8
ATOM      8  O   UNL A   1      31.546  25.272  26.716  1.00  0.00    -0.459 OA
BRANCH   8   9
ATOM      9  C   UNL A   1      31.160  23.977  26.679  1.00  0.00     0.368 C 
ATOM     10  O   UNL A   1      30.154  23.539  27.239  1.00  0.00    -0.245 OA
BRANCH   9  11
ATOM     11  C   UNL A   1      32.131  23.024  25.907  1.00  0.00     0.193 C 
ATOM     12  C   UNL A   1      34.637  23.085  25.267  1.00  0.00     0.061 C 
ATOM     13  C   UNL A   1      34.335  22.602  23.851  1.00  0.00     0.015 C 
ATOM     14  C   UNL A   1      33.508  23.689  26.098  1.00  0.00     0.096 C 
ATOM     15  C   UNL A   1      32.971  21.963  23.713  1.00  0.00     0.008 C 
ATOM     16  C   UNL A   1      31.862  22.743  24.413  1.00  0.00     0.081 C 
BRANCH  12  17
ATOM     17  S   UNL A   1      36.118  24.113  25.235  1.00  0.00    -0.082 SA
BRANCH  17  18
ATOM     18  C   UNL A   1      37.566  23.252  25.642  1.00  0.00     0.191 A 
ATOM     19  C   UNL A   1      37.424  20.802  24.823  1.00  0.00     0.153 C 
ATOM     20  N   UNL A   1      37.960  21.944  25.504  1.00  0.00    -0.312 N 
ATOM     21  C   UNL A   1      39.141  21.841  26.197  1.00  0.00     0.226 A 
ATOM     22  N   UNL A   1      39.472  23.007  26.687  1.00  0.00    -0.138 NA
ATOM     23  N   UNL A   1      38.487  23.890  26.338  1.00  0.00    -0.124 NA
ENDBRANCH  17  18
ENDBRANCH  12  17
BRANCH  11  24
ATOM     24  N   UNL A   1      32.063  21.691  26.585  1.00  0.00    -0.343 N 
ATOM     25  H   UNL A   1      31.713  20.993  25.928  1.00  0.00     0.345 HD
ATOM     26  H   UNL A   1      31.433  21.749  27.385  1.00  0.00     0.345 HD
ATOM     27  H   UNL A   1      32.994  21.423  26.903  1.00  0.00     0.345 HD
ENDBRANCH  11  24
ENDBRANCH   9  11
ENDBRANCH   8   9
ENDBRANCH   7   8
ENDBRANCH   6   7
ENDBRANCH   5   6
ENDBRANCH   4   5
ENDBRANCH   3   4
ENDBRANCH   2   3
ENDBRANCH   1   2
BRANCH   1  28
ATOM     28  C   UNL A   1      34.313  31.089  28.052  1.00  0.00     0.188 C 
BRANCH  28  29
ATOM     29  O   UNL A   1      35.076  32.120  28.669  1.00  0.00    -0.376 OA
BRANCH  29  30
ATOM     30  C   UNL A   1      34.866  32.413  30.043  1.00  0.00     0.202 C 
BRANCH  30  31
ATOM     31  C   UNL A   1      36.088  32.506  30.973  1.00  0.00     0.261 C 
BRANCH  31  32
ATOM     32  O   UNL A   1      36.318  31.397  31.855  1.00  0.00    -0.460 OA
BRANCH  32  33
ATOM     33  C   UNL A   1      36.677  30.216  31.312  1.00  0.00     0.338 C 
ATOM     34  O   UNL A   1      35.939  29.281  31.037  1.00  0.00    -0.246 OA
BRANCH  33  35
ATOM     35  C   UNL A   1      38.089  30.324  30.893  1.00  0.00     0.060 A 
ATOM     36  C   UNL A   1      39.080  30.436  31.879  1.00  0.00     0.016 A 
ATOM     37  C   UNL A   1      38.438  30.306  29.540  1.00  0.00     0.016 A 
ATOM     38  C   UNL A   1      40.417  30.577  31.515  1.00  0.00     0.010 A 
ATOM     39  C   UNL A   1      39.777  30.474  29.176  1.00  0.00     0.010 A 
ATOM     40  C   UNL A   1      40.765  30.651  30.161  1.00  0.00    -0.014 A 
BRANCH  40  41
ATOM     41  C   UNL A   1      42.115  31.129  29.782  1.00  0.00     0.031 A 
ATOM     42  C   UNL A   1      43.127  30.114  29.328  1.00  0.00     0.074 A 
ATOM     43  C   UNL A   1      42.437  32.433  29.827  1.00  0.00     0.049 A 
ATOM     44  N   UNL A   1      44.375  30.283  28.981  1.00  0.00    -0.248 NA
ATOM     45  C   UNL A   1      42.666  28.716  29.260  1.00  0.00     0.031 C 
ATOM     46  C   UNL A   1      41.540  33.515  30.223  1.00  0.00     0.029 A 
ATOM     47  N   UNL A   1      43.626  33.062  29.553  1.00  0.00    -0.354 N 
ATOM     48  C   UNL A   1      44.860  29.014  28.692  1.00  0.00     0.074 A 
ATOM     49  C   UNL A   1      43.776  28.082  28.910  1.00  0.00     0.031 C 
ATOM     50  C   UNL A   1      42.219  34.675  30.195  1.00  0.00     0.029 A 
ATOM     51  C   UNL A   1      43.604  34.413  29.809  1.00  0.00     0.049 A 
ATOM     52  H   UNL A   1      44.420  32.591  29.209  1.00  0.00     0.167 HD
ATOM     53  C   UNL A   1      46.097  28.653  28.274  1.00  0.00     0.034 A 
ATOM     54  C   UNL A   1      44.598  35.323  29.763  1.00  0.00     0.034 A 
ATOM     55  C   UNL A   1      47.170  29.581  28.048  1.00  0.00     0.049 A 
ATOM     56  C   UNL A   1      45.978  34.893  29.339  1.00  0.00     0.074 A 
ATOM     57  C   UNL A   1      48.444  29.322  27.576  1.00  0.00     0.029 A 
ATOM     58  N   UNL A   1      47.106  30.943  28.301  1.00  0.00    -0.354 N 
ATOM     59  N   UNL A   1      46.396  33.707  28.965  1.00  0.00    -0.248 NA
ATOM     60  C   UNL A   1      47.018  35.932  29.303  1.00  0.00     0.031 C 
ATOM     61  C   UNL A   1      49.166  30.520  27.589  1.00  0.00     0.029 A 
ATOM     62  C   UNL A   1      48.325  31.535  28.019  1.00  0.00     0.049 A 
ATOM     63  H   UNL A   1      46.311  31.419  28.632  1.00  0.00     0.167 HD
ATOM     64  C   UNL A   1      47.731  33.867  28.609  1.00  0.00     0.074 A 
ATOM     65  C   UNL A   1      48.049  35.267  28.799  1.00  0.00     0.031 C 
ATOM     66  C   UNL A   1      48.617  32.937  28.169  1.00  0.00     0.034 A 
BRANCH  53  67
ATOM     67  C   UNL A   1      46.355  27.187  28.045  1.00  0.00     0.023 A 
ATOM     68  C   UNL A   1      46.760  26.363  29.115  1.00  0.00     0.012 A 
ATOM     69  C   UNL A   1      46.163  26.621  26.770  1.00  0.00     0.148 A 
ATOM     70  C   UNL A   1      47.007  25.007  28.911  1.00  0.00     0.002 A 
ATOM     71  C   UNL A   1      46.363  25.259  26.586  1.00  0.00     0.091 A 
ATOM     72  F   UNL A   1      45.804  27.426  25.760  1.00  0.00    -0.205 F 
ATOM     73  C   UNL A   1      46.798  24.453  27.651  1.00  0.00     0.022 A 
BRANCH  71  74
ATOM     74  S   UNL A   1      46.042  24.439  25.021  1.00  0.00     0.127 S 
ATOM     75  O   UNL A   1      47.134  24.949  24.193  1.00  0.00    -0.237 OA
ATOM     76  O   UNL A   1      46.162  23.027  25.385  1.00  0.00    -0.237 OA
ATOM     77  O   UNL A   1      44.707  24.851  24.617  1.00  0.00    -0.744 OA
ENDBRANCH  71  74
ENDBRANCH  53  67
BRANCH  54  78
ATOM     78  C   UNL A   1      44.319  36.744  30.114  1.00  0.00     0.023 A 
ATOM     79  C   UNL A   1      44.487  37.183  31.442  1.00  0.00     0.012 A 
ATOM     80  C   UNL A   1      43.904  37.664  29.133  1.00  0.00     0.148 A 
ATOM     81  C   UNL A   1      44.218  38.507  31.792  1.00  0.00     0.002 A 
ATOM     82  C   UNL A   1      43.698  38.995  29.476  1.00  0.00     0.091 A 
ATOM     83  F   UNL A   1      43.736  37.223  27.879  1.00  0.00    -0.205 F 
ATOM     84  C   UNL A   1      43.834  39.415  30.808  1.00  0.00     0.022 A 
BRANCH  82  85
ATOM     85  S   UNL A   1      43.346  40.259  28.250  1.00  0.00     0.127 S 
ATOM     86  O   UNL A   1      44.617  40.343  27.535  1.00  0.00    -0.237 OA
ATOM     87  O   UNL A   1      42.249  39.646  27.502  1.00  0.00    -0.237 OA
ATOM     88  O   UNL A   1      42.964  41.448  29.001  1.00  0.00    -0.744 OA
ENDBRANCH  82  85
ENDBRANCH  54  78
BRANCH  66  89
ATOM     89  C   UNL A   1      50.005  33.402  27.808  1.00  0.00     0.023 A 
ATOM     90  C   UNL A   1      51.038  33.368  28.767  1.00  0.00     0.012 A 
ATOM     91  C   UNL A   1      50.301  33.803  26.489  1.00  0.00     0.148 A 
ATOM     92  C   UNL A   1      52.333  33.760  28.427  1.00  0.00     0.002 A 
ATOM     93  C   UNL A   1      51.604  34.138  26.144  1.00  0.00     0.091 A 
ATOM     94  F   UNL A   1      49.302  33.843  25.595  1.00  0.00    -0.205 F 
ATOM     95  C   UNL A   1      52.618  34.132  27.115  1.00  0.00     0.022 A 
BRANCH  93  96
ATOM     96  S   UNL A   1      52.085  34.531  24.458  1.00  0.00     0.127 S 
ATOM     97  O   UNL A   1      53.522  34.759  24.604  1.00  0.00    -0.237 OA
ATOM     98  O   UNL A   1      51.731  33.305  23.744  1.00  0.00    -0.237 OA
ATOM     99  O   UNL A   1      51.304  35.700  24.078  1.00  0.00    -0.744 OA
ENDBRANCH  93  96
ENDBRANCH  66  89
ENDBRANCH  40  41
ENDBRANCH  33  35
ENDBRANCH  32  33
ENDBRANCH  31  32
ENDBRANCH  30  31
ENDBRANCH  29  30
ENDBRANCH  28  29
ENDBRANCH   1  28
TORSDOF 26
ENDMDL
