MODEL 1
REMARK VINA RESULT:      -7.7      0.000      0.000
REMARK SMILES C[C@@H]1[C@@H](C(=O)OCCOCCOCCOCCOC(=O)c2ccc(-c3c4nc(c(-c5cccc(S(=O)(=O)[O-])c5F)c5ccc([nH]5)c(-c5cccc(S(=O)(=O)[O-])c5F)c5nc(c(-c6cccc(S(=O)(=O)[O-])c6F)c6ccc3[nH]6)C=C5)C=C4)cc2)CCN1C(=O)N(C)CCOCC1CC1
REMARK SMILES IDX 10 1 9 2 8 3 7 4 6 5 4 6 5 7 3 8 1 9 2 10 86 11 84 12 85 13
REMARK SMILES IDX 87 14 88 15 89 16 90 17 91 18 92 19 93 20 94 21 95 22 96 23
REMARK SMILES IDX 97 24 11 25 12 26 13 27 14 28 15 29 16 30 17 31 18 32 19 33
REMARK SMILES IDX 20 34 21 35 22 36 83 37 23 38 82 39 24 40 25 41 26 42 76 43
REMARK SMILES IDX 27 44 81 45 75 46 77 47 28 48 80 49 74 50 73 51 29 53 61 54
REMARK SMILES IDX 41 55 60 56 42 57 45 58 59 59 78 60 43 61 44 62 58 64 79 65
REMARK SMILES IDX 46 66 30 67 31 68 39 69 32 70 34 71 40 72 33 73 35 74 36 75
REMARK SMILES IDX 37 76 38 77 62 78 63 79 71 80 64 81 66 82 72 83 65 84 67 85
REMARK SMILES IDX 68 86 69 87 70 88 47 89 48 90 56 91 49 92 51 93 57 94 50 95
REMARK SMILES IDX 52 96 53 97 54 98 55 99
REMARK H PARENT 77 52 45 63
REMARK Flexibility Score: inf
ROOT
ATOM      1  C   UNL A   1      39.954  24.077  27.684  1.00  0.00     0.188 C 
ENDROOT
BRANCH   1   2
ATOM      2  O   UNL A   1      39.302  23.183  26.804  1.00  0.00    -0.376 OA
BRANCH   2   3
ATOM      3  C   UNL A   1      38.140  23.552  26.075  1.00  0.00     0.202 C 
BRANCH   3   4
ATOM      4  C   UNL A   1      37.321  22.574  25.204  1.00  0.00     0.261 C 
BRANCH   4   5
ATOM      5  O   UNL A   1      35.908  22.742  25.196  1.00  0.00    -0.463 OA
BRANCH   5   6
ATOM      6  C   UNL A   1      35.361  22.839  23.967  1.00  0.00     0.311 C 
ATOM      7  O   UNL A   1      35.942  23.319  23.003  1.00  0.00    -0.252 OA
BRANCH   6   8
ATOM      8  C   UNL A   1      34.025  22.114  23.931  1.00  0.00     0.123 C 
ATOM      9  C   UNL A   1      31.784  22.301  22.761  1.00  0.00     0.032 C 
ATOM     10  C   UNL A   1      32.974  23.072  23.348  1.00  0.00     0.098 C 
ATOM     11  N   UNL A   1      32.626  23.882  24.515  1.00  0.00    -0.321 N 
ATOM     12  C   UNL A   1      33.499  21.796  25.312  1.00  0.00     0.039 C 
ATOM     13  C   UNL A   1      32.942  23.134  25.746  1.00  0.00     0.122 C 
BRANCH  11  14
ATOM     14  C   UNL A   1      32.784  25.261  24.607  1.00  0.00     0.320 C 
ATOM     15  O   UNL A   1      33.081  25.773  25.693  1.00  0.00    -0.248 OA
BRANCH  14  16
ATOM     16  N   UNL A   1      32.317  26.066  23.582  1.00  0.00    -0.325 N 
ATOM     17  C   UNL A   1      33.075  26.891  22.659  1.00  0.00     0.148 C 
BRANCH  16  18
ATOM     18  C   UNL A   1      30.853  26.196  23.502  1.00  0.00     0.149 C 
BRANCH  18  19
ATOM     19  C   UNL A   1      30.334  27.443  22.743  1.00  0.00     0.181 C 
BRANCH  19  20
ATOM     20  O   UNL A   1      30.196  28.689  23.426  1.00  0.00    -0.379 OA
BRANCH  20  21
ATOM     21  C   UNL A   1      29.846  29.842  22.671  1.00  0.00     0.163 C 
BRANCH  21  22
ATOM     22  C   UNL A   1      29.150  30.913  23.455  1.00  0.00     0.015 C 
ATOM     23  C   UNL A   1      28.362  32.058  22.863  1.00  0.00     0.006 C 
ATOM     24  C   UNL A   1      27.634  30.917  23.496  1.00  0.00     0.006 C 
ENDBRANCH  21  22
ENDBRANCH  20  21
ENDBRANCH  19  20
ENDBRANCH  18  19
ENDBRANCH  16  18
ENDBRANCH  14  16
ENDBRANCH  11  14
ENDBRANCH   6   8
ENDBRANCH   5   6
ENDBRANCH   4   5
ENDBRANCH   3   4
ENDBRANCH   2   3
ENDBRANCH   1   2
BRANCH   1  25
ATOM     25  C   UNL A   1      40.014  25.524  27.165  1.00  0.00     0.188 C 
BRANCH  25  26
ATOM     26  O   UNL A   1      41.114  25.803  26.324  1.00  0.00    -0.377 OA
BRANCH  26  27
ATOM     27  C   UNL A   1      42.291  25.004  26.455  1.00  0.00     0.188 C 
BRANCH  27  28
ATOM     28  C   UNL A   1      42.709  23.954  25.389  1.00  0.00     0.188 C 
BRANCH  28  29
ATOM     29  O   UNL A   1      43.348  22.790  25.892  1.00  0.00    -0.376 OA
BRANCH  29  30
ATOM     30  C   UNL A   1      44.365  22.185  25.113  1.00  0.00     0.202 C 
BRANCH  30  31
ATOM     31  C   UNL A   1      45.751  22.020  25.754  1.00  0.00     0.261 C 
BRANCH  31  32
ATOM     32  O   UNL A   1      46.397  23.225  26.185  1.00  0.00    -0.460 OA
BRANCH  32  33
ATOM     33  C   UNL A   1      46.506  24.229  25.288  1.00  0.00     0.338 C 
ATOM     34  O   UNL A   1      46.748  24.120  24.095  1.00  0.00    -0.246 OA
BRANCH  33  35
ATOM     35  C   UNL A   1      46.065  25.475  25.947  1.00  0.00     0.060 A 
ATOM     36  C   UNL A   1      45.454  26.474  25.174  1.00  0.00     0.016 A 
ATOM     37  C   UNL A   1      46.232  25.647  27.322  1.00  0.00     0.016 A 
ATOM     38  C   UNL A   1      45.049  27.667  25.768  1.00  0.00     0.010 A 
ATOM     39  C   UNL A   1      45.850  26.855  27.910  1.00  0.00     0.010 A 
ATOM     40  C   UNL A   1      45.296  27.885  27.129  1.00  0.00    -0.014 A 
BRANCH  40  41
ATOM     41  C   UNL A   1      45.187  29.256  27.680  1.00  0.00     0.031 A 
ATOM     42  C   UNL A   1      43.954  29.602  28.471  1.00  0.00     0.074 A 
ATOM     43  C   UNL A   1      46.154  30.171  27.494  1.00  0.00     0.049 A 
ATOM     44  N   UNL A   1      43.607  30.740  29.012  1.00  0.00    -0.248 NA
ATOM     45  C   UNL A   1      42.978  28.517  28.675  1.00  0.00     0.031 C 
ATOM     46  C   UNL A   1      47.401  29.949  26.765  1.00  0.00     0.029 A 
ATOM     47  N   UNL A   1      46.219  31.484  27.889  1.00  0.00    -0.354 N 
ATOM     48  C   UNL A   1      42.363  30.518  29.590  1.00  0.00     0.074 A 
ATOM     49  C   UNL A   1      42.009  29.142  29.325  1.00  0.00     0.031 C 
ATOM     50  C   UNL A   1      48.096  31.100  26.736  1.00  0.00     0.029 A 
ATOM     51  C   UNL A   1      47.330  32.143  27.416  1.00  0.00     0.049 A 
ATOM     52  H   UNL A   1      45.537  31.912  28.454  1.00  0.00     0.167 HD
ATOM     53  C   UNL A   1      41.587  31.381  30.288  1.00  0.00     0.034 A 
ATOM     54  C   UNL A   1      47.669  33.445  27.500  1.00  0.00     0.034 A 
ATOM     55  C   UNL A   1      41.946  32.745  30.557  1.00  0.00     0.049 A 
ATOM     56  C   UNL A   1      46.768  34.396  28.247  1.00  0.00     0.074 A 
ATOM     57  C   UNL A   1      41.247  33.687  31.290  1.00  0.00     0.029 A 
ATOM     58  N   UNL A   1      43.091  33.369  30.089  1.00  0.00    -0.354 N 
ATOM     59  N   UNL A   1      45.645  34.149  28.878  1.00  0.00    -0.248 NA
ATOM     60  C   UNL A   1      47.198  35.801  28.322  1.00  0.00     0.031 C 
ATOM     61  C   UNL A   1      41.950  34.894  31.230  1.00  0.00     0.029 A 
ATOM     62  C   UNL A   1      43.112  34.691  30.502  1.00  0.00     0.049 A 
ATOM     63  H   UNL A   1      43.787  32.938  29.543  1.00  0.00     0.167 HD
ATOM     64  C   UNL A   1      45.258  35.355  29.458  1.00  0.00     0.074 A 
ATOM     65  C   UNL A   1      46.276  36.326  29.117  1.00  0.00     0.031 C 
ATOM     66  C   UNL A   1      44.157  35.635  30.199  1.00  0.00     0.034 A 
BRANCH  53  67
ATOM     67  C   UNL A   1      40.272  30.869  30.811  1.00  0.00     0.023 A 
ATOM     68  C   UNL A   1      40.238  30.067  31.970  1.00  0.00     0.012 A 
ATOM     69  C   UNL A   1      39.064  31.224  30.180  1.00  0.00     0.148 A 
ATOM     70  C   UNL A   1      39.025  29.599  32.474  1.00  0.00     0.002 A 
ATOM     71  C   UNL A   1      37.856  30.795  30.716  1.00  0.00     0.091 A 
ATOM     72  F   UNL A   1      39.119  31.967  29.065  1.00  0.00    -0.205 F 
ATOM     73  C   UNL A   1      37.835  29.972  31.854  1.00  0.00     0.022 A 
BRANCH  71  74
ATOM     74  S   UNL A   1      36.267  31.287  30.040  1.00  0.00     0.127 S 
ATOM     75  O   UNL A   1      35.447  31.374  31.249  1.00  0.00    -0.237 OA
ATOM     76  O   UNL A   1      36.584  32.577  29.424  1.00  0.00    -0.237 OA
ATOM     77  O   UNL A   1      35.884  30.242  29.103  1.00  0.00    -0.744 OA
ENDBRANCH  71  74
ENDBRANCH  53  67
BRANCH  54  78
ATOM     78  C   UNL A   1      48.929  33.933  26.870  1.00  0.00     0.023 A 
ATOM     79  C   UNL A   1      48.882  34.576  25.618  1.00  0.00     0.012 A 
ATOM     80  C   UNL A   1      50.174  33.759  27.506  1.00  0.00     0.148 A 
ATOM     81  C   UNL A   1      50.056  35.002  24.994  1.00  0.00     0.002 A 
ATOM     82  C   UNL A   1      51.332  34.238  26.906  1.00  0.00     0.091 A 
ATOM     83  F   UNL A   1      50.199  33.131  28.690  1.00  0.00    -0.205 F 
ATOM     84  C   UNL A   1      51.278  34.842  25.641  1.00  0.00     0.022 A 
BRANCH  82  85
ATOM     85  S   UNL A   1      52.932  34.185  27.718  1.00  0.00     0.127 S 
ATOM     86  O   UNL A   1      53.814  34.705  26.677  1.00  0.00    -0.237 OA
ATOM     87  O   UNL A   1      52.720  35.082  28.853  1.00  0.00    -0.237 OA
ATOM     88  O   UNL A   1      53.144  32.791  28.084  1.00  0.00    -0.744 OA
ENDBRANCH  82  85
ENDBRANCH  54  78
BRANCH  66  89
ATOM     89  C   UNL A   1      44.010  37.033  30.745  1.00  0.00     0.023 A 
ATOM     90  C   UNL A   1      44.491  37.346  32.032  1.00  0.00     0.012 A 
ATOM     91  C   UNL A   1      43.460  38.055  29.945  1.00  0.00     0.148 A 
ATOM     92  C   UNL A   1      44.391  38.646  32.528  1.00  0.00     0.002 A 
ATOM     93  C   UNL A   1      43.415  39.358  30.425  1.00  0.00     0.091 A 
ATOM     94  F   UNL A   1      42.996  37.735  28.729  1.00  0.00    -0.205 F 
ATOM     95  C   UNL A   1      43.867  39.653  31.721  1.00  0.00     0.022 A 
BRANCH  93  96
ATOM     96  S   UNL A   1      42.851  40.737  29.421  1.00  0.00     0.127 S 
ATOM     97  O   UNL A   1      41.832  41.335  30.284  1.00  0.00    -0.237 OA
ATOM     98  O   UNL A   1      44.070  41.532  29.274  1.00  0.00    -0.237 OA
ATOM     99  O   UNL A   1      42.353  40.157  28.181  1.00  0.00    -0.744 OA
ENDBRANCH  93  96
ENDBRANCH  66  89
ENDBRANCH  40  41
ENDBRANCH  33  35
ENDBRANCH  32  33
ENDBRANCH  31  32
ENDBRANCH  30  31
ENDBRANCH  29  30
ENDBRANCH  28  29
ENDBRANCH  27  28
ENDBRANCH  26  27
ENDBRANCH  25  26
ENDBRANCH   1  25
TORSDOF 30
ENDMDL
MODEL 2
REMARK VINA RESULT:      -7.3      2.539      7.629
REMARK SMILES C[C@@H]1[C@@H](C(=O)OCCOCCOCCOCCOC(=O)c2ccc(-c3c4nc(c(-c5cccc(S(=O)(=O)[O-])c5F)c5ccc([nH]5)c(-c5cccc(S(=O)(=O)[O-])c5F)c5nc(c(-c6cccc(S(=O)(=O)[O-])c6F)c6ccc3[nH]6)C=C5)C=C4)cc2)CCN1C(=O)N(C)CCOCC1CC1
REMARK SMILES IDX 10 1 9 2 8 3 7 4 6 5 4 6 5 7 3 8 1 9 2 10 86 11 84 12 85 13
REMARK SMILES IDX 87 14 88 15 89 16 90 17 91 18 92 19 93 20 94 21 95 22 96 23
REMARK SMILES IDX 97 24 11 25 12 26 13 27 14 28 15 29 16 30 17 31 18 32 19 33
REMARK SMILES IDX 20 34 21 35 22 36 83 37 23 38 82 39 24 40 25 41 26 42 76 43
REMARK SMILES IDX 27 44 81 45 75 46 77 47 28 48 80 49 74 50 73 51 29 53 61 54
REMARK SMILES IDX 41 55 60 56 42 57 45 58 59 59 78 60 43 61 44 62 58 64 79 65
REMARK SMILES IDX 46 66 30 67 31 68 39 69 32 70 34 71 40 72 33 73 35 74 36 75
REMARK SMILES IDX 37 76 38 77 62 78 63 79 71 80 64 81 66 82 72 83 65 84 67 85
REMARK SMILES IDX 68 86 69 87 70 88 47 89 48 90 56 91 49 92 51 93 57 94 50 95
REMARK SMILES IDX 52 96 53 97 54 98 55 99
REMARK H PARENT 77 52 45 63
REMARK Flexibility Score: inf
ROOT
ATOM      1  C   UNL A   1      39.694  25.222  27.028  1.00  0.00     0.188 C 
ENDROOT
BRANCH   1   2
ATOM      2  O   UNL A   1      38.856  24.092  26.885  1.00  0.00    -0.376 OA
BRANCH   2   3
ATOM      3  C   UNL A   1      37.774  24.065  25.967  1.00  0.00     0.202 C 
BRANCH   3   4
ATOM      4  C   UNL A   1      36.576  23.097  26.074  1.00  0.00     0.261 C 
BRANCH   4   5
ATOM      5  O   UNL A   1      35.697  23.027  24.956  1.00  0.00    -0.463 OA
BRANCH   5   6
ATOM      6  C   UNL A   1      34.806  24.037  24.879  1.00  0.00     0.311 C 
ATOM      7  O   UNL A   1      34.389  24.648  25.854  1.00  0.00    -0.252 OA
BRANCH   6   8
ATOM      8  C   UNL A   1      34.554  24.401  23.424  1.00  0.00     0.123 C 
ATOM      9  C   UNL A   1      33.472  26.260  22.083  1.00  0.00     0.032 C 
ATOM     10  C   UNL A   1      33.421  25.438  23.378  1.00  0.00     0.098 C 
ATOM     11  N   UNL A   1      32.233  24.592  23.485  1.00  0.00    -0.321 N 
ATOM     12  C   UNL A   1      34.014  23.240  22.620  1.00  0.00     0.039 C 
ATOM     13  C   UNL A   1      32.560  23.225  23.035  1.00  0.00     0.122 C 
BRANCH  11  14
ATOM     14  C   UNL A   1      31.288  24.665  24.503  1.00  0.00     0.320 C 
ATOM     15  O   UNL A   1      30.693  23.643  24.863  1.00  0.00    -0.248 OA
BRANCH  14  16
ATOM     16  N   UNL A   1      30.802  25.904  24.887  1.00  0.00    -0.325 N 
ATOM     17  C   UNL A   1      30.947  26.579  26.164  1.00  0.00     0.148 C 
BRANCH  16  18
ATOM     18  C   UNL A   1      29.918  26.563  23.912  1.00  0.00     0.149 C 
BRANCH  18  19
ATOM     19  C   UNL A   1      30.442  27.903  23.336  1.00  0.00     0.181 C 
BRANCH  19  20
ATOM     20  O   UNL A   1      29.825  28.473  22.182  1.00  0.00    -0.379 OA
BRANCH  20  21
ATOM     21  C   UNL A   1      29.751  29.890  22.082  1.00  0.00     0.163 C 
BRANCH  21  22
ATOM     22  C   UNL A   1      28.991  30.555  23.189  1.00  0.00     0.015 C 
ATOM     23  C   UNL A   1      28.000  31.682  23.014  1.00  0.00     0.006 C 
ATOM     24  C   UNL A   1      27.499  30.304  23.300  1.00  0.00     0.006 C 
ENDBRANCH  21  22
ENDBRANCH  20  21
ENDBRANCH  19  20
ENDBRANCH  18  19
ENDBRANCH  16  18
ENDBRANCH  14  16
ENDBRANCH  11  14
ENDBRANCH   6   8
ENDBRANCH   5   6
ENDBRANCH   4   5
ENDBRANCH   3   4
ENDBRANCH   2   3
ENDBRANCH   1   2
BRANCH   1  25
ATOM     25  C   UNL A   1      40.610  25.473  25.817  1.00  0.00     0.188 C 
BRANCH  25  26
ATOM     26  O   UNL A   1      41.938  25.821  26.147  1.00  0.00    -0.377 OA
BRANCH  26  27
ATOM     27  C   UNL A   1      42.945  25.696  25.141  1.00  0.00     0.188 C 
BRANCH  27  28
ATOM     28  C   UNL A   1      43.647  24.347  24.826  1.00  0.00     0.188 C 
BRANCH  28  29
ATOM     29  O   UNL A   1      44.414  23.792  25.885  1.00  0.00    -0.376 OA
BRANCH  29  30
ATOM     30  C   UNL A   1      43.767  22.954  26.824  1.00  0.00     0.202 C 
BRANCH  30  31
ATOM     31  C   UNL A   1      43.600  23.482  28.257  1.00  0.00     0.261 C 
BRANCH  31  32
ATOM     32  O   UNL A   1      44.735  24.154  28.820  1.00  0.00    -0.460 OA
BRANCH  32  33
ATOM     33  C   UNL A   1      44.543  24.851  29.960  1.00  0.00     0.338 C 
ATOM     34  O   UNL A   1      44.312  24.391  31.069  1.00  0.00    -0.246 OA
BRANCH  33  35
ATOM     35  C   UNL A   1      44.877  26.264  29.688  1.00  0.00     0.060 A 
ATOM     36  C   UNL A   1      45.417  27.047  30.720  1.00  0.00     0.016 A 
ATOM     37  C   UNL A   1      44.681  26.807  28.417  1.00  0.00     0.016 A 
ATOM     38  C   UNL A   1      45.719  28.388  30.494  1.00  0.00     0.010 A 
ATOM     39  C   UNL A   1      44.959  28.158  28.201  1.00  0.00     0.010 A 
ATOM     40  C   UNL A   1      45.440  28.963  29.249  1.00  0.00    -0.014 A 
BRANCH  40  41
ATOM     41  C   UNL A   1      45.435  30.439  29.112  1.00  0.00     0.031 A 
ATOM     42  C   UNL A   1      46.710  31.112  28.680  1.00  0.00     0.074 A 
ATOM     43  C   UNL A   1      44.331  31.167  29.354  1.00  0.00     0.049 A 
ATOM     44  N   UNL A   1      46.968  32.384  28.534  1.00  0.00    -0.248 NA
ATOM     45  C   UNL A   1      47.849  30.227  28.377  1.00  0.00     0.031 C 
ATOM     46  C   UNL A   1      43.034  30.628  29.759  1.00  0.00     0.029 A 
ATOM     47  N   UNL A   1      44.140  32.525  29.318  1.00  0.00    -0.354 N 
ATOM     48  C   UNL A   1      48.303  32.456  28.155  1.00  0.00     0.074 A 
ATOM     49  C   UNL A   1      48.806  31.101  28.104  1.00  0.00     0.031 C 
ATOM     50  C   UNL A   1      42.186  31.652  29.965  1.00  0.00     0.029 A 
ATOM     51  C   UNL A   1      42.889  32.914  29.738  1.00  0.00     0.049 A 
ATOM     52  H   UNL A   1      44.831  33.160  29.021  1.00  0.00     0.167 HD
ATOM     53  C   UNL A   1      49.044  33.551  27.865  1.00  0.00     0.034 A 
ATOM     54  C   UNL A   1      42.385  34.147  29.943  1.00  0.00     0.034 A 
ATOM     55  C   UNL A   1      48.540  34.895  27.907  1.00  0.00     0.049 A 
ATOM     56  C   UNL A   1      43.243  35.353  29.653  1.00  0.00     0.074 A 
ATOM     57  C   UNL A   1      49.199  36.069  27.591  1.00  0.00     0.029 A 
ATOM     58  N   UNL A   1      47.261  35.248  28.307  1.00  0.00    -0.354 N 
ATOM     59  N   UNL A   1      44.471  35.404  29.195  1.00  0.00    -0.248 NA
ATOM     60  C   UNL A   1      42.634  36.673  29.878  1.00  0.00     0.031 C 
ATOM     61  C   UNL A   1      48.331  37.137  27.840  1.00  0.00     0.029 A 
ATOM     62  C   UNL A   1      47.115  36.624  28.264  1.00  0.00     0.049 A 
ATOM     63  H   UNL A   1      46.560  34.615  28.582  1.00  0.00     0.167 HD
ATOM     64  C   UNL A   1      44.766  36.756  29.037  1.00  0.00     0.074 A 
ATOM     65  C   UNL A   1      43.581  37.489  29.432  1.00  0.00     0.031 C 
ATOM     66  C   UNL A   1      45.914  37.339  28.612  1.00  0.00     0.034 A 
BRANCH  53  67
ATOM     67  C   UNL A   1      50.482  33.338  27.473  1.00  0.00     0.023 A 
ATOM     68  C   UNL A   1      51.462  33.144  28.467  1.00  0.00     0.012 A 
ATOM     69  C   UNL A   1      50.853  33.281  26.116  1.00  0.00     0.148 A 
ATOM     70  C   UNL A   1      52.795  32.930  28.118  1.00  0.00     0.002 A 
ATOM     71  C   UNL A   1      52.175  33.019  25.775  1.00  0.00     0.091 A 
ATOM     72  F   UNL A   1      49.911  33.493  25.186  1.00  0.00    -0.205 F 
ATOM     73  C   UNL A   1      53.149  32.857  26.773  1.00  0.00     0.022 A 
BRANCH  71  74
ATOM     74  S   UNL A   1      52.715  32.824  24.073  1.00  0.00     0.127 S 
ATOM     75  O   UNL A   1      52.383  34.132  23.507  1.00  0.00    -0.237 OA
ATOM     76  O   UNL A   1      54.148  32.575  24.234  1.00  0.00    -0.237 OA
ATOM     77  O   UNL A   1      51.958  31.703  23.535  1.00  0.00    -0.744 OA
ENDBRANCH  71  74
ENDBRANCH  53  67
BRANCH  54  78
ATOM     78  C   UNL A   1      40.989  34.313  30.439  1.00  0.00     0.023 A 
ATOM     79  C   UNL A   1      39.946  34.557  29.524  1.00  0.00     0.012 A 
ATOM     80  C   UNL A   1      40.692  34.234  31.814  1.00  0.00     0.148 A 
ATOM     81  C   UNL A   1      38.639  34.756  29.973  1.00  0.00     0.002 A 
ATOM     82  C   UNL A   1      39.379  34.375  32.248  1.00  0.00     0.091 A 
ATOM     83  F   UNL A   1      41.701  34.016  32.669  1.00  0.00    -0.205 F 
ATOM     84  C   UNL A   1      38.355  34.657  31.332  1.00  0.00     0.022 A 
BRANCH  82  85
ATOM     85  S   UNL A   1      38.901  34.143  33.963  1.00  0.00     0.127 S 
ATOM     86  O   UNL A   1      39.341  32.773  34.214  1.00  0.00    -0.237 OA
ATOM     87  O   UNL A   1      39.688  35.177  34.635  1.00  0.00    -0.237 OA
ATOM     88  O   UNL A   1      37.461  34.360  34.005  1.00  0.00    -0.744 OA
ENDBRANCH  82  85
ENDBRANCH  54  78
BRANCH  66  89
ATOM     89  C   UNL A   1      45.940  38.842  28.493  1.00  0.00     0.023 A 
ATOM     90  C   UNL A   1      46.467  39.628  29.537  1.00  0.00     0.012 A 
ATOM     91  C   UNL A   1      45.509  39.470  27.307  1.00  0.00     0.148 A 
ATOM     92  C   UNL A   1      46.528  41.016  29.418  1.00  0.00     0.002 A 
ATOM     93  C   UNL A   1      45.624  40.848  27.174  1.00  0.00     0.091 A 
ATOM     94  F   UNL A   1      44.998  38.707  26.330  1.00  0.00    -0.205 F 
ATOM     95  C   UNL A   1      46.119  41.624  28.233  1.00  0.00     0.022 A 
BRANCH  93  96
ATOM     96  S   UNL A   1      45.218  41.708  25.649  1.00  0.00     0.127 S 
ATOM     97  O   UNL A   1      44.111  40.900  25.138  1.00  0.00    -0.237 OA
ATOM     98  O   UNL A   1      44.834  43.033  26.134  1.00  0.00    -0.237 OA
ATOM     99  O   UNL A   1      46.429  41.687  24.839  1.00  0.00    -0.744 OA
ENDBRANCH  93  96
ENDBRANCH  66  89
ENDBRANCH  40  41
ENDBRANCH  33  35
ENDBRANCH  32  33
ENDBRANCH  31  32
ENDBRANCH  30  31
ENDBRANCH  29  30
ENDBRANCH  28  29
ENDBRANCH  27  28
ENDBRANCH  26  27
ENDBRANCH  25  26
ENDBRANCH   1  25
TORSDOF 30
ENDMDL
MODEL 3
REMARK VINA RESULT:      -7.0      2.742      8.090
REMARK SMILES C[C@@H]1[C@@H](C(=O)OCCOCCOCCOCCOC(=O)c2ccc(-c3c4nc(c(-c5cccc(S(=O)(=O)[O-])c5F)c5ccc([nH]5)c(-c5cccc(S(=O)(=O)[O-])c5F)c5nc(c(-c6cccc(S(=O)(=O)[O-])c6F)c6ccc3[nH]6)C=C5)C=C4)cc2)CCN1C(=O)N(C)CCOCC1CC1
REMARK SMILES IDX 10 1 9 2 8 3 7 4 6 5 4 6 5 7 3 8 1 9 2 10 86 11 84 12 85 13
REMARK SMILES IDX 87 14 88 15 89 16 90 17 91 18 92 19 93 20 94 21 95 22 96 23
REMARK SMILES IDX 97 24 11 25 12 26 13 27 14 28 15 29 16 30 17 31 18 32 19 33
REMARK SMILES IDX 20 34 21 35 22 36 83 37 23 38 82 39 24 40 25 41 26 42 76 43
REMARK SMILES IDX 27 44 81 45 75 46 77 47 28 48 80 49 74 50 73 51 29 53 61 54
REMARK SMILES IDX 41 55 60 56 42 57 45 58 59 59 78 60 43 61 44 62 58 64 79 65
REMARK SMILES IDX 46 66 30 67 31 68 39 69 32 70 34 71 40 72 33 73 35 74 36 75
REMARK SMILES IDX 37 76 38 77 62 78 63 79 71 80 64 81 66 82 72 83 65 84 67 85
REMARK SMILES IDX 68 86 69 87 70 88 47 89 48 90 56 91 49 92 51 93 57 94 50 95
REMARK SMILES IDX 52 96 53 97 54 98 55 99
REMARK H PARENT 77 52 45 63
REMARK Flexibility Score: inf
ROOT
ATOM      1  C   UNL A   1      38.763  23.905  27.148  1.00  0.00     0.188 C 
ENDROOT
BRANCH   1   2
ATOM      2  O   UNL A   1      38.500  22.792  26.317  1.00  0.00    -0.376 OA
BRANCH   2   3
ATOM      3  C   UNL A   1      37.451  22.794  25.360  1.00  0.00     0.202 C 
BRANCH   3   4
ATOM      4  C   UNL A   1      36.132  23.581  25.528  1.00  0.00     0.261 C 
BRANCH   4   5
ATOM      5  O   UNL A   1      35.057  23.234  24.662  1.00  0.00    -0.463 OA
BRANCH   5   6
ATOM      6  C   UNL A   1      33.951  23.993  24.809  1.00  0.00     0.311 C 
ATOM      7  O   UNL A   1      33.007  23.685  25.524  1.00  0.00    -0.252 OA
BRANCH   6   8
ATOM      8  C   UNL A   1      34.141  25.332  24.114  1.00  0.00     0.123 C 
ATOM      9  C   UNL A   1      33.263  27.705  24.270  1.00  0.00     0.032 C 
ATOM     10  C   UNL A   1      32.926  26.216  24.433  1.00  0.00     0.098 C 
ATOM     11  N   UNL A   1      31.939  25.733  23.468  1.00  0.00    -0.321 N 
ATOM     12  C   UNL A   1      34.116  25.213  22.606  1.00  0.00     0.039 C 
ATOM     13  C   UNL A   1      32.633  25.100  22.330  1.00  0.00     0.122 C 
BRANCH  11  14
ATOM     14  C   UNL A   1      30.711  25.169  23.795  1.00  0.00     0.320 C 
ATOM     15  O   UNL A   1      30.277  24.217  23.137  1.00  0.00    -0.248 OA
BRANCH  14  16
ATOM     16  N   UNL A   1      29.854  25.856  24.639  1.00  0.00    -0.325 N 
ATOM     17  C   UNL A   1      29.666  25.695  26.069  1.00  0.00     0.148 C 
BRANCH  16  18
ATOM     18  C   UNL A   1      28.925  26.784  23.972  1.00  0.00     0.149 C 
BRANCH  18  19
ATOM     19  C   UNL A   1      29.582  27.820  23.025  1.00  0.00     0.181 C 
BRANCH  19  20
ATOM     20  O   UNL A   1      28.788  28.841  22.423  1.00  0.00    -0.379 OA
BRANCH  20  21
ATOM     21  C   UNL A   1      29.437  30.012  21.943  1.00  0.00     0.163 C 
BRANCH  21  22
ATOM     22  C   UNL A   1      28.840  31.299  22.426  1.00  0.00     0.015 C 
ATOM     23  C   UNL A   1      27.607  31.420  23.292  1.00  0.00     0.006 C 
ATOM     24  C   UNL A   1      28.953  31.646  23.898  1.00  0.00     0.006 C 
ENDBRANCH  21  22
ENDBRANCH  20  21
ENDBRANCH  19  20
ENDBRANCH  18  19
ENDBRANCH  16  18
ENDBRANCH  14  16
ENDBRANCH  11  14
ENDBRANCH   6   8
ENDBRANCH   5   6
ENDBRANCH   4   5
ENDBRANCH   3   4
ENDBRANCH   2   3
ENDBRANCH   1   2
BRANCH   1  25
ATOM     25  C   UNL A   1      39.704  24.945  26.515  1.00  0.00     0.188 C 
BRANCH  25  26
ATOM     26  O   UNL A   1      40.397  25.754  27.443  1.00  0.00    -0.377 OA
BRANCH  26  27
ATOM     27  C   UNL A   1      40.908  27.012  27.001  1.00  0.00     0.188 C 
BRANCH  27  28
ATOM     28  C   UNL A   1      42.205  27.637  27.584  1.00  0.00     0.188 C 
BRANCH  28  29
ATOM     29  O   UNL A   1      42.635  27.109  28.831  1.00  0.00    -0.376 OA
BRANCH  29  30
ATOM     30  C   UNL A   1      43.362  25.894  28.838  1.00  0.00     0.202 C 
BRANCH  30  31
ATOM     31  C   UNL A   1      44.686  25.860  29.615  1.00  0.00     0.261 C 
BRANCH  31  32
ATOM     32  O   UNL A   1      45.858  25.531  28.856  1.00  0.00    -0.460 OA
BRANCH  32  33
ATOM     33  C   UNL A   1      47.033  26.052  29.267  1.00  0.00     0.338 C 
ATOM     34  O   UNL A   1      48.002  25.433  29.682  1.00  0.00    -0.246 OA
BRANCH  33  35
ATOM     35  C   UNL A   1      47.037  27.489  28.924  1.00  0.00     0.060 A 
ATOM     36  C   UNL A   1      47.414  28.422  29.901  1.00  0.00     0.016 A 
ATOM     37  C   UNL A   1      46.692  27.910  27.638  1.00  0.00     0.016 A 
ATOM     38  C   UNL A   1      47.403  29.784  29.607  1.00  0.00     0.010 A 
ATOM     39  C   UNL A   1      46.656  29.277  27.355  1.00  0.00     0.010 A 
ATOM     40  C   UNL A   1      46.971  30.220  28.350  1.00  0.00    -0.014 A 
BRANCH  40  41
ATOM     41  C   UNL A   1      46.633  31.649  28.150  1.00  0.00     0.031 A 
ATOM     42  C   UNL A   1      47.681  32.545  27.545  1.00  0.00     0.074 A 
ATOM     43  C   UNL A   1      45.429  32.144  28.487  1.00  0.00     0.049 A 
ATOM     44  N   UNL A   1      47.642  33.830  27.315  1.00  0.00    -0.248 NA
ATOM     45  C   UNL A   1      48.947  31.900  27.151  1.00  0.00     0.031 C 
ATOM     46  C   UNL A   1      44.328  31.374  29.061  1.00  0.00     0.029 A 
ATOM     47  N   UNL A   1      44.946  33.426  28.414  1.00  0.00    -0.354 N 
ATOM     48  C   UNL A   1      48.883  34.155  26.782  1.00  0.00     0.074 A 
ATOM     49  C   UNL A   1      49.658  32.935  26.732  1.00  0.00     0.031 C 
ATOM     50  C   UNL A   1      43.305  32.208  29.320  1.00  0.00     0.029 A 
ATOM     51  C   UNL A   1      43.692  33.571  28.959  1.00  0.00     0.049 A 
ATOM     52  H   UNL A   1      45.450  34.171  28.012  1.00  0.00     0.167 HD
ATOM     53  C   UNL A   1      49.336  35.359  26.360  1.00  0.00     0.034 A 
ATOM     54  C   UNL A   1      42.957  34.682  29.167  1.00  0.00     0.034 A 
ATOM     55  C   UNL A   1      48.560  36.567  26.403  1.00  0.00     0.049 A 
ATOM     56  C   UNL A   1      43.500  36.019  28.727  1.00  0.00     0.074 A 
ATOM     57  C   UNL A   1      48.914  37.830  25.961  1.00  0.00     0.029 A 
ATOM     58  N   UNL A   1      47.284  36.670  26.932  1.00  0.00    -0.354 N 
ATOM     59  N   UNL A   1      44.633  36.296  28.128  1.00  0.00    -0.248 NA
ATOM     60  C   UNL A   1      42.646  37.194  28.963  1.00  0.00     0.031 C 
ATOM     61  C   UNL A   1      47.866  38.705  26.263  1.00  0.00     0.029 A 
ATOM     62  C   UNL A   1      46.840  37.979  26.846  1.00  0.00     0.049 A 
ATOM     63  H   UNL A   1      46.768  35.924  27.313  1.00  0.00     0.167 HD
ATOM     64  C   UNL A   1      44.611  37.666  27.879  1.00  0.00     0.074 A 
ATOM     65  C   UNL A   1      43.343  38.158  28.376  1.00  0.00     0.031 C 
ATOM     66  C   UNL A   1      45.555  38.447  27.299  1.00  0.00     0.034 A 
BRANCH  53  67
ATOM     67  C   UNL A   1      50.737  35.426  25.815  1.00  0.00     0.023 A 
ATOM     68  C   UNL A   1      50.961  35.298  24.430  1.00  0.00     0.012 A 
ATOM     69  C   UNL A   1      51.828  35.665  26.673  1.00  0.00     0.148 A 
ATOM     70  C   UNL A   1      52.253  35.373  23.909  1.00  0.00     0.002 A 
ATOM     71  C   UNL A   1      53.107  35.787  26.142  1.00  0.00     0.091 A 
ATOM     72  F   UNL A   1      51.597  35.759  27.990  1.00  0.00    -0.205 F 
ATOM     73  C   UNL A   1      53.323  35.629  24.764  1.00  0.00     0.022 A 
BRANCH  71  74
ATOM     74  S   UNL A   1      54.537  36.197  27.147  1.00  0.00     0.127 S 
ATOM     75  O   UNL A   1      55.637  35.895  26.231  1.00  0.00    -0.237 OA
ATOM     76  O   UNL A   1      54.332  37.623  27.405  1.00  0.00    -0.237 OA
ATOM     77  O   UNL A   1      54.459  35.347  28.327  1.00  0.00    -0.744 OA
ENDBRANCH  71  74
ENDBRANCH  53  67
BRANCH  54  78
ATOM     78  C   UNL A   1      41.617  34.584  29.813  1.00  0.00     0.023 A 
ATOM     79  C   UNL A   1      40.453  34.677  29.026  1.00  0.00     0.012 A 
ATOM     80  C   UNL A   1      41.493  34.403  31.204  1.00  0.00     0.148 A 
ATOM     81  C   UNL A   1      39.189  34.629  29.618  1.00  0.00     0.002 A 
ATOM     82  C   UNL A   1      40.232  34.298  31.779  1.00  0.00     0.091 A 
ATOM     83  F   UNL A   1      42.613  34.332  31.937  1.00  0.00    -0.205 F 
ATOM     84  C   UNL A   1      39.079  34.431  30.991  1.00  0.00     0.022 A 
BRANCH  82  85
ATOM     85  S   UNL A   1      39.994  33.922  33.519  1.00  0.00     0.127 S 
ATOM     86  O   UNL A   1      40.966  32.852  33.730  1.00  0.00    -0.237 OA
ATOM     87  O   UNL A   1      40.333  35.198  34.148  1.00  0.00    -0.237 OA
ATOM     88  O   UNL A   1      38.595  33.537  33.653  1.00  0.00    -0.744 OA
ENDBRANCH  82  85
ENDBRANCH  54  78
BRANCH  66  89
ATOM     89  C   UNL A   1      45.244  39.911  27.113  1.00  0.00     0.023 A 
ATOM     90  C   UNL A   1      44.605  40.357  25.939  1.00  0.00     0.012 A 
ATOM     91  C   UNL A   1      45.520  40.833  28.141  1.00  0.00     0.148 A 
ATOM     92  C   UNL A   1      44.281  41.704  25.777  1.00  0.00     0.002 A 
ATOM     93  C   UNL A   1      45.145  42.163  27.996  1.00  0.00     0.091 A 
ATOM     94  F   UNL A   1      46.141  40.393  29.246  1.00  0.00    -0.205 F 
ATOM     95  C   UNL A   1      44.539  42.603  26.809  1.00  0.00     0.022 A 
BRANCH  93  96
ATOM     96  S   UNL A   1      45.344  43.372  29.311  1.00  0.00     0.127 S 
ATOM     97  O   UNL A   1      46.775  43.269  29.594  1.00  0.00    -0.237 OA
ATOM     98  O   UNL A   1      44.939  44.613  28.653  1.00  0.00    -0.237 OA
ATOM     99  O   UNL A   1      44.464  42.944  30.390  1.00  0.00    -0.744 OA
ENDBRANCH  93  96
ENDBRANCH  66  89
ENDBRANCH  40  41
ENDBRANCH  33  35
ENDBRANCH  32  33
ENDBRANCH  31  32
ENDBRANCH  30  31
ENDBRANCH  29  30
ENDBRANCH  28  29
ENDBRANCH  27  28
ENDBRANCH  26  27
ENDBRANCH  25  26
ENDBRANCH   1  25
TORSDOF 30
ENDMDL
