MODEL 1
REMARK VINA RESULT:      -7.3      0.000      0.000
REMARK SMILES O=C(C[NH+]1CCOCC1)Nc1nnc(SCC(=O)OCCOCCOCCOCCOC(=O)c2ccc(-c3c4nc(c(-c5cccc(S(=O)(=O)[O-])c5F)c5ccc([nH]5)c(-c5cccc(S(=O)(=O)[O-])c5F)c5nc(c(-c6cccc(S(=O)(=O)[O-])c6F)c6ccc3[nH]6)C=C5)C=C4)cc2)s1
REMARK SMILES IDX 24 1 23 2 22 3 21 4 20 5 19 6 17 7 18 8 16 9 15 10 14 11
REMARK SMILES IDX 11 12 12 13 97 14 13 15 10 16 1 17 2 18 3 20 4 21 5 22 9 23
REMARK SMILES IDX 6 25 8 26 7 27 25 28 26 29 27 30 28 31 29 32 30 33 31 34
REMARK SMILES IDX 32 35 33 36 34 37 35 38 96 39 36 40 95 41 37 42 38 43 39 44
REMARK SMILES IDX 89 45 40 46 94 47 88 48 90 49 41 50 93 51 87 52 86 53 42 55
REMARK SMILES IDX 74 56 54 57 73 58 55 59 58 60 72 61 91 62 56 63 57 64 71 66
REMARK SMILES IDX 92 67 59 68 43 69 44 70 52 71 45 72 47 73 53 74 46 75 48 76
REMARK SMILES IDX 49 77 50 78 51 79 75 80 76 81 84 82 77 83 79 84 85 85 78 86
REMARK SMILES IDX 80 87 81 88 82 89 83 90 60 91 61 92 69 93 62 94 64 95 70 96
REMARK SMILES IDX 63 97 65 98 66 99 67 100 68 101
REMARK H PARENT 10 19 4 24 90 54 58 65
REMARK Flexibility Score: inf
ROOT
ATOM      1  C   UNL A   1      43.279  42.123  38.989  1.00  0.00     0.188 C 
ENDROOT
BRANCH   1   2
ATOM      2  C   UNL A   1      43.928  41.712  37.667  1.00  0.00     0.188 C 
BRANCH   2   3
ATOM      3  O   UNL A   1      44.543  42.667  36.827  1.00  0.00    -0.376 OA
BRANCH   3   4
ATOM      4  C   UNL A   1      44.832  42.322  35.485  1.00  0.00     0.202 C 
BRANCH   4   5
ATOM      5  C   UNL A   1      44.128  41.097  34.864  1.00  0.00     0.261 C 
BRANCH   5   6
ATOM      6  O   UNL A   1      43.000  41.330  33.976  1.00  0.00    -0.463 OA
BRANCH   6   7
ATOM      7  C   UNL A   1      42.443  42.569  33.992  1.00  0.00     0.316 C 
ATOM      8  O   UNL A   1      41.828  43.015  34.960  1.00  0.00    -0.251 OA
BRANCH   7   9
ATOM      9  C   UNL A   1      42.518  43.384  32.705  1.00  0.00     0.200 C 
BRANCH   9  10
ATOM     10  S   UNL A   1      44.050  44.164  32.172  1.00  0.00    -0.082 SA
BRANCH  10  11
ATOM     11  C   UNL A   1      44.543  43.486  30.616  1.00  0.00     0.176 A 
ATOM     12  C   UNL A   1      44.693  42.810  28.326  1.00  0.00     0.213 A 
ATOM     13  N   UNL A   1      45.694  43.588  28.675  1.00  0.00    -0.119 NA
ATOM     14  S   UNL A   1      43.761  42.280  29.665  1.00  0.00    -0.068 S 
ATOM     15  N   UNL A   1      45.580  44.015  29.991  1.00  0.00    -0.130 NA
BRANCH  12  16
ATOM     16  N   UNL A   1      44.416  42.536  26.996  1.00  0.00    -0.296 N 
ATOM     17  O   UNL A   1      45.016  44.521  26.029  1.00  0.00    -0.268 OA
ATOM     18  C   UNL A   1      44.718  43.329  25.922  1.00  0.00     0.281 C 
ATOM     19  H   UNL A   1      43.955  41.687  26.805  1.00  0.00     0.172 HD
BRANCH  18  20
ATOM     20  C   UNL A   1      44.747  42.696  24.504  1.00  0.00     0.364 C 
BRANCH  20  21
ATOM     21  N   UNL A   1      44.460  43.480  23.310  1.00  0.00    -0.323 N 
ATOM     22  C   UNL A   1      43.285  43.254  22.498  1.00  0.00     0.291 C 
ATOM     23  C   UNL A   1      45.444  44.295  22.633  1.00  0.00     0.291 C 
ATOM     24  H   UNL A   1      44.196  43.993  24.152  1.00  0.00     0.348 HD
ATOM     25  C   UNL A   1      43.694  42.525  21.223  1.00  0.00     0.221 C 
ATOM     26  C   UNL A   1      45.815  43.707  21.257  1.00  0.00     0.221 C 
ATOM     27  O   UNL A   1      44.693  43.246  20.487  1.00  0.00    -0.370 OA
ENDBRANCH  20  21
ENDBRANCH  18  20
ENDBRANCH  12  16
ENDBRANCH  10  11
ENDBRANCH   9  10
ENDBRANCH   7   9
ENDBRANCH   6   7
ENDBRANCH   5   6
ENDBRANCH   4   5
ENDBRANCH   3   4
ENDBRANCH   2   3
ENDBRANCH   1   2
BRANCH   1  28
ATOM     28  O   UNL A   1      43.776  41.629  40.208  1.00  0.00    -0.377 OA
BRANCH  28  29
ATOM     29  C   UNL A   1      44.247  40.296  40.306  1.00  0.00     0.188 C 
BRANCH  29  30
ATOM     30  C   UNL A   1      45.684  40.115  40.785  1.00  0.00     0.188 C 
BRANCH  30  31
ATOM     31  O   UNL A   1      46.725  39.940  39.816  1.00  0.00    -0.376 OA
BRANCH  31  32
ATOM     32  C   UNL A   1      47.556  38.787  39.849  1.00  0.00     0.202 C 
BRANCH  32  33
ATOM     33  C   UNL A   1      48.835  38.923  39.040  1.00  0.00     0.261 C 
BRANCH  33  34
ATOM     34  O   UNL A   1      49.008  37.757  38.261  1.00  0.00    -0.460 OA
BRANCH  34  35
ATOM     35  C   UNL A   1      49.367  38.010  36.984  1.00  0.00     0.338 C 
ATOM     36  O   UNL A   1      50.447  38.386  36.560  1.00  0.00    -0.246 OA
BRANCH  35  37
ATOM     37  C   UNL A   1      48.251  37.550  36.163  1.00  0.00     0.060 A 
ATOM     38  C   UNL A   1      47.353  38.506  35.682  1.00  0.00     0.016 A 
ATOM     39  C   UNL A   1      48.128  36.190  35.855  1.00  0.00     0.016 A 
ATOM     40  C   UNL A   1      46.269  38.086  34.936  1.00  0.00     0.010 A 
ATOM     41  C   UNL A   1      47.043  35.768  35.114  1.00  0.00     0.010 A 
ATOM     42  C   UNL A   1      46.091  36.716  34.718  1.00  0.00    -0.014 A 
BRANCH  42  43
ATOM     43  C   UNL A   1      44.765  36.240  34.327  1.00  0.00     0.031 A 
ATOM     44  C   UNL A   1      43.791  35.960  35.430  1.00  0.00     0.074 A 
ATOM     45  C   UNL A   1      44.480  36.077  33.030  1.00  0.00     0.049 A 
ATOM     46  N   UNL A   1      42.568  35.520  35.355  1.00  0.00    -0.248 NA
ATOM     47  C   UNL A   1      44.262  36.205  36.808  1.00  0.00     0.031 C 
ATOM     48  C   UNL A   1      45.399  36.341  31.924  1.00  0.00     0.029 A 
ATOM     49  N   UNL A   1      43.339  35.629  32.433  1.00  0.00    -0.354 N 
ATOM     50  C   UNL A   1      42.133  35.411  36.669  1.00  0.00     0.074 A 
ATOM     51  C   UNL A   1      43.224  35.810  37.525  1.00  0.00     0.031 C 
ATOM     52  C   UNL A   1      44.786  36.028  30.771  1.00  0.00     0.029 A 
ATOM     53  C   UNL A   1      43.452  35.519  31.071  1.00  0.00     0.049 A 
ATOM     54  H   UNL A   1      42.518  35.409  32.929  1.00  0.00     0.167 HD
ATOM     55  C   UNL A   1      40.918  35.023  37.112  1.00  0.00     0.034 A 
ATOM     56  C   UNL A   1      42.565  35.034  30.185  1.00  0.00     0.034 A 
ATOM     57  C   UNL A   1      39.864  34.624  36.225  1.00  0.00     0.049 A 
ATOM     58  C   UNL A   1      41.231  34.577  30.707  1.00  0.00     0.074 A 
ATOM     59  C   UNL A   1      38.577  34.233  36.533  1.00  0.00     0.029 A 
ATOM     60  N   UNL A   1      39.993  34.548  34.844  1.00  0.00    -0.354 N 
ATOM     61  N   UNL A   1      40.784  34.571  31.942  1.00  0.00    -0.248 NA
ATOM     62  C   UNL A   1      40.267  34.090  29.715  1.00  0.00     0.031 C 
ATOM     63  C   UNL A   1      37.939  33.882  35.338  1.00  0.00     0.029 A 
ATOM     64  C   UNL A   1      38.813  34.100  34.282  1.00  0.00     0.049 A 
ATOM     65  H   UNL A   1      40.805  34.780  34.338  1.00  0.00     0.167 HD
ATOM     66  C   UNL A   1      39.474  34.116  31.874  1.00  0.00     0.074 A 
ATOM     67  C   UNL A   1      39.198  33.872  30.470  1.00  0.00     0.031 C 
ATOM     68  C   UNL A   1      38.578  33.907  32.872  1.00  0.00     0.034 A 
BRANCH  55  69
ATOM     69  C   UNL A   1      40.693  35.009  38.600  1.00  0.00     0.023 A 
ATOM     70  C   UNL A   1      40.731  33.790  39.310  1.00  0.00     0.012 A 
ATOM     71  C   UNL A   1      40.437  36.205  39.298  1.00  0.00     0.148 A 
ATOM     72  C   UNL A   1      40.477  33.757  40.681  1.00  0.00     0.002 A 
ATOM     73  C   UNL A   1      40.235  36.169  40.672  1.00  0.00     0.091 A 
ATOM     74  F   UNL A   1      40.369  37.349  38.602  1.00  0.00    -0.205 F 
ATOM     75  C   UNL A   1      40.240  34.946  41.363  1.00  0.00     0.022 A 
BRANCH  73  76
ATOM     76  S   UNL A   1      39.995  37.654  41.653  1.00  0.00     0.127 S 
ATOM     77  O   UNL A   1      38.913  38.316  40.925  1.00  0.00    -0.237 OA
ATOM     78  O   UNL A   1      39.610  37.103  42.952  1.00  0.00    -0.237 OA
ATOM     79  O   UNL A   1      41.272  38.354  41.644  1.00  0.00    -0.744 OA
ENDBRANCH  73  76
ENDBRANCH  55  69
BRANCH  56  80
ATOM     80  C   UNL A   1      42.905  35.005  28.738  1.00  0.00     0.023 A 
ATOM     81  C   UNL A   1      42.606  36.121  27.933  1.00  0.00     0.012 A 
ATOM     82  C   UNL A   1      43.573  33.904  28.169  1.00  0.00     0.148 A 
ATOM     83  C   UNL A   1      42.941  36.127  26.578  1.00  0.00     0.002 A 
ATOM     84  C   UNL A   1      43.950  33.938  26.832  1.00  0.00     0.091 A 
ATOM     85  F   UNL A   1      43.845  32.853  28.955  1.00  0.00    -0.205 F 
ATOM     86  C   UNL A   1      43.621  35.042  26.031  1.00  0.00     0.022 A 
BRANCH  84  87
ATOM     87  S   UNL A   1      44.939  32.644  26.074  1.00  0.00     0.127 S 
ATOM     88  O   UNL A   1      44.778  32.941  24.653  1.00  0.00    -0.237 OA
ATOM     89  O   UNL A   1      46.268  32.924  26.617  1.00  0.00    -0.237 OA
ATOM     90  O   UNL A   1      44.357  31.386  26.524  1.00  0.00    -0.744 OA
ENDBRANCH  84  87
ENDBRANCH  56  80
BRANCH  68  91
ATOM     91  C   UNL A   1      37.210  33.430  32.473  1.00  0.00     0.023 A 
ATOM     92  C   UNL A   1      36.955  32.050  32.343  1.00  0.00     0.012 A 
ATOM     93  C   UNL A   1      36.159  34.353  32.303  1.00  0.00     0.148 A 
ATOM     94  C   UNL A   1      35.678  31.599  32.013  1.00  0.00     0.002 A 
ATOM     95  C   UNL A   1      34.879  33.892  32.033  1.00  0.00     0.091 A 
ATOM     96  F   UNL A   1      36.431  35.660  32.418  1.00  0.00    -0.205 F 
ATOM     97  C   UNL A   1      34.639  32.517  31.871  1.00  0.00     0.022 A 
BRANCH  95  98
ATOM     98  S   UNL A   1      33.463  34.990  31.943  1.00  0.00     0.127 S 
ATOM     99  O   UNL A   1      33.050  34.827  30.550  1.00  0.00    -0.237 OA
ATOM    100  O   UNL A   1      32.552  34.399  32.923  1.00  0.00    -0.237 OA
ATOM    101  O   UNL A   1      33.955  36.314  32.295  1.00  0.00    -0.744 OA
ENDBRANCH  95  98
ENDBRANCH  68  91
ENDBRANCH  42  43
ENDBRANCH  35  37
ENDBRANCH  34  35
ENDBRANCH  33  34
ENDBRANCH  32  33
ENDBRANCH  31  32
ENDBRANCH  30  31
ENDBRANCH  29  30
ENDBRANCH  28  29
ENDBRANCH   1  28
TORSDOF 28
ENDMDL
MODEL 2
REMARK VINA RESULT:      -6.8      9.054     14.100
REMARK SMILES O=C(C[NH+]1CCOCC1)Nc1nnc(SCC(=O)OCCOCCOCCOCCOC(=O)c2ccc(-c3c4nc(c(-c5cccc(S(=O)(=O)[O-])c5F)c5ccc([nH]5)c(-c5cccc(S(=O)(=O)[O-])c5F)c5nc(c(-c6cccc(S(=O)(=O)[O-])c6F)c6ccc3[nH]6)C=C5)C=C4)cc2)s1
REMARK SMILES IDX 24 1 23 2 22 3 21 4 20 5 19 6 17 7 18 8 16 9 15 10 14 11
REMARK SMILES IDX 11 12 12 13 97 14 13 15 10 16 1 17 2 18 3 20 4 21 5 22 9 23
REMARK SMILES IDX 6 25 8 26 7 27 25 28 26 29 27 30 28 31 29 32 30 33 31 34
REMARK SMILES IDX 32 35 33 36 34 37 35 38 96 39 36 40 95 41 37 42 38 43 39 44
REMARK SMILES IDX 89 45 40 46 94 47 88 48 90 49 41 50 93 51 87 52 86 53 42 55
REMARK SMILES IDX 74 56 54 57 73 58 55 59 58 60 72 61 91 62 56 63 57 64 71 66
REMARK SMILES IDX 92 67 59 68 43 69 44 70 52 71 45 72 47 73 53 74 46 75 48 76
REMARK SMILES IDX 49 77 50 78 51 79 75 80 76 81 84 82 77 83 79 84 85 85 78 86
REMARK SMILES IDX 80 87 81 88 82 89 83 90 60 91 61 92 69 93 62 94 64 95 70 96
REMARK SMILES IDX 63 97 65 98 66 99 67 100 68 101
REMARK H PARENT 10 19 4 24 90 54 58 65
REMARK Flexibility Score: inf
ROOT
ATOM      1  C   UNL A   1      57.668  29.646  21.260  1.00  0.00     0.188 C 
ENDROOT
BRANCH   1   2
ATOM      2  C   UNL A   1      57.158  28.300  20.744  1.00  0.00     0.188 C 
BRANCH   2   3
ATOM      3  O   UNL A   1      57.361  27.908  19.402  1.00  0.00    -0.376 OA
BRANCH   3   4
ATOM      4  C   UNL A   1      56.955  26.615  18.992  1.00  0.00     0.202 C 
BRANCH   4   5
ATOM      5  C   UNL A   1      55.518  26.418  18.465  1.00  0.00     0.261 C 
BRANCH   5   6
ATOM      6  O   UNL A   1      54.434  26.360  19.432  1.00  0.00    -0.463 OA
BRANCH   6   7
ATOM      7  C   UNL A   1      53.754  27.511  19.671  1.00  0.00     0.316 C 
ATOM      8  O   UNL A   1      53.624  28.400  18.831  1.00  0.00    -0.251 OA
BRANCH   7   9
ATOM      9  C   UNL A   1      53.220  27.724  21.084  1.00  0.00     0.200 C 
BRANCH   9  10
ATOM     10  S   UNL A   1      51.791  28.771  21.403  1.00  0.00    -0.082 SA
BRANCH  10  11
ATOM     11  C   UNL A   1      50.471  27.783  22.040  1.00  0.00     0.176 A 
ATOM     12  C   UNL A   1      48.557  26.946  23.206  1.00  0.00     0.213 A 
ATOM     13  N   UNL A   1      48.391  26.912  21.903  1.00  0.00    -0.119 NA
ATOM     14  S   UNL A   1      50.174  27.291  23.665  1.00  0.00    -0.068 S 
ATOM     15  N   UNL A   1      49.484  27.440  21.230  1.00  0.00    -0.130 NA
BRANCH  12  16
ATOM     16  N   UNL A   1      47.493  26.786  24.080  1.00  0.00    -0.296 N 
ATOM     17  O   UNL A   1      46.776  28.953  24.258  1.00  0.00    -0.268 OA
ATOM     18  C   UNL A   1      46.586  27.747  24.440  1.00  0.00     0.281 C 
ATOM     19  H   UNL A   1      47.377  25.895  24.481  1.00  0.00     0.172 HD
BRANCH  18  20
ATOM     20  C   UNL A   1      45.230  27.309  25.056  1.00  0.00     0.364 C 
BRANCH  20  21
ATOM     21  N   UNL A   1      45.164  26.480  26.250  1.00  0.00    -0.323 N 
ATOM     22  C   UNL A   1      45.323  25.043  26.209  1.00  0.00     0.291 C 
ATOM     23  C   UNL A   1      44.606  26.931  27.507  1.00  0.00     0.291 C 
ATOM     24  H   UNL A   1      46.078  26.924  26.170  1.00  0.00     0.348 HD
ATOM     25  C   UNL A   1      43.957  24.386  26.373  1.00  0.00     0.221 C 
ATOM     26  C   UNL A   1      43.284  26.207  27.831  1.00  0.00     0.221 C 
ATOM     27  O   UNL A   1      43.308  24.792  27.587  1.00  0.00    -0.370 OA
ENDBRANCH  20  21
ENDBRANCH  18  20
ENDBRANCH  12  16
ENDBRANCH  10  11
ENDBRANCH   9  10
ENDBRANCH   7   9
ENDBRANCH   6   7
ENDBRANCH   5   6
ENDBRANCH   4   5
ENDBRANCH   3   4
ENDBRANCH   2   3
ENDBRANCH   1   2
BRANCH   1  28
ATOM     28  O   UNL A   1      56.944  30.353  22.236  1.00  0.00    -0.377 OA
BRANCH  28  29
ATOM     29  C   UNL A   1      56.222  29.660  23.240  1.00  0.00     0.188 C 
BRANCH  29  30
ATOM     30  C   UNL A   1      55.263  30.491  24.086  1.00  0.00     0.188 C 
BRANCH  30  31
ATOM     31  O   UNL A   1      54.164  29.839  24.736  1.00  0.00    -0.376 OA
BRANCH  31  32
ATOM     32  C   UNL A   1      53.994  28.431  24.629  1.00  0.00     0.202 C 
BRANCH  32  33
ATOM     33  C   UNL A   1      53.995  27.705  25.962  1.00  0.00     0.261 C 
BRANCH  33  34
ATOM     34  O   UNL A   1      52.688  27.733  26.499  1.00  0.00    -0.460 OA
BRANCH  34  35
ATOM     35  C   UNL A   1      52.178  26.507  26.740  1.00  0.00     0.338 C 
ATOM     36  O   UNL A   1      52.663  25.419  26.482  1.00  0.00    -0.246 OA
BRANCH  35  37
ATOM     37  C   UNL A   1      50.995  26.730  27.566  1.00  0.00     0.060 A 
ATOM     38  C   UNL A   1      49.786  26.169  27.146  1.00  0.00     0.016 A 
ATOM     39  C   UNL A   1      51.104  27.458  28.757  1.00  0.00     0.016 A 
ATOM     40  C   UNL A   1      48.649  26.401  27.893  1.00  0.00     0.010 A 
ATOM     41  C   UNL A   1      49.968  27.694  29.503  1.00  0.00     0.010 A 
ATOM     42  C   UNL A   1      48.741  27.216  29.027  1.00  0.00    -0.014 A 
BRANCH  42  43
ATOM     43  C   UNL A   1      47.515  27.812  29.556  1.00  0.00     0.031 A 
ATOM     44  C   UNL A   1      46.809  27.060  30.642  1.00  0.00     0.074 A 
ATOM     45  C   UNL A   1      47.082  28.977  29.062  1.00  0.00     0.049 A 
ATOM     46  N   UNL A   1      45.705  27.358  31.264  1.00  0.00    -0.248 NA
ATOM     47  C   UNL A   1      47.428  25.794  31.082  1.00  0.00     0.031 C 
ATOM     48  C   UNL A   1      47.742  29.744  28.006  1.00  0.00     0.029 A 
ATOM     49  N   UNL A   1      45.970  29.703  29.373  1.00  0.00    -0.354 N 
ATOM     50  C   UNL A   1      45.485  26.311  32.149  1.00  0.00     0.074 A 
ATOM     51  C   UNL A   1      46.553  25.357  31.972  1.00  0.00     0.031 C 
ATOM     52  C   UNL A   1      47.005  30.834  27.740  1.00  0.00     0.029 A 
ATOM     53  C   UNL A   1      45.817  30.816  28.588  1.00  0.00     0.049 A 
ATOM     54  H   UNL A   1      45.344  29.453  30.089  1.00  0.00     0.167 HD
ATOM     55  C   UNL A   1      44.479  26.173  33.040  1.00  0.00     0.034 A 
ATOM     56  C   UNL A   1      44.803  31.699  28.560  1.00  0.00     0.034 A 
ATOM     57  C   UNL A   1      43.430  27.143  33.175  1.00  0.00     0.049 A 
ATOM     58  C   UNL A   1      43.678  31.505  29.538  1.00  0.00     0.074 A 
ATOM     59  C   UNL A   1      42.364  27.146  34.052  1.00  0.00     0.029 A 
ATOM     60  N   UNL A   1      43.311  28.280  32.386  1.00  0.00    -0.354 N 
ATOM     61  N   UNL A   1      43.523  30.568  30.446  1.00  0.00    -0.248 NA
ATOM     62  C   UNL A   1      42.605  32.504  29.515  1.00  0.00     0.031 C 
ATOM     63  C   UNL A   1      41.577  28.267  33.765  1.00  0.00     0.029 A 
ATOM     64  C   UNL A   1      42.179  28.987  32.743  1.00  0.00     0.049 A 
ATOM     65  H   UNL A   1      43.941  28.544  31.678  1.00  0.00     0.167 HD
ATOM     66  C   UNL A   1      42.356  30.883  31.128  1.00  0.00     0.074 A 
ATOM     67  C   UNL A   1      41.854  32.110  30.535  1.00  0.00     0.031 C 
ATOM     68  C   UNL A   1      41.742  30.224  32.143  1.00  0.00     0.034 A 
BRANCH  55  69
ATOM     69  C   UNL A   1      44.479  24.941  33.904  1.00  0.00     0.023 A 
ATOM     70  C   UNL A   1      43.890  23.748  33.434  1.00  0.00     0.012 A 
ATOM     71  C   UNL A   1      45.059  24.965  35.186  1.00  0.00     0.148 A 
ATOM     72  C   UNL A   1      43.841  22.613  34.243  1.00  0.00     0.002 A 
ATOM     73  C   UNL A   1      45.051  23.815  35.966  1.00  0.00     0.091 A 
ATOM     74  F   UNL A   1      45.582  26.117  35.630  1.00  0.00    -0.205 F 
ATOM     75  C   UNL A   1      44.431  22.643  35.503  1.00  0.00     0.022 A 
BRANCH  73  76
ATOM     76  S   UNL A   1      45.848  23.731  37.573  1.00  0.00     0.127 S 
ATOM     77  O   UNL A   1      47.165  24.293  37.280  1.00  0.00    -0.237 OA
ATOM     78  O   UNL A   1      44.985  24.587  38.386  1.00  0.00    -0.237 OA
ATOM     79  O   UNL A   1      45.841  22.324  37.953  1.00  0.00    -0.744 OA
ENDBRANCH  73  76
ENDBRANCH  55  69
BRANCH  56  80
ATOM     80  C   UNL A   1      44.844  32.842  27.611  1.00  0.00     0.023 A 
ATOM     81  C   UNL A   1      44.249  32.713  26.342  1.00  0.00     0.012 A 
ATOM     82  C   UNL A   1      45.419  34.074  27.980  1.00  0.00     0.148 A 
ATOM     83  C   UNL A   1      44.251  33.782  25.446  1.00  0.00     0.002 A 
ATOM     84  C   UNL A   1      45.372  35.150  27.103  1.00  0.00     0.091 A 
ATOM     85  F   UNL A   1      45.981  34.173  29.193  1.00  0.00    -0.205 F 
ATOM     86  C   UNL A   1      44.803  35.002  25.829  1.00  0.00     0.022 A 
BRANCH  84  87
ATOM     87  S   UNL A   1      45.942  36.792  27.557  1.00  0.00     0.127 S 
ATOM     88  O   UNL A   1      45.070  37.108  28.685  1.00  0.00    -0.237 OA
ATOM     89  O   UNL A   1      47.339  36.538  27.908  1.00  0.00    -0.237 OA
ATOM     90  O   UNL A   1      45.759  37.617  26.370  1.00  0.00    -0.744 OA
ENDBRANCH  84  87
ENDBRANCH  56  80
BRANCH  68  91
ATOM     91  C   UNL A   1      40.488  30.839  32.698  1.00  0.00     0.023 A 
ATOM     92  C   UNL A   1      40.559  31.708  33.804  1.00  0.00     0.012 A 
ATOM     93  C   UNL A   1      39.249  30.613  32.066  1.00  0.00     0.148 A 
ATOM     94  C   UNL A   1      39.405  32.314  34.298  1.00  0.00     0.002 A 
ATOM     95  C   UNL A   1      38.115  31.266  32.527  1.00  0.00     0.091 A 
ATOM     96  F   UNL A   1      39.206  29.771  31.024  1.00  0.00    -0.205 F 
ATOM     97  C   UNL A   1      38.187  32.104  33.653  1.00  0.00     0.022 A 
BRANCH  95  98
ATOM     98  S   UNL A   1      36.531  31.142  31.695  1.00  0.00     0.127 S 
ATOM     99  O   UNL A   1      36.851  31.668  30.368  1.00  0.00    -0.237 OA
ATOM    100  O   UNL A   1      36.275  29.702  31.734  1.00  0.00    -0.237 OA
ATOM    101  O   UNL A   1      35.600  31.944  32.475  1.00  0.00    -0.744 OA
ENDBRANCH  95  98
ENDBRANCH  68  91
ENDBRANCH  42  43
ENDBRANCH  35  37
ENDBRANCH  34  35
ENDBRANCH  33  34
ENDBRANCH  32  33
ENDBRANCH  31  32
ENDBRANCH  30  31
ENDBRANCH  29  30
ENDBRANCH  28  29
ENDBRANCH   1  28
TORSDOF 28
ENDMDL
MODEL 3
REMARK VINA RESULT:      -6.7      6.647     12.858
REMARK SMILES O=C(C[NH+]1CCOCC1)Nc1nnc(SCC(=O)OCCOCCOCCOCCOC(=O)c2ccc(-c3c4nc(c(-c5cccc(S(=O)(=O)[O-])c5F)c5ccc([nH]5)c(-c5cccc(S(=O)(=O)[O-])c5F)c5nc(c(-c6cccc(S(=O)(=O)[O-])c6F)c6ccc3[nH]6)C=C5)C=C4)cc2)s1
REMARK SMILES IDX 24 1 23 2 22 3 21 4 20 5 19 6 17 7 18 8 16 9 15 10 14 11
REMARK SMILES IDX 11 12 12 13 97 14 13 15 10 16 1 17 2 18 3 20 4 21 5 22 9 23
REMARK SMILES IDX 6 25 8 26 7 27 25 28 26 29 27 30 28 31 29 32 30 33 31 34
REMARK SMILES IDX 32 35 33 36 34 37 35 38 96 39 36 40 95 41 37 42 38 43 39 44
REMARK SMILES IDX 89 45 40 46 94 47 88 48 90 49 41 50 93 51 87 52 86 53 42 55
REMARK SMILES IDX 74 56 54 57 73 58 55 59 58 60 72 61 91 62 56 63 57 64 71 66
REMARK SMILES IDX 92 67 59 68 43 69 44 70 52 71 45 72 47 73 53 74 46 75 48 76
REMARK SMILES IDX 49 77 50 78 51 79 75 80 76 81 84 82 77 83 79 84 85 85 78 86
REMARK SMILES IDX 80 87 81 88 82 89 83 90 60 91 61 92 69 93 62 94 64 95 70 96
REMARK SMILES IDX 63 97 65 98 66 99 67 100 68 101
REMARK H PARENT 10 19 4 24 90 54 58 65
REMARK Flexibility Score: inf
ROOT
ATOM      1  C   UNL A   1      43.115  23.249  27.453  1.00  0.00     0.188 C 
ENDROOT
BRANCH   1   2
ATOM      2  C   UNL A   1      42.870  21.781  27.102  1.00  0.00     0.188 C 
BRANCH   2   3
ATOM      3  O   UNL A   1      41.820  21.052  27.703  1.00  0.00    -0.376 OA
BRANCH   3   4
ATOM      4  C   UNL A   1      40.907  20.351  26.878  1.00  0.00     0.202 C 
BRANCH   4   5
ATOM      5  C   UNL A   1      39.798  21.142  26.155  1.00  0.00     0.261 C 
BRANCH   5   6
ATOM      6  O   UNL A   1      39.865  22.594  26.177  1.00  0.00    -0.463 OA
BRANCH   6   7
ATOM      7  C   UNL A   1      38.698  23.267  26.354  1.00  0.00     0.316 C 
ATOM      8  O   UNL A   1      37.602  22.804  26.037  1.00  0.00    -0.251 OA
BRANCH   7   9
ATOM      9  C   UNL A   1      38.789  24.694  26.883  1.00  0.00     0.200 C 
BRANCH   9  10
ATOM     10  S   UNL A   1      39.963  25.148  28.169  1.00  0.00    -0.082 SA
BRANCH  10  11
ATOM     11  C   UNL A   1      39.696  26.831  28.640  1.00  0.00     0.176 A 
ATOM     12  C   UNL A   1      38.947  29.095  28.820  1.00  0.00     0.213 A 
ATOM     13  N   UNL A   1      38.696  28.407  29.911  1.00  0.00    -0.119 NA
ATOM     14  S   UNL A   1      39.981  28.267  27.731  1.00  0.00    -0.068 S 
ATOM     15  N   UNL A   1      39.091  27.083  29.788  1.00  0.00    -0.130 NA
BRANCH  12  16
ATOM     16  N   UNL A   1      38.355  30.327  28.584  1.00  0.00    -0.296 N 
ATOM     17  O   UNL A   1      36.245  29.666  27.992  1.00  0.00    -0.268 OA
ATOM     18  C   UNL A   1      37.029  30.556  28.331  1.00  0.00     0.281 C 
ATOM     19  H   UNL A   1      38.946  31.114  28.600  1.00  0.00     0.172 HD
BRANCH  18  20
ATOM     20  C   UNL A   1      36.461  31.987  28.530  1.00  0.00     0.364 C 
BRANCH  20  21
ATOM     21  N   UNL A   1      35.113  32.213  29.031  1.00  0.00    -0.323 N 
ATOM     22  C   UNL A   1      34.004  32.538  28.161  1.00  0.00     0.291 C 
ATOM     23  C   UNL A   1      34.811  32.476  30.421  1.00  0.00     0.291 C 
ATOM     24  H   UNL A   1      35.312  31.215  28.968  1.00  0.00     0.348 HD
ATOM     25  C   UNL A   1      33.685  34.023  28.295  1.00  0.00     0.221 C 
ATOM     26  C   UNL A   1      34.335  33.927  30.633  1.00  0.00     0.221 C 
ATOM     27  O   UNL A   1      33.395  34.391  29.651  1.00  0.00    -0.370 OA
ENDBRANCH  20  21
ENDBRANCH  18  20
ENDBRANCH  12  16
ENDBRANCH  10  11
ENDBRANCH   9  10
ENDBRANCH   7   9
ENDBRANCH   6   7
ENDBRANCH   5   6
ENDBRANCH   4   5
ENDBRANCH   3   4
ENDBRANCH   2   3
ENDBRANCH   1   2
BRANCH   1  28
ATOM     28  O   UNL A   1      44.035  23.595  28.459  1.00  0.00    -0.377 OA
BRANCH  28  29
ATOM     29  C   UNL A   1      43.839  24.759  29.245  1.00  0.00     0.188 C 
BRANCH  29  30
ATOM     30  C   UNL A   1      44.411  24.730  30.658  1.00  0.00     0.188 C 
BRANCH  30  31
ATOM     31  O   UNL A   1      44.107  23.618  31.511  1.00  0.00    -0.376 OA
BRANCH  31  32
ATOM     32  C   UNL A   1      44.800  23.440  32.740  1.00  0.00     0.202 C 
BRANCH  32  33
ATOM     33  C   UNL A   1      43.967  22.793  33.832  1.00  0.00     0.261 C 
BRANCH  33  34
ATOM     34  O   UNL A   1      43.112  23.769  34.392  1.00  0.00    -0.460 OA
BRANCH  34  35
ATOM     35  C   UNL A   1      43.608  24.341  35.511  1.00  0.00     0.338 C 
ATOM     36  O   UNL A   1      43.921  23.807  36.561  1.00  0.00    -0.246 OA
BRANCH  35  37
ATOM     37  C   UNL A   1      43.889  25.728  35.151  1.00  0.00     0.060 A 
ATOM     38  C   UNL A   1      42.920  26.428  34.428  1.00  0.00     0.016 A 
ATOM     39  C   UNL A   1      45.088  26.323  35.562  1.00  0.00     0.016 A 
ATOM     40  C   UNL A   1      43.184  27.728  34.046  1.00  0.00     0.010 A 
ATOM     41  C   UNL A   1      45.355  27.621  35.177  1.00  0.00     0.010 A 
ATOM     42  C   UNL A   1      44.427  28.286  34.367  1.00  0.00    -0.014 A 
BRANCH  42  43
ATOM     43  C   UNL A   1      44.878  29.457  33.616  1.00  0.00     0.031 A 
ATOM     44  C   UNL A   1      44.577  30.800  34.206  1.00  0.00     0.074 A 
ATOM     45  C   UNL A   1      45.526  29.287  32.458  1.00  0.00     0.049 A 
ATOM     46  N   UNL A   1      44.851  31.983  33.738  1.00  0.00    -0.248 NA
ATOM     47  C   UNL A   1      43.864  30.811  35.499  1.00  0.00     0.031 C 
ATOM     48  C   UNL A   1      45.841  27.995  31.849  1.00  0.00     0.029 A 
ATOM     49  N   UNL A   1      46.013  30.211  31.582  1.00  0.00    -0.354 N 
ATOM     50  C   UNL A   1      44.325  32.877  34.663  1.00  0.00     0.074 A 
ATOM     51  C   UNL A   1      43.698  32.105  35.708  1.00  0.00     0.031 C 
ATOM     52  C   UNL A   1      46.459  28.212  30.676  1.00  0.00     0.029 A 
ATOM     53  C   UNL A   1      46.548  29.651  30.451  1.00  0.00     0.049 A 
ATOM     54  H   UNL A   1      45.984  31.181  31.746  1.00  0.00     0.167 HD
ATOM     55  C   UNL A   1      44.380  34.226  34.637  1.00  0.00     0.034 A 
ATOM     56  C   UNL A   1      47.034  30.258  29.354  1.00  0.00     0.034 A 
ATOM     57  C   UNL A   1      45.006  34.953  33.571  1.00  0.00     0.049 A 
ATOM     58  C   UNL A   1      47.052  31.761  29.335  1.00  0.00     0.074 A 
ATOM     59  C   UNL A   1      45.158  36.318  33.429  1.00  0.00     0.029 A 
ATOM     60  N   UNL A   1      45.569  34.362  32.447  1.00  0.00    -0.354 N 
ATOM     61  N   UNL A   1      46.647  32.605  30.257  1.00  0.00    -0.248 NA
ATOM     62  C   UNL A   1      47.623  32.399  28.144  1.00  0.00     0.031 C 
ATOM     63  C   UNL A   1      45.779  36.553  32.196  1.00  0.00     0.029 A 
ATOM     64  C   UNL A   1      46.056  35.333  31.595  1.00  0.00     0.049 A 
ATOM     65  H   UNL A   1      45.615  33.393  32.282  1.00  0.00     0.167 HD
ATOM     66  C   UNL A   1      46.947  33.872  29.776  1.00  0.00     0.074 A 
ATOM     67  C   UNL A   1      47.583  33.680  28.486  1.00  0.00     0.031 C 
ATOM     68  C   UNL A   1      46.714  35.087  30.335  1.00  0.00     0.034 A 
BRANCH  55  69
ATOM     69  C   UNL A   1      43.742  34.969  35.781  1.00  0.00     0.023 A 
ATOM     70  C   UNL A   1      44.545  35.516  36.803  1.00  0.00     0.012 A 
ATOM     71  C   UNL A   1      42.345  35.121  35.846  1.00  0.00     0.148 A 
ATOM     72  C   UNL A   1      43.965  36.166  37.893  1.00  0.00     0.002 A 
ATOM     73  C   UNL A   1      41.777  35.814  36.909  1.00  0.00     0.091 A 
ATOM     74  F   UNL A   1      41.595  34.564  34.884  1.00  0.00    -0.205 F 
ATOM     75  C   UNL A   1      42.584  36.324  37.940  1.00  0.00     0.022 A 
BRANCH  73  76
ATOM     76  S   UNL A   1      40.014  36.135  37.023  1.00  0.00     0.127 S 
ATOM     77  O   UNL A   1      39.953  37.049  38.163  1.00  0.00    -0.237 OA
ATOM     78  O   UNL A   1      39.733  36.754  35.728  1.00  0.00    -0.237 OA
ATOM     79  O   UNL A   1      39.382  34.839  37.228  1.00  0.00    -0.744 OA
ENDBRANCH  73  76
ENDBRANCH  55  69
BRANCH  56  80
ATOM     80  C   UNL A   1      47.566  29.442  28.231  1.00  0.00     0.023 A 
ATOM     81  C   UNL A   1      48.867  28.911  28.316  1.00  0.00     0.012 A 
ATOM     82  C   UNL A   1      46.772  29.142  27.108  1.00  0.00     0.148 A 
ATOM     83  C   UNL A   1      49.378  28.120  27.287  1.00  0.00     0.002 A 
ATOM     84  C   UNL A   1      47.267  28.311  26.111  1.00  0.00     0.091 A 
ATOM     85  F   UNL A   1      45.536  29.659  27.049  1.00  0.00    -0.205 F 
ATOM     86  C   UNL A   1      48.576  27.812  26.191  1.00  0.00     0.022 A 
BRANCH  84  87
ATOM     87  S   UNL A   1      46.264  27.756  24.728  1.00  0.00     0.127 S 
ATOM     88  O   UNL A   1      46.691  28.667  23.668  1.00  0.00    -0.237 OA
ATOM     89  O   UNL A   1      46.710  26.373  24.570  1.00  0.00    -0.237 OA
ATOM     90  O   UNL A   1      44.880  27.898  25.160  1.00  0.00    -0.744 OA
ENDBRANCH  84  87
ENDBRANCH  56  80
BRANCH  68  91
ATOM     91  C   UNL A   1      47.187  36.292  29.571  1.00  0.00     0.023 A 
ATOM     92  C   UNL A   1      48.543  36.673  29.624  1.00  0.00     0.012 A 
ATOM     93  C   UNL A   1      46.296  36.998  28.739  1.00  0.00     0.148 A 
ATOM     94  C   UNL A   1      48.996  37.765  28.886  1.00  0.00     0.002 A 
ATOM     95  C   UNL A   1      46.768  38.046  27.962  1.00  0.00     0.091 A 
ATOM     96  F   UNL A   1      45.009  36.624  28.717  1.00  0.00    -0.205 F 
ATOM     97  C   UNL A   1      48.113  38.442  28.047  1.00  0.00     0.022 A 
BRANCH  95  98
ATOM     98  S   UNL A   1      45.731  38.902  26.774  1.00  0.00     0.127 S 
ATOM     99  O   UNL A   1      45.719  40.260  27.316  1.00  0.00    -0.237 OA
ATOM    100  O   UNL A   1      46.492  38.745  25.534  1.00  0.00    -0.237 OA
ATOM    101  O   UNL A   1      44.448  38.214  26.788  1.00  0.00    -0.744 OA
ENDBRANCH  95  98
ENDBRANCH  68  91
ENDBRANCH  42  43
ENDBRANCH  35  37
ENDBRANCH  34  35
ENDBRANCH  33  34
ENDBRANCH  32  33
ENDBRANCH  31  32
ENDBRANCH  30  31
ENDBRANCH  29  30
ENDBRANCH  28  29
ENDBRANCH   1  28
TORSDOF 28
ENDMDL
