MODEL 1
REMARK VINA RESULT:      -7.0      0.000      0.000
REMARK SMILES O=C(N[C@@H](Cc1ccc(O)cc1)C(=O)N[C@@H](CO)C(=O)OCCOCCOCCOCCOC(=O)c1ccc(-c2c3nc(c(-c4cccc(S(=O)(=O)[O-])c4F)c4ccc([nH]4)c(-c4cccc(S(=O)(=O)[O-])c4F)c4nc(c(-c5cccc(S(=O)(=O)[O-])c5F)c5ccc2[nH]5)C=C4)C=C3)cc1)c1ccc(F)cc1
REMARK SMILES IDX 26 1 25 2 24 3 23 4 22 5 21 6 19 7 20 8 16 9 15 10 13 11
REMARK SMILES IDX 14 12 4 14 3 15 1 16 2 17 99 19 100 20 105 21 101 22 104 23
REMARK SMILES IDX 102 24 103 25 5 26 6 27 7 28 12 29 8 30 11 31 9 32 10 33
REMARK SMILES IDX 17 35 18 36 27 38 28 39 29 40 30 41 31 42 32 43 33 44 34 45
REMARK SMILES IDX 35 46 36 47 37 48 98 49 38 50 97 51 39 52 40 53 41 54 91 55
REMARK SMILES IDX 42 56 96 57 90 58 92 59 43 60 95 61 89 62 88 63 44 65 76 66
REMARK SMILES IDX 56 67 75 68 57 69 60 70 74 71 93 72 58 73 59 74 73 76 94 77
REMARK SMILES IDX 61 78 45 79 46 80 54 81 47 82 49 83 55 84 48 85 50 86 51 87
REMARK SMILES IDX 52 88 53 89 77 90 78 91 86 92 79 93 81 94 87 95 80 96 82 97
REMARK SMILES IDX 83 98 84 99 85 100 62 101 63 102 71 103 64 104 66 105 72 106
REMARK SMILES IDX 65 107 67 108 68 109 69 110 70 111
REMARK H PARENT 15 13 3 18 10 34 18 37 92 64 60 75
REMARK Flexibility Score: inf
ROOT
ATOM      1  C   UNL A   1      44.026  23.618  31.812  1.00  0.00     0.188 C 
ENDROOT
BRANCH   1   2
ATOM      2  C   UNL A   1      44.848  24.897  31.945  1.00  0.00     0.188 C 
BRANCH   2   3
ATOM      3  O   UNL A   1      45.837  24.856  32.953  1.00  0.00    -0.376 OA
BRANCH   3   4
ATOM      4  C   UNL A   1      46.504  26.078  33.215  1.00  0.00     0.202 C 
BRANCH   4   5
ATOM      5  C   UNL A   1      45.756  27.210  33.954  1.00  0.00     0.261 C 
BRANCH   5   6
ATOM      6  O   UNL A   1      45.579  27.058  35.381  1.00  0.00    -0.462 OA
BRANCH   6   7
ATOM      7  C   UNL A   1      46.420  27.724  36.207  1.00  0.00     0.331 C 
ATOM      8  O   UNL A   1      47.411  28.340  35.815  1.00  0.00    -0.250 OA
BRANCH   7   9
ATOM      9  C   UNL A   1      46.019  27.639  37.713  1.00  0.00     0.218 C 
BRANCH   9  10
ATOM     10  N   UNL A   1      46.728  26.748  38.643  1.00  0.00    -0.339 N 
ATOM     11  C   UNL A   1      47.250  25.494  38.496  1.00  0.00     0.243 C 
ATOM     12  O   UNL A   1      47.726  24.980  39.519  1.00  0.00    -0.273 OA
ATOM     13  H   UNL A   1      46.849  27.127  39.543  1.00  0.00     0.164 HD
BRANCH  11  14
ATOM     14  C   UNL A   1      47.264  24.642  37.180  1.00  0.00     0.176 C 
BRANCH  14  15
ATOM     15  N   UNL A   1      45.921  24.372  36.679  1.00  0.00    -0.340 N 
ATOM     16  O   UNL A   1      44.235  23.138  35.867  1.00  0.00    -0.269 OA
ATOM     17  C   UNL A   1      45.269  23.172  36.528  1.00  0.00     0.251 C 
ATOM     18  H   UNL A   1      45.405  25.166  36.410  1.00  0.00     0.164 HD
BRANCH  17  19
ATOM     19  C   UNL A   1      45.788  21.910  37.117  1.00  0.00     0.040 A 
ATOM     20  C   UNL A   1      46.144  21.807  38.470  1.00  0.00     0.017 A 
ATOM     21  C   UNL A   1      45.811  20.764  36.308  1.00  0.00     0.017 A 
ATOM     22  C   UNL A   1      46.585  20.586  38.988  1.00  0.00     0.040 A 
ATOM     23  C   UNL A   1      46.233  19.540  36.834  1.00  0.00     0.040 A 
ATOM     24  C   UNL A   1      46.625  19.464  38.166  1.00  0.00     0.123 A 
ATOM     25  F   UNL A   1      47.032  18.291  38.669  1.00  0.00    -0.207 F 
ENDBRANCH  17  19
ENDBRANCH  14  15
BRANCH  14  26
ATOM     26  C   UNL A   1      48.355  24.815  36.079  1.00  0.00     0.070 C 
BRANCH  26  27
ATOM     27  C   UNL A   1      49.149  23.670  35.491  1.00  0.00    -0.045 A 
ATOM     28  C   UNL A   1      49.109  22.367  35.978  1.00  0.00     0.007 A 
ATOM     29  C   UNL A   1      49.964  23.919  34.369  1.00  0.00     0.007 A 
ATOM     30  C   UNL A   1      49.514  21.308  35.165  1.00  0.00     0.046 A 
ATOM     31  C   UNL A   1      50.424  22.864  33.575  1.00  0.00     0.046 A 
ATOM     32  C   UNL A   1      50.078  21.572  33.927  1.00  0.00     0.115 A 
BRANCH  32  33
ATOM     33  O   UNL A   1      50.193  20.580  33.000  1.00  0.00    -0.508 OA
ATOM     34  H   UNL A   1      50.926  20.566  32.418  1.00  0.00     0.293 HD
ENDBRANCH  32  33
ENDBRANCH  26  27
ENDBRANCH  14  26
ENDBRANCH  11  14
ENDBRANCH   9  10
BRANCH   9  35
ATOM     35  C   UNL A   1      45.974  29.067  38.265  1.00  0.00     0.193 C 
BRANCH  35  36
ATOM     36  O   UNL A   1      45.496  29.992  37.301  1.00  0.00    -0.394 OA
ATOM     37  H   UNL A   1      46.244  30.473  36.915  1.00  0.00     0.210 HD
ENDBRANCH  35  36
ENDBRANCH   9  35
ENDBRANCH   7   9
ENDBRANCH   6   7
ENDBRANCH   5   6
ENDBRANCH   4   5
ENDBRANCH   3   4
ENDBRANCH   2   3
ENDBRANCH   1   2
BRANCH   1  38
ATOM     38  O   UNL A   1      43.709  23.149  30.521  1.00  0.00    -0.377 OA
BRANCH  38  39
ATOM     39  C   UNL A   1      44.278  23.838  29.415  1.00  0.00     0.188 C 
BRANCH  39  40
ATOM     40  C   UNL A   1      44.540  23.081  28.088  1.00  0.00     0.188 C 
BRANCH  40  41
ATOM     41  O   UNL A   1      43.871  23.602  26.948  1.00  0.00    -0.376 OA
BRANCH  41  42
ATOM     42  C   UNL A   1      43.430  22.680  25.964  1.00  0.00     0.202 C 
BRANCH  42  43
ATOM     43  C   UNL A   1      42.633  21.450  26.419  1.00  0.00     0.261 C 
BRANCH  43  44
ATOM     44  O   UNL A   1      41.419  21.694  27.143  1.00  0.00    -0.460 OA
BRANCH  44  45
ATOM     45  C   UNL A   1      40.398  22.319  26.521  1.00  0.00     0.338 C 
ATOM     46  O   UNL A   1      39.478  21.799  25.910  1.00  0.00    -0.246 OA
BRANCH  45  47
ATOM     47  C   UNL A   1      40.472  23.744  26.914  1.00  0.00     0.060 A 
ATOM     48  C   UNL A   1      40.359  24.743  25.932  1.00  0.00     0.016 A 
ATOM     49  C   UNL A   1      40.547  24.088  28.264  1.00  0.00     0.016 A 
ATOM     50  C   UNL A   1      40.331  26.090  26.301  1.00  0.00     0.010 A 
ATOM     51  C   UNL A   1      40.559  25.434  28.629  1.00  0.00     0.010 A 
ATOM     52  C   UNL A   1      40.479  26.439  27.648  1.00  0.00    -0.014 A 
BRANCH  52  53
ATOM     53  C   UNL A   1      40.821  27.828  28.032  1.00  0.00     0.031 A 
ATOM     54  C   UNL A   1      42.282  28.178  28.098  1.00  0.00     0.074 A 
ATOM     55  C   UNL A   1      39.886  28.730  28.380  1.00  0.00     0.049 A 
ATOM     56  N   UNL A   1      42.860  29.251  28.562  1.00  0.00    -0.248 NA
ATOM     57  C   UNL A   1      43.218  27.163  27.580  1.00  0.00     0.031 C 
ATOM     58  C   UNL A   1      38.442  28.518  28.333  1.00  0.00     0.029 A 
ATOM     59  N   UNL A   1      40.027  29.998  28.890  1.00  0.00    -0.354 N 
ATOM     60  C   UNL A   1      44.224  29.024  28.436  1.00  0.00     0.074 A 
ATOM     61  C   UNL A   1      44.390  27.714  27.850  1.00  0.00     0.031 C 
ATOM     62  C   UNL A   1      37.827  29.602  28.840  1.00  0.00     0.029 A 
ATOM     63  C   UNL A   1      38.836  30.564  29.285  1.00  0.00     0.049 A 
ATOM     64  H   UNL A   1      40.895  30.456  28.966  1.00  0.00     0.167 HD
ATOM     65  C   UNL A   1      45.250  29.835  28.779  1.00  0.00     0.034 A 
ATOM     66  C   UNL A   1      38.599  31.704  29.967  1.00  0.00     0.034 A 
ATOM     67  C   UNL A   1      45.080  31.136  29.360  1.00  0.00     0.049 A 
ATOM     68  C   UNL A   1      39.762  32.572  30.382  1.00  0.00     0.074 A 
ATOM     69  C   UNL A   1      46.054  32.054  29.708  1.00  0.00     0.029 A 
ATOM     70  N   UNL A   1      43.858  31.695  29.698  1.00  0.00    -0.354 N 
ATOM     71  N   UNL A   1      41.045  32.393  30.173  1.00  0.00    -0.248 NA
ATOM     72  C   UNL A   1      39.446  33.814  31.107  1.00  0.00     0.031 C 
ATOM     73  C   UNL A   1      45.422  33.152  30.296  1.00  0.00     0.029 A 
ATOM     74  C   UNL A   1      44.053  32.941  30.265  1.00  0.00     0.049 A 
ATOM     75  H   UNL A   1      42.983  31.268  29.556  1.00  0.00     0.167 HD
ATOM     76  C   UNL A   1      41.681  33.517  30.693  1.00  0.00     0.074 A 
ATOM     77  C   UNL A   1      40.643  34.374  31.227  1.00  0.00     0.031 C 
ATOM     78  C   UNL A   1      43.004  33.811  30.729  1.00  0.00     0.034 A 
BRANCH  65  79
ATOM     79  C   UNL A   1      46.647  29.333  28.537  1.00  0.00     0.023 A 
ATOM     80  C   UNL A   1      47.369  29.773  27.410  1.00  0.00     0.012 A 
ATOM     81  C   UNL A   1      47.259  28.455  29.453  1.00  0.00     0.148 A 
ATOM     82  C   UNL A   1      48.667  29.321  27.179  1.00  0.00     0.002 A 
ATOM     83  C   UNL A   1      48.570  28.050  29.245  1.00  0.00     0.091 A 
ATOM     84  F   UNL A   1      46.545  28.028  30.504  1.00  0.00    -0.205 F 
ATOM     85  C   UNL A   1      49.272  28.471  28.102  1.00  0.00     0.022 A 
BRANCH  83  86
ATOM     86  S   UNL A   1      49.463  27.023  30.415  1.00  0.00     0.127 S 
ATOM     87  O   UNL A   1      48.631  25.821  30.448  1.00  0.00    -0.237 OA
ATOM     88  O   UNL A   1      50.754  26.852  29.748  1.00  0.00    -0.237 OA
ATOM     89  O   UNL A   1      49.516  27.779  31.658  1.00  0.00    -0.744 OA
ENDBRANCH  83  86
ENDBRANCH  65  79
BRANCH  66  90
ATOM     90  C   UNL A   1      37.200  32.102  30.300  1.00  0.00     0.023 A 
ATOM     91  C   UNL A   1      36.650  31.737  31.544  1.00  0.00     0.012 A 
ATOM     92  C   UNL A   1      36.413  32.835  29.391  1.00  0.00     0.148 A 
ATOM     93  C   UNL A   1      35.332  32.066  31.864  1.00  0.00     0.002 A 
ATOM     94  C   UNL A   1      35.120  33.209  29.738  1.00  0.00     0.091 A 
ATOM     95  F   UNL A   1      36.947  33.157  28.205  1.00  0.00    -0.205 F 
ATOM     96  C   UNL A   1      34.571  32.810  30.967  1.00  0.00     0.022 A 
BRANCH  94  97
ATOM     97  S   UNL A   1      34.109  34.269  28.699  1.00  0.00     0.127 S 
ATOM     98  O   UNL A   1      34.146  33.561  27.423  1.00  0.00    -0.237 OA
ATOM     99  O   UNL A   1      32.821  34.223  29.391  1.00  0.00    -0.237 OA
ATOM    100  O   UNL A   1      34.756  35.573  28.717  1.00  0.00    -0.744 OA
ENDBRANCH  94  97
ENDBRANCH  66  90
BRANCH  78 101
ATOM    101  C   UNL A   1      43.426  35.144  31.289  1.00  0.00     0.023 A 
ATOM    102  C   UNL A   1      43.814  35.261  32.637  1.00  0.00     0.012 A 
ATOM    103  C   UNL A   1      43.559  36.254  30.430  1.00  0.00     0.148 A 
ATOM    104  C   UNL A   1      44.313  36.469  33.125  1.00  0.00     0.002 A 
ATOM    105  C   UNL A   1      44.106  37.437  30.910  1.00  0.00     0.091 A 
ATOM    106  F   UNL A   1      43.171  36.123  29.153  1.00  0.00    -0.205 F 
ATOM    107  C   UNL A   1      44.473  37.549  32.260  1.00  0.00     0.022 A 
BRANCH 105 108
ATOM    108  S   UNL A   1      44.450  38.844  29.848  1.00  0.00     0.127 S 
ATOM    109  O   UNL A   1      44.999  39.809  30.800  1.00  0.00    -0.237 OA
ATOM    110  O   UNL A   1      45.425  38.290  28.910  1.00  0.00    -0.237 OA
ATOM    111  O   UNL A   1      43.177  39.223  29.249  1.00  0.00    -0.744 OA
ENDBRANCH 105 108
ENDBRANCH  78 101
ENDBRANCH  52  53
ENDBRANCH  45  47
ENDBRANCH  44  45
ENDBRANCH  43  44
ENDBRANCH  42  43
ENDBRANCH  41  42
ENDBRANCH  40  41
ENDBRANCH  39  40
ENDBRANCH  38  39
ENDBRANCH   1  38
TORSDOF 32
ENDMDL
MODEL 2
REMARK VINA RESULT:      -6.8      2.417      3.420
REMARK SMILES O=C(N[C@@H](Cc1ccc(O)cc1)C(=O)N[C@@H](CO)C(=O)OCCOCCOCCOCCOC(=O)c1ccc(-c2c3nc(c(-c4cccc(S(=O)(=O)[O-])c4F)c4ccc([nH]4)c(-c4cccc(S(=O)(=O)[O-])c4F)c4nc(c(-c5cccc(S(=O)(=O)[O-])c5F)c5ccc2[nH]5)C=C4)C=C3)cc1)c1ccc(F)cc1
REMARK SMILES IDX 26 1 25 2 24 3 23 4 22 5 21 6 19 7 20 8 16 9 15 10 13 11
REMARK SMILES IDX 14 12 4 14 3 15 1 16 2 17 99 19 100 20 105 21 101 22 104 23
REMARK SMILES IDX 102 24 103 25 5 26 6 27 7 28 12 29 8 30 11 31 9 32 10 33
REMARK SMILES IDX 17 35 18 36 27 38 28 39 29 40 30 41 31 42 32 43 33 44 34 45
REMARK SMILES IDX 35 46 36 47 37 48 98 49 38 50 97 51 39 52 40 53 41 54 91 55
REMARK SMILES IDX 42 56 96 57 90 58 92 59 43 60 95 61 89 62 88 63 44 65 76 66
REMARK SMILES IDX 56 67 75 68 57 69 60 70 74 71 93 72 58 73 59 74 73 76 94 77
REMARK SMILES IDX 61 78 45 79 46 80 54 81 47 82 49 83 55 84 48 85 50 86 51 87
REMARK SMILES IDX 52 88 53 89 77 90 78 91 86 92 79 93 81 94 87 95 80 96 82 97
REMARK SMILES IDX 83 98 84 99 85 100 62 101 63 102 71 103 64 104 66 105 72 106
REMARK SMILES IDX 65 107 67 108 68 109 69 110 70 111
REMARK H PARENT 15 13 3 18 10 34 18 37 92 64 60 75
REMARK Flexibility Score: inf
ROOT
ATOM      1  C   UNL A   1      43.777  23.187  30.811  1.00  0.00     0.188 C 
ENDROOT
BRANCH   1   2
ATOM      2  C   UNL A   1      44.466  24.508  31.144  1.00  0.00     0.188 C 
BRANCH   2   3
ATOM      3  O   UNL A   1      45.310  24.459  32.275  1.00  0.00    -0.376 OA
BRANCH   3   4
ATOM      4  C   UNL A   1      46.019  25.649  32.570  1.00  0.00     0.202 C 
BRANCH   4   5
ATOM      5  C   UNL A   1      45.845  26.317  33.953  1.00  0.00     0.261 C 
BRANCH   5   6
ATOM      6  O   UNL A   1      46.151  25.511  35.113  1.00  0.00    -0.462 OA
BRANCH   6   7
ATOM      7  C   UNL A   1      45.602  25.862  36.301  1.00  0.00     0.331 C 
ATOM      8  O   UNL A   1      45.851  26.920  36.878  1.00  0.00    -0.250 OA
BRANCH   7   9
ATOM      9  C   UNL A   1      44.620  24.795  36.878  1.00  0.00     0.218 C 
BRANCH   9  10
ATOM     10  N   UNL A   1      44.623  24.446  38.306  1.00  0.00    -0.339 N 
ATOM     11  C   UNL A   1      45.411  23.608  39.045  1.00  0.00     0.243 C 
ATOM     12  O   UNL A   1      45.095  23.477  40.237  1.00  0.00    -0.273 OA
ATOM     13  H   UNL A   1      43.926  24.902  38.829  1.00  0.00     0.164 HD
BRANCH  11  14
ATOM     14  C   UNL A   1      46.633  22.779  38.521  1.00  0.00     0.176 C 
BRANCH  14  15
ATOM     15  N   UNL A   1      47.686  23.629  37.974  1.00  0.00    -0.340 N 
ATOM     16  O   UNL A   1      49.514  24.131  36.777  1.00  0.00    -0.269 OA
ATOM     17  C   UNL A   1      48.543  23.393  36.927  1.00  0.00     0.251 C 
ATOM     18  H   UNL A   1      47.798  24.498  38.421  1.00  0.00     0.164 HD
BRANCH  17  19
ATOM     19  C   UNL A   1      48.350  22.260  35.985  1.00  0.00     0.040 A 
ATOM     20  C   UNL A   1      47.326  22.252  35.025  1.00  0.00     0.017 A 
ATOM     21  C   UNL A   1      49.296  21.225  35.992  1.00  0.00     0.017 A 
ATOM     22  C   UNL A   1      47.212  21.183  34.131  1.00  0.00     0.040 A 
ATOM     23  C   UNL A   1      49.191  20.168  35.084  1.00  0.00     0.040 A 
ATOM     24  C   UNL A   1      48.144  20.153  34.169  1.00  0.00     0.123 A 
ATOM     25  F   UNL A   1      48.043  19.138  33.299  1.00  0.00    -0.207 F 
ENDBRANCH  17  19
ENDBRANCH  14  15
BRANCH  14  26
ATOM     26  C   UNL A   1      47.134  21.482  39.228  1.00  0.00     0.070 C 
BRANCH  26  27
ATOM     27  C   UNL A   1      46.742  20.085  38.803  1.00  0.00    -0.045 A 
ATOM     28  C   UNL A   1      46.806  18.973  39.638  1.00  0.00     0.007 A 
ATOM     29  C   UNL A   1      46.259  19.887  37.495  1.00  0.00     0.007 A 
ATOM     30  C   UNL A   1      46.057  17.834  39.339  1.00  0.00     0.046 A 
ATOM     31  C   UNL A   1      45.553  18.726  37.165  1.00  0.00     0.046 A 
ATOM     32  C   UNL A   1      45.358  17.769  38.144  1.00  0.00     0.115 A 
BRANCH  32  33
ATOM     33  O   UNL A   1      44.390  16.828  37.966  1.00  0.00    -0.508 OA
ATOM     34  H   UNL A   1      44.627  15.931  37.838  1.00  0.00     0.293 HD
ENDBRANCH  32  33
ENDBRANCH  26  27
ENDBRANCH  14  26
ENDBRANCH  11  14
ENDBRANCH   9  10
BRANCH   9  35
ATOM     35  C   UNL A   1      43.207  25.166  36.418  1.00  0.00     0.193 C 
BRANCH  35  36
ATOM     36  O   UNL A   1      42.214  24.412  37.097  1.00  0.00    -0.394 OA
ATOM     37  H   UNL A   1      41.549  25.013  37.466  1.00  0.00     0.210 HD
ENDBRANCH  35  36
ENDBRANCH   9  35
ENDBRANCH   7   9
ENDBRANCH   6   7
ENDBRANCH   5   6
ENDBRANCH   4   5
ENDBRANCH   3   4
ENDBRANCH   2   3
ENDBRANCH   1   2
BRANCH   1  38
ATOM     38  O   UNL A   1      43.911  22.663  29.509  1.00  0.00    -0.377 OA
BRANCH  38  39
ATOM     39  C   UNL A   1      44.531  23.489  28.531  1.00  0.00     0.188 C 
BRANCH  39  40
ATOM     40  C   UNL A   1      44.690  22.974  27.078  1.00  0.00     0.188 C 
BRANCH  40  41
ATOM     41  O   UNL A   1      43.552  23.144  26.244  1.00  0.00    -0.376 OA
BRANCH  41  42
ATOM     42  C   UNL A   1      43.074  22.008  25.543  1.00  0.00     0.202 C 
BRANCH  42  43
ATOM     43  C   UNL A   1      42.020  21.120  26.221  1.00  0.00     0.261 C 
BRANCH  43  44
ATOM     44  O   UNL A   1      41.164  21.748  27.185  1.00  0.00    -0.460 OA
BRANCH  44  45
ATOM     45  C   UNL A   1      40.142  22.516  26.752  1.00  0.00     0.338 C 
ATOM     46  O   UNL A   1      39.074  22.135  26.297  1.00  0.00    -0.246 OA
BRANCH  45  47
ATOM     47  C   UNL A   1      40.460  23.906  27.146  1.00  0.00     0.060 A 
ATOM     48  C   UNL A   1      40.196  24.960  26.255  1.00  0.00     0.016 A 
ATOM     49  C   UNL A   1      40.921  24.173  28.437  1.00  0.00     0.016 A 
ATOM     50  C   UNL A   1      40.402  26.283  26.652  1.00  0.00     0.010 A 
ATOM     51  C   UNL A   1      41.164  25.492  28.819  1.00  0.00     0.010 A 
ATOM     52  C   UNL A   1      40.933  26.549  27.920  1.00  0.00    -0.014 A 
BRANCH  52  53
ATOM     53  C   UNL A   1      41.502  27.879  28.233  1.00  0.00     0.031 A 
ATOM     54  C   UNL A   1      42.998  28.015  28.162  1.00  0.00     0.074 A 
ATOM     55  C   UNL A   1      40.741  28.912  28.636  1.00  0.00     0.049 A 
ATOM     56  N   UNL A   1      43.763  29.000  28.544  1.00  0.00    -0.248 NA
ATOM     57  C   UNL A   1      43.729  26.868  27.593  1.00  0.00     0.031 C 
ATOM     58  C   UNL A   1      39.283  28.910  28.721  1.00  0.00     0.029 A 
ATOM     59  N   UNL A   1      41.107  30.154  29.097  1.00  0.00    -0.354 N 
ATOM     60  C   UNL A   1      45.064  28.577  28.307  1.00  0.00     0.074 A 
ATOM     61  C   UNL A   1      44.987  27.248  27.745  1.00  0.00     0.031 C 
ATOM     62  C   UNL A   1      38.877  30.080  29.249  1.00  0.00     0.029 A 
ATOM     63  C   UNL A   1      40.049  30.892  29.578  1.00  0.00     0.049 A 
ATOM     64  H   UNL A   1      42.034  30.483  29.084  1.00  0.00     0.167 HD
ATOM     65  C   UNL A   1      46.221  29.236  28.536  1.00  0.00     0.034 A 
ATOM     66  C   UNL A   1      40.040  32.064  30.246  1.00  0.00     0.034 A 
ATOM     67  C   UNL A   1      46.292  30.557  29.093  1.00  0.00     0.049 A 
ATOM     68  C   UNL A   1      41.347  32.762  30.533  1.00  0.00     0.074 A 
ATOM     69  C   UNL A   1      47.414  31.329  29.330  1.00  0.00     0.029 A 
ATOM     70  N   UNL A   1      45.198  31.291  29.521  1.00  0.00    -0.354 N 
ATOM     71  N   UNL A   1      42.567  32.395  30.219  1.00  0.00    -0.248 NA
ATOM     72  C   UNL A   1      41.278  34.047  31.249  1.00  0.00     0.031 C 
ATOM     73  C   UNL A   1      47.001  32.515  29.939  1.00  0.00     0.029 A 
ATOM     74  C   UNL A   1      45.618  32.504  30.034  1.00  0.00     0.049 A 
ATOM     75  H   UNL A   1      44.261  30.993  29.467  1.00  0.00     0.167 HD
ATOM     76  C   UNL A   1      43.401  33.423  30.650  1.00  0.00     0.074 A 
ATOM     77  C   UNL A   1      42.548  34.430  31.248  1.00  0.00     0.031 C 
ATOM     78  C   UNL A   1      44.750  33.524  30.563  1.00  0.00     0.034 A 
BRANCH  65  79
ATOM     79  C   UNL A   1      47.505  28.534  28.188  1.00  0.00     0.023 A 
ATOM     80  C   UNL A   1      48.249  27.885  29.194  1.00  0.00     0.012 A 
ATOM     81  C   UNL A   1      47.951  28.481  26.853  1.00  0.00     0.148 A 
ATOM     82  C   UNL A   1      49.436  27.224  28.882  1.00  0.00     0.002 A 
ATOM     83  C   UNL A   1      49.106  27.776  26.542  1.00  0.00     0.091 A 
ATOM     84  F   UNL A   1      47.243  29.127  25.916  1.00  0.00    -0.205 F 
ATOM     85  C   UNL A   1      49.857  27.159  27.556  1.00  0.00     0.022 A 
BRANCH  83  86
ATOM     86  S   UNL A   1      49.686  27.566  24.857  1.00  0.00     0.127 S 
ATOM     87  O   UNL A   1      48.427  27.434  24.124  1.00  0.00    -0.237 OA
ATOM     88  O   UNL A   1      50.401  28.821  24.621  1.00  0.00    -0.237 OA
ATOM     89  O   UNL A   1      50.529  26.378  24.865  1.00  0.00    -0.744 OA
ENDBRANCH  83  86
ENDBRANCH  65  79
BRANCH  66  90
ATOM     90  C   UNL A   1      38.748  32.665  30.688  1.00  0.00     0.023 A 
ATOM     91  C   UNL A   1      37.881  33.233  29.735  1.00  0.00     0.012 A 
ATOM     92  C   UNL A   1      38.376  32.681  32.048  1.00  0.00     0.148 A 
ATOM     93  C   UNL A   1      36.685  33.834  30.127  1.00  0.00     0.002 A 
ATOM     94  C   UNL A   1      37.157  33.231  32.426  1.00  0.00     0.091 A 
ATOM     95  F   UNL A   1      39.222  32.152  32.943  1.00  0.00    -0.205 F 
ATOM     96  C   UNL A   1      36.318  33.824  31.470  1.00  0.00     0.022 A 
BRANCH  94  97
ATOM     97  S   UNL A   1      36.546  33.155  34.113  1.00  0.00     0.127 S 
ATOM     98  O   UNL A   1      37.044  34.410  34.669  1.00  0.00    -0.237 OA
ATOM     99  O   UNL A   1      35.099  33.105  33.904  1.00  0.00    -0.237 OA
ATOM    100  O   UNL A   1      37.113  31.942  34.685  1.00  0.00    -0.744 OA
ENDBRANCH  94  97
ENDBRANCH  66  90
BRANCH  78 101
ATOM    101  C   UNL A   1      45.407  34.790  31.046  1.00  0.00     0.023 A 
ATOM    102  C   UNL A   1      45.995  34.845  32.323  1.00  0.00     0.012 A 
ATOM    103  C   UNL A   1      45.549  35.885  30.168  1.00  0.00     0.148 A 
ATOM    104  C   UNL A   1      46.702  35.979  32.726  1.00  0.00     0.002 A 
ATOM    105  C   UNL A   1      46.299  36.987  30.557  1.00  0.00     0.091 A 
ATOM    106  F   UNL A   1      44.970  35.815  28.962  1.00  0.00    -0.205 F 
ATOM    107  C   UNL A   1      46.867  37.041  31.839  1.00  0.00     0.022 A 
BRANCH 105 108
ATOM    108  S   UNL A   1      46.656  38.353  29.445  1.00  0.00     0.127 S 
ATOM    109  O   UNL A   1      47.316  37.667  28.335  1.00  0.00    -0.237 OA
ATOM    110  O   UNL A   1      45.319  38.859  29.141  1.00  0.00    -0.237 OA
ATOM    111  O   UNL A   1      47.501  39.275  30.192  1.00  0.00    -0.744 OA
ENDBRANCH 105 108
ENDBRANCH  78 101
ENDBRANCH  52  53
ENDBRANCH  45  47
ENDBRANCH  44  45
ENDBRANCH  43  44
ENDBRANCH  42  43
ENDBRANCH  41  42
ENDBRANCH  40  41
ENDBRANCH  39  40
ENDBRANCH  38  39
ENDBRANCH   1  38
TORSDOF 32
ENDMDL
MODEL 3
REMARK VINA RESULT:      -6.6      3.818      9.860
REMARK SMILES O=C(N[C@@H](Cc1ccc(O)cc1)C(=O)N[C@@H](CO)C(=O)OCCOCCOCCOCCOC(=O)c1ccc(-c2c3nc(c(-c4cccc(S(=O)(=O)[O-])c4F)c4ccc([nH]4)c(-c4cccc(S(=O)(=O)[O-])c4F)c4nc(c(-c5cccc(S(=O)(=O)[O-])c5F)c5ccc2[nH]5)C=C4)C=C3)cc1)c1ccc(F)cc1
REMARK SMILES IDX 26 1 25 2 24 3 23 4 22 5 21 6 19 7 20 8 16 9 15 10 13 11
REMARK SMILES IDX 14 12 4 14 3 15 1 16 2 17 99 19 100 20 105 21 101 22 104 23
REMARK SMILES IDX 102 24 103 25 5 26 6 27 7 28 12 29 8 30 11 31 9 32 10 33
REMARK SMILES IDX 17 35 18 36 27 38 28 39 29 40 30 41 31 42 32 43 33 44 34 45
REMARK SMILES IDX 35 46 36 47 37 48 98 49 38 50 97 51 39 52 40 53 41 54 91 55
REMARK SMILES IDX 42 56 96 57 90 58 92 59 43 60 95 61 89 62 88 63 44 65 76 66
REMARK SMILES IDX 56 67 75 68 57 69 60 70 74 71 93 72 58 73 59 74 73 76 94 77
REMARK SMILES IDX 61 78 45 79 46 80 54 81 47 82 49 83 55 84 48 85 50 86 51 87
REMARK SMILES IDX 52 88 53 89 77 90 78 91 86 92 79 93 81 94 87 95 80 96 82 97
REMARK SMILES IDX 83 98 84 99 85 100 62 101 63 102 71 103 64 104 66 105 72 106
REMARK SMILES IDX 65 107 67 108 68 109 69 110 70 111
REMARK H PARENT 15 13 3 18 10 34 18 37 92 64 60 75
REMARK Flexibility Score: inf
ROOT
ATOM      1  C   UNL A   1      41.214  26.609  27.006  1.00  0.00     0.188 C 
ENDROOT
BRANCH   1   2
ATOM      2  C   UNL A   1      40.219  27.527  27.713  1.00  0.00     0.188 C 
BRANCH   2   3
ATOM      3  O   UNL A   1      40.807  28.450  28.605  1.00  0.00    -0.376 OA
BRANCH   3   4
ATOM      4  C   UNL A   1      41.185  27.934  29.869  1.00  0.00     0.202 C 
BRANCH   4   5
ATOM      5  C   UNL A   1      40.218  28.071  31.068  1.00  0.00     0.261 C 
BRANCH   5   6
ATOM      6  O   UNL A   1      40.415  29.206  31.942  1.00  0.00    -0.462 OA
BRANCH   6   7
ATOM      7  C   UNL A   1      39.492  29.441  32.906  1.00  0.00     0.331 C 
ATOM      8  O   UNL A   1      38.552  28.683  33.144  1.00  0.00    -0.250 OA
BRANCH   7   9
ATOM      9  C   UNL A   1      39.728  30.769  33.690  1.00  0.00     0.218 C 
BRANCH   9  10
ATOM     10  N   UNL A   1      38.873  31.945  33.474  1.00  0.00    -0.339 N 
ATOM     11  C   UNL A   1      38.828  32.877  32.475  1.00  0.00     0.243 C 
ATOM     12  O   UNL A   1      38.023  33.807  32.635  1.00  0.00    -0.273 OA
ATOM     13  H   UNL A   1      38.209  32.091  34.185  1.00  0.00     0.164 HD
BRANCH  11  14
ATOM     14  C   UNL A   1      39.715  32.897  31.183  1.00  0.00     0.176 C 
BRANCH  14  15
ATOM     15  N   UNL A   1      39.482  31.735  30.331  1.00  0.00    -0.340 N 
ATOM     16  O   UNL A   1      38.284  30.171  29.263  1.00  0.00    -0.269 OA
ATOM     17  C   UNL A   1      38.320  31.301  29.744  1.00  0.00     0.251 C 
ATOM     18  H   UNL A   1      40.276  31.182  30.151  1.00  0.00     0.164 HD
BRANCH  17  19
ATOM     19  C   UNL A   1      37.095  32.142  29.694  1.00  0.00     0.040 A 
ATOM     20  C   UNL A   1      36.957  33.207  28.791  1.00  0.00     0.017 A 
ATOM     21  C   UNL A   1      36.009  31.778  30.503  1.00  0.00     0.017 A 
ATOM     22  C   UNL A   1      35.768  33.942  28.751  1.00  0.00     0.040 A 
ATOM     23  C   UNL A   1      34.815  32.501  30.446  1.00  0.00     0.040 A 
ATOM     24  C   UNL A   1      34.709  33.582  29.578  1.00  0.00     0.123 A 
ATOM     25  F   UNL A   1      33.564  34.277  29.526  1.00  0.00    -0.207 F 
ENDBRANCH  17  19
ENDBRANCH  14  15
BRANCH  14  26
ATOM     26  C   UNL A   1      40.059  34.214  30.421  1.00  0.00     0.070 C 
BRANCH  26  27
ATOM     27  C   UNL A   1      41.468  34.719  30.203  1.00  0.00    -0.045 A 
ATOM     28  C   UNL A   1      42.107  34.727  28.966  1.00  0.00     0.007 A 
ATOM     29  C   UNL A   1      42.177  35.237  31.303  1.00  0.00     0.007 A 
ATOM     30  C   UNL A   1      43.202  35.566  28.755  1.00  0.00     0.046 A 
ATOM     31  C   UNL A   1      43.309  36.034  31.109  1.00  0.00     0.046 A 
ATOM     32  C   UNL A   1      43.727  36.286  29.816  1.00  0.00     0.115 A 
BRANCH  32  33
ATOM     33  O   UNL A   1      44.576  37.327  29.585  1.00  0.00    -0.508 OA
ATOM     34  H   UNL A   1      45.126  37.323  28.827  1.00  0.00     0.293 HD
ENDBRANCH  32  33
ENDBRANCH  26  27
ENDBRANCH  14  26
ENDBRANCH  11  14
ENDBRANCH   9  10
BRANCH   9  35
ATOM     35  C   UNL A   1      39.801  30.423  35.180  1.00  0.00     0.193 C 
BRANCH  35  36
ATOM     36  O   UNL A   1      41.119  30.083  35.581  1.00  0.00    -0.394 OA
ATOM     37  H   UNL A   1      41.093  29.667  36.457  1.00  0.00     0.210 HD
ENDBRANCH  35  36
ENDBRANCH   9  35
ENDBRANCH   7   9
ENDBRANCH   6   7
ENDBRANCH   5   6
ENDBRANCH   4   5
ENDBRANCH   3   4
ENDBRANCH   2   3
ENDBRANCH   1   2
BRANCH   1  38
ATOM     38  O   UNL A   1      40.876  25.251  26.834  1.00  0.00    -0.377 OA
BRANCH  38  39
ATOM     39  C   UNL A   1      41.740  24.458  26.028  1.00  0.00     0.188 C 
BRANCH  39  40
ATOM     40  C   UNL A   1      42.096  23.016  26.470  1.00  0.00     0.188 C 
BRANCH  40  41
ATOM     41  O   UNL A   1      43.485  22.743  26.593  1.00  0.00    -0.376 OA
BRANCH  41  42
ATOM     42  C   UNL A   1      44.044  21.767  25.729  1.00  0.00     0.202 C 
BRANCH  42  43
ATOM     43  C   UNL A   1      44.950  22.238  24.582  1.00  0.00     0.261 C 
BRANCH  43  44
ATOM     44  O   UNL A   1      46.286  22.628  24.928  1.00  0.00    -0.460 OA
BRANCH  44  45
ATOM     45  C   UNL A   1      46.715  23.864  24.595  1.00  0.00     0.338 C 
ATOM     46  O   UNL A   1      47.175  24.221  23.521  1.00  0.00    -0.246 OA
BRANCH  45  47
ATOM     47  C   UNL A   1      46.311  24.763  25.698  1.00  0.00     0.060 A 
ATOM     48  C   UNL A   1      45.199  25.606  25.537  1.00  0.00     0.016 A 
ATOM     49  C   UNL A   1      46.970  24.693  26.927  1.00  0.00     0.016 A 
ATOM     50  C   UNL A   1      44.750  26.388  26.603  1.00  0.00     0.010 A 
ATOM     51  C   UNL A   1      46.545  25.504  27.980  1.00  0.00     0.010 A 
ATOM     52  C   UNL A   1      45.453  26.374  27.814  1.00  0.00    -0.014 A 
BRANCH  52  53
ATOM     53  C   UNL A   1      45.239  27.439  28.820  1.00  0.00     0.031 A 
ATOM     54  C   UNL A   1      45.633  28.836  28.429  1.00  0.00     0.074 A 
ATOM     55  C   UNL A   1      44.785  27.179  30.058  1.00  0.00     0.049 A 
ATOM     56  N   UNL A   1      45.713  29.913  29.161  1.00  0.00    -0.248 NA
ATOM     57  C   UNL A   1      46.003  29.037  27.016  1.00  0.00     0.031 C 
ATOM     58  C   UNL A   1      44.348  25.873  30.546  1.00  0.00     0.029 A 
ATOM     59  N   UNL A   1      44.662  28.007  31.148  1.00  0.00    -0.354 N 
ATOM     60  C   UNL A   1      46.185  30.907  28.312  1.00  0.00     0.074 A 
ATOM     61  C   UNL A   1      46.371  30.307  27.011  1.00  0.00     0.031 C 
ATOM     62  C   UNL A   1      44.048  25.976  31.854  1.00  0.00     0.029 A 
ATOM     63  C   UNL A   1      44.313  27.344  32.302  1.00  0.00     0.049 A 
ATOM     64  H   UNL A   1      44.809  28.979  31.107  1.00  0.00     0.167 HD
ATOM     65  C   UNL A   1      46.441  32.204  28.592  1.00  0.00     0.034 A 
ATOM     66  C   UNL A   1      44.260  27.785  33.576  1.00  0.00     0.034 A 
ATOM     67  C   UNL A   1      46.254  32.795  29.886  1.00  0.00     0.049 A 
ATOM     68  C   UNL A   1      44.595  29.226  33.874  1.00  0.00     0.074 A 
ATOM     69  C   UNL A   1      46.448  34.110  30.265  1.00  0.00     0.029 A 
ATOM     70  N   UNL A   1      45.852  32.103  31.017  1.00  0.00    -0.354 N 
ATOM     71  N   UNL A   1      44.949  30.181  33.047  1.00  0.00    -0.248 NA
ATOM     72  C   UNL A   1      44.503  29.660  35.278  1.00  0.00     0.031 C 
ATOM     73  C   UNL A   1      46.202  34.205  31.636  1.00  0.00     0.029 A 
ATOM     74  C   UNL A   1      45.804  32.962  32.100  1.00  0.00     0.049 A 
ATOM     75  H   UNL A   1      45.633  31.144  31.045  1.00  0.00     0.167 HD
ATOM     76  C   UNL A   1      45.071  31.334  33.819  1.00  0.00     0.074 A 
ATOM     77  C   UNL A   1      44.753  30.959  35.181  1.00  0.00     0.031 C 
ATOM     78  C   UNL A   1      45.419  32.587  33.436  1.00  0.00     0.034 A 
BRANCH  65  79
ATOM     79  C   UNL A   1      46.957  33.069  27.475  1.00  0.00     0.023 A 
ATOM     80  C   UNL A   1      46.082  33.944  26.800  1.00  0.00     0.012 A 
ATOM     81  C   UNL A   1      48.320  33.045  27.123  1.00  0.00     0.148 A 
ATOM     82  C   UNL A   1      46.550  34.757  25.768  1.00  0.00     0.002 A 
ATOM     83  C   UNL A   1      48.789  33.895  26.131  1.00  0.00     0.091 A 
ATOM     84  F   UNL A   1      49.129  32.187  27.759  1.00  0.00    -0.205 F 
ATOM     85  C   UNL A   1      47.903  34.742  25.442  1.00  0.00     0.022 A 
BRANCH  83  86
ATOM     86  S   UNL A   1      50.526  34.008  25.694  1.00  0.00     0.127 S 
ATOM     87  O   UNL A   1      50.529  35.152  24.783  1.00  0.00    -0.237 OA
ATOM     88  O   UNL A   1      51.151  34.261  26.993  1.00  0.00    -0.237 OA
ATOM     89  O   UNL A   1      50.875  32.730  25.090  1.00  0.00    -0.744 OA
ENDBRANCH  83  86
ENDBRANCH  65  79
BRANCH  66  90
ATOM     90  C   UNL A   1      43.867  26.857  34.677  1.00  0.00     0.023 A 
ATOM     91  C   UNL A   1      42.504  26.671  34.977  1.00  0.00     0.012 A 
ATOM     92  C   UNL A   1      44.835  26.162  35.428  1.00  0.00     0.148 A 
ATOM     93  C   UNL A   1      42.112  25.837  36.025  1.00  0.00     0.002 A 
ATOM     94  C   UNL A   1      44.437  25.289  36.433  1.00  0.00     0.091 A 
ATOM     95  F   UNL A   1      46.128  26.366  35.140  1.00  0.00    -0.205 F 
ATOM     96  C   UNL A   1      43.077  25.139  36.746  1.00  0.00     0.022 A 
BRANCH  94  97
ATOM     97  S   UNL A   1      45.599  24.257  37.333  1.00  0.00     0.127 S 
ATOM     98  O   UNL A   1      45.874  23.200  36.363  1.00  0.00    -0.237 OA
ATOM     99  O   UNL A   1      46.707  25.185  37.562  1.00  0.00    -0.237 OA
ATOM    100  O   UNL A   1      44.904  23.839  38.542  1.00  0.00    -0.744 OA
ENDBRANCH  94  97
ENDBRANCH  66  90
BRANCH  78 101
ATOM    101  C   UNL A   1      45.403  33.682  34.470  1.00  0.00     0.023 A 
ATOM    102  C   UNL A   1      46.595  34.085  35.100  1.00  0.00     0.012 A 
ATOM    103  C   UNL A   1      44.212  34.398  34.714  1.00  0.00     0.148 A 
ATOM    104  C   UNL A   1      46.599  35.174  35.972  1.00  0.00     0.002 A 
ATOM    105  C   UNL A   1      44.235  35.513  35.542  1.00  0.00     0.091 A 
ATOM    106  F   UNL A   1      43.087  33.988  34.112  1.00  0.00    -0.205 F 
ATOM    107  C   UNL A   1      45.425  35.896  36.180  1.00  0.00     0.022 A 
BRANCH 105 108
ATOM    108  S   UNL A   1      42.800  36.566  35.783  1.00  0.00     0.127 S 
ATOM    109  O   UNL A   1      43.308  37.546  36.743  1.00  0.00    -0.237 OA
ATOM    110  O   UNL A   1      42.573  37.091  34.438  1.00  0.00    -0.237 OA
ATOM    111  O   UNL A   1      41.741  35.701  36.286  1.00  0.00    -0.744 OA
ENDBRANCH 105 108
ENDBRANCH  78 101
ENDBRANCH  52  53
ENDBRANCH  45  47
ENDBRANCH  44  45
ENDBRANCH  43  44
ENDBRANCH  42  43
ENDBRANCH  41  42
ENDBRANCH  40  41
ENDBRANCH  39  40
ENDBRANCH  38  39
ENDBRANCH   1  38
TORSDOF 32
ENDMDL
