MODEL 1
REMARK VINA RESULT:     -10.2      0.000      0.000
REMARK SMILES O=C(OCCOCCOCCOCCOC(=O)c1cc2nn[nH]n2n1)c1ccc(-c2c3nc(c(-c4cccc(S(=O)(=O)[O-])c4F)c4ccc([nH]4)c(-c4cccc(S(=O)(=O)[O-])c4F)c4nc(c(-c5cccc(S(=O)(=O)[O-])c5F)c5ccc2[nH]5)C=C4)C=C3)cc1
REMARK SMILES IDX 7 1 6 2 5 3 4 4 3 5 2 6 1 7 26 8 27 9 88 10 28 11 87 12
REMARK SMILES IDX 29 13 30 14 31 15 81 16 32 17 86 18 80 19 82 20 33 21 85 22
REMARK SMILES IDX 79 23 78 24 34 26 66 27 46 28 65 29 47 30 50 31 64 32 83 33
REMARK SMILES IDX 48 34 49 35 63 37 84 38 51 39 35 40 36 41 44 42 37 43 39 44
REMARK SMILES IDX 45 45 38 46 40 47 41 48 42 49 43 50 67 51 68 52 76 53 69 54
REMARK SMILES IDX 71 55 77 56 70 57 72 58 73 59 74 60 75 61 52 62 53 63 61 64
REMARK SMILES IDX 54 65 56 66 62 67 55 68 57 69 58 70 59 71 60 72 8 73 9 74
REMARK SMILES IDX 10 75 11 76 12 77 13 78 14 79 15 80 16 81 17 82 18 83 19 84
REMARK SMILES IDX 25 85 20 86 24 87 21 88 23 89 22 90
REMARK H PARENT 82 25 50 36 23 91
REMARK Flexibility Score: inf
ROOT
ATOM      1  C   UNL A   1      38.903  22.181  26.320  1.00  0.00     0.188 C 
ENDROOT
BRANCH   1   2
ATOM      2  O   UNL A   1      40.055  21.736  27.039  1.00  0.00    -0.376 OA
BRANCH   2   3
ATOM      3  C   UNL A   1      41.254  21.319  26.432  1.00  0.00     0.202 C 
BRANCH   3   4
ATOM      4  C   UNL A   1      42.544  21.646  27.194  1.00  0.00     0.261 C 
BRANCH   4   5
ATOM      5  O   UNL A   1      43.209  22.862  26.832  1.00  0.00    -0.460 OA
BRANCH   5   6
ATOM      6  C   UNL A   1      42.737  23.953  26.180  1.00  0.00     0.338 C 
ATOM      7  O   UNL A   1      42.915  24.013  24.964  1.00  0.00    -0.246 OA
BRANCH   6   8
ATOM      8  C   UNL A   1      42.083  25.112  26.852  1.00  0.00     0.060 A 
ATOM      9  C   UNL A   1      41.323  26.088  26.202  1.00  0.00     0.016 A 
ATOM     10  C   UNL A   1      42.299  25.236  28.239  1.00  0.00     0.016 A 
ATOM     11  C   UNL A   1      40.849  27.194  26.875  1.00  0.00     0.010 A 
ATOM     12  C   UNL A   1      41.856  26.362  28.921  1.00  0.00     0.010 A 
ATOM     13  C   UNL A   1      41.214  27.370  28.200  1.00  0.00    -0.014 A 
BRANCH  13  14
ATOM     14  C   UNL A   1      41.192  28.752  28.654  1.00  0.00     0.031 A 
ATOM     15  C   UNL A   1      42.371  29.614  28.399  1.00  0.00     0.074 A 
ATOM     16  C   UNL A   1      40.085  29.174  29.296  1.00  0.00     0.049 A 
ATOM     17  N   UNL A   1      43.001  30.376  29.239  1.00  0.00    -0.248 NA
ATOM     18  C   UNL A   1      42.944  29.599  27.046  1.00  0.00     0.031 C 
ATOM     19  C   UNL A   1      38.810  28.449  29.419  1.00  0.00     0.029 A 
ATOM     20  N   UNL A   1      39.799  30.403  29.806  1.00  0.00    -0.354 N 
ATOM     21  C   UNL A   1      43.912  31.099  28.473  1.00  0.00     0.074 A 
ATOM     22  C   UNL A   1      43.914  30.506  27.158  1.00  0.00     0.031 C 
ATOM     23  C   UNL A   1      37.829  29.339  29.651  1.00  0.00     0.029 A 
ATOM     24  C   UNL A   1      38.432  30.645  29.825  1.00  0.00     0.049 A 
ATOM     25  H   UNL A   1      40.478  31.043  30.122  1.00  0.00     0.167 HD
ATOM     26  C   UNL A   1      44.462  32.271  28.888  1.00  0.00     0.034 A 
ATOM     27  C   UNL A   1      37.830  31.852  29.819  1.00  0.00     0.034 A 
ATOM     28  C   UNL A   1      44.410  32.463  30.306  1.00  0.00     0.049 A 
ATOM     29  C   UNL A   1      38.800  32.849  30.316  1.00  0.00     0.074 A 
ATOM     30  C   UNL A   1      44.928  31.815  31.407  1.00  0.00     0.029 A 
ATOM     31  N   UNL A   1      43.498  33.363  30.796  1.00  0.00    -0.354 N 
ATOM     32  N   UNL A   1      39.262  32.870  31.537  1.00  0.00    -0.248 NA
ATOM     33  C   UNL A   1      39.554  33.632  29.351  1.00  0.00     0.031 C 
ATOM     34  C   UNL A   1      43.994  32.050  32.457  1.00  0.00     0.029 A 
ATOM     35  C   UNL A   1      42.952  32.811  31.924  1.00  0.00     0.049 A 
ATOM     36  H   UNL A   1      43.277  34.241  30.408  1.00  0.00     0.167 HD
ATOM     37  C   UNL A   1      40.570  33.315  31.412  1.00  0.00     0.074 A 
ATOM     38  C   UNL A   1      40.639  33.907  30.079  1.00  0.00     0.031 C 
ATOM     39  C   UNL A   1      41.549  32.901  32.275  1.00  0.00     0.034 A 
BRANCH  26  40
ATOM     40  C   UNL A   1      44.800  33.393  27.944  1.00  0.00     0.023 A 
ATOM     41  C   UNL A   1      43.758  34.028  27.237  1.00  0.00     0.012 A 
ATOM     42  C   UNL A   1      46.124  33.686  27.547  1.00  0.00     0.148 A 
ATOM     43  C   UNL A   1      44.027  34.920  26.191  1.00  0.00     0.002 A 
ATOM     44  C   UNL A   1      46.385  34.635  26.566  1.00  0.00     0.091 A 
ATOM     45  F   UNL A   1      47.142  32.962  28.030  1.00  0.00    -0.205 F 
ATOM     46  C   UNL A   1      45.341  35.241  25.868  1.00  0.00     0.022 A 
BRANCH  44  47
ATOM     47  S   UNL A   1      48.079  35.114  26.219  1.00  0.00     0.127 S 
ATOM     48  O   UNL A   1      48.484  34.102  25.249  1.00  0.00    -0.237 OA
ATOM     49  O   UNL A   1      47.922  36.464  25.677  1.00  0.00    -0.237 OA
ATOM     50  O   UNL A   1      48.729  35.074  27.525  1.00  0.00    -0.744 OA
ENDBRANCH  44  47
ENDBRANCH  26  40
BRANCH  27  51
ATOM     51  C   UNL A   1      36.575  32.182  29.113  1.00  0.00     0.023 A 
ATOM     52  C   UNL A   1      36.020  31.269  28.203  1.00  0.00     0.012 A 
ATOM     53  C   UNL A   1      35.821  33.332  29.455  1.00  0.00     0.148 A 
ATOM     54  C   UNL A   1      34.761  31.503  27.639  1.00  0.00     0.002 A 
ATOM     55  C   UNL A   1      34.588  33.578  28.865  1.00  0.00     0.091 A 
ATOM     56  F   UNL A   1      36.274  34.145  30.421  1.00  0.00    -0.205 F 
ATOM     57  C   UNL A   1      34.049  32.659  27.961  1.00  0.00     0.022 A 
BRANCH  55  58
ATOM     58  S   UNL A   1      33.659  35.079  29.210  1.00  0.00     0.127 S 
ATOM     59  O   UNL A   1      34.471  36.103  28.549  1.00  0.00    -0.237 OA
ATOM     60  O   UNL A   1      32.380  34.803  28.563  1.00  0.00    -0.237 OA
ATOM     61  O   UNL A   1      33.632  35.194  30.663  1.00  0.00    -0.744 OA
ENDBRANCH  55  58
ENDBRANCH  27  51
BRANCH  39  62
ATOM     62  C   UNL A   1      41.131  32.139  33.514  1.00  0.00     0.023 A 
ATOM     63  C   UNL A   1      40.964  30.738  33.473  1.00  0.00     0.012 A 
ATOM     64  C   UNL A   1      41.118  32.782  34.764  1.00  0.00     0.148 A 
ATOM     65  C   UNL A   1      40.762  29.998  34.639  1.00  0.00     0.002 A 
ATOM     66  C   UNL A   1      40.957  32.036  35.930  1.00  0.00     0.091 A 
ATOM     67  F   UNL A   1      41.302  34.111  34.800  1.00  0.00    -0.205 F 
ATOM     68  C   UNL A   1      40.770  30.645  35.869  1.00  0.00     0.022 A 
BRANCH  66  69
ATOM     69  S   UNL A   1      41.099  32.779  37.560  1.00  0.00     0.127 S 
ATOM     70  O   UNL A   1      41.731  31.712  38.332  1.00  0.00    -0.237 OA
ATOM     71  O   UNL A   1      41.957  33.939  37.309  1.00  0.00    -0.237 OA
ATOM     72  O   UNL A   1      39.740  33.125  37.958  1.00  0.00    -0.744 OA
ENDBRANCH  66  69
ENDBRANCH  39  62
ENDBRANCH  13  14
ENDBRANCH   6   8
ENDBRANCH   5   6
ENDBRANCH   4   5
ENDBRANCH   3   4
ENDBRANCH   2   3
ENDBRANCH   1   2
BRANCH   1  73
ATOM     73  C   UNL A   1      38.420  23.640  26.379  1.00  0.00     0.188 C 
BRANCH  73  74
ATOM     74  O   UNL A   1      37.243  23.950  25.637  1.00  0.00    -0.377 OA
BRANCH  74  75
ATOM     75  C   UNL A   1      36.472  22.828  25.241  1.00  0.00     0.188 C 
BRANCH  75  76
ATOM     76  C   UNL A   1      36.067  22.894  23.758  1.00  0.00     0.188 C 
BRANCH  76  77
ATOM     77  O   UNL A   1      34.949  23.741  23.527  1.00  0.00    -0.376 OA
BRANCH  77  78
ATOM     78  C   UNL A   1      33.711  23.358  24.113  1.00  0.00     0.202 C 
BRANCH  78  79
ATOM     79  C   UNL A   1      32.784  22.464  23.272  1.00  0.00     0.261 C 
BRANCH  79  80
ATOM     80  O   UNL A   1      32.882  21.045  23.503  1.00  0.00    -0.458 OA
BRANCH  80  81
ATOM     81  C   UNL A   1      32.370  20.529  24.657  1.00  0.00     0.359 C 
ATOM     82  O   UNL A   1      31.557  21.086  25.369  1.00  0.00    -0.244 OA
BRANCH  81  83
ATOM     83  C   UNL A   1      32.825  19.138  24.832  1.00  0.00     0.174 A 
ATOM     84  C   UNL A   1      33.579  18.352  23.886  1.00  0.00     0.091 A 
ATOM     85  N   UNL A   1      32.395  18.376  25.876  1.00  0.00    -0.142 NA
ATOM     86  C   UNL A   1      33.560  17.093  24.418  1.00  0.00     0.199 A 
ATOM     87  N   UNL A   1      32.893  17.193  25.568  1.00  0.00    -0.135 N 
ATOM     88  N   UNL A   1      33.878  15.798  24.197  1.00  0.00    -0.109 NA
ATOM     89  N   UNL A   1      32.735  15.961  26.021  1.00  0.00    -0.177 N 
ATOM     90  N   UNL A   1      33.331  15.095  25.118  1.00  0.00    -0.050 NA
ATOM     91  H   UNL A   1      32.276  15.704  26.853  1.00  0.00     0.216 HD
ENDBRANCH  81  83
ENDBRANCH  80  81
ENDBRANCH  79  80
ENDBRANCH  78  79
ENDBRANCH  77  78
ENDBRANCH  76  77
ENDBRANCH  75  76
ENDBRANCH  74  75
ENDBRANCH  73  74
ENDBRANCH   1  73
TORSDOF 23
ENDMDL
MODEL 2
REMARK VINA RESULT:     -10.1      3.809      8.811
REMARK SMILES O=C(OCCOCCOCCOCCOC(=O)c1cc2nn[nH]n2n1)c1ccc(-c2c3nc(c(-c4cccc(S(=O)(=O)[O-])c4F)c4ccc([nH]4)c(-c4cccc(S(=O)(=O)[O-])c4F)c4nc(c(-c5cccc(S(=O)(=O)[O-])c5F)c5ccc2[nH]5)C=C4)C=C3)cc1
REMARK SMILES IDX 7 1 6 2 5 3 4 4 3 5 2 6 1 7 26 8 27 9 88 10 28 11 87 12
REMARK SMILES IDX 29 13 30 14 31 15 81 16 32 17 86 18 80 19 82 20 33 21 85 22
REMARK SMILES IDX 79 23 78 24 34 26 66 27 46 28 65 29 47 30 50 31 64 32 83 33
REMARK SMILES IDX 48 34 49 35 63 37 84 38 51 39 35 40 36 41 44 42 37 43 39 44
REMARK SMILES IDX 45 45 38 46 40 47 41 48 42 49 43 50 67 51 68 52 76 53 69 54
REMARK SMILES IDX 71 55 77 56 70 57 72 58 73 59 74 60 75 61 52 62 53 63 61 64
REMARK SMILES IDX 54 65 56 66 62 67 55 68 57 69 58 70 59 71 60 72 8 73 9 74
REMARK SMILES IDX 10 75 11 76 12 77 13 78 14 79 15 80 16 81 17 82 18 83 19 84
REMARK SMILES IDX 25 85 20 86 24 87 21 88 23 89 22 90
REMARK H PARENT 82 25 50 36 23 91
REMARK Flexibility Score: inf
ROOT
ATOM      1  C   UNL A   1      31.874  28.959  26.809  1.00  0.00     0.188 C 
ENDROOT
BRANCH   1   2
ATOM      2  O   UNL A   1      32.731  30.073  27.068  1.00  0.00    -0.376 OA
BRANCH   2   3
ATOM      3  C   UNL A   1      34.022  29.965  27.615  1.00  0.00     0.202 C 
BRANCH   3   4
ATOM      4  C   UNL A   1      34.868  31.246  27.601  1.00  0.00     0.261 C 
BRANCH   4   5
ATOM      5  O   UNL A   1      35.660  31.501  28.767  1.00  0.00    -0.460 OA
BRANCH   5   6
ATOM      6  C   UNL A   1      36.222  30.635  29.645  1.00  0.00     0.338 C 
ATOM      7  O   UNL A   1      35.843  30.680  30.815  1.00  0.00    -0.246 OA
BRANCH   6   8
ATOM      8  C   UNL A   1      37.320  29.687  29.299  1.00  0.00     0.060 A 
ATOM      9  C   UNL A   1      37.845  28.722  30.164  1.00  0.00     0.016 A 
ATOM     10  C   UNL A   1      37.882  29.821  28.014  1.00  0.00     0.016 A 
ATOM     11  C   UNL A   1      38.938  27.962  29.809  1.00  0.00     0.010 A 
ATOM     12  C   UNL A   1      39.006  29.085  27.659  1.00  0.00     0.010 A 
ATOM     13  C   UNL A   1      39.570  28.228  28.605  1.00  0.00    -0.014 A 
BRANCH  13  14
ATOM     14  C   UNL A   1      40.971  27.840  28.559  1.00  0.00     0.031 A 
ATOM     15  C   UNL A   1      41.327  26.471  28.113  1.00  0.00     0.074 A 
ATOM     16  C   UNL A   1      41.880  28.760  28.936  1.00  0.00     0.049 A 
ATOM     17  N   UNL A   1      42.125  25.626  28.689  1.00  0.00    -0.248 NA
ATOM     18  C   UNL A   1      40.684  25.965  26.893  1.00  0.00     0.031 C 
ATOM     19  C   UNL A   1      41.628  30.186  29.203  1.00  0.00     0.029 A 
ATOM     20  N   UNL A   1      43.238  28.667  28.975  1.00  0.00    -0.354 N 
ATOM     21  C   UNL A   1      42.253  24.568  27.792  1.00  0.00     0.074 A 
ATOM     22  C   UNL A   1      41.266  24.774  26.761  1.00  0.00     0.031 C 
ATOM     23  C   UNL A   1      42.779  30.864  29.046  1.00  0.00     0.029 A 
ATOM     24  C   UNL A   1      43.841  29.907  28.809  1.00  0.00     0.049 A 
ATOM     25  H   UNL A   1      43.731  27.825  29.103  1.00  0.00     0.167 HD
ATOM     26  C   UNL A   1      43.294  23.693  27.822  1.00  0.00     0.034 A 
ATOM     27  C   UNL A   1      45.088  30.137  28.348  1.00  0.00     0.034 A 
ATOM     28  C   UNL A   1      43.972  23.648  29.083  1.00  0.00     0.049 A 
ATOM     29  C   UNL A   1      45.884  28.909  28.546  1.00  0.00     0.074 A 
ATOM     30  C   UNL A   1      43.629  23.305  30.374  1.00  0.00     0.029 A 
ATOM     31  N   UNL A   1      45.202  24.249  29.168  1.00  0.00    -0.354 N 
ATOM     32  N   UNL A   1      46.197  28.426  29.718  1.00  0.00    -0.248 NA
ATOM     33  C   UNL A   1      46.040  27.990  27.431  1.00  0.00     0.031 C 
ATOM     34  C   UNL A   1      44.464  24.102  31.209  1.00  0.00     0.029 A 
ATOM     35  C   UNL A   1      45.251  24.897  30.373  1.00  0.00     0.049 A 
ATOM     36  H   UNL A   1      45.915  24.220  28.490  1.00  0.00     0.167 HD
ATOM     37  C   UNL A   1      46.188  27.048  29.546  1.00  0.00     0.074 A 
ATOM     38  C   UNL A   1      46.236  26.851  28.100  1.00  0.00     0.031 C 
ATOM     39  C   UNL A   1      45.844  26.205  30.568  1.00  0.00     0.034 A 
BRANCH  26  40
ATOM     40  C   UNL A   1      43.877  23.075  26.581  1.00  0.00     0.023 A 
ATOM     41  C   UNL A   1      44.409  23.918  25.584  1.00  0.00     0.012 A 
ATOM     42  C   UNL A   1      43.705  21.712  26.252  1.00  0.00     0.148 A 
ATOM     43  C   UNL A   1      44.762  23.421  24.323  1.00  0.00     0.002 A 
ATOM     44  C   UNL A   1      44.135  21.209  25.030  1.00  0.00     0.091 A 
ATOM     45  F   UNL A   1      43.013  20.909  27.071  1.00  0.00    -0.205 F 
ATOM     46  C   UNL A   1      44.645  22.062  24.051  1.00  0.00     0.022 A 
BRANCH  44  47
ATOM     47  S   UNL A   1      44.068  19.443  24.720  1.00  0.00     0.127 S 
ATOM     48  O   UNL A   1      42.659  19.149  24.958  1.00  0.00    -0.237 OA
ATOM     49  O   UNL A   1      44.492  19.350  23.323  1.00  0.00    -0.237 OA
ATOM     50  O   UNL A   1      45.028  18.885  25.667  1.00  0.00    -0.744 OA
ENDBRANCH  44  47
ENDBRANCH  26  40
BRANCH  27  51
ATOM     51  C   UNL A   1      45.488  31.265  27.482  1.00  0.00     0.023 A 
ATOM     52  C   UNL A   1      44.519  31.958  26.739  1.00  0.00     0.012 A 
ATOM     53  C   UNL A   1      46.809  31.777  27.507  1.00  0.00     0.148 A 
ATOM     54  C   UNL A   1      44.860  33.116  26.030  1.00  0.00     0.002 A 
ATOM     55  C   UNL A   1      47.150  32.906  26.773  1.00  0.00     0.091 A 
ATOM     56  F   UNL A   1      47.713  31.207  28.316  1.00  0.00    -0.205 F 
ATOM     57  C   UNL A   1      46.174  33.585  26.039  1.00  0.00     0.022 A 
BRANCH  55  58
ATOM     58  S   UNL A   1      48.840  33.517  26.712  1.00  0.00     0.127 S 
ATOM     59  O   UNL A   1      49.060  33.957  28.092  1.00  0.00    -0.237 OA
ATOM     60  O   UNL A   1      49.584  32.322  26.328  1.00  0.00    -0.237 OA
ATOM     61  O   UNL A   1      48.826  34.605  25.742  1.00  0.00    -0.744 OA
ENDBRANCH  55  58
ENDBRANCH  27  51
BRANCH  39  62
ATOM     62  C   UNL A   1      45.708  26.788  31.958  1.00  0.00     0.023 A 
ATOM     63  C   UNL A   1      46.842  26.958  32.780  1.00  0.00     0.012 A 
ATOM     64  C   UNL A   1      44.491  27.366  32.362  1.00  0.00     0.148 A 
ATOM     65  C   UNL A   1      46.766  27.659  33.985  1.00  0.00     0.002 A 
ATOM     66  C   UNL A   1      44.427  28.100  33.545  1.00  0.00     0.091 A 
ATOM     67  F   UNL A   1      43.421  27.222  31.565  1.00  0.00    -0.205 F 
ATOM     68  C   UNL A   1      45.561  28.241  34.362  1.00  0.00     0.022 A 
BRANCH  66  69
ATOM     69  S   UNL A   1      42.947  28.999  34.026  1.00  0.00     0.127 S 
ATOM     70  O   UNL A   1      41.903  27.992  33.849  1.00  0.00    -0.237 OA
ATOM     71  O   UNL A   1      43.225  29.348  35.421  1.00  0.00    -0.237 OA
ATOM     72  O   UNL A   1      42.872  30.149  33.134  1.00  0.00    -0.744 OA
ENDBRANCH  66  69
ENDBRANCH  39  62
ENDBRANCH  13  14
ENDBRANCH   6   8
ENDBRANCH   5   6
ENDBRANCH   4   5
ENDBRANCH   3   4
ENDBRANCH   2   3
ENDBRANCH   1   2
BRANCH   1  73
ATOM     73  C   UNL A   1      32.190  27.925  25.714  1.00  0.00     0.188 C 
BRANCH  73  74
ATOM     74  O   UNL A   1      33.437  27.244  25.825  1.00  0.00    -0.377 OA
BRANCH  74  75
ATOM     75  C   UNL A   1      33.361  25.833  25.712  1.00  0.00     0.188 C 
BRANCH  75  76
ATOM     76  C   UNL A   1      34.591  25.238  25.005  1.00  0.00     0.188 C 
BRANCH  76  77
ATOM     77  O   UNL A   1      34.530  23.821  24.891  1.00  0.00    -0.376 OA
BRANCH  77  78
ATOM     78  C   UNL A   1      35.075  23.059  25.959  1.00  0.00     0.202 C 
BRANCH  78  79
ATOM     79  C   UNL A   1      34.128  22.694  27.116  1.00  0.00     0.261 C 
BRANCH  79  80
ATOM     80  O   UNL A   1      33.504  21.397  27.047  1.00  0.00    -0.458 OA
BRANCH  80  81
ATOM     81  C   UNL A   1      32.730  21.097  25.965  1.00  0.00     0.359 C 
ATOM     82  O   UNL A   1      31.943  21.858  25.437  1.00  0.00    -0.244 OA
BRANCH  81  83
ATOM     83  C   UNL A   1      33.099  19.772  25.435  1.00  0.00     0.174 A 
ATOM     84  C   UNL A   1      34.309  19.432  24.728  1.00  0.00     0.091 A 
ATOM     85  N   UNL A   1      32.204  18.745  25.404  1.00  0.00    -0.142 NA
ATOM     86  C   UNL A   1      34.077  18.165  24.272  1.00  0.00     0.199 A 
ATOM     87  N   UNL A   1      32.868  17.830  24.723  1.00  0.00    -0.135 N 
ATOM     88  N   UNL A   1      34.553  17.170  23.488  1.00  0.00    -0.109 NA
ATOM     89  N   UNL A   1      32.566  16.669  24.168  1.00  0.00    -0.177 N 
ATOM     90  N   UNL A   1      33.629  16.293  23.361  1.00  0.00    -0.050 NA
ATOM     91  H   UNL A   1      31.733  16.161  24.301  1.00  0.00     0.216 HD
ENDBRANCH  81  83
ENDBRANCH  80  81
ENDBRANCH  79  80
ENDBRANCH  78  79
ENDBRANCH  77  78
ENDBRANCH  76  77
ENDBRANCH  75  76
ENDBRANCH  74  75
ENDBRANCH  73  74
ENDBRANCH   1  73
TORSDOF 23
ENDMDL
MODEL 3
REMARK VINA RESULT:      -9.9      4.689     10.224
REMARK SMILES O=C(OCCOCCOCCOCCOC(=O)c1cc2nn[nH]n2n1)c1ccc(-c2c3nc(c(-c4cccc(S(=O)(=O)[O-])c4F)c4ccc([nH]4)c(-c4cccc(S(=O)(=O)[O-])c4F)c4nc(c(-c5cccc(S(=O)(=O)[O-])c5F)c5ccc2[nH]5)C=C4)C=C3)cc1
REMARK SMILES IDX 7 1 6 2 5 3 4 4 3 5 2 6 1 7 26 8 27 9 88 10 28 11 87 12
REMARK SMILES IDX 29 13 30 14 31 15 81 16 32 17 86 18 80 19 82 20 33 21 85 22
REMARK SMILES IDX 79 23 78 24 34 26 66 27 46 28 65 29 47 30 50 31 64 32 83 33
REMARK SMILES IDX 48 34 49 35 63 37 84 38 51 39 35 40 36 41 44 42 37 43 39 44
REMARK SMILES IDX 45 45 38 46 40 47 41 48 42 49 43 50 67 51 68 52 76 53 69 54
REMARK SMILES IDX 71 55 77 56 70 57 72 58 73 59 74 60 75 61 52 62 53 63 61 64
REMARK SMILES IDX 54 65 56 66 62 67 55 68 57 69 58 70 59 71 60 72 8 73 9 74
REMARK SMILES IDX 10 75 11 76 12 77 13 78 14 79 15 80 16 81 17 82 18 83 19 84
REMARK SMILES IDX 25 85 20 86 24 87 21 88 23 89 22 90
REMARK H PARENT 82 25 50 36 23 91
REMARK Flexibility Score: inf
ROOT
ATOM      1  C   UNL A   1      34.143  28.840  26.533  1.00  0.00     0.188 C 
ENDROOT
BRANCH   1   2
ATOM      2  O   UNL A   1      34.314  29.719  27.648  1.00  0.00    -0.376 OA
BRANCH   2   3
ATOM      3  C   UNL A   1      33.903  31.064  27.662  1.00  0.00     0.202 C 
BRANCH   3   4
ATOM      4  C   UNL A   1      34.995  32.098  27.966  1.00  0.00     0.261 C 
BRANCH   4   5
ATOM      5  O   UNL A   1      35.250  32.370  29.349  1.00  0.00    -0.460 OA
BRANCH   5   6
ATOM      6  C   UNL A   1      36.085  31.751  30.220  1.00  0.00     0.338 C 
ATOM      7  O   UNL A   1      35.995  32.051  31.409  1.00  0.00    -0.246 OA
BRANCH   6   8
ATOM      8  C   UNL A   1      37.149  30.788  29.816  1.00  0.00     0.060 A 
ATOM      9  C   UNL A   1      37.013  29.397  29.826  1.00  0.00     0.016 A 
ATOM     10  C   UNL A   1      38.389  31.343  29.444  1.00  0.00     0.016 A 
ATOM     11  C   UNL A   1      38.082  28.571  29.551  1.00  0.00     0.010 A 
ATOM     12  C   UNL A   1      39.482  30.522  29.199  1.00  0.00     0.010 A 
ATOM     13  C   UNL A   1      39.328  29.142  29.347  1.00  0.00    -0.014 A 
BRANCH  13  14
ATOM     14  C   UNL A   1      40.450  28.265  29.641  1.00  0.00     0.031 A 
ATOM     15  C   UNL A   1      41.047  28.286  30.998  1.00  0.00     0.074 A 
ATOM     16  C   UNL A   1      40.894  27.475  28.644  1.00  0.00     0.049 A 
ATOM     17  N   UNL A   1      42.302  28.379  31.318  1.00  0.00    -0.248 NA
ATOM     18  C   UNL A   1      40.131  28.235  32.145  1.00  0.00     0.031 C 
ATOM     19  C   UNL A   1      40.244  27.254  27.342  1.00  0.00     0.029 A 
ATOM     20  N   UNL A   1      41.905  26.563  28.650  1.00  0.00    -0.354 N 
ATOM     21  C   UNL A   1      42.348  28.180  32.695  1.00  0.00     0.074 A 
ATOM     22  C   UNL A   1      40.985  28.208  33.167  1.00  0.00     0.031 C 
ATOM     23  C   UNL A   1      40.661  26.075  26.846  1.00  0.00     0.029 A 
ATOM     24  C   UNL A   1      41.689  25.552  27.723  1.00  0.00     0.049 A 
ATOM     25  H   UNL A   1      42.692  26.614  29.240  1.00  0.00     0.167 HD
ATOM     26  C   UNL A   1      43.476  27.795  33.350  1.00  0.00     0.034 A 
ATOM     27  C   UNL A   1      42.198  24.303  27.765  1.00  0.00     0.034 A 
ATOM     28  C   UNL A   1      44.683  28.060  32.624  1.00  0.00     0.049 A 
ATOM     29  C   UNL A   1      43.405  24.329  28.616  1.00  0.00     0.074 A 
ATOM     30  C   UNL A   1      45.323  29.187  32.156  1.00  0.00     0.029 A 
ATOM     31  N   UNL A   1      45.325  26.995  32.046  1.00  0.00    -0.354 N 
ATOM     32  N   UNL A   1      44.498  24.973  28.309  1.00  0.00    -0.248 NA
ATOM     33  C   UNL A   1      43.287  23.928  30.008  1.00  0.00     0.031 C 
ATOM     34  C   UNL A   1      46.029  28.765  30.993  1.00  0.00     0.029 A 
ATOM     35  C   UNL A   1      45.756  27.406  30.813  1.00  0.00     0.049 A 
ATOM     36  H   UNL A   1      45.453  26.103  32.443  1.00  0.00     0.167 HD
ATOM     37  C   UNL A   1      44.999  25.417  29.525  1.00  0.00     0.074 A 
ATOM     38  C   UNL A   1      44.302  24.621  30.530  1.00  0.00     0.031 C 
ATOM     39  C   UNL A   1      45.707  26.585  29.620  1.00  0.00     0.034 A 
BRANCH  26  40
ATOM     40  C   UNL A   1      43.453  26.899  34.558  1.00  0.00     0.023 A 
ATOM     41  C   UNL A   1      42.498  25.865  34.622  1.00  0.00     0.012 A 
ATOM     42  C   UNL A   1      44.177  27.186  35.737  1.00  0.00     0.148 A 
ATOM     43  C   UNL A   1      42.283  25.144  35.805  1.00  0.00     0.002 A 
ATOM     44  C   UNL A   1      44.020  26.413  36.881  1.00  0.00     0.091 A 
ATOM     45  F   UNL A   1      44.938  28.286  35.802  1.00  0.00    -0.205 F 
ATOM     46  C   UNL A   1      43.059  25.403  36.930  1.00  0.00     0.022 A 
BRANCH  44  47
ATOM     47  S   UNL A   1      45.087  26.690  38.297  1.00  0.00     0.127 S 
ATOM     48  O   UNL A   1      44.566  27.947  38.824  1.00  0.00    -0.237 OA
ATOM     49  O   UNL A   1      44.825  25.514  39.127  1.00  0.00    -0.237 OA
ATOM     50  O   UNL A   1      46.428  26.721  37.723  1.00  0.00    -0.744 OA
ENDBRANCH  44  47
ENDBRANCH  26  40
BRANCH  27  51
ATOM     51  C   UNL A   1      41.492  23.075  27.347  1.00  0.00     0.023 A 
ATOM     52  C   UNL A   1      40.102  23.094  27.154  1.00  0.00     0.012 A 
ATOM     53  C   UNL A   1      42.207  21.910  26.970  1.00  0.00     0.148 A 
ATOM     54  C   UNL A   1      39.442  21.981  26.619  1.00  0.00     0.002 A 
ATOM     55  C   UNL A   1      41.543  20.796  26.472  1.00  0.00     0.091 A 
ATOM     56  F   UNL A   1      43.547  21.923  27.020  1.00  0.00    -0.205 F 
ATOM     57  C   UNL A   1      40.158  20.831  26.287  1.00  0.00     0.022 A 
BRANCH  55  58
ATOM     58  S   UNL A   1      42.417  19.274  26.080  1.00  0.00     0.127 S 
ATOM     59  O   UNL A   1      41.340  18.422  25.570  1.00  0.00    -0.237 OA
ATOM     60  O   UNL A   1      43.372  19.720  25.071  1.00  0.00    -0.237 OA
ATOM     61  O   UNL A   1      42.984  18.815  27.342  1.00  0.00    -0.744 OA
ENDBRANCH  55  58
ENDBRANCH  27  51
BRANCH  39  62
ATOM     62  C   UNL A   1      46.141  27.262  28.338  1.00  0.00     0.023 A 
ATOM     63  C   UNL A   1      45.339  28.261  27.745  1.00  0.00     0.012 A 
ATOM     64  C   UNL A   1      47.443  27.063  27.844  1.00  0.00     0.148 A 
ATOM     65  C   UNL A   1      45.805  29.023  26.673  1.00  0.00     0.002 A 
ATOM     66  C   UNL A   1      47.920  27.853  26.800  1.00  0.00     0.091 A 
ATOM     67  F   UNL A   1      48.210  26.128  28.426  1.00  0.00    -0.205 F 
ATOM     68  C   UNL A   1      47.100  28.827  26.207  1.00  0.00     0.022 A 
BRANCH  66  69
ATOM     69  S   UNL A   1      49.625  27.757  26.239  1.00  0.00     0.127 S 
ATOM     70  O   UNL A   1      50.368  28.080  27.455  1.00  0.00    -0.237 OA
ATOM     71  O   UNL A   1      49.741  26.363  25.807  1.00  0.00    -0.237 OA
ATOM     72  O   UNL A   1      49.741  28.723  25.154  1.00  0.00    -0.744 OA
ENDBRANCH  66  69
ENDBRANCH  39  62
ENDBRANCH  13  14
ENDBRANCH   6   8
ENDBRANCH   5   6
ENDBRANCH   4   5
ENDBRANCH   3   4
ENDBRANCH   2   3
ENDBRANCH   1   2
BRANCH   1  73
ATOM     73  C   UNL A   1      33.142  29.141  25.405  1.00  0.00     0.188 C 
BRANCH  73  74
ATOM     74  O   UNL A   1      32.090  28.198  25.220  1.00  0.00    -0.377 OA
BRANCH  74  75
ATOM     75  C   UNL A   1      30.954  28.695  24.533  1.00  0.00     0.188 C 
BRANCH  75  76
ATOM     76  C   UNL A   1      30.795  28.067  23.137  1.00  0.00     0.188 C 
BRANCH  76  77
ATOM     77  O   UNL A   1      31.978  28.158  22.353  1.00  0.00    -0.376 OA
BRANCH  77  78
ATOM     78  C   UNL A   1      32.436  26.967  21.727  1.00  0.00     0.202 C 
BRANCH  78  79
ATOM     79  C   UNL A   1      33.681  26.292  22.328  1.00  0.00     0.261 C 
BRANCH  79  80
ATOM     80  O   UNL A   1      33.477  25.537  23.539  1.00  0.00    -0.458 OA
BRANCH  80  81
ATOM     81  C   UNL A   1      32.791  24.361  23.473  1.00  0.00     0.359 C 
ATOM     82  O   UNL A   1      32.896  23.540  22.582  1.00  0.00    -0.244 OA
BRANCH  81  83
ATOM     83  C   UNL A   1      32.021  24.157  24.714  1.00  0.00     0.174 A 
ATOM     84  C   UNL A   1      32.127  23.041  25.622  1.00  0.00     0.091 A 
ATOM     85  N   UNL A   1      30.962  24.953  25.031  1.00  0.00    -0.142 NA
ATOM     86  C   UNL A   1      31.075  23.214  26.476  1.00  0.00     0.199 A 
ATOM     87  N   UNL A   1      30.475  24.341  26.095  1.00  0.00    -0.135 N 
ATOM     88  N   UNL A   1      30.372  22.653  27.487  1.00  0.00    -0.109 NA
ATOM     89  N   UNL A   1      29.370  24.444  26.813  1.00  0.00    -0.177 N 
ATOM     90  N   UNL A   1      29.307  23.345  27.657  1.00  0.00    -0.050 NA
ATOM     91  H   UNL A   1      28.709  25.170  26.760  1.00  0.00     0.216 HD
ENDBRANCH  81  83
ENDBRANCH  80  81
ENDBRANCH  79  80
ENDBRANCH  78  79
ENDBRANCH  77  78
ENDBRANCH  76  77
ENDBRANCH  75  76
ENDBRANCH  74  75
ENDBRANCH  73  74
ENDBRANCH   1  73
TORSDOF 23
ENDMDL
