MODEL 1
REMARK VINA RESULT:      -8.0      0.000      0.000
REMARK SMILES O=C(OCCOCCOCCOCCOC(=O)c1ccc(-c2c3nc(c(-c4cccc(S(=O)(=O)[O-])c4F)c4ccc([nH]4)c(-c4cccc(S(=O)(=O)[O-])c4F)c4nc(c(-c5cccc(S(=O)(=O)[O-])c5F)c5ccc2[nH]5)C=C4)C=C3)cc1)C1=Cc2cc(Cl)cc(-c3ccc(CO)cc3)c2O[C@@H]1C(F)(F)F
REMARK SMILES IDX 9 1 8 2 7 3 6 4 5 5 4 6 3 7 2 8 1 9 81 10 82 11 99 12 83 13
REMARK SMILES IDX 98 14 84 15 97 16 85 17 88 18 86 19 87 20 100 21 101 22
REMARK SMILES IDX 102 23 103 24 89 25 90 26 96 27 91 28 95 29 92 30 93 31
REMARK SMILES IDX 94 32 10 34 11 35 12 36 13 37 14 38 15 39 16 40 17 41 18 42
REMARK SMILES IDX 19 43 80 44 20 45 79 46 21 47 22 48 23 49 73 50 24 51 78 52
REMARK SMILES IDX 72 53 74 54 25 55 77 56 71 57 70 58 26 60 58 61 38 62 57 63
REMARK SMILES IDX 39 64 42 65 56 66 75 67 40 68 41 69 55 71 76 72 43 73 27 74
REMARK SMILES IDX 28 75 36 76 29 77 31 78 37 79 30 80 32 81 33 82 34 83 35 84
REMARK SMILES IDX 59 85 60 86 68 87 61 88 63 89 69 90 62 91 64 92 65 93 66 94
REMARK SMILES IDX 67 95 44 96 45 97 53 98 46 99 48 100 54 101 47 102 49 103
REMARK SMILES IDX 50 104 51 105 52 106
REMARK H PARENT 94 33 74 59 42 70
REMARK Flexibility Score: inf
ROOT
ATOM      1  O   UNL A   1      49.754  28.616  30.458  1.00  0.00    -0.377 OA
ENDROOT
BRANCH   1   2
ATOM      2  C   UNL A   1      48.894  27.865  31.266  1.00  0.00     0.188 C 
BRANCH   2   3
ATOM      3  C   UNL A   1      48.824  26.442  30.744  1.00  0.00     0.188 C 
BRANCH   3   4
ATOM      4  O   UNL A   1      47.799  25.450  31.083  1.00  0.00    -0.376 OA
BRANCH   4   5
ATOM      5  C   UNL A   1      46.188  25.472  31.441  1.00  0.00     0.202 C 
BRANCH   5   6
ATOM      6  C   UNL A   1      44.806  27.153  31.243  1.00  0.00     0.261 C 
BRANCH   6   7
ATOM      7  O   UNL A   1      44.490  28.193  32.316  1.00  0.00    -0.460 OA
BRANCH   7   8
ATOM      8  C   UNL A   1      43.206  28.169  32.693  1.00  0.00     0.338 C 
ATOM      9  O   UNL A   1      42.236  27.863  32.047  1.00  0.00    -0.246 OA
BRANCH   8  10
ATOM     10  C   UNL A   1      43.356  29.048  33.838  1.00  0.00     0.087 C 
ATOM     11  C   UNL A   1      43.872  30.372  33.519  1.00  0.00     0.027 C 
ATOM     12  C   UNL A   1      41.593  28.687  34.507  1.00  0.00     0.316 C 
ATOM     13  C   UNL A   1      42.870  31.862  33.474  1.00  0.00     0.019 A 
ATOM     14  O   UNL A   1      40.438  30.262  34.339  1.00  0.00    -0.475 OA
ATOM     15  C   UNL A   1      43.514  33.020  33.126  1.00  0.00     0.032 A 
ATOM     16  C   UNL A   1      41.142  31.857  33.722  1.00  0.00     0.135 A 
ATOM     17  C   UNL A   1      42.695  34.140  32.987  1.00  0.00     0.042 A 
ATOM     18  C   UNL A   1      40.403  33.022  33.453  1.00  0.00     0.026 A 
ATOM     19  Cl  UNL A   1      43.471  35.645  32.617  1.00  0.00    -0.084 Cl
ATOM     20  C   UNL A   1      41.257  34.133  33.120  1.00  0.00     0.033 A 
BRANCH  12  21
ATOM     21  C   UNL A   1      42.320  27.846  35.818  1.00  0.00     0.430 C 
ATOM     22  F   UNL A   1      43.106  28.493  36.697  1.00  0.00    -0.167 F 
ATOM     23  F   UNL A   1      41.284  27.402  36.602  1.00  0.00    -0.167 F 
ATOM     24  F   UNL A   1      42.978  26.710  35.465  1.00  0.00    -0.167 F 
ENDBRANCH  12  21
BRANCH  18  25
ATOM     25  C   UNL A   1      38.970  33.349  33.492  1.00  0.00    -0.015 A 
ATOM     26  C   UNL A   1      38.322  34.275  32.655  1.00  0.00     0.009 A 
ATOM     27  C   UNL A   1      38.224  32.942  34.579  1.00  0.00     0.009 A 
ATOM     28  C   UNL A   1      36.933  34.546  32.775  1.00  0.00     0.007 A 
ATOM     29  C   UNL A   1      36.835  33.041  34.582  1.00  0.00     0.007 A 
ATOM     30  C   UNL A   1      36.152  33.838  33.685  1.00  0.00    -0.023 A 
BRANCH  30  31
ATOM     31  C   UNL A   1      34.647  33.886  33.743  1.00  0.00     0.191 C 
BRANCH  31  32
ATOM     32  O   UNL A   1      34.043  34.487  32.616  1.00  0.00    -0.392 OA
ATOM     33  H   UNL A   1      33.172  34.086  32.464  1.00  0.00     0.211 HD
ENDBRANCH  31  32
ENDBRANCH  30  31
ENDBRANCH  18  25
ENDBRANCH   8  10
ENDBRANCH   7   8
ENDBRANCH   6   7
ENDBRANCH   5   6
ENDBRANCH   4   5
ENDBRANCH   3   4
ENDBRANCH   2   3
ENDBRANCH   1   2
BRANCH   1  34
ATOM     34  C   UNL A   1      49.505  28.309  29.107  1.00  0.00     0.188 C 
BRANCH  34  35
ATOM     35  C   UNL A   1      50.663  28.459  28.132  1.00  0.00     0.188 C 
BRANCH  35  36
ATOM     36  O   UNL A   1      50.371  29.191  26.971  1.00  0.00    -0.376 OA
BRANCH  36  37
ATOM     37  C   UNL A   1      51.425  29.524  26.081  1.00  0.00     0.202 C 
BRANCH  37  38
ATOM     38  C   UNL A   1      51.880  28.651  24.889  1.00  0.00     0.261 C 
BRANCH  38  39
ATOM     39  O   UNL A   1      51.103  28.660  23.678  1.00  0.00    -0.460 OA
BRANCH  39  40
ATOM     40  C   UNL A   1      50.527  27.515  23.253  1.00  0.00     0.338 C 
ATOM     41  O   UNL A   1      51.058  26.619  22.624  1.00  0.00    -0.246 OA
BRANCH  40  42
ATOM     42  C   UNL A   1      49.183  27.440  23.892  1.00  0.00     0.060 A 
ATOM     43  C   UNL A   1      48.070  28.007  23.248  1.00  0.00     0.016 A 
ATOM     44  C   UNL A   1      49.008  26.748  25.092  1.00  0.00     0.016 A 
ATOM     45  C   UNL A   1      46.789  27.921  23.819  1.00  0.00     0.010 A 
ATOM     46  C   UNL A   1      47.727  26.644  25.649  1.00  0.00     0.010 A 
ATOM     47  C   UNL A   1      46.610  27.273  25.047  1.00  0.00    -0.014 A 
BRANCH  47  48
ATOM     48  C   UNL A   1      45.383  27.493  25.870  1.00  0.00     0.031 A 
ATOM     49  C   UNL A   1      45.340  28.791  26.644  1.00  0.00     0.074 A 
ATOM     50  C   UNL A   1      44.368  26.612  26.005  1.00  0.00     0.049 A 
ATOM     51  N   UNL A   1      44.444  29.231  27.484  1.00  0.00    -0.248 NA
ATOM     52  C   UNL A   1      46.495  29.695  26.476  1.00  0.00     0.031 C 
ATOM     53  C   UNL A   1      44.263  25.305  25.359  1.00  0.00     0.029 A 
ATOM     54  N   UNL A   1      43.236  26.675  26.791  1.00  0.00    -0.354 N 
ATOM     55  C   UNL A   1      44.952  30.433  27.960  1.00  0.00     0.074 A 
ATOM     56  C   UNL A   1      46.277  30.591  27.418  1.00  0.00     0.031 C 
ATOM     57  C   UNL A   1      43.164  24.670  25.814  1.00  0.00     0.029 A 
ATOM     58  C   UNL A   1      42.462  25.532  26.763  1.00  0.00     0.049 A 
ATOM     59  H   UNL A   1      43.001  27.465  27.327  1.00  0.00     0.167 HD
ATOM     60  C   UNL A   1      44.352  31.374  28.720  1.00  0.00     0.034 A 
ATOM     61  C   UNL A   1      41.315  25.229  27.411  1.00  0.00     0.034 A 
ATOM     62  C   UNL A   1      43.024  31.251  29.233  1.00  0.00     0.049 A 
ATOM     63  C   UNL A   1      40.661  26.282  28.280  1.00  0.00     0.074 A 
ATOM     64  C   UNL A   1      42.286  32.181  29.937  1.00  0.00     0.029 A 
ATOM     65  N   UNL A   1      42.245  30.114  29.117  1.00  0.00    -0.354 N 
ATOM     66  N   UNL A   1      41.075  27.493  28.569  1.00  0.00    -0.248 NA
ATOM     67  C   UNL A   1      39.343  25.955  28.851  1.00  0.00     0.031 C 
ATOM     68  C   UNL A   1      41.078  31.582  30.303  1.00  0.00     0.029 A 
ATOM     69  C   UNL A   1      41.036  30.309  29.755  1.00  0.00     0.049 A 
ATOM     70  H   UNL A   1      42.513  29.289  28.651  1.00  0.00     0.167 HD
ATOM     71  C   UNL A   1      40.042  28.093  29.286  1.00  0.00     0.074 A 
ATOM     72  C   UNL A   1      38.983  27.113  29.388  1.00  0.00     0.031 C 
ATOM     73  C   UNL A   1      39.970  29.346  29.801  1.00  0.00     0.034 A 
BRANCH  60  74
ATOM     74  C   UNL A   1      45.138  32.625  28.999  1.00  0.00     0.023 A 
ATOM     75  C   UNL A   1      44.995  33.756  28.165  1.00  0.00     0.012 A 
ATOM     76  C   UNL A   1      46.035  32.671  30.079  1.00  0.00     0.148 A 
ATOM     77  C   UNL A   1      45.780  34.889  28.363  1.00  0.00     0.002 A 
ATOM     78  C   UNL A   1      46.765  33.827  30.311  1.00  0.00     0.091 A 
ATOM     79  F   UNL A   1      46.174  31.577  30.841  1.00  0.00    -0.205 F 
ATOM     80  C   UNL A   1      46.657  34.927  29.443  1.00  0.00     0.022 A 
BRANCH  78  81
ATOM     81  S   UNL A   1      47.853  34.009  31.724  1.00  0.00     0.127 S 
ATOM     82  O   UNL A   1      48.068  32.615  32.111  1.00  0.00    -0.237 OA
ATOM     83  O   UNL A   1      49.016  34.663  31.124  1.00  0.00    -0.237 OA
ATOM     84  O   UNL A   1      47.129  34.818  32.693  1.00  0.00    -0.744 OA
ENDBRANCH  78  81
ENDBRANCH  60  74
BRANCH  61  85
ATOM     85  C   UNL A   1      40.625  23.915  27.201  1.00  0.00     0.023 A 
ATOM     86  C   UNL A   1      41.197  22.740  27.734  1.00  0.00     0.012 A 
ATOM     87  C   UNL A   1      39.448  23.809  26.434  1.00  0.00     0.148 A 
ATOM     88  C   UNL A   1      40.647  21.486  27.464  1.00  0.00     0.002 A 
ATOM     89  C   UNL A   1      38.877  22.558  26.208  1.00  0.00     0.091 A 
ATOM     90  F   UNL A   1      38.916  24.931  25.931  1.00  0.00    -0.205 F 
ATOM     91  C   UNL A   1      39.486  21.394  26.703  1.00  0.00     0.022 A 
BRANCH  89  92
ATOM     92  S   UNL A   1      37.331  22.334  25.318  1.00  0.00     0.127 S 
ATOM     93  O   UNL A   1      37.226  23.586  24.573  1.00  0.00    -0.237 OA
ATOM     94  O   UNL A   1      37.626  21.154  24.505  1.00  0.00    -0.237 OA
ATOM     95  O   UNL A   1      36.312  22.126  26.339  1.00  0.00    -0.744 OA
ENDBRANCH  89  92
ENDBRANCH  61  85
BRANCH  73  96
ATOM     96  C   UNL A   1      38.675  29.785  30.435  1.00  0.00     0.023 A 
ATOM     97  C   UNL A   1      38.367  29.445  31.765  1.00  0.00     0.012 A 
ATOM     98  C   UNL A   1      37.794  30.616  29.712  1.00  0.00     0.148 A 
ATOM     99  C   UNL A   1      37.180  29.885  32.350  1.00  0.00     0.002 A 
ATOM    100  C   UNL A   1      36.647  31.104  30.321  1.00  0.00     0.091 A 
ATOM    101  F   UNL A   1      38.099  30.920  28.441  1.00  0.00    -0.205 F 
ATOM    102  C   UNL A   1      36.327  30.723  31.633  1.00  0.00     0.022 A 
BRANCH 100 103
ATOM    103  S   UNL A   1      35.556  32.278  29.511  1.00  0.00     0.127 S 
ATOM    104  O   UNL A   1      36.425  33.445  29.375  1.00  0.00    -0.237 OA
ATOM    105  O   UNL A   1      35.249  31.595  28.254  1.00  0.00    -0.237 OA
ATOM    106  O   UNL A   1      34.414  32.450  30.400  1.00  0.00    -0.744 OA
ENDBRANCH 100 103
ENDBRANCH  73  96
ENDBRANCH  47  48
ENDBRANCH  40  42
ENDBRANCH  39  40
ENDBRANCH  38  39
ENDBRANCH  37  38
ENDBRANCH  36  37
ENDBRANCH  35  36
ENDBRANCH  34  35
ENDBRANCH   1  34
TORSDOF 27
ENDMDL
MODEL 2
REMARK VINA RESULT:      -7.4      7.605     14.204
REMARK SMILES O=C(OCCOCCOCCOCCOC(=O)c1ccc(-c2c3nc(c(-c4cccc(S(=O)(=O)[O-])c4F)c4ccc([nH]4)c(-c4cccc(S(=O)(=O)[O-])c4F)c4nc(c(-c5cccc(S(=O)(=O)[O-])c5F)c5ccc2[nH]5)C=C4)C=C3)cc1)C1=Cc2cc(Cl)cc(-c3ccc(CO)cc3)c2O[C@@H]1C(F)(F)F
REMARK SMILES IDX 9 1 8 2 7 3 6 4 5 5 4 6 3 7 2 8 1 9 81 10 82 11 99 12 83 13
REMARK SMILES IDX 98 14 84 15 97 16 85 17 88 18 86 19 87 20 100 21 101 22
REMARK SMILES IDX 102 23 103 24 89 25 90 26 96 27 91 28 95 29 92 30 93 31
REMARK SMILES IDX 94 32 10 34 11 35 12 36 13 37 14 38 15 39 16 40 17 41 18 42
REMARK SMILES IDX 19 43 80 44 20 45 79 46 21 47 22 48 23 49 73 50 24 51 78 52
REMARK SMILES IDX 72 53 74 54 25 55 77 56 71 57 70 58 26 60 58 61 38 62 57 63
REMARK SMILES IDX 39 64 42 65 56 66 75 67 40 68 41 69 55 71 76 72 43 73 27 74
REMARK SMILES IDX 28 75 36 76 29 77 31 78 37 79 30 80 32 81 33 82 34 83 35 84
REMARK SMILES IDX 59 85 60 86 68 87 61 88 63 89 69 90 62 91 64 92 65 93 66 94
REMARK SMILES IDX 67 95 44 96 45 97 53 98 46 99 48 100 54 101 47 102 49 103
REMARK SMILES IDX 50 104 51 105 52 106
REMARK H PARENT 94 33 74 59 42 70
REMARK Flexibility Score: inf
ROOT
ATOM      1  O   UNL A   1      39.980  27.545  28.559  1.00  0.00    -0.377 OA
ENDROOT
BRANCH   1   2
ATOM      2  C   UNL A   1      40.446  26.412  27.884  1.00  0.00     0.188 C 
BRANCH   2   3
ATOM      3  C   UNL A   1      39.274  25.513  27.539  1.00  0.00     0.188 C 
BRANCH   3   4
ATOM      4  O   UNL A   1      39.357  24.205  26.882  1.00  0.00    -0.376 OA
BRANCH   4   5
ATOM      5  C   UNL A   1      38.305  23.168  26.145  1.00  0.00     0.202 C 
BRANCH   5   6
ATOM      6  C   UNL A   1      36.726  23.670  24.720  1.00  0.00     0.261 C 
BRANCH   6   7
ATOM      7  O   UNL A   1      35.260  23.254  24.814  1.00  0.00    -0.460 OA
BRANCH   7   8
ATOM      8  C   UNL A   1      34.450  24.063  24.121  1.00  0.00     0.338 C 
ATOM      9  O   UNL A   1      34.658  24.620  23.072  1.00  0.00    -0.246 OA
BRANCH   8  10
ATOM     10  C   UNL A   1      33.569  24.396  25.224  1.00  0.00     0.087 C 
ATOM     11  C   UNL A   1      34.002  25.537  26.019  1.00  0.00     0.027 C 
ATOM     12  C   UNL A   1      31.985  24.351  24.139  1.00  0.00     0.316 C 
ATOM     13  C   UNL A   1      33.257  27.169  25.934  1.00  0.00     0.019 A 
ATOM     14  O   UNL A   1      31.230  26.147  23.917  1.00  0.00    -0.475 OA
ATOM     15  C   UNL A   1      33.810  28.134  26.733  1.00  0.00     0.032 A 
ATOM     16  C   UNL A   1      31.984  27.579  24.812  1.00  0.00     0.135 A 
ATOM     17  C   UNL A   1      33.290  29.418  26.567  1.00  0.00     0.042 A 
ATOM     18  C   UNL A   1      31.610  28.924  24.654  1.00  0.00     0.026 A 
ATOM     19  Cl  UNL A   1      33.908  30.661  27.604  1.00  0.00    -0.084 Cl
ATOM     20  C   UNL A   1      32.288  29.782  25.593  1.00  0.00     0.033 A 
BRANCH  12  21
ATOM     21  C   UNL A   1      31.513  22.929  24.981  1.00  0.00     0.430 C 
ATOM     22  F   UNL A   1      31.712  22.818  26.307  1.00  0.00    -0.167 F 
ATOM     23  F   UNL A   1      30.146  22.862  24.870  1.00  0.00    -0.167 F 
ATOM     24  F   UNL A   1      31.948  21.769  24.421  1.00  0.00    -0.167 F 
ENDBRANCH  12  21
BRANCH  18  25
ATOM     25  C   UNL A   1      30.649  29.618  23.784  1.00  0.00    -0.015 A 
ATOM     26  C   UNL A   1      30.357  29.270  22.454  1.00  0.00     0.009 A 
ATOM     27  C   UNL A   1      30.178  30.857  24.168  1.00  0.00     0.009 A 
ATOM     28  C   UNL A   1      29.427  30.009  21.675  1.00  0.00     0.007 A 
ATOM     29  C   UNL A   1      29.123  31.469  23.496  1.00  0.00     0.007 A 
ATOM     30  C   UNL A   1      28.717  31.065  22.239  1.00  0.00    -0.023 A 
BRANCH  30  31
ATOM     31  C   UNL A   1      27.559  31.770  21.580  1.00  0.00     0.191 C 
BRANCH  31  32
ATOM     32  O   UNL A   1      27.706  33.172  21.499  1.00  0.00    -0.392 OA
ATOM     33  H   UNL A   1      27.807  33.539  22.393  1.00  0.00     0.211 HD
ENDBRANCH  31  32
ENDBRANCH  30  31
ENDBRANCH  18  25
ENDBRANCH   8  10
ENDBRANCH   7   8
ENDBRANCH   6   7
ENDBRANCH   5   6
ENDBRANCH   4   5
ENDBRANCH   3   4
ENDBRANCH   2   3
ENDBRANCH   1   2
BRANCH   1  34
ATOM     34  C   UNL A   1      39.097  28.252  27.721  1.00  0.00     0.188 C 
BRANCH  34  35
ATOM     35  C   UNL A   1      37.921  28.956  28.381  1.00  0.00     0.188 C 
BRANCH  35  36
ATOM     36  O   UNL A   1      37.601  30.210  27.841  1.00  0.00    -0.376 OA
BRANCH  36  37
ATOM     37  C   UNL A   1      37.322  31.290  28.720  1.00  0.00     0.202 C 
BRANCH  37  38
ATOM     38  C   UNL A   1      37.324  31.194  30.262  1.00  0.00     0.261 C 
BRANCH  38  39
ATOM     39  O   UNL A   1      36.078  30.994  30.953  1.00  0.00    -0.460 OA
BRANCH  39  40
ATOM     40  C   UNL A   1      35.482  32.044  31.559  1.00  0.00     0.338 C 
ATOM     41  O   UNL A   1      34.326  32.401  31.434  1.00  0.00    -0.246 OA
BRANCH  40  42
ATOM     42  C   UNL A   1      36.435  32.553  32.585  1.00  0.00     0.060 A 
ATOM     43  C   UNL A   1      37.336  31.669  33.203  1.00  0.00     0.016 A 
ATOM     44  C   UNL A   1      36.486  33.915  32.888  1.00  0.00     0.016 A 
ATOM     45  C   UNL A   1      38.262  32.134  34.151  1.00  0.00     0.010 A 
ATOM     46  C   UNL A   1      37.425  34.381  33.818  1.00  0.00     0.010 A 
ATOM     47  C   UNL A   1      38.290  33.490  34.499  1.00  0.00    -0.014 A 
BRANCH  47  48
ATOM     48  C   UNL A   1      38.955  33.957  35.752  1.00  0.00     0.031 A 
ATOM     49  C   UNL A   1      40.184  34.817  35.557  1.00  0.00     0.074 A 
ATOM     50  C   UNL A   1      38.575  33.628  37.006  1.00  0.00     0.049 A 
ATOM     51  N   UNL A   1      41.001  35.316  36.444  1.00  0.00    -0.248 NA
ATOM     52  C   UNL A   1      40.563  35.114  34.162  1.00  0.00     0.031 C 
ATOM     53  C   UNL A   1      37.438  32.786  37.373  1.00  0.00     0.029 A 
ATOM     54  N   UNL A   1      39.155  33.932  38.220  1.00  0.00    -0.354 N 
ATOM     55  C   UNL A   1      41.996  35.945  35.707  1.00  0.00     0.074 A 
ATOM     56  C   UNL A   1      41.753  35.661  34.315  1.00  0.00     0.031 C 
ATOM     57  C   UNL A   1      37.435  32.597  38.708  1.00  0.00     0.029 A 
ATOM     58  C   UNL A   1      38.551  33.329  39.304  1.00  0.00     0.049 A 
ATOM     59  H   UNL A   1      39.933  34.528  38.305  1.00  0.00     0.167 HD
ATOM     60  C   UNL A   1      42.988  36.758  36.128  1.00  0.00     0.034 A 
ATOM     61  C   UNL A   1      38.854  33.379  40.621  1.00  0.00     0.034 A 
ATOM     62  C   UNL A   1      43.220  37.081  37.500  1.00  0.00     0.049 A 
ATOM     63  C   UNL A   1      39.984  34.274  41.083  1.00  0.00     0.074 A 
ATOM     64  C   UNL A   1      44.139  37.964  38.031  1.00  0.00     0.029 A 
ATOM     65  N   UNL A   1      42.539  36.512  38.561  1.00  0.00    -0.354 N 
ATOM     66  N   UNL A   1      40.802  35.012  40.370  1.00  0.00    -0.248 NA
ATOM     67  C   UNL A   1      40.184  34.404  42.536  1.00  0.00     0.031 C 
ATOM     68  C   UNL A   1      44.056  37.882  39.424  1.00  0.00     0.029 A 
ATOM     69  C   UNL A   1      43.030  37.010  39.752  1.00  0.00     0.049 A 
ATOM     70  H   UNL A   1      41.814  35.850  38.480  1.00  0.00     0.167 HD
ATOM     71  C   UNL A   1      41.555  35.745  41.284  1.00  0.00     0.074 A 
ATOM     72  C   UNL A   1      41.098  35.363  42.602  1.00  0.00     0.031 C 
ATOM     73  C   UNL A   1      42.528  36.662  41.054  1.00  0.00     0.034 A 
BRANCH  60  74
ATOM     74  C   UNL A   1      43.864  37.367  35.069  1.00  0.00     0.023 A 
ATOM     75  C   UNL A   1      43.462  38.547  34.406  1.00  0.00     0.012 A 
ATOM     76  C   UNL A   1      45.078  36.755  34.717  1.00  0.00     0.148 A 
ATOM     77  C   UNL A   1      44.223  39.072  33.365  1.00  0.00     0.002 A 
ATOM     78  C   UNL A   1      45.866  37.321  33.725  1.00  0.00     0.091 A 
ATOM     79  F   UNL A   1      45.427  35.621  35.340  1.00  0.00    -0.205 F 
ATOM     80  C   UNL A   1      45.430  38.465  33.032  1.00  0.00     0.022 A 
BRANCH  78  81
ATOM     81  S   UNL A   1      47.476  36.667  33.284  1.00  0.00     0.127 S 
ATOM     82  O   UNL A   1      47.894  37.598  32.237  1.00  0.00    -0.237 OA
ATOM     83  O   UNL A   1      48.206  36.796  34.545  1.00  0.00    -0.237 OA
ATOM     84  O   UNL A   1      47.251  35.298  32.844  1.00  0.00    -0.744 OA
ENDBRANCH  78  81
ENDBRANCH  60  74
BRANCH  61  85
ATOM     85  C   UNL A   1      38.028  32.652  41.639  1.00  0.00     0.023 A 
ATOM     86  C   UNL A   1      38.508  31.442  42.184  1.00  0.00     0.012 A 
ATOM     87  C   UNL A   1      36.754  33.112  42.026  1.00  0.00     0.148 A 
ATOM     88  C   UNL A   1      37.720  30.678  43.046  1.00  0.00     0.002 A 
ATOM     89  C   UNL A   1      35.991  32.369  42.924  1.00  0.00     0.091 A 
ATOM     90  F   UNL A   1      36.308  34.260  41.500  1.00  0.00    -0.205 F 
ATOM     91  C   UNL A   1      36.462  31.142  43.419  1.00  0.00     0.022 A 
BRANCH  89  92
ATOM     92  S   UNL A   1      34.395  32.919  43.544  1.00  0.00     0.127 S 
ATOM     93  O   UNL A   1      33.527  32.683  42.393  1.00  0.00    -0.237 OA
ATOM     94  O   UNL A   1      34.186  32.009  44.670  1.00  0.00    -0.237 OA
ATOM     95  O   UNL A   1      34.574  34.314  43.918  1.00  0.00    -0.744 OA
ENDBRANCH  89  92
ENDBRANCH  61  85
BRANCH  73  96
ATOM     96  C   UNL A   1      43.106  37.403  42.232  1.00  0.00     0.023 A 
ATOM     97  C   UNL A   1      44.364  37.060  42.759  1.00  0.00     0.012 A 
ATOM     98  C   UNL A   1      42.411  38.509  42.766  1.00  0.00     0.148 A 
ATOM     99  C   UNL A   1      44.901  37.775  43.829  1.00  0.00     0.002 A 
ATOM    100  C   UNL A   1      42.980  39.255  43.788  1.00  0.00     0.091 A 
ATOM    101  F   UNL A   1      41.207  38.814  42.259  1.00  0.00    -0.205 F 
ATOM    102  C   UNL A   1      44.215  38.879  44.335  1.00  0.00     0.022 A 
BRANCH 100 103
ATOM    103  S   UNL A   1      42.219  40.756  44.417  1.00  0.00     0.127 S 
ATOM    104  O   UNL A   1      43.186  41.175  45.431  1.00  0.00    -0.237 OA
ATOM    105  O   UNL A   1      42.179  41.603  43.225  1.00  0.00    -0.237 OA
ATOM    106  O   UNL A   1      40.912  40.365  44.926  1.00  0.00    -0.744 OA
ENDBRANCH 100 103
ENDBRANCH  73  96
ENDBRANCH  47  48
ENDBRANCH  40  42
ENDBRANCH  39  40
ENDBRANCH  38  39
ENDBRANCH  37  38
ENDBRANCH  36  37
ENDBRANCH  35  36
ENDBRANCH  34  35
ENDBRANCH   1  34
TORSDOF 27
ENDMDL
MODEL 3
REMARK VINA RESULT:      -6.9      5.929      8.401
REMARK SMILES O=C(OCCOCCOCCOCCOC(=O)c1ccc(-c2c3nc(c(-c4cccc(S(=O)(=O)[O-])c4F)c4ccc([nH]4)c(-c4cccc(S(=O)(=O)[O-])c4F)c4nc(c(-c5cccc(S(=O)(=O)[O-])c5F)c5ccc2[nH]5)C=C4)C=C3)cc1)C1=Cc2cc(Cl)cc(-c3ccc(CO)cc3)c2O[C@@H]1C(F)(F)F
REMARK SMILES IDX 9 1 8 2 7 3 6 4 5 5 4 6 3 7 2 8 1 9 81 10 82 11 99 12 83 13
REMARK SMILES IDX 98 14 84 15 97 16 85 17 88 18 86 19 87 20 100 21 101 22
REMARK SMILES IDX 102 23 103 24 89 25 90 26 96 27 91 28 95 29 92 30 93 31
REMARK SMILES IDX 94 32 10 34 11 35 12 36 13 37 14 38 15 39 16 40 17 41 18 42
REMARK SMILES IDX 19 43 80 44 20 45 79 46 21 47 22 48 23 49 73 50 24 51 78 52
REMARK SMILES IDX 72 53 74 54 25 55 77 56 71 57 70 58 26 60 58 61 38 62 57 63
REMARK SMILES IDX 39 64 42 65 56 66 75 67 40 68 41 69 55 71 76 72 43 73 27 74
REMARK SMILES IDX 28 75 36 76 29 77 31 78 37 79 30 80 32 81 33 82 34 83 35 84
REMARK SMILES IDX 59 85 60 86 68 87 61 88 63 89 69 90 62 91 64 92 65 93 66 94
REMARK SMILES IDX 67 95 44 96 45 97 53 98 46 99 48 100 54 101 47 102 49 103
REMARK SMILES IDX 50 104 51 105 52 106
REMARK H PARENT 94 33 74 59 42 70
REMARK Flexibility Score: inf
ROOT
ATOM      1  O   UNL A   1      49.698  28.370  30.087  1.00  0.00    -0.377 OA
ENDROOT
BRANCH   1   2
ATOM      2  C   UNL A   1      48.824  27.631  30.890  1.00  0.00     0.188 C 
BRANCH   2   3
ATOM      3  C   UNL A   1      49.488  26.326  31.290  1.00  0.00     0.188 C 
BRANCH   3   4
ATOM      4  O   UNL A   1      49.912  25.956  32.644  1.00  0.00    -0.376 OA
BRANCH   4   5
ATOM      5  C   UNL A   1      49.777  24.630  33.617  1.00  0.00     0.202 C 
BRANCH   5   6
ATOM      6  C   UNL A   1      50.272  24.486  35.740  1.00  0.00     0.261 C 
BRANCH   6   7
ATOM      7  O   UNL A   1      50.852  23.265  36.451  1.00  0.00    -0.460 OA
BRANCH   7   8
ATOM      8  C   UNL A   1      50.031  22.778  37.389  1.00  0.00     0.338 C 
ATOM      9  O   UNL A   1      49.313  23.378  38.149  1.00  0.00    -0.246 OA
BRANCH   8  10
ATOM     10  C   UNL A   1      50.658  21.473  37.494  1.00  0.00     0.087 C 
ATOM     11  C   UNL A   1      51.198  21.167  38.812  1.00  0.00     0.027 C 
ATOM     12  C   UNL A   1      49.186  20.557  36.669  1.00  0.00     0.316 C 
ATOM     13  C   UNL A   1      50.428  20.042  39.981  1.00  0.00     0.019 A 
ATOM     14  O   UNL A   1      48.243  19.427  37.964  1.00  0.00    -0.475 OA
ATOM     15  C   UNL A   1      51.058  19.893  41.189  1.00  0.00     0.032 A 
ATOM     16  C   UNL A   1      48.893  19.264  39.687  1.00  0.00     0.135 A 
ATOM     17  C   UNL A   1      50.383  19.104  42.121  1.00  0.00     0.042 A 
ATOM     18  C   UNL A   1      48.255  18.578  40.735  1.00  0.00     0.026 A 
ATOM     19  Cl  UNL A   1      51.171  18.828  43.639  1.00  0.00    -0.084 Cl
ATOM     20  C   UNL A   1      49.081  18.514  41.914  1.00  0.00     0.033 A 
BRANCH  12  21
ATOM     21  C   UNL A   1      50.198  20.267  35.310  1.00  0.00     0.430 C 
ATOM     22  F   UNL A   1      51.467  19.853  35.474  1.00  0.00    -0.167 F 
ATOM     23  F   UNL A   1      49.621  19.224  34.627  1.00  0.00    -0.167 F 
ATOM     24  F   UNL A   1      50.230  21.278  34.402  1.00  0.00    -0.167 F 
ENDBRANCH  12  21
BRANCH  18  25
ATOM     25  C   UNL A   1      46.968  17.878  40.858  1.00  0.00    -0.015 A 
ATOM     26  C   UNL A   1      46.432  17.362  42.050  1.00  0.00     0.009 A 
ATOM     27  C   UNL A   1      46.335  17.444  39.711  1.00  0.00     0.009 A 
ATOM     28  C   UNL A   1      45.186  16.679  42.075  1.00  0.00     0.007 A 
ATOM     29  C   UNL A   1      45.030  16.962  39.744  1.00  0.00     0.007 A 
ATOM     30  C   UNL A   1      44.419  16.569  40.919  1.00  0.00    -0.023 A 
BRANCH  30  31
ATOM     31  C   UNL A   1      42.999  16.066  40.876  1.00  0.00     0.191 C 
BRANCH  31  32
ATOM     32  O   UNL A   1      42.120  16.878  40.125  1.00  0.00    -0.392 OA
ATOM     33  H   UNL A   1      41.249  16.895  40.554  1.00  0.00     0.211 HD
ENDBRANCH  31  32
ENDBRANCH  30  31
ENDBRANCH  18  25
ENDBRANCH   8  10
ENDBRANCH   7   8
ENDBRANCH   6   7
ENDBRANCH   5   6
ENDBRANCH   4   5
ENDBRANCH   3   4
ENDBRANCH   2   3
ENDBRANCH   1   2
BRANCH   1  34
ATOM     34  C   UNL A   1      49.510  28.007  28.741  1.00  0.00     0.188 C 
BRANCH  34  35
ATOM     35  C   UNL A   1      50.681  28.212  27.792  1.00  0.00     0.188 C 
BRANCH  35  36
ATOM     36  O   UNL A   1      50.374  28.908  26.613  1.00  0.00    -0.376 OA
BRANCH  36  37
ATOM     37  C   UNL A   1      51.428  29.285  25.739  1.00  0.00     0.202 C 
BRANCH  37  38
ATOM     38  C   UNL A   1      51.847  28.502  24.474  1.00  0.00     0.261 C 
BRANCH  38  39
ATOM     39  O   UNL A   1      51.013  28.567  23.303  1.00  0.00    -0.460 OA
BRANCH  39  40
ATOM     40  C   UNL A   1      50.395  27.448  22.869  1.00  0.00     0.338 C 
ATOM     41  O   UNL A   1      50.880  26.561  22.191  1.00  0.00    -0.246 OA
BRANCH  40  42
ATOM     42  C   UNL A   1      49.077  27.381  23.560  1.00  0.00     0.060 A 
ATOM     43  C   UNL A   1      47.966  28.046  23.013  1.00  0.00     0.016 A 
ATOM     44  C   UNL A   1      48.920  26.604  24.709  1.00  0.00     0.016 A 
ATOM     45  C   UNL A   1      46.708  27.972  23.633  1.00  0.00     0.010 A 
ATOM     46  C   UNL A   1      47.659  26.513  25.314  1.00  0.00     0.010 A 
ATOM     47  C   UNL A   1      46.549  27.236  24.813  1.00  0.00    -0.014 A 
BRANCH  47  48
ATOM     48  C   UNL A   1      45.370  27.444  25.706  1.00  0.00     0.031 A 
ATOM     49  C   UNL A   1      45.392  28.708  26.535  1.00  0.00     0.074 A 
ATOM     50  C   UNL A   1      44.344  26.577  25.856  1.00  0.00     0.049 A 
ATOM     51  N   UNL A   1      44.548  29.128  27.437  1.00  0.00    -0.248 NA
ATOM     52  C   UNL A   1      46.556  29.597  26.346  1.00  0.00     0.031 C 
ATOM     53  C   UNL A   1      44.180  25.301  25.162  1.00  0.00     0.029 A 
ATOM     54  N   UNL A   1      43.254  26.627  26.700  1.00  0.00    -0.354 N 
ATOM     55  C   UNL A   1      45.104  30.299  27.937  1.00  0.00     0.074 A 
ATOM     56  C   UNL A   1      46.403  30.455  27.335  1.00  0.00     0.031 C 
ATOM     57  C   UNL A   1      43.092  24.667  25.644  1.00  0.00     0.029 A 
ATOM     58  C   UNL A   1      42.457  25.501  26.663  1.00  0.00     0.049 A 
ATOM     59  H   UNL A   1      43.063  27.398  27.280  1.00  0.00     0.167 HD
ATOM     60  C   UNL A   1      44.562  31.218  28.764  1.00  0.00     0.034 A 
ATOM     61  C   UNL A   1      41.337  25.192  27.355  1.00  0.00     0.034 A 
ATOM     62  C   UNL A   1      43.259  31.098  29.338  1.00  0.00     0.049 A 
ATOM     63  C   UNL A   1      40.749  26.219  28.299  1.00  0.00     0.074 A 
ATOM     64  C   UNL A   1      42.577  32.011  30.117  1.00  0.00     0.029 A 
ATOM     65  N   UNL A   1      42.452  29.981  29.214  1.00  0.00    -0.354 N 
ATOM     66  N   UNL A   1      41.202  27.408  28.617  1.00  0.00    -0.248 NA
ATOM     67  C   UNL A   1      39.454  25.893  28.922  1.00  0.00     0.031 C 
ATOM     68  C   UNL A   1      41.376  31.419  30.518  1.00  0.00     0.029 A 
ATOM     69  C   UNL A   1      41.280  30.172  29.920  1.00  0.00     0.049 A 
ATOM     70  H   UNL A   1      42.679  29.172  28.702  1.00  0.00     0.167 HD
ATOM     71  C   UNL A   1      40.218  27.996  29.409  1.00  0.00     0.074 A 
ATOM     72  C   UNL A   1      39.145  27.033  29.524  1.00  0.00     0.031 C 
ATOM     73  C   UNL A   1      40.198  29.227  29.979  1.00  0.00     0.034 A 
BRANCH  60  74
ATOM     74  C   UNL A   1      45.387  32.441  29.055  1.00  0.00     0.023 A 
ATOM     75  C   UNL A   1      46.337  32.424  30.100  1.00  0.00     0.012 A 
ATOM     76  C   UNL A   1      45.204  33.613  28.305  1.00  0.00     0.148 A 
ATOM     77  C   UNL A   1      47.045  33.576  30.435  1.00  0.00     0.002 A 
ATOM     78  C   UNL A   1      45.961  34.737  28.600  1.00  0.00     0.091 A 
ATOM     79  F   UNL A   1      44.278  33.615  27.336  1.00  0.00    -0.205 F 
ATOM     80  C   UNL A   1      46.865  34.728  29.677  1.00  0.00     0.022 A 
BRANCH  78  81
ATOM     81  S   UNL A   1      45.867  36.242  27.629  1.00  0.00     0.127 S 
ATOM     82  O   UNL A   1      47.171  36.847  27.898  1.00  0.00    -0.237 OA
ATOM     83  O   UNL A   1      45.706  35.714  26.274  1.00  0.00    -0.237 OA
ATOM     84  O   UNL A   1      44.722  36.982  28.137  1.00  0.00    -0.744 OA
ENDBRANCH  78  81
ENDBRANCH  60  74
BRANCH  61  85
ATOM     85  C   UNL A   1      40.610  23.902  27.125  1.00  0.00     0.023 A 
ATOM     86  C   UNL A   1      41.178  22.696  27.589  1.00  0.00     0.012 A 
ATOM     87  C   UNL A   1      39.400  23.849  26.406  1.00  0.00     0.148 A 
ATOM     88  C   UNL A   1      40.590  21.463  27.296  1.00  0.00     0.002 A 
ATOM     89  C   UNL A   1      38.793  22.619  26.157  1.00  0.00     0.091 A 
ATOM     90  F   UNL A   1      38.872  25.000  25.968  1.00  0.00    -0.205 F 
ATOM     91  C   UNL A   1      39.396  21.425  26.582  1.00  0.00     0.022 A 
BRANCH  89  92
ATOM     92  S   UNL A   1      37.207  22.460  25.326  1.00  0.00     0.127 S 
ATOM     93  O   UNL A   1      36.981  21.018  25.380  1.00  0.00    -0.237 OA
ATOM     94  O   UNL A   1      36.337  23.253  26.195  1.00  0.00    -0.237 OA
ATOM     95  O   UNL A   1      37.399  23.014  23.993  1.00  0.00    -0.744 OA
ENDBRANCH  89  92
ENDBRANCH  61  85
BRANCH  73  96
ATOM     96  C   UNL A   1      38.946  29.663  30.696  1.00  0.00     0.023 A 
ATOM     97  C   UNL A   1      38.637  29.175  31.978  1.00  0.00     0.012 A 
ATOM     98  C   UNL A   1      38.110  30.635  30.107  1.00  0.00     0.148 A 
ATOM     99  C   UNL A   1      37.491  29.611  32.644  1.00  0.00     0.002 A 
ATOM    100  C   UNL A   1      37.008  31.113  30.801  1.00  0.00     0.091 A 
ATOM    101  F   UNL A   1      38.414  31.081  28.878  1.00  0.00    -0.205 F 
ATOM    102  C   UNL A   1      36.685  30.588  32.061  1.00  0.00     0.022 A 
BRANCH 100 103
ATOM    103  S   UNL A   1      35.985  32.449  30.174  1.00  0.00     0.127 S 
ATOM    104  O   UNL A   1      34.674  32.099  30.718  1.00  0.00    -0.237 OA
ATOM    105  O   UNL A   1      36.606  33.624  30.786  1.00  0.00    -0.237 OA
ATOM    106  O   UNL A   1      36.092  32.395  28.723  1.00  0.00    -0.744 OA
ENDBRANCH 100 103
ENDBRANCH  73  96
ENDBRANCH  47  48
ENDBRANCH  40  42
ENDBRANCH  39  40
ENDBRANCH  38  39
ENDBRANCH  37  38
ENDBRANCH  36  37
ENDBRANCH  35  36
ENDBRANCH  34  35
ENDBRANCH   1  34
TORSDOF 27
ENDMDL
