MODEL 1
REMARK VINA RESULT:      -7.8      0.000      0.000
REMARK SMILES O=C(OCCOCCOCCOCCOC(=O)c1ccc(-c2c3nc(c(-c4cccc(S(=O)(=O)[O-])c4F)c4ccc([nH]4)c(-c4cccc(S(=O)(=O)[O-])c4F)c4nc(c(-c5cccc(S(=O)(=O)[O-])c5F)c5ccc2[nH]5)C=C4)C=C3)cc1)C1=Cc2cc(Cl)cc(-c3ccc(O)cc3)c2O[C@@H]1C(F)(F)F
REMARK SMILES IDX 10 1 9 2 8 3 7 4 6 5 5 6 4 7 3 8 2 9 1 10 81 11 82 12 98 13
REMARK SMILES IDX 83 14 97 15 84 16 96 17 85 18 88 19 86 20 87 21 99 22 100 23
REMARK SMILES IDX 101 24 102 25 89 26 90 27 95 28 91 29 94 30 92 31 93 32
REMARK SMILES IDX 11 34 12 35 13 36 14 37 15 38 16 39 17 40 18 41 19 42 80 43
REMARK SMILES IDX 20 44 79 45 21 46 22 47 23 48 73 49 24 50 78 51 72 52 74 53
REMARK SMILES IDX 25 54 77 55 71 56 70 57 26 59 58 60 38 61 57 62 39 63 42 64
REMARK SMILES IDX 56 65 75 66 40 67 41 68 55 70 76 71 43 72 27 73 28 74 36 75
REMARK SMILES IDX 29 76 31 77 37 78 30 79 32 80 33 81 34 82 35 83 59 84 60 85
REMARK SMILES IDX 68 86 61 87 63 88 69 89 62 90 64 91 65 92 66 93 67 94 44 95
REMARK SMILES IDX 45 96 53 97 46 98 48 99 54 100 47 101 49 102 50 103 51 104
REMARK SMILES IDX 52 105
REMARK H PARENT 93 33 74 58 42 69
REMARK Flexibility Score: inf
ROOT
ATOM      1  C   UNL A   1      35.666  31.421  28.679  1.00  0.00     0.188 C 
ENDROOT
BRANCH   1   2
ATOM      2  O   UNL A   1      36.355  30.337  28.058  1.00  0.00    -0.377 OA
BRANCH   2   3
ATOM      3  C   UNL A   1      37.748  30.255  28.369  1.00  0.00     0.188 C 
BRANCH   3   4
ATOM      4  C   UNL A   1      38.188  28.819  28.627  1.00  0.00     0.188 C 
BRANCH   4   5
ATOM      5  O   UNL A   1      39.530  28.587  28.262  1.00  0.00    -0.376 OA
BRANCH   5   6
ATOM      6  C   UNL A   1      39.919  27.259  27.957  1.00  0.00     0.202 C 
BRANCH   6   7
ATOM      7  C   UNL A   1      40.429  26.993  26.531  1.00  0.00     0.261 C 
BRANCH   7   8
ATOM      8  O   UNL A   1      41.487  26.008  26.448  1.00  0.00    -0.460 OA
BRANCH   8   9
ATOM      9  C   UNL A   1      42.554  26.289  25.642  1.00  0.00     0.338 C 
ATOM     10  O   UNL A   1      42.686  27.357  25.065  1.00  0.00    -0.246 OA
BRANCH   9  11
ATOM     11  C   UNL A   1      43.457  25.118  25.431  1.00  0.00     0.087 C 
ATOM     12  C   UNL A   1      44.721  25.331  25.027  1.00  0.00     0.027 C 
ATOM     13  C   UNL A   1      43.222  23.938  26.307  1.00  0.00     0.316 C 
ATOM     14  C   UNL A   1      45.766  24.985  25.996  1.00  0.00     0.019 A 
ATOM     15  O   UNL A   1      44.154  23.904  27.420  1.00  0.00    -0.475 OA
ATOM     16  C   UNL A   1      47.108  25.288  25.777  1.00  0.00     0.032 A 
ATOM     17  C   UNL A   1      45.352  24.572  27.271  1.00  0.00     0.135 A 
ATOM     18  C   UNL A   1      48.002  25.245  26.847  1.00  0.00     0.042 A 
ATOM     19  C   UNL A   1      46.174  24.847  28.389  1.00  0.00     0.026 A 
ATOM     20  Cl  UNL A   1      49.680  25.496  26.573  1.00  0.00    -0.084 Cl
ATOM     21  C   UNL A   1      47.532  25.098  28.151  1.00  0.00     0.033 A 
BRANCH  13  22
ATOM     22  C   UNL A   1      43.018  22.668  25.463  1.00  0.00     0.430 C 
ATOM     23  F   UNL A   1      41.770  22.165  25.594  1.00  0.00    -0.167 F 
ATOM     24  F   UNL A   1      43.159  22.967  24.137  1.00  0.00    -0.167 F 
ATOM     25  F   UNL A   1      43.899  21.683  25.732  1.00  0.00    -0.167 F 
ENDBRANCH  13  22
BRANCH  19  26
ATOM     26  C   UNL A   1      45.636  25.195  29.723  1.00  0.00    -0.014 A 
ATOM     27  C   UNL A   1      46.030  26.412  30.340  1.00  0.00     0.012 A 
ATOM     28  C   UNL A   1      44.725  24.397  30.407  1.00  0.00     0.012 A 
ATOM     29  C   UNL A   1      45.462  26.854  31.543  1.00  0.00     0.047 A 
ATOM     30  C   UNL A   1      44.148  24.851  31.603  1.00  0.00     0.047 A 
ATOM     31  C   UNL A   1      44.498  26.078  32.151  1.00  0.00     0.115 A 
BRANCH  31  32
ATOM     32  O   UNL A   1      43.910  26.526  33.293  1.00  0.00    -0.508 OA
ATOM     33  H   UNL A   1      43.530  25.916  33.894  1.00  0.00     0.293 HD
ENDBRANCH  31  32
ENDBRANCH  19  26
ENDBRANCH   9  11
ENDBRANCH   8   9
ENDBRANCH   7   8
ENDBRANCH   6   7
ENDBRANCH   5   6
ENDBRANCH   4   5
ENDBRANCH   3   4
ENDBRANCH   2   3
ENDBRANCH   1   2
BRANCH   1  34
ATOM     34  C   UNL A   1      35.858  32.792  27.995  1.00  0.00     0.188 C 
BRANCH  34  35
ATOM     35  O   UNL A   1      35.694  34.028  28.678  1.00  0.00    -0.376 OA
BRANCH  35  36
ATOM     36  C   UNL A   1      34.777  34.967  28.165  1.00  0.00     0.202 C 
BRANCH  36  37
ATOM     37  C   UNL A   1      33.647  35.389  29.119  1.00  0.00     0.261 C 
BRANCH  37  38
ATOM     38  O   UNL A   1      33.269  34.417  30.115  1.00  0.00    -0.460 OA
BRANCH  38  39
ATOM     39  C   UNL A   1      33.236  34.813  31.410  1.00  0.00     0.338 C 
ATOM     40  O   UNL A   1      32.320  35.406  31.962  1.00  0.00    -0.246 OA
BRANCH  39  41
ATOM     41  C   UNL A   1      34.453  34.297  32.115  1.00  0.00     0.060 A 
ATOM     42  C   UNL A   1      35.542  35.159  32.320  1.00  0.00     0.016 A 
ATOM     43  C   UNL A   1      34.530  32.989  32.609  1.00  0.00     0.016 A 
ATOM     44  C   UNL A   1      36.704  34.718  32.988  1.00  0.00     0.010 A 
ATOM     45  C   UNL A   1      35.686  32.550  33.280  1.00  0.00     0.010 A 
ATOM     46  C   UNL A   1      36.799  33.400  33.458  1.00  0.00    -0.014 A 
BRANCH  46  47
ATOM     47  C   UNL A   1      38.097  32.815  33.930  1.00  0.00     0.031 A 
ATOM     48  C   UNL A   1      38.539  33.149  35.331  1.00  0.00     0.074 A 
ATOM     49  C   UNL A   1      38.924  32.066  33.167  1.00  0.00     0.049 A 
ATOM     50  N   UNL A   1      39.642  32.821  35.952  1.00  0.00    -0.248 NA
ATOM     51  C   UNL A   1      37.605  33.947  36.142  1.00  0.00     0.031 C 
ATOM     52  C   UNL A   1      38.642  31.579  31.826  1.00  0.00     0.029 A 
ATOM     53  N   UNL A   1      40.209  31.620  33.403  1.00  0.00    -0.354 N 
ATOM     54  C   UNL A   1      39.532  33.364  37.223  1.00  0.00     0.074 A 
ATOM     55  C   UNL A   1      38.284  34.095  37.267  1.00  0.00     0.031 C 
ATOM     56  C   UNL A   1      39.750  31.022  31.303  1.00  0.00     0.029 A 
ATOM     57  C   UNL A   1      40.817  31.058  32.298  1.00  0.00     0.049 A 
ATOM     58  H   UNL A   1      40.652  31.697  34.278  1.00  0.00     0.167 HD
ATOM     59  C   UNL A   1      40.364  33.234  38.282  1.00  0.00     0.034 A 
ATOM     60  C   UNL A   1      42.078  30.612  32.107  1.00  0.00     0.034 A 
ATOM     61  C   UNL A   1      41.602  32.509  38.266  1.00  0.00     0.049 A 
ATOM     62  C   UNL A   1      43.035  30.569  33.276  1.00  0.00     0.074 A 
ATOM     63  C   UNL A   1      42.471  32.275  39.317  1.00  0.00     0.029 A 
ATOM     64  N   UNL A   1      42.166  31.928  37.144  1.00  0.00    -0.354 N 
ATOM     65  N   UNL A   1      42.833  30.926  34.519  1.00  0.00    -0.248 NA
ATOM     66  C   UNL A   1      44.367  29.987  33.033  1.00  0.00     0.031 C 
ATOM     67  C   UNL A   1      43.584  31.590  38.821  1.00  0.00     0.029 A 
ATOM     68  C   UNL A   1      43.385  31.358  37.470  1.00  0.00     0.049 A 
ATOM     69  H   UNL A   1      41.761  31.921  36.247  1.00  0.00     0.167 HD
ATOM     70  C   UNL A   1      43.975  30.543  35.218  1.00  0.00     0.074 A 
ATOM     71  C   UNL A   1      44.868  29.929  34.260  1.00  0.00     0.031 C 
ATOM     72  C   UNL A   1      44.250  30.684  36.537  1.00  0.00     0.034 A 
BRANCH  59  73
ATOM     73  C   UNL A   1      39.928  33.868  39.572  1.00  0.00     0.023 A 
ATOM     74  C   UNL A   1      39.260  33.089  40.539  1.00  0.00     0.012 A 
ATOM     75  C   UNL A   1      40.205  35.221  39.836  1.00  0.00     0.148 A 
ATOM     76  C   UNL A   1      38.839  33.658  41.737  1.00  0.00     0.002 A 
ATOM     77  C   UNL A   1      39.826  35.769  41.053  1.00  0.00     0.091 A 
ATOM     78  F   UNL A   1      40.821  35.943  38.890  1.00  0.00    -0.205 F 
ATOM     79  C   UNL A   1      39.130  34.995  41.998  1.00  0.00     0.022 A 
BRANCH  77  80
ATOM     80  S   UNL A   1      40.215  37.458  41.517  1.00  0.00     0.127 S 
ATOM     81  O   UNL A   1      39.570  38.214  40.445  1.00  0.00    -0.237 OA
ATOM     82  O   UNL A   1      39.567  37.571  42.822  1.00  0.00    -0.237 OA
ATOM     83  O   UNL A   1      41.669  37.543  41.547  1.00  0.00    -0.744 OA
ENDBRANCH  77  80
ENDBRANCH  59  73
BRANCH  60  84
ATOM     84  C   UNL A   1      42.524  30.093  30.776  1.00  0.00     0.023 A 
ATOM     85  C   UNL A   1      42.380  28.721  30.481  1.00  0.00     0.012 A 
ATOM     86  C   UNL A   1      43.161  30.929  29.838  1.00  0.00     0.148 A 
ATOM     87  C   UNL A   1      42.913  28.182  29.309  1.00  0.00     0.002 A 
ATOM     88  C   UNL A   1      43.651  30.393  28.650  1.00  0.00     0.091 A 
ATOM     89  F   UNL A   1      43.297  32.228  30.136  1.00  0.00    -0.205 F 
ATOM     90  C   UNL A   1      43.547  29.016  28.394  1.00  0.00     0.022 A 
BRANCH  88  91
ATOM     91  S   UNL A   1      44.409  31.395  27.365  1.00  0.00     0.127 S 
ATOM     92  O   UNL A   1      43.895  30.764  26.151  1.00  0.00    -0.237 OA
ATOM     93  O   UNL A   1      43.857  32.718  27.654  1.00  0.00    -0.237 OA
ATOM     94  O   UNL A   1      45.846  31.282  27.572  1.00  0.00    -0.744 OA
ENDBRANCH  88  91
ENDBRANCH  60  84
BRANCH  72  95
ATOM     95  C   UNL A   1      45.537  30.108  37.070  1.00  0.00     0.023 A 
ATOM     96  C   UNL A   1      46.695  30.906  37.151  1.00  0.00     0.012 A 
ATOM     97  C   UNL A   1      45.570  28.793  37.582  1.00  0.00     0.148 A 
ATOM     98  C   UNL A   1      47.870  30.397  37.705  1.00  0.00     0.002 A 
ATOM     99  C   UNL A   1      46.727  28.312  38.182  1.00  0.00     0.091 A 
ATOM    100  F   UNL A   1      44.465  28.041  37.481  1.00  0.00    -0.205 F 
ATOM    101  C   UNL A   1      47.882  29.108  38.233  1.00  0.00     0.022 A 
BRANCH  99 102
ATOM    102  S   UNL A   1      46.803  26.706  38.985  1.00  0.00     0.127 S 
ATOM    103  O   UNL A   1      47.934  26.882  39.894  1.00  0.00    -0.237 OA
ATOM    104  O   UNL A   1      45.498  26.629  39.643  1.00  0.00    -0.237 OA
ATOM    105  O   UNL A   1      47.004  25.732  37.921  1.00  0.00    -0.744 OA
ENDBRANCH  99 102
ENDBRANCH  72  95
ENDBRANCH  46  47
ENDBRANCH  39  41
ENDBRANCH  38  39
ENDBRANCH  37  38
ENDBRANCH  36  37
ENDBRANCH  35  36
ENDBRANCH  34  35
ENDBRANCH   1  34
TORSDOF 26
ENDMDL
MODEL 2
REMARK VINA RESULT:      -7.7      3.655      8.206
REMARK SMILES O=C(OCCOCCOCCOCCOC(=O)c1ccc(-c2c3nc(c(-c4cccc(S(=O)(=O)[O-])c4F)c4ccc([nH]4)c(-c4cccc(S(=O)(=O)[O-])c4F)c4nc(c(-c5cccc(S(=O)(=O)[O-])c5F)c5ccc2[nH]5)C=C4)C=C3)cc1)C1=Cc2cc(Cl)cc(-c3ccc(O)cc3)c2O[C@@H]1C(F)(F)F
REMARK SMILES IDX 10 1 9 2 8 3 7 4 6 5 5 6 4 7 3 8 2 9 1 10 81 11 82 12 98 13
REMARK SMILES IDX 83 14 97 15 84 16 96 17 85 18 88 19 86 20 87 21 99 22 100 23
REMARK SMILES IDX 101 24 102 25 89 26 90 27 95 28 91 29 94 30 92 31 93 32
REMARK SMILES IDX 11 34 12 35 13 36 14 37 15 38 16 39 17 40 18 41 19 42 80 43
REMARK SMILES IDX 20 44 79 45 21 46 22 47 23 48 73 49 24 50 78 51 72 52 74 53
REMARK SMILES IDX 25 54 77 55 71 56 70 57 26 59 58 60 38 61 57 62 39 63 42 64
REMARK SMILES IDX 56 65 75 66 40 67 41 68 55 70 76 71 43 72 27 73 28 74 36 75
REMARK SMILES IDX 29 76 31 77 37 78 30 79 32 80 33 81 34 82 35 83 59 84 60 85
REMARK SMILES IDX 68 86 61 87 63 88 69 89 62 90 64 91 65 92 66 93 67 94 44 95
REMARK SMILES IDX 45 96 53 97 46 98 48 99 54 100 47 101 49 102 50 103 51 104
REMARK SMILES IDX 52 105
REMARK H PARENT 93 33 74 58 42 69
REMARK Flexibility Score: inf
ROOT
ATOM      1  C   UNL A   1      33.577  26.414  24.839  1.00  0.00     0.188 C 
ENDROOT
BRANCH   1   2
ATOM      2  O   UNL A   1      34.168  25.456  25.716  1.00  0.00    -0.377 OA
BRANCH   2   3
ATOM      3  C   UNL A   1      34.842  24.379  25.061  1.00  0.00     0.188 C 
BRANCH   3   4
ATOM      4  C   UNL A   1      36.080  23.934  25.829  1.00  0.00     0.188 C 
BRANCH   4   5
ATOM      5  O   UNL A   1      37.107  23.468  24.982  1.00  0.00    -0.376 OA
BRANCH   5   6
ATOM      6  C   UNL A   1      38.258  22.895  25.580  1.00  0.00     0.202 C 
BRANCH   6   7
ATOM      7  C   UNL A   1      38.815  23.597  26.830  1.00  0.00     0.261 C 
BRANCH   7   8
ATOM      8  O   UNL A   1      39.156  24.990  26.631  1.00  0.00    -0.460 OA
BRANCH   8   9
ATOM      9  C   UNL A   1      40.276  25.466  27.254  1.00  0.00     0.338 C 
ATOM     10  O   UNL A   1      41.160  24.736  27.675  1.00  0.00    -0.246 OA
BRANCH   9  11
ATOM     11  C   UNL A   1      40.239  26.940  27.488  1.00  0.00     0.087 C 
ATOM     12  C   UNL A   1      39.368  27.439  28.381  1.00  0.00     0.027 C 
ATOM     13  C   UNL A   1      41.529  27.665  27.331  1.00  0.00     0.316 C 
ATOM     14  C   UNL A   1      39.961  28.040  29.581  1.00  0.00     0.019 A 
ATOM     15  O   UNL A   1      42.162  27.916  28.614  1.00  0.00    -0.475 OA
ATOM     16  C   UNL A   1      39.183  28.461  30.657  1.00  0.00     0.032 A 
ATOM     17  C   UNL A   1      41.351  27.942  29.731  1.00  0.00     0.135 A 
ATOM     18  C   UNL A   1      39.796  28.710  31.886  1.00  0.00     0.042 A 
ATOM     19  C   UNL A   1      41.905  27.875  31.032  1.00  0.00     0.026 A 
ATOM     20  Cl  UNL A   1      38.874  29.347  33.190  1.00  0.00    -0.084 Cl
ATOM     21  C   UNL A   1      41.126  28.353  32.095  1.00  0.00     0.033 A 
BRANCH  13  22
ATOM     22  C   UNL A   1      41.383  28.824  26.331  1.00  0.00     0.430 C 
ATOM     23  F   UNL A   1      41.648  28.439  25.062  1.00  0.00    -0.167 F 
ATOM     24  F   UNL A   1      40.089  29.265  26.321  1.00  0.00    -0.167 F 
ATOM     25  F   UNL A   1      42.152  29.895  26.615  1.00  0.00    -0.167 F 
ENDBRANCH  13  22
BRANCH  19  26
ATOM     26  C   UNL A   1      43.091  27.056  31.365  1.00  0.00    -0.014 A 
ATOM     27  C   UNL A   1      43.707  26.273  30.352  1.00  0.00     0.012 A 
ATOM     28  C   UNL A   1      43.667  27.032  32.631  1.00  0.00     0.012 A 
ATOM     29  C   UNL A   1      44.902  25.575  30.575  1.00  0.00     0.047 A 
ATOM     30  C   UNL A   1      44.871  26.344  32.845  1.00  0.00     0.047 A 
ATOM     31  C   UNL A   1      45.492  25.642  31.820  1.00  0.00     0.115 A 
BRANCH  31  32
ATOM     32  O   UNL A   1      46.676  25.004  32.027  1.00  0.00    -0.508 OA
ATOM     33  H   UNL A   1      47.440  25.274  31.558  1.00  0.00     0.293 HD
ENDBRANCH  31  32
ENDBRANCH  19  26
ENDBRANCH   9  11
ENDBRANCH   8   9
ENDBRANCH   7   8
ENDBRANCH   6   7
ENDBRANCH   5   6
ENDBRANCH   4   5
ENDBRANCH   3   4
ENDBRANCH   2   3
ENDBRANCH   1   2
BRANCH   1  34
ATOM     34  C   UNL A   1      34.056  27.868  25.046  1.00  0.00     0.188 C 
BRANCH  34  35
ATOM     35  O   UNL A   1      33.230  28.884  25.601  1.00  0.00    -0.376 OA
BRANCH  35  36
ATOM     36  C   UNL A   1      33.550  29.391  26.877  1.00  0.00     0.202 C 
BRANCH  36  37
ATOM     37  C   UNL A   1      33.456  30.919  27.031  1.00  0.00     0.261 C 
BRANCH  37  38
ATOM     38  O   UNL A   1      34.087  31.472  28.204  1.00  0.00    -0.460 OA
BRANCH  38  39
ATOM     39  C   UNL A   1      34.747  32.647  28.077  1.00  0.00     0.338 C 
ATOM     40  O   UNL A   1      34.362  33.630  27.458  1.00  0.00    -0.246 OA
BRANCH  39  41
ATOM     41  C   UNL A   1      35.983  32.615  28.923  1.00  0.00     0.060 A 
ATOM     42  C   UNL A   1      36.389  31.398  29.493  1.00  0.00     0.016 A 
ATOM     43  C   UNL A   1      36.769  33.753  29.137  1.00  0.00     0.016 A 
ATOM     44  C   UNL A   1      37.552  31.320  30.289  1.00  0.00     0.010 A 
ATOM     45  C   UNL A   1      37.932  33.675  29.927  1.00  0.00     0.010 A 
ATOM     46  C   UNL A   1      38.328  32.463  30.533  1.00  0.00    -0.014 A 
BRANCH  46  47
ATOM     47  C   UNL A   1      39.406  32.485  31.575  1.00  0.00     0.031 A 
ATOM     48  C   UNL A   1      40.776  32.009  31.164  1.00  0.00     0.074 A 
ATOM     49  C   UNL A   1      39.220  32.840  32.866  1.00  0.00     0.049 A 
ATOM     50  N   UNL A   1      41.856  31.874  31.888  1.00  0.00    -0.248 NA
ATOM     51  C   UNL A   1      40.949  31.653  29.746  1.00  0.00     0.031 C 
ATOM     52  C   UNL A   1      38.000  33.393  33.432  1.00  0.00     0.029 A 
ATOM     53  N   UNL A   1      40.059  32.739  33.957  1.00  0.00    -0.354 N 
ATOM     54  C   UNL A   1      42.837  31.426  31.015  1.00  0.00     0.074 A 
ATOM     55  C   UNL A   1      42.210  31.252  29.723  1.00  0.00     0.031 C 
ATOM     56  C   UNL A   1      38.112  33.461  34.772  1.00  0.00     0.029 A 
ATOM     57  C   UNL A   1      39.442  33.008  35.163  1.00  0.00     0.049 A 
ATOM     58  H   UNL A   1      41.010  32.497  33.883  1.00  0.00     0.167 HD
ATOM     59  C   UNL A   1      44.154  31.220  31.245  1.00  0.00     0.034 A 
ATOM     60  C   UNL A   1      39.894  32.915  36.433  1.00  0.00     0.034 A 
ATOM     61  C   UNL A   1      44.801  31.392  32.514  1.00  0.00     0.049 A 
ATOM     62  C   UNL A   1      41.346  32.579  36.682  1.00  0.00     0.074 A 
ATOM     63  C   UNL A   1      46.146  31.265  32.814  1.00  0.00     0.029 A 
ATOM     64  N   UNL A   1      44.153  31.695  33.698  1.00  0.00    -0.354 N 
ATOM     65  N   UNL A   1      42.296  32.337  35.814  1.00  0.00    -0.248 NA
ATOM     66  C   UNL A   1      41.806  32.581  38.082  1.00  0.00     0.031 C 
ATOM     67  C   UNL A   1      46.306  31.449  34.190  1.00  0.00     0.029 A 
ATOM     68  C   UNL A   1      45.067  31.735  34.738  1.00  0.00     0.049 A 
ATOM     69  H   UNL A   1      43.187  31.859  33.789  1.00  0.00     0.167 HD
ATOM     70  C   UNL A   1      43.473  32.238  36.552  1.00  0.00     0.074 A 
ATOM     71  C   UNL A   1      43.117  32.441  37.939  1.00  0.00     0.031 C 
ATOM     72  C   UNL A   1      44.733  32.005  36.112  1.00  0.00     0.034 A 
BRANCH  59  73
ATOM     73  C   UNL A   1      44.995  30.817  30.067  1.00  0.00     0.023 A 
ATOM     74  C   UNL A   1      45.239  29.449  29.822  1.00  0.00     0.012 A 
ATOM     75  C   UNL A   1      45.514  31.785  29.190  1.00  0.00     0.148 A 
ATOM     76  C   UNL A   1      46.022  29.053  28.742  1.00  0.00     0.002 A 
ATOM     77  C   UNL A   1      46.253  31.381  28.088  1.00  0.00     0.091 A 
ATOM     78  F   UNL A   1      45.285  33.078  29.459  1.00  0.00    -0.205 F 
ATOM     79  C   UNL A   1      46.520  30.018  27.870  1.00  0.00     0.022 A 
BRANCH  77  80
ATOM     80  S   UNL A   1      46.879  32.536  26.866  1.00  0.00     0.127 S 
ATOM     81  O   UNL A   1      47.951  31.758  26.247  1.00  0.00    -0.237 OA
ATOM     82  O   UNL A   1      45.706  32.745  26.018  1.00  0.00    -0.237 OA
ATOM     83  O   UNL A   1      47.314  33.711  27.607  1.00  0.00    -0.744 OA
ENDBRANCH  77  80
ENDBRANCH  59  73
BRANCH  60  84
ATOM     84  C   UNL A   1      39.000  33.208  37.597  1.00  0.00     0.023 A 
ATOM     85  C   UNL A   1      39.126  34.436  38.279  1.00  0.00     0.012 A 
ATOM     86  C   UNL A   1      38.087  32.249  38.080  1.00  0.00     0.148 A 
ATOM     87  C   UNL A   1      38.408  34.680  39.450  1.00  0.00     0.002 A 
ATOM     88  C   UNL A   1      37.341  32.518  39.225  1.00  0.00     0.091 A 
ATOM     89  F   UNL A   1      37.984  31.084  37.427  1.00  0.00    -0.205 F 
ATOM     90  C   UNL A   1      37.516  33.723  39.923  1.00  0.00     0.022 A 
BRANCH  88  91
ATOM     91  S   UNL A   1      36.100  31.387  39.871  1.00  0.00     0.127 S 
ATOM     92  O   UNL A   1      36.662  31.039  41.173  1.00  0.00    -0.237 OA
ATOM     93  O   UNL A   1      34.914  32.242  39.918  1.00  0.00    -0.237 OA
ATOM     94  O   UNL A   1      36.020  30.297  38.908  1.00  0.00    -0.744 OA
ENDBRANCH  88  91
ENDBRANCH  60  84
BRANCH  72  95
ATOM     95  C   UNL A   1      45.860  32.024  37.114  1.00  0.00     0.023 A 
ATOM     96  C   UNL A   1      46.262  30.837  37.756  1.00  0.00     0.012 A 
ATOM     97  C   UNL A   1      46.585  33.212  37.346  1.00  0.00     0.148 A 
ATOM     98  C   UNL A   1      47.347  30.837  38.633  1.00  0.00     0.002 A 
ATOM     99  C   UNL A   1      47.698  33.192  38.178  1.00  0.00     0.091 A 
ATOM    100  F   UNL A   1      46.178  34.337  36.741  1.00  0.00    -0.205 F 
ATOM    101  C   UNL A   1      48.073  32.009  38.833  1.00  0.00     0.022 A 
BRANCH  99 102
ATOM    102  S   UNL A   1      48.756  34.627  38.408  1.00  0.00     0.127 S 
ATOM    103  O   UNL A   1      47.858  35.551  39.099  1.00  0.00    -0.237 OA
ATOM    104  O   UNL A   1      49.832  34.085  39.240  1.00  0.00    -0.237 OA
ATOM    105  O   UNL A   1      49.171  35.041  37.075  1.00  0.00    -0.744 OA
ENDBRANCH  99 102
ENDBRANCH  72  95
ENDBRANCH  46  47
ENDBRANCH  39  41
ENDBRANCH  38  39
ENDBRANCH  37  38
ENDBRANCH  36  37
ENDBRANCH  35  36
ENDBRANCH  34  35
ENDBRANCH   1  34
TORSDOF 26
ENDMDL
MODEL 3
REMARK VINA RESULT:      -7.6      5.701      8.747
REMARK SMILES O=C(OCCOCCOCCOCCOC(=O)c1ccc(-c2c3nc(c(-c4cccc(S(=O)(=O)[O-])c4F)c4ccc([nH]4)c(-c4cccc(S(=O)(=O)[O-])c4F)c4nc(c(-c5cccc(S(=O)(=O)[O-])c5F)c5ccc2[nH]5)C=C4)C=C3)cc1)C1=Cc2cc(Cl)cc(-c3ccc(O)cc3)c2O[C@@H]1C(F)(F)F
REMARK SMILES IDX 10 1 9 2 8 3 7 4 6 5 5 6 4 7 3 8 2 9 1 10 81 11 82 12 98 13
REMARK SMILES IDX 83 14 97 15 84 16 96 17 85 18 88 19 86 20 87 21 99 22 100 23
REMARK SMILES IDX 101 24 102 25 89 26 90 27 95 28 91 29 94 30 92 31 93 32
REMARK SMILES IDX 11 34 12 35 13 36 14 37 15 38 16 39 17 40 18 41 19 42 80 43
REMARK SMILES IDX 20 44 79 45 21 46 22 47 23 48 73 49 24 50 78 51 72 52 74 53
REMARK SMILES IDX 25 54 77 55 71 56 70 57 26 59 58 60 38 61 57 62 39 63 42 64
REMARK SMILES IDX 56 65 75 66 40 67 41 68 55 70 76 71 43 72 27 73 28 74 36 75
REMARK SMILES IDX 29 76 31 77 37 78 30 79 32 80 33 81 34 82 35 83 59 84 60 85
REMARK SMILES IDX 68 86 61 87 63 88 69 89 62 90 64 91 65 92 66 93 67 94 44 95
REMARK SMILES IDX 45 96 53 97 46 98 48 99 54 100 47 101 49 102 50 103 51 104
REMARK SMILES IDX 52 105
REMARK H PARENT 93 33 74 58 42 69
REMARK Flexibility Score: inf
ROOT
ATOM      1  C   UNL A   1      36.463  30.857  28.513  1.00  0.00     0.188 C 
ENDROOT
BRANCH   1   2
ATOM      2  O   UNL A   1      37.854  30.602  28.327  1.00  0.00    -0.377 OA
BRANCH   2   3
ATOM      3  C   UNL A   1      38.167  29.284  27.870  1.00  0.00     0.188 C 
BRANCH   3   4
ATOM      4  C   UNL A   1      38.916  28.480  28.925  1.00  0.00     0.188 C 
BRANCH   4   5
ATOM      5  O   UNL A   1      40.232  28.159  28.532  1.00  0.00    -0.376 OA
BRANCH   5   6
ATOM      6  C   UNL A   1      40.868  28.996  27.580  1.00  0.00     0.202 C 
BRANCH   6   7
ATOM      7  C   UNL A   1      42.400  29.091  27.649  1.00  0.00     0.261 C 
BRANCH   7   8
ATOM      8  O   UNL A   1      43.053  27.884  28.112  1.00  0.00    -0.460 OA
BRANCH   8   9
ATOM      9  C   UNL A   1      43.535  27.020  27.169  1.00  0.00     0.338 C 
ATOM     10  O   UNL A   1      43.315  27.152  25.975  1.00  0.00    -0.246 OA
BRANCH   9  11
ATOM     11  C   UNL A   1      44.229  25.835  27.755  1.00  0.00     0.087 C 
ATOM     12  C   UNL A   1      45.518  25.946  28.119  1.00  0.00     0.027 C 
ATOM     13  C   UNL A   1      43.385  24.902  28.551  1.00  0.00     0.316 C 
ATOM     14  C   UNL A   1      45.784  25.848  29.558  1.00  0.00     0.019 A 
ATOM     15  O   UNL A   1      43.521  25.142  29.977  1.00  0.00    -0.475 OA
ATOM     16  C   UNL A   1      47.046  26.092  30.095  1.00  0.00     0.032 A 
ATOM     17  C   UNL A   1      44.676  25.757  30.414  1.00  0.00     0.135 A 
ATOM     18  C   UNL A   1      47.174  26.312  31.467  1.00  0.00     0.042 A 
ATOM     19  C   UNL A   1      44.763  26.297  31.719  1.00  0.00     0.026 A 
ATOM     20  Cl  UNL A   1      48.734  26.493  32.164  1.00  0.00    -0.084 Cl
ATOM     21  C   UNL A   1      46.042  26.486  32.260  1.00  0.00     0.033 A 
BRANCH  13  22
ATOM     22  C   UNL A   1      43.513  23.465  28.019  1.00  0.00     0.430 C 
ATOM     23  F   UNL A   1      43.633  23.429  26.673  1.00  0.00    -0.167 F 
ATOM     24  F   UNL A   1      44.654  22.892  28.508  1.00  0.00    -0.167 F 
ATOM     25  F   UNL A   1      42.494  22.656  28.373  1.00  0.00    -0.167 F 
ENDBRANCH  13  22
BRANCH  19  26
ATOM     26  C   UNL A   1      43.626  26.958  32.398  1.00  0.00    -0.014 A 
ATOM     27  C   UNL A   1      42.714  27.736  31.636  1.00  0.00     0.012 A 
ATOM     28  C   UNL A   1      43.377  26.832  33.761  1.00  0.00     0.012 A 
ATOM     29  C   UNL A   1      41.552  28.283  32.200  1.00  0.00     0.047 A 
ATOM     30  C   UNL A   1      42.206  27.368  34.317  1.00  0.00     0.047 A 
ATOM     31  C   UNL A   1      41.293  28.067  33.538  1.00  0.00     0.115 A 
BRANCH  31  32
ATOM     32  O   UNL A   1      40.144  28.556  34.077  1.00  0.00    -0.508 OA
ATOM     33  H   UNL A   1      39.566  27.985  34.543  1.00  0.00     0.293 HD
ENDBRANCH  31  32
ENDBRANCH  19  26
ENDBRANCH   9  11
ENDBRANCH   8   9
ENDBRANCH   7   8
ENDBRANCH   6   7
ENDBRANCH   5   6
ENDBRANCH   4   5
ENDBRANCH   3   4
ENDBRANCH   2   3
ENDBRANCH   1   2
BRANCH   1  34
ATOM     34  C   UNL A   1      36.003  30.909  29.987  1.00  0.00     0.188 C 
BRANCH  34  35
ATOM     35  O   UNL A   1      36.233  32.029  30.831  1.00  0.00    -0.376 OA
BRANCH  35  36
ATOM     36  C   UNL A   1      35.464  32.159  32.005  1.00  0.00     0.202 C 
BRANCH  36  37
ATOM     37  C   UNL A   1      36.260  32.287  33.315  1.00  0.00     0.261 C 
BRANCH  37  38
ATOM     38  O   UNL A   1      37.694  32.344  33.177  1.00  0.00    -0.460 OA
BRANCH  38  39
ATOM     39  C   UNL A   1      38.366  31.177  33.031  1.00  0.00     0.338 C 
ATOM     40  O   UNL A   1      37.944  30.061  33.301  1.00  0.00    -0.246 OA
BRANCH  39  41
ATOM     41  C   UNL A   1      39.679  31.443  32.362  1.00  0.00     0.060 A 
ATOM     42  C   UNL A   1      40.775  31.847  33.141  1.00  0.00     0.016 A 
ATOM     43  C   UNL A   1      39.862  31.268  30.984  1.00  0.00     0.016 A 
ATOM     44  C   UNL A   1      42.033  32.098  32.552  1.00  0.00     0.010 A 
ATOM     45  C   UNL A   1      41.117  31.514  30.398  1.00  0.00     0.010 A 
ATOM     46  C   UNL A   1      42.215  31.955  31.169  1.00  0.00    -0.014 A 
BRANCH  46  47
ATOM     47  C   UNL A   1      43.442  32.461  30.471  1.00  0.00     0.031 A 
ATOM     48  C   UNL A   1      43.435  33.896  30.012  1.00  0.00     0.074 A 
ATOM     49  C   UNL A   1      44.522  31.705  30.172  1.00  0.00     0.049 A 
ATOM     50  N   UNL A   1      44.342  34.553  29.337  1.00  0.00    -0.248 NA
ATOM     51  C   UNL A   1      42.255  34.696  30.375  1.00  0.00     0.031 C 
ATOM     52  C   UNL A   1      44.745  30.330  30.591  1.00  0.00     0.029 A 
ATOM     53  N   UNL A   1      45.625  31.981  29.389  1.00  0.00    -0.354 N 
ATOM     54  C   UNL A   1      43.848  35.841  29.202  1.00  0.00     0.074 A 
ATOM     55  C   UNL A   1      42.535  35.859  29.810  1.00  0.00     0.031 C 
ATOM     56  C   UNL A   1      45.830  29.836  29.967  1.00  0.00     0.029 A 
ATOM     57  C   UNL A   1      46.422  30.882  29.140  1.00  0.00     0.049 A 
ATOM     58  H   UNL A   1      45.825  32.880  29.042  1.00  0.00     0.167 HD
ATOM     59  C   UNL A   1      44.442  36.932  28.666  1.00  0.00     0.034 A 
ATOM     60  C   UNL A   1      47.508  30.732  28.349  1.00  0.00     0.034 A 
ATOM     61  C   UNL A   1      45.745  36.942  28.065  1.00  0.00     0.049 A 
ATOM     62  C   UNL A   1      48.103  31.942  27.668  1.00  0.00     0.074 A 
ATOM     63  C   UNL A   1      46.445  38.022  27.556  1.00  0.00     0.029 A 
ATOM     64  N   UNL A   1      46.532  35.823  27.860  1.00  0.00    -0.354 N 
ATOM     65  N   UNL A   1      47.708  33.190  27.712  1.00  0.00    -0.248 NA
ATOM     66  C   UNL A   1      49.340  31.738  26.893  1.00  0.00     0.031 C 
ATOM     67  C   UNL A   1      47.638  37.549  27.004  1.00  0.00     0.029 A 
ATOM     68  C   UNL A   1      47.700  36.180  27.209  1.00  0.00     0.049 A 
ATOM     69  H   UNL A   1      46.297  34.908  28.136  1.00  0.00     0.167 HD
ATOM     70  C   UNL A   1      48.683  33.924  27.042  1.00  0.00     0.074 A 
ATOM     71  C   UNL A   1      49.687  32.983  26.598  1.00  0.00     0.031 C 
ATOM     72  C   UNL A   1      48.738  35.260  26.824  1.00  0.00     0.034 A 
BRANCH  59  73
ATOM     73  C   UNL A   1      43.686  38.227  28.746  1.00  0.00     0.023 A 
ATOM     74  C   UNL A   1      42.789  38.574  27.713  1.00  0.00     0.012 A 
ATOM     75  C   UNL A   1      43.839  39.081  29.852  1.00  0.00     0.148 A 
ATOM     76  C   UNL A   1      42.084  39.773  27.763  1.00  0.00     0.002 A 
ATOM     77  C   UNL A   1      43.096  40.251  29.918  1.00  0.00     0.091 A 
ATOM     78  F   UNL A   1      44.713  38.737  30.808  1.00  0.00    -0.205 F 
ATOM     79  C   UNL A   1      42.230  40.606  28.869  1.00  0.00     0.022 A 
BRANCH  77  80
ATOM     80  S   UNL A   1      43.156  41.357  31.330  1.00  0.00     0.127 S 
ATOM     81  O   UNL A   1      42.434  42.522  30.822  1.00  0.00    -0.237 OA
ATOM     82  O   UNL A   1      42.441  40.588  32.348  1.00  0.00    -0.237 OA
ATOM     83  O   UNL A   1      44.569  41.577  31.610  1.00  0.00    -0.744 OA
ENDBRANCH  77  80
ENDBRANCH  59  73
BRANCH  60  84
ATOM     84  C   UNL A   1      48.175  29.401  28.192  1.00  0.00     0.023 A 
ATOM     85  C   UNL A   1      49.126  28.983  29.146  1.00  0.00     0.012 A 
ATOM     86  C   UNL A   1      47.934  28.588  27.067  1.00  0.00     0.148 A 
ATOM     87  C   UNL A   1      49.866  27.816  28.954  1.00  0.00     0.002 A 
ATOM     88  C   UNL A   1      48.645  27.402  26.904  1.00  0.00     0.091 A 
ATOM     89  F   UNL A   1      47.033  29.002  26.166  1.00  0.00    -0.205 F 
ATOM     90  C   UNL A   1      49.626  27.025  27.834  1.00  0.00     0.022 A 
BRANCH  88  91
ATOM     91  S   UNL A   1      48.352  26.266  25.541  1.00  0.00     0.127 S 
ATOM     92  O   UNL A   1      48.319  24.977  26.227  1.00  0.00    -0.237 OA
ATOM     93  O   UNL A   1      47.058  26.731  25.039  1.00  0.00    -0.237 OA
ATOM     94  O   UNL A   1      49.462  26.461  24.619  1.00  0.00    -0.744 OA
ENDBRANCH  88  91
ENDBRANCH  60  84
BRANCH  72  95
ATOM     95  C   UNL A   1      49.953  35.827  26.134  1.00  0.00     0.023 A 
ATOM     96  C   UNL A   1      49.981  35.958  24.732  1.00  0.00     0.012 A 
ATOM     97  C   UNL A   1      51.036  36.322  26.893  1.00  0.00     0.148 A 
ATOM     98  C   UNL A   1      51.075  36.543  24.094  1.00  0.00     0.002 A 
ATOM     99  C   UNL A   1      52.096  36.953  26.255  1.00  0.00     0.091 A 
ATOM    100  F   UNL A   1      51.002  36.174  28.225  1.00  0.00    -0.205 F 
ATOM    101  C   UNL A   1      52.125  37.053  24.855  1.00  0.00     0.022 A 
BRANCH  99 102
ATOM    102  S   UNL A   1      53.439  37.736  27.159  1.00  0.00     0.127 S 
ATOM    103  O   UNL A   1      54.335  38.133  26.074  1.00  0.00    -0.237 OA
ATOM    104  O   UNL A   1      52.756  38.847  27.824  1.00  0.00    -0.237 OA
ATOM    105  O   UNL A   1      53.964  36.721  28.061  1.00  0.00    -0.744 OA
ENDBRANCH  99 102
ENDBRANCH  72  95
ENDBRANCH  46  47
ENDBRANCH  39  41
ENDBRANCH  38  39
ENDBRANCH  37  38
ENDBRANCH  36  37
ENDBRANCH  35  36
ENDBRANCH  34  35
ENDBRANCH   1  34
TORSDOF 26
ENDMDL
