MODEL 1
REMARK VINA RESULT:      -9.4      0.000      0.000
REMARK SMILES Cc1c(CC(=O)OCCOCCOCCOCCOC(=O)c2ccc(-c3c4nc(c(-c5cccc(S(=O)(=O)[O-])c5F)c5ccc([nH]5)c(-c5cccc(S(=O)(=O)[O-])c5F)c5nc(c(-c6cccc(S(=O)(=O)[O-])c6F)c6ccc3[nH]6)C=C5)C=C4)cc2)c2cc(O)ccc2n1C(=O)c1ccc(Cl)cc1
REMARK SMILES IDX 13 1 12 2 11 3 10 4 9 5 8 6 7 7 5 8 6 9 4 10 3 11 1 12 2 13
REMARK SMILES IDX 92 14 85 15 91 16 86 17 90 18 87 19 89 20 93 21 94 22 95 23
REMARK SMILES IDX 96 24 101 25 97 26 100 27 98 28 99 29 88 30 14 32 15 33
REMARK SMILES IDX 16 34 17 35 18 36 19 37 20 38 21 39 22 40 23 41 84 42 24 43
REMARK SMILES IDX 83 44 25 45 26 46 27 47 77 48 28 49 82 50 76 51 78 52 29 53
REMARK SMILES IDX 81 54 75 55 74 56 30 58 62 59 42 60 61 61 43 62 46 63 60 64
REMARK SMILES IDX 79 65 44 66 45 67 59 69 80 70 47 71 31 72 32 73 40 74 33 75
REMARK SMILES IDX 35 76 41 77 34 78 36 79 37 80 38 81 39 82 63 83 64 84 72 85
REMARK SMILES IDX 65 86 67 87 73 88 66 89 68 90 69 91 70 92 71 93 48 94 49 95
REMARK SMILES IDX 57 96 50 97 52 98 58 99 51 100 53 101 54 102 55 103 56 104
REMARK H PARENT 88 31 78 57 46 68
REMARK Flexibility Score: inf
ROOT
ATOM      1  O   UNL A   1      40.474  24.648  27.393  1.00  0.00    -0.377 OA
ENDROOT
BRANCH   1   2
ATOM      2  C   UNL A   1      40.587  23.545  26.543  1.00  0.00     0.188 C 
BRANCH   2   3
ATOM      3  C   UNL A   1      39.817  22.251  26.792  1.00  0.00     0.188 C 
BRANCH   3   4
ATOM      4  O   UNL A   1      38.999  21.727  25.775  1.00  0.00    -0.376 OA
BRANCH   4   5
ATOM      5  C   UNL A   1      37.757  22.285  25.391  1.00  0.00     0.202 C 
BRANCH   5   6
ATOM      6  C   UNL A   1      36.357  21.759  25.768  1.00  0.00     0.261 C 
BRANCH   6   7
ATOM      7  O   UNL A   1      35.197  22.372  25.180  1.00  0.00    -0.463 OA
BRANCH   7   8
ATOM      8  C   UNL A   1      34.158  21.569  24.859  1.00  0.00     0.310 C 
ATOM      9  O   UNL A   1      34.053  20.412  25.264  1.00  0.00    -0.252 OA
BRANCH   8  10
ATOM     10  C   UNL A   1      33.048  22.194  24.021  1.00  0.00     0.160 C 
BRANCH  10  11
ATOM     11  C   UNL A   1      32.590  23.628  24.220  1.00  0.00    -0.008 A 
ATOM     12  C   UNL A   1      32.248  23.665  26.789  1.00  0.00     0.065 C 
ATOM     13  C   UNL A   1      32.242  24.254  25.413  1.00  0.00     0.028 A 
ATOM     14  N   UNL A   1      31.888  25.593  25.164  1.00  0.00    -0.280 N 
ATOM     15  C   UNL A   1      32.562  24.653  23.215  1.00  0.00     0.008 A 
ATOM     16  C   UNL A   1      32.004  25.810  23.780  1.00  0.00     0.057 A 
ATOM     17  C   UNL A   1      32.884  24.660  21.833  1.00  0.00     0.056 A 
ATOM     18  C   UNL A   1      31.682  26.916  22.959  1.00  0.00     0.031 A 
ATOM     19  C   UNL A   1      32.465  25.723  21.032  1.00  0.00     0.116 A 
ATOM     20  C   UNL A   1      31.872  26.841  21.580  1.00  0.00     0.048 A 
BRANCH  14  21
ATOM     21  C   UNL A   1      31.520  26.564  26.146  1.00  0.00     0.262 C 
ATOM     22  O   UNL A   1      30.528  26.365  26.847  1.00  0.00    -0.268 OA
BRANCH  21  23
ATOM     23  C   UNL A   1      32.265  27.796  26.463  1.00  0.00     0.040 A 
ATOM     24  C   UNL A   1      33.617  27.731  26.823  1.00  0.00     0.015 A 
ATOM     25  C   UNL A   1      31.613  29.031  26.365  1.00  0.00     0.015 A 
ATOM     26  C   UNL A   1      34.298  28.908  27.154  1.00  0.00     0.021 A 
ATOM     27  C   UNL A   1      32.301  30.204  26.686  1.00  0.00     0.021 A 
ATOM     28  C   UNL A   1      33.636  30.136  27.092  1.00  0.00     0.041 A 
ATOM     29  Cl  UNL A   1      34.467  31.580  27.525  1.00  0.00    -0.084 Cl
ENDBRANCH  21  23
ENDBRANCH  14  21
BRANCH  19  30
ATOM     30  O   UNL A   1      32.570  25.585  19.678  1.00  0.00    -0.508 OA
ATOM     31  H   UNL A   1      31.951  25.060  19.211  1.00  0.00     0.293 HD
ENDBRANCH  19  30
ENDBRANCH  10  11
ENDBRANCH   8  10
ENDBRANCH   7   8
ENDBRANCH   6   7
ENDBRANCH   5   6
ENDBRANCH   4   5
ENDBRANCH   3   4
ENDBRANCH   2   3
ENDBRANCH   1   2
BRANCH   1  32
ATOM     32  C   UNL A   1      40.546  25.897  26.774  1.00  0.00     0.188 C 
BRANCH  32  33
ATOM     33  C   UNL A   1      41.478  26.849  27.520  1.00  0.00     0.188 C 
BRANCH  33  34
ATOM     34  O   UNL A   1      41.079  28.176  27.888  1.00  0.00    -0.376 OA
BRANCH  34  35
ATOM     35  C   UNL A   1      39.839  28.720  27.472  1.00  0.00     0.202 C 
BRANCH  35  36
ATOM     36  C   UNL A   1      39.077  29.625  28.464  1.00  0.00     0.261 C 
BRANCH  36  37
ATOM     37  O   UNL A   1      39.914  30.341  29.365  1.00  0.00    -0.460 OA
BRANCH  37  38
ATOM     38  C   UNL A   1      39.327  31.242  30.215  1.00  0.00     0.338 C 
ATOM     39  O   UNL A   1      38.314  31.099  30.849  1.00  0.00    -0.246 OA
BRANCH  38  40
ATOM     40  C   UNL A   1      40.347  32.290  30.411  1.00  0.00     0.060 A 
ATOM     41  C   UNL A   1      40.002  33.644  30.318  1.00  0.00     0.016 A 
ATOM     42  C   UNL A   1      41.685  31.878  30.308  1.00  0.00     0.016 A 
ATOM     43  C   UNL A   1      40.980  34.554  29.930  1.00  0.00     0.010 A 
ATOM     44  C   UNL A   1      42.660  32.796  29.915  1.00  0.00     0.010 A 
ATOM     45  C   UNL A   1      42.291  34.116  29.652  1.00  0.00    -0.014 A 
BRANCH  45  46
ATOM     46  C   UNL A   1      43.277  35.144  29.299  1.00  0.00     0.031 A 
ATOM     47  C   UNL A   1      43.647  35.962  30.479  1.00  0.00     0.074 A 
ATOM     48  C   UNL A   1      43.943  35.308  28.135  1.00  0.00     0.049 A 
ATOM     49  N   UNL A   1      43.447  37.223  30.677  1.00  0.00    -0.248 NA
ATOM     50  C   UNL A   1      44.161  35.223  31.643  1.00  0.00     0.031 C 
ATOM     51  C   UNL A   1      43.991  34.385  27.001  1.00  0.00     0.029 A 
ATOM     52  N   UNL A   1      44.836  36.291  27.777  1.00  0.00    -0.354 N 
ATOM     53  C   UNL A   1      44.005  37.468  31.927  1.00  0.00     0.074 A 
ATOM     54  C   UNL A   1      44.249  36.191  32.549  1.00  0.00     0.031 C 
ATOM     55  C   UNL A   1      45.028  34.722  26.202  1.00  0.00     0.029 A 
ATOM     56  C   UNL A   1      45.646  35.942  26.699  1.00  0.00     0.049 A 
ATOM     57  H   UNL A   1      44.897  37.159  28.238  1.00  0.00     0.167 HD
ATOM     58  C   UNL A   1      44.505  38.679  32.275  1.00  0.00     0.034 A 
ATOM     59  C   UNL A   1      46.790  36.556  26.306  1.00  0.00     0.034 A 
ATOM     60  C   UNL A   1      44.142  39.731  31.377  1.00  0.00     0.049 A 
ATOM     61  C   UNL A   1      46.788  37.943  26.831  1.00  0.00     0.074 A 
ATOM     62  C   UNL A   1      43.077  40.580  31.188  1.00  0.00     0.029 A 
ATOM     63  N   UNL A   1      44.929  39.798  30.262  1.00  0.00    -0.354 N 
ATOM     64  N   UNL A   1      45.948  38.870  26.460  1.00  0.00    -0.248 NA
ATOM     65  C   UNL A   1      47.634  38.283  27.972  1.00  0.00     0.031 C 
ATOM     66  C   UNL A   1      43.191  41.079  29.857  1.00  0.00     0.029 A 
ATOM     67  C   UNL A   1      44.317  40.512  29.266  1.00  0.00     0.049 A 
ATOM     68  H   UNL A   1      45.821  39.387  30.184  1.00  0.00     0.167 HD
ATOM     69  C   UNL A   1      45.888  39.724  27.544  1.00  0.00     0.074 A 
ATOM     70  C   UNL A   1      47.056  39.422  28.355  1.00  0.00     0.031 C 
ATOM     71  C   UNL A   1      44.730  40.347  27.891  1.00  0.00     0.034 A 
BRANCH  58  72
ATOM     72  C   UNL A   1      45.679  38.815  33.198  1.00  0.00     0.023 A 
ATOM     73  C   UNL A   1      45.546  39.581  34.368  1.00  0.00     0.012 A 
ATOM     74  C   UNL A   1      46.979  38.393  32.835  1.00  0.00     0.148 A 
ATOM     75  C   UNL A   1      46.656  39.871  35.168  1.00  0.00     0.002 A 
ATOM     76  C   UNL A   1      48.059  38.597  33.679  1.00  0.00     0.091 A 
ATOM     77  F   UNL A   1      47.192  37.894  31.609  1.00  0.00    -0.205 F 
ATOM     78  C   UNL A   1      47.908  39.353  34.842  1.00  0.00     0.022 A 
BRANCH  76  79
ATOM     79  S   UNL A   1      49.655  37.856  33.329  1.00  0.00     0.127 S 
ATOM     80  O   UNL A   1      49.302  36.448  33.180  1.00  0.00    -0.237 OA
ATOM     81  O   UNL A   1      50.039  38.535  32.091  1.00  0.00    -0.237 OA
ATOM     82  O   UNL A   1      50.486  38.204  34.475  1.00  0.00    -0.744 OA
ENDBRANCH  76  79
ENDBRANCH  58  72
BRANCH  59  83
ATOM     83  C   UNL A   1      48.019  35.996  25.674  1.00  0.00     0.023 A 
ATOM     84  C   UNL A   1      48.743  36.787  24.753  1.00  0.00     0.012 A 
ATOM     85  C   UNL A   1      48.648  34.834  26.172  1.00  0.00     0.148 A 
ATOM     86  C   UNL A   1      50.062  36.474  24.399  1.00  0.00     0.002 A 
ATOM     87  C   UNL A   1      49.952  34.514  25.798  1.00  0.00     0.091 A 
ATOM     88  F   UNL A   1      48.018  34.092  27.090  1.00  0.00    -0.205 F 
ATOM     89  C   UNL A   1      50.671  35.342  24.929  1.00  0.00     0.022 A 
BRANCH  87  90
ATOM     90  S   UNL A   1      50.778  33.057  26.451  1.00  0.00     0.127 S 
ATOM     91  O   UNL A   1      49.787  32.005  26.222  1.00  0.00    -0.237 OA
ATOM     92  O   UNL A   1      51.964  32.975  25.605  1.00  0.00    -0.237 OA
ATOM     93  O   UNL A   1      51.011  33.353  27.860  1.00  0.00    -0.744 OA
ENDBRANCH  87  90
ENDBRANCH  59  83
BRANCH  71  94
ATOM     94  C   UNL A   1      43.736  40.650  26.814  1.00  0.00     0.023 A 
ATOM     95  C   UNL A   1      42.439  40.113  26.810  1.00  0.00     0.012 A 
ATOM     96  C   UNL A   1      44.097  41.595  25.836  1.00  0.00     0.148 A 
ATOM     97  C   UNL A   1      41.520  40.509  25.836  1.00  0.00     0.002 A 
ATOM     98  C   UNL A   1      43.164  42.017  24.900  1.00  0.00     0.091 A 
ATOM     99  F   UNL A   1      45.345  42.087  25.863  1.00  0.00    -0.205 F 
ATOM    100  C   UNL A   1      41.874  41.471  24.894  1.00  0.00     0.022 A 
BRANCH  98 101
ATOM    101  S   UNL A   1      43.517  43.311  23.711  1.00  0.00     0.127 S 
ATOM    102  O   UNL A   1      44.398  42.627  22.767  1.00  0.00    -0.237 OA
ATOM    103  O   UNL A   1      42.183  43.618  23.192  1.00  0.00    -0.237 OA
ATOM    104  O   UNL A   1      44.137  44.395  24.462  1.00  0.00    -0.744 OA
ENDBRANCH  98 101
ENDBRANCH  71  94
ENDBRANCH  45  46
ENDBRANCH  38  40
ENDBRANCH  37  38
ENDBRANCH  36  37
ENDBRANCH  35  36
ENDBRANCH  34  35
ENDBRANCH  33  34
ENDBRANCH  32  33
ENDBRANCH   1  32
TORSDOF 27
ENDMDL
MODEL 2
REMARK VINA RESULT:      -9.3      5.839     12.073
REMARK SMILES Cc1c(CC(=O)OCCOCCOCCOCCOC(=O)c2ccc(-c3c4nc(c(-c5cccc(S(=O)(=O)[O-])c5F)c5ccc([nH]5)c(-c5cccc(S(=O)(=O)[O-])c5F)c5nc(c(-c6cccc(S(=O)(=O)[O-])c6F)c6ccc3[nH]6)C=C5)C=C4)cc2)c2cc(O)ccc2n1C(=O)c1ccc(Cl)cc1
REMARK SMILES IDX 13 1 12 2 11 3 10 4 9 5 8 6 7 7 5 8 6 9 4 10 3 11 1 12 2 13
REMARK SMILES IDX 92 14 85 15 91 16 86 17 90 18 87 19 89 20 93 21 94 22 95 23
REMARK SMILES IDX 96 24 101 25 97 26 100 27 98 28 99 29 88 30 14 32 15 33
REMARK SMILES IDX 16 34 17 35 18 36 19 37 20 38 21 39 22 40 23 41 84 42 24 43
REMARK SMILES IDX 83 44 25 45 26 46 27 47 77 48 28 49 82 50 76 51 78 52 29 53
REMARK SMILES IDX 81 54 75 55 74 56 30 58 62 59 42 60 61 61 43 62 46 63 60 64
REMARK SMILES IDX 79 65 44 66 45 67 59 69 80 70 47 71 31 72 32 73 40 74 33 75
REMARK SMILES IDX 35 76 41 77 34 78 36 79 37 80 38 81 39 82 63 83 64 84 72 85
REMARK SMILES IDX 65 86 67 87 73 88 66 89 68 90 69 91 70 92 71 93 48 94 49 95
REMARK SMILES IDX 57 96 50 97 52 98 58 99 51 100 53 101 54 102 55 103 56 104
REMARK H PARENT 88 31 78 57 46 68
REMARK Flexibility Score: inf
ROOT
ATOM      1  O   UNL A   1      38.367  20.092  24.900  1.00  0.00    -0.377 OA
ENDROOT
BRANCH   1   2
ATOM      2  C   UNL A   1      39.106  19.189  25.668  1.00  0.00     0.188 C 
BRANCH   2   3
ATOM      3  C   UNL A   1      40.387  19.600  26.388  1.00  0.00     0.188 C 
BRANCH   3   4
ATOM      4  O   UNL A   1      41.465  20.112  25.644  1.00  0.00    -0.376 OA
BRANCH   4   5
ATOM      5  C   UNL A   1      42.818  19.762  25.867  1.00  0.00     0.202 C 
BRANCH   5   6
ATOM      6  C   UNL A   1      44.051  20.653  25.614  1.00  0.00     0.261 C 
BRANCH   6   7
ATOM      7  O   UNL A   1      44.423  20.967  24.261  1.00  0.00    -0.463 OA
BRANCH   7   8
ATOM      8  C   UNL A   1      45.058  22.139  24.041  1.00  0.00     0.310 C 
ATOM      9  O   UNL A   1      44.723  22.930  23.160  1.00  0.00    -0.252 OA
BRANCH   8  10
ATOM     10  C   UNL A   1      46.183  22.495  25.007  1.00  0.00     0.160 C 
BRANCH  10  11
ATOM     11  C   UNL A   1      46.285  23.857  25.671  1.00  0.00    -0.008 A 
ATOM     12  C   UNL A   1      44.876  23.449  27.808  1.00  0.00     0.065 C 
ATOM     13  C   UNL A   1      45.717  24.263  26.874  1.00  0.00     0.028 A 
ATOM     14  N   UNL A   1      46.066  25.600  27.139  1.00  0.00    -0.280 N 
ATOM     15  C   UNL A   1      47.113  24.948  25.238  1.00  0.00     0.008 A 
ATOM     16  C   UNL A   1      46.863  26.048  26.072  1.00  0.00     0.057 A 
ATOM     17  C   UNL A   1      47.993  25.116  24.137  1.00  0.00     0.056 A 
ATOM     18  C   UNL A   1      47.402  27.316  25.754  1.00  0.00     0.031 A 
ATOM     19  C   UNL A   1      48.429  26.395  23.792  1.00  0.00     0.116 A 
ATOM     20  C   UNL A   1      48.143  27.487  24.584  1.00  0.00     0.048 A 
BRANCH  14  21
ATOM     21  C   UNL A   1      45.710  26.349  28.304  1.00  0.00     0.262 C 
ATOM     22  O   UNL A   1      44.863  27.237  28.212  1.00  0.00    -0.268 OA
BRANCH  21  23
ATOM     23  C   UNL A   1      46.224  26.121  29.667  1.00  0.00     0.040 A 
ATOM     24  C   UNL A   1      47.595  26.224  29.932  1.00  0.00     0.015 A 
ATOM     25  C   UNL A   1      45.319  25.833  30.697  1.00  0.00     0.015 A 
ATOM     26  C   UNL A   1      48.067  25.968  31.224  1.00  0.00     0.021 A 
ATOM     27  C   UNL A   1      45.796  25.591  31.988  1.00  0.00     0.021 A 
ATOM     28  C   UNL A   1      47.167  25.646  32.243  1.00  0.00     0.041 A 
ATOM     29  Cl  UNL A   1      47.752  25.306  33.826  1.00  0.00    -0.084 Cl
ENDBRANCH  21  23
ENDBRANCH  14  21
BRANCH  19  30
ATOM     30  O   UNL A   1      49.065  26.553  22.594  1.00  0.00    -0.508 OA
ATOM     31  H   UNL A   1      48.606  26.388  21.795  1.00  0.00     0.293 HD
ENDBRANCH  19  30
ENDBRANCH  10  11
ENDBRANCH   8  10
ENDBRANCH   7   8
ENDBRANCH   6   7
ENDBRANCH   5   6
ENDBRANCH   4   5
ENDBRANCH   3   4
ENDBRANCH   2   3
ENDBRANCH   1   2
BRANCH   1  32
ATOM     32  C   UNL A   1      36.980  20.013  25.042  1.00  0.00     0.188 C 
BRANCH  32  33
ATOM     33  C   UNL A   1      36.295  21.334  24.701  1.00  0.00     0.188 C 
BRANCH  33  34
ATOM     34  O   UNL A   1      35.937  22.290  25.706  1.00  0.00    -0.376 OA
BRANCH  34  35
ATOM     35  C   UNL A   1      36.828  23.317  26.105  1.00  0.00     0.202 C 
BRANCH  35  36
ATOM     36  C   UNL A   1      38.342  23.017  26.062  1.00  0.00     0.261 C 
BRANCH  36  37
ATOM     37  O   UNL A   1      39.168  24.113  26.435  1.00  0.00    -0.460 OA
BRANCH  37  38
ATOM     38  C   UNL A   1      40.373  23.843  27.029  1.00  0.00     0.338 C 
ATOM     39  O   UNL A   1      41.264  23.158  26.599  1.00  0.00    -0.246 OA
BRANCH  38  40
ATOM     40  C   UNL A   1      40.458  24.795  28.152  1.00  0.00     0.060 A 
ATOM     41  C   UNL A   1      39.366  25.608  28.480  1.00  0.00     0.016 A 
ATOM     42  C   UNL A   1      41.750  25.108  28.602  1.00  0.00     0.016 A 
ATOM     43  C   UNL A   1      39.610  26.834  29.092  1.00  0.00     0.010 A 
ATOM     44  C   UNL A   1      41.988  26.341  29.212  1.00  0.00     0.010 A 
ATOM     45  C   UNL A   1      40.930  27.233  29.387  1.00  0.00    -0.014 A 
BRANCH  45  46
ATOM     46  C   UNL A   1      41.100  28.516  30.079  1.00  0.00     0.031 A 
ATOM     47  C   UNL A   1      42.082  29.378  29.379  1.00  0.00     0.074 A 
ATOM     48  C   UNL A   1      40.394  29.013  31.118  1.00  0.00     0.049 A 
ATOM     49  N   UNL A   1      43.228  29.799  29.804  1.00  0.00    -0.248 NA
ATOM     50  C   UNL A   1      41.802  29.661  27.963  1.00  0.00     0.031 C 
ATOM     51  C   UNL A   1      39.159  28.478  31.689  1.00  0.00     0.029 A 
ATOM     52  N   UNL A   1      40.571  30.193  31.803  1.00  0.00    -0.354 N 
ATOM     53  C   UNL A   1      43.717  30.577  28.761  1.00  0.00     0.074 A 
ATOM     54  C   UNL A   1      42.908  30.304  27.601  1.00  0.00     0.031 C 
ATOM     55  C   UNL A   1      38.577  29.432  32.452  1.00  0.00     0.029 A 
ATOM     56  C   UNL A   1      39.446  30.597  32.517  1.00  0.00     0.049 A 
ATOM     57  H   UNL A   1      41.413  30.704  31.789  1.00  0.00     0.167 HD
ATOM     58  C   UNL A   1      44.567  31.614  28.964  1.00  0.00     0.034 A 
ATOM     59  C   UNL A   1      39.208  31.827  33.038  1.00  0.00     0.034 A 
ATOM     60  C   UNL A   1      45.136  31.642  30.276  1.00  0.00     0.049 A 
ATOM     61  C   UNL A   1      40.505  32.525  33.213  1.00  0.00     0.074 A 
ATOM     62  C   UNL A   1      46.194  31.061  30.934  1.00  0.00     0.029 A 
ATOM     63  N   UNL A   1      44.323  32.209  31.215  1.00  0.00    -0.354 N 
ATOM     64  N   UNL A   1      41.436  32.151  34.047  1.00  0.00    -0.248 NA
ATOM     65  C   UNL A   1      40.884  33.585  32.282  1.00  0.00     0.031 C 
ATOM     66  C   UNL A   1      45.926  31.199  32.328  1.00  0.00     0.029 A 
ATOM     67  C   UNL A   1      44.705  31.852  32.481  1.00  0.00     0.049 A 
ATOM     68  H   UNL A   1      43.561  32.797  31.011  1.00  0.00     0.167 HD
ATOM     69  C   UNL A   1      42.603  32.637  33.490  1.00  0.00     0.074 A 
ATOM     70  C   UNL A   1      42.194  33.644  32.524  1.00  0.00     0.031 C 
ATOM     71  C   UNL A   1      43.771  31.947  33.580  1.00  0.00     0.034 A 
BRANCH  58  72
ATOM     72  C   UNL A   1      44.541  32.840  28.101  1.00  0.00     0.023 A 
ATOM     73  C   UNL A   1      45.572  33.043  27.168  1.00  0.00     0.012 A 
ATOM     74  C   UNL A   1      43.648  33.911  28.335  1.00  0.00     0.148 A 
ATOM     75  C   UNL A   1      45.677  34.247  26.464  1.00  0.00     0.002 A 
ATOM     76  C   UNL A   1      43.695  35.062  27.566  1.00  0.00     0.091 A 
ATOM     77  F   UNL A   1      42.822  33.861  29.390  1.00  0.00    -0.205 F 
ATOM     78  C   UNL A   1      44.721  35.245  26.638  1.00  0.00     0.022 A 
BRANCH  76  79
ATOM     79  S   UNL A   1      42.419  36.315  27.705  1.00  0.00     0.127 S 
ATOM     80  O   UNL A   1      42.648  37.107  26.500  1.00  0.00    -0.237 OA
ATOM     81  O   UNL A   1      41.198  35.508  27.696  1.00  0.00    -0.237 OA
ATOM     82  O   UNL A   1      42.682  36.974  28.979  1.00  0.00    -0.744 OA
ENDBRANCH  76  79
ENDBRANCH  58  72
BRANCH  59  83
ATOM     83  C   UNL A   1      37.927  32.567  33.221  1.00  0.00     0.023 A 
ATOM     84  C   UNL A   1      37.737  33.336  34.391  1.00  0.00     0.012 A 
ATOM     85  C   UNL A   1      37.026  32.769  32.153  1.00  0.00     0.148 A 
ATOM     86  C   UNL A   1      36.736  34.314  34.469  1.00  0.00     0.002 A 
ATOM     87  C   UNL A   1      36.017  33.728  32.244  1.00  0.00     0.091 A 
ATOM     88  F   UNL A   1      37.210  32.104  31.007  1.00  0.00    -0.205 F 
ATOM     89  C   UNL A   1      35.882  34.517  33.391  1.00  0.00     0.022 A 
BRANCH  87  90
ATOM     90  S   UNL A   1      34.884  34.020  30.880  1.00  0.00     0.127 S 
ATOM     91  O   UNL A   1      34.120  32.773  30.832  1.00  0.00    -0.237 OA
ATOM     92  O   UNL A   1      34.134  35.180  31.351  1.00  0.00    -0.237 OA
ATOM     93  O   UNL A   1      35.739  34.235  29.717  1.00  0.00    -0.744 OA
ENDBRANCH  87  90
ENDBRANCH  59  83
BRANCH  71  94
ATOM     94  C   UNL A   1      43.980  31.056  34.764  1.00  0.00     0.023 A 
ATOM     95  C   UNL A   1      44.770  31.432  35.863  1.00  0.00     0.012 A 
ATOM     96  C   UNL A   1      43.264  29.846  34.808  1.00  0.00     0.148 A 
ATOM     97  C   UNL A   1      44.848  30.604  36.985  1.00  0.00     0.002 A 
ATOM     98  C   UNL A   1      43.311  29.051  35.945  1.00  0.00     0.091 A 
ATOM     99  F   UNL A   1      42.522  29.512  33.742  1.00  0.00    -0.205 F 
ATOM    100  C   UNL A   1      44.108  29.425  37.034  1.00  0.00     0.022 A 
BRANCH  98 101
ATOM    101  S   UNL A   1      42.323  27.566  36.117  1.00  0.00     0.127 S 
ATOM    102  O   UNL A   1      40.965  28.105  36.153  1.00  0.00    -0.237 OA
ATOM    103  O   UNL A   1      42.660  26.834  34.895  1.00  0.00    -0.237 OA
ATOM    104  O   UNL A   1      42.766  26.923  37.348  1.00  0.00    -0.744 OA
ENDBRANCH  98 101
ENDBRANCH  71  94
ENDBRANCH  45  46
ENDBRANCH  38  40
ENDBRANCH  37  38
ENDBRANCH  36  37
ENDBRANCH  35  36
ENDBRANCH  34  35
ENDBRANCH  33  34
ENDBRANCH  32  33
ENDBRANCH   1  32
TORSDOF 27
ENDMDL
MODEL 3
REMARK VINA RESULT:      -9.2      5.824     12.511
REMARK SMILES Cc1c(CC(=O)OCCOCCOCCOCCOC(=O)c2ccc(-c3c4nc(c(-c5cccc(S(=O)(=O)[O-])c5F)c5ccc([nH]5)c(-c5cccc(S(=O)(=O)[O-])c5F)c5nc(c(-c6cccc(S(=O)(=O)[O-])c6F)c6ccc3[nH]6)C=C5)C=C4)cc2)c2cc(O)ccc2n1C(=O)c1ccc(Cl)cc1
REMARK SMILES IDX 13 1 12 2 11 3 10 4 9 5 8 6 7 7 5 8 6 9 4 10 3 11 1 12 2 13
REMARK SMILES IDX 92 14 85 15 91 16 86 17 90 18 87 19 89 20 93 21 94 22 95 23
REMARK SMILES IDX 96 24 101 25 97 26 100 27 98 28 99 29 88 30 14 32 15 33
REMARK SMILES IDX 16 34 17 35 18 36 19 37 20 38 21 39 22 40 23 41 84 42 24 43
REMARK SMILES IDX 83 44 25 45 26 46 27 47 77 48 28 49 82 50 76 51 78 52 29 53
REMARK SMILES IDX 81 54 75 55 74 56 30 58 62 59 42 60 61 61 43 62 46 63 60 64
REMARK SMILES IDX 79 65 44 66 45 67 59 69 80 70 47 71 31 72 32 73 40 74 33 75
REMARK SMILES IDX 35 76 41 77 34 78 36 79 37 80 38 81 39 82 63 83 64 84 72 85
REMARK SMILES IDX 65 86 67 87 73 88 66 89 68 90 69 91 70 92 71 93 48 94 49 95
REMARK SMILES IDX 57 96 50 97 52 98 58 99 51 100 53 101 54 102 55 103 56 104
REMARK H PARENT 88 31 78 57 46 68
REMARK Flexibility Score: inf
ROOT
ATOM      1  O   UNL A   1      38.376  20.176  24.872  1.00  0.00    -0.377 OA
ENDROOT
BRANCH   1   2
ATOM      2  C   UNL A   1      39.186  19.318  25.621  1.00  0.00     0.188 C 
BRANCH   2   3
ATOM      3  C   UNL A   1      40.418  19.819  26.369  1.00  0.00     0.188 C 
BRANCH   3   4
ATOM      4  O   UNL A   1      41.351  20.632  25.700  1.00  0.00    -0.376 OA
BRANCH   4   5
ATOM      5  C   UNL A   1      42.754  20.505  25.835  1.00  0.00     0.202 C 
BRANCH   5   6
ATOM      6  C   UNL A   1      43.726  21.579  26.364  1.00  0.00     0.261 C 
BRANCH   6   7
ATOM      7  O   UNL A   1      44.064  22.694  25.521  1.00  0.00    -0.463 OA
BRANCH   7   8
ATOM      8  C   UNL A   1      44.590  23.789  26.112  1.00  0.00     0.310 C 
ATOM      9  O   UNL A   1      44.225  24.935  25.849  1.00  0.00    -0.252 OA
BRANCH   8  10
ATOM     10  C   UNL A   1      45.621  23.543  27.208  1.00  0.00     0.160 C 
BRANCH  10  11
ATOM     11  C   UNL A   1      45.642  24.342  28.499  1.00  0.00    -0.008 A 
ATOM     12  C   UNL A   1      43.789  23.124  29.840  1.00  0.00     0.065 C 
ATOM     13  C   UNL A   1      44.848  24.159  29.627  1.00  0.00     0.028 A 
ATOM     14  N   UNL A   1      45.195  25.103  30.612  1.00  0.00    -0.280 N 
ATOM     15  C   UNL A   1      46.594  25.359  28.847  1.00  0.00     0.008 A 
ATOM     16  C   UNL A   1      46.224  25.903  30.086  1.00  0.00     0.057 A 
ATOM     17  C   UNL A   1      47.697  25.927  28.158  1.00  0.00     0.056 A 
ATOM     18  C   UNL A   1      46.878  27.057  30.578  1.00  0.00     0.031 A 
ATOM     19  C   UNL A   1      48.257  27.119  28.618  1.00  0.00     0.116 A 
ATOM     20  C   UNL A   1      47.861  27.684  29.812  1.00  0.00     0.048 A 
BRANCH  14  21
ATOM     21  C   UNL A   1      44.633  25.198  31.923  1.00  0.00     0.262 C 
ATOM     22  O   UNL A   1      43.806  26.077  32.160  1.00  0.00    -0.268 OA
BRANCH  21  23
ATOM     23  C   UNL A   1      44.902  24.281  33.046  1.00  0.00     0.040 A 
ATOM     24  C   UNL A   1      43.979  23.284  33.382  1.00  0.00     0.015 A 
ATOM     25  C   UNL A   1      46.108  24.400  33.748  1.00  0.00     0.015 A 
ATOM     26  C   UNL A   1      44.236  22.447  34.473  1.00  0.00     0.021 A 
ATOM     27  C   UNL A   1      46.365  23.554  34.829  1.00  0.00     0.021 A 
ATOM     28  C   UNL A   1      45.423  22.590  35.195  1.00  0.00     0.041 A 
ATOM     29  Cl  UNL A   1      45.727  21.577  36.553  1.00  0.00    -0.084 Cl
ENDBRANCH  21  23
ENDBRANCH  14  21
BRANCH  19  30
ATOM     30  O   UNL A   1      49.143  27.766  27.805  1.00  0.00    -0.508 OA
ATOM     31  H   UNL A   1      49.110  27.634  26.878  1.00  0.00     0.293 HD
ENDBRANCH  19  30
ENDBRANCH  10  11
ENDBRANCH   8  10
ENDBRANCH   7   8
ENDBRANCH   6   7
ENDBRANCH   5   6
ENDBRANCH   4   5
ENDBRANCH   3   4
ENDBRANCH   2   3
ENDBRANCH   1   2
BRANCH   1  32
ATOM     32  C   UNL A   1      37.001  19.979  25.007  1.00  0.00     0.188 C 
BRANCH  32  33
ATOM     33  C   UNL A   1      36.211  21.253  24.716  1.00  0.00     0.188 C 
BRANCH  33  34
ATOM     34  O   UNL A   1      35.777  22.137  25.757  1.00  0.00    -0.376 OA
BRANCH  34  35
ATOM     35  C   UNL A   1      36.561  23.246  26.164  1.00  0.00     0.202 C 
BRANCH  35  36
ATOM     36  C   UNL A   1      38.081  23.192  25.899  1.00  0.00     0.261 C 
BRANCH  36  37
ATOM     37  O   UNL A   1      38.785  24.366  26.284  1.00  0.00    -0.460 OA
BRANCH  37  38
ATOM     38  C   UNL A   1      40.104  24.243  26.636  1.00  0.00     0.338 C 
ATOM     39  O   UNL A   1      41.007  23.824  25.959  1.00  0.00    -0.246 OA
BRANCH  38  40
ATOM     40  C   UNL A   1      40.226  24.998  27.897  1.00  0.00     0.060 A 
ATOM     41  C   UNL A   1      39.154  25.758  28.379  1.00  0.00     0.016 A 
ATOM     42  C   UNL A   1      41.533  25.222  28.360  1.00  0.00     0.016 A 
ATOM     43  C   UNL A   1      39.427  26.865  29.177  1.00  0.00     0.010 A 
ATOM     44  C   UNL A   1      41.800  26.336  29.157  1.00  0.00     0.010 A 
ATOM     45  C   UNL A   1      40.758  27.198  29.500  1.00  0.00    -0.014 A 
BRANCH  45  46
ATOM     46  C   UNL A   1      40.960  28.349  30.387  1.00  0.00     0.031 A 
ATOM     47  C   UNL A   1      41.962  29.289  29.828  1.00  0.00     0.074 A 
ATOM     48  C   UNL A   1      40.270  28.690  31.497  1.00  0.00     0.049 A 
ATOM     49  N   UNL A   1      43.119  29.610  30.308  1.00  0.00    -0.248 NA
ATOM     50  C   UNL A   1      41.685  29.802  28.478  1.00  0.00     0.031 C 
ATOM     51  C   UNL A   1      39.023  28.100  31.983  1.00  0.00     0.029 A 
ATOM     52  N   UNL A   1      40.477  29.740  32.361  1.00  0.00    -0.354 N 
ATOM     53  C   UNL A   1      43.624  30.533  29.400  1.00  0.00     0.074 A 
ATOM     54  C   UNL A   1      42.805  30.468  28.216  1.00  0.00     0.031 C 
ATOM     55  C   UNL A   1      38.466  28.932  32.892  1.00  0.00     0.029 A 
ATOM     56  C   UNL A   1      39.363  30.051  33.137  1.00  0.00     0.049 A 
ATOM     57  H   UNL A   1      41.330  30.227  32.424  1.00  0.00     0.167 HD
ATOM     58  C   UNL A   1      44.499  31.504  29.761  1.00  0.00     0.034 A 
ATOM     59  C   UNL A   1      39.156  31.187  33.849  1.00  0.00     0.034 A 
ATOM     60  C   UNL A   1      45.072  31.308  31.057  1.00  0.00     0.049 A 
ATOM     61  C   UNL A   1      40.470  31.818  34.126  1.00  0.00     0.074 A 
ATOM     62  C   UNL A   1      46.116  30.605  31.607  1.00  0.00     0.029 A 
ATOM     63  N   UNL A   1      44.274  31.737  32.080  1.00  0.00    -0.354 N 
ATOM     64  N   UNL A   1      41.394  31.294  34.883  1.00  0.00    -0.248 NA
ATOM     65  C   UNL A   1      40.872  33.004  33.374  1.00  0.00     0.031 C 
ATOM     66  C   UNL A   1      45.855  30.525  33.006  1.00  0.00     0.029 A 
ATOM     67  C   UNL A   1      44.651  31.173  33.270  1.00  0.00     0.049 A 
ATOM     68  H   UNL A   1      43.526  32.368  31.977  1.00  0.00     0.167 HD
ATOM     69  C   UNL A   1      42.570  31.835  34.404  1.00  0.00     0.074 A 
ATOM     70  C   UNL A   1      42.184  32.993  33.614  1.00  0.00     0.031 C 
ATOM     71  C   UNL A   1      43.722  31.112  34.376  1.00  0.00     0.034 A 
BRANCH  58  72
ATOM     72  C   UNL A   1      44.500  32.852  29.105  1.00  0.00     0.023 A 
ATOM     73  C   UNL A   1      43.554  33.810  29.505  1.00  0.00     0.012 A 
ATOM     74  C   UNL A   1      45.266  33.129  27.948  1.00  0.00     0.148 A 
ATOM     75  C   UNL A   1      43.411  35.015  28.808  1.00  0.00     0.002 A 
ATOM     76  C   UNL A   1      45.191  34.362  27.320  1.00  0.00     0.091 A 
ATOM     77  F   UNL A   1      45.982  32.148  27.382  1.00  0.00    -0.205 F 
ATOM     78  C   UNL A   1      44.251  35.306  27.735  1.00  0.00     0.022 A 
BRANCH  76  79
ATOM     79  S   UNL A   1      46.329  34.794  26.002  1.00  0.00     0.127 S 
ATOM     80  O   UNL A   1      45.706  34.148  24.850  1.00  0.00    -0.237 OA
ATOM     81  O   UNL A   1      46.260  36.256  26.007  1.00  0.00    -0.237 OA
ATOM     82  O   UNL A   1      47.616  34.261  26.432  1.00  0.00    -0.744 OA
ENDBRANCH  76  79
ENDBRANCH  58  72
BRANCH  59  83
ATOM     83  C   UNL A   1      37.893  31.919  34.156  1.00  0.00     0.023 A 
ATOM     84  C   UNL A   1      37.790  32.636  35.370  1.00  0.00     0.012 A 
ATOM     85  C   UNL A   1      36.918  32.167  33.166  1.00  0.00     0.148 A 
ATOM     86  C   UNL A   1      36.800  33.609  35.562  1.00  0.00     0.002 A 
ATOM     87  C   UNL A   1      35.922  33.120  33.372  1.00  0.00     0.091 A 
ATOM     88  F   UNL A   1      37.017  31.552  31.981  1.00  0.00    -0.205 F 
ATOM     89  C   UNL A   1      35.871  33.858  34.558  1.00  0.00     0.022 A 
BRANCH  87  90
ATOM     90  S   UNL A   1      34.694  33.472  32.106  1.00  0.00     0.127 S 
ATOM     91  O   UNL A   1      33.602  34.062  32.882  1.00  0.00    -0.237 OA
ATOM     92  O   UNL A   1      35.407  34.407  31.242  1.00  0.00    -0.237 OA
ATOM     93  O   UNL A   1      34.369  32.174  31.522  1.00  0.00    -0.744 OA
ENDBRANCH  87  90
ENDBRANCH  59  83
BRANCH  71  94
ATOM     94  C   UNL A   1      43.912  30.039  35.400  1.00  0.00     0.023 A 
ATOM     95  C   UNL A   1      44.620  30.251  36.595  1.00  0.00     0.012 A 
ATOM     96  C   UNL A   1      43.258  28.811  35.192  1.00  0.00     0.148 A 
ATOM     97  C   UNL A   1      44.680  29.245  37.561  1.00  0.00     0.002 A 
ATOM     98  C   UNL A   1      43.285  27.833  36.177  1.00  0.00     0.091 A 
ATOM     99  F   UNL A   1      42.594  28.636  34.040  1.00  0.00    -0.205 F 
ATOM    100  C   UNL A   1      44.001  28.045  37.362  1.00  0.00     0.022 A 
BRANCH  98 101
ATOM    101  S   UNL A   1      42.367  26.301  36.031  1.00  0.00     0.127 S 
ATOM    102  O   UNL A   1      42.003  26.296  34.616  1.00  0.00    -0.237 OA
ATOM    103  O   UNL A   1      43.375  25.308  36.408  1.00  0.00    -0.237 OA
ATOM    104  O   UNL A   1      41.248  26.407  36.958  1.00  0.00    -0.744 OA
ENDBRANCH  98 101
ENDBRANCH  71  94
ENDBRANCH  45  46
ENDBRANCH  38  40
ENDBRANCH  37  38
ENDBRANCH  36  37
ENDBRANCH  35  36
ENDBRANCH  34  35
ENDBRANCH  33  34
ENDBRANCH  32  33
ENDBRANCH   1  32
TORSDOF 27
ENDMDL
