MODEL 1
REMARK VINA RESULT:      -9.0      0.000      0.000
REMARK SMILES O=C(OCCOCCOCCOCCOC(=O)c1ccc2c(c1)[C@@H](C1CCOCC1)C(=O)N2)c1ccc(-c2c3nc(c(-c4cccc(S(=O)(=O)[O-])c4F)c4ccc([nH]4)c(-c4cccc(S(=O)(=O)[O-])c4F)c4nc(c(-c5cccc(S(=O)(=O)[O-])c5F)c5ccc2[nH]5)C=C4)C=C3)cc1
REMARK SMILES IDX 8 1 7 2 6 3 5 4 4 5 3 6 2 7 1 8 34 9 35 10 96 11 36 12 95 13
REMARK SMILES IDX 37 14 38 15 39 16 89 17 40 18 94 19 88 20 90 21 41 22 93 23
REMARK SMILES IDX 87 24 86 25 42 27 74 28 54 29 73 30 55 31 58 32 72 33 91 34
REMARK SMILES IDX 56 35 57 36 71 38 92 39 59 40 43 41 44 42 52 43 45 44 47 45
REMARK SMILES IDX 53 46 46 47 48 48 49 49 50 50 51 51 75 52 76 53 84 54 77 55
REMARK SMILES IDX 79 56 85 57 78 58 80 59 81 60 82 61 83 62 60 63 61 64 69 65
REMARK SMILES IDX 62 66 64 67 70 68 63 69 65 70 66 71 67 72 68 73 9 74 10 75
REMARK SMILES IDX 11 76 12 77 13 78 14 79 15 80 16 81 17 82 18 83 19 84 23 85
REMARK SMILES IDX 20 86 22 87 21 88 24 89 33 90 31 91 32 93 25 94 26 95 30 96
REMARK SMILES IDX 27 97 29 98 28 99
REMARK H PARENT 90 26 58 37 33 92
REMARK Flexibility Score: inf
ROOT
ATOM      1  C   UNL A   1      43.537  22.912  28.813  1.00  0.00     0.188 C 
ENDROOT
BRANCH   1   2
ATOM      2  C   UNL A   1      44.806  23.365  28.088  1.00  0.00     0.188 C 
BRANCH   2   3
ATOM      3  O   UNL A   1      44.814  22.837  26.768  1.00  0.00    -0.376 OA
BRANCH   3   4
ATOM      4  C   UNL A   1      44.812  23.720  25.659  1.00  0.00     0.202 C 
BRANCH   4   5
ATOM      5  C   UNL A   1      43.497  23.875  24.894  1.00  0.00     0.261 C 
BRANCH   5   6
ATOM      6  O   UNL A   1      42.554  24.778  25.497  1.00  0.00    -0.460 OA
BRANCH   6   7
ATOM      7  C   UNL A   1      42.749  26.074  25.858  1.00  0.00     0.338 C 
ATOM      8  O   UNL A   1      42.707  26.948  24.996  1.00  0.00    -0.246 OA
BRANCH   7   9
ATOM      9  C   UNL A   1      42.989  26.476  27.269  1.00  0.00     0.060 A 
ATOM     10  C   UNL A   1      44.126  27.152  27.690  1.00  0.00     0.016 A 
ATOM     11  C   UNL A   1      41.984  26.240  28.212  1.00  0.00     0.016 A 
ATOM     12  C   UNL A   1      44.391  27.378  29.023  1.00  0.00     0.010 A 
ATOM     13  C   UNL A   1      42.181  26.588  29.554  1.00  0.00     0.010 A 
ATOM     14  C   UNL A   1      43.420  27.097  29.971  1.00  0.00    -0.014 A 
BRANCH  14  15
ATOM     15  C   UNL A   1      43.810  27.217  31.389  1.00  0.00     0.031 A 
ATOM     16  C   UNL A   1      43.457  28.485  32.106  1.00  0.00     0.074 A 
ATOM     17  C   UNL A   1      44.309  26.150  32.041  1.00  0.00     0.049 A 
ATOM     18  N   UNL A   1      43.740  28.848  33.325  1.00  0.00    -0.248 NA
ATOM     19  C   UNL A   1      42.674  29.482  31.350  1.00  0.00     0.031 C 
ATOM     20  C   UNL A   1      44.572  24.836  31.441  1.00  0.00     0.029 A 
ATOM     21  N   UNL A   1      44.654  25.983  33.356  1.00  0.00    -0.354 N 
ATOM     22  C   UNL A   1      43.232  30.134  33.458  1.00  0.00     0.074 A 
ATOM     23  C   UNL A   1      42.618  30.492  32.202  1.00  0.00     0.031 C 
ATOM     24  C   UNL A   1      45.011  23.995  32.390  1.00  0.00     0.029 A 
ATOM     25  C   UNL A   1      45.153  24.732  33.637  1.00  0.00     0.049 A 
ATOM     26  H   UNL A   1      44.553  26.690  34.034  1.00  0.00     0.167 HD
ATOM     27  C   UNL A   1      43.276  30.940  34.542  1.00  0.00     0.034 A 
ATOM     28  C   UNL A   1      45.714  24.259  34.766  1.00  0.00     0.034 A 
ATOM     29  C   UNL A   1      43.868  30.541  35.785  1.00  0.00     0.049 A 
ATOM     30  C   UNL A   1      45.797  25.196  35.939  1.00  0.00     0.074 A 
ATOM     31  C   UNL A   1      44.042  31.278  36.938  1.00  0.00     0.029 A 
ATOM     32  N   UNL A   1      44.379  29.273  36.032  1.00  0.00    -0.354 N 
ATOM     33  N   UNL A   1      45.347  26.425  36.046  1.00  0.00    -0.248 NA
ATOM     34  C   UNL A   1      46.451  24.686  37.149  1.00  0.00     0.031 C 
ATOM     35  C   UNL A   1      44.677  30.459  37.880  1.00  0.00     0.029 A 
ATOM     36  C   UNL A   1      44.865  29.202  37.322  1.00  0.00     0.049 A 
ATOM     37  H   UNL A   1      44.392  28.532  35.383  1.00  0.00     0.167 HD
ATOM     38  C   UNL A   1      45.649  26.832  37.337  1.00  0.00     0.074 A 
ATOM     39  C   UNL A   1      46.286  25.701  37.986  1.00  0.00     0.031 C 
ATOM     40  C   UNL A   1      45.448  28.033  37.933  1.00  0.00     0.034 A 
BRANCH  27  41
ATOM     41  C   UNL A   1      42.694  32.319  34.395  1.00  0.00     0.023 A 
ATOM     42  C   UNL A   1      43.505  33.388  33.962  1.00  0.00     0.012 A 
ATOM     43  C   UNL A   1      41.345  32.561  34.718  1.00  0.00     0.148 A 
ATOM     44  C   UNL A   1      42.992  34.683  33.890  1.00  0.00     0.002 A 
ATOM     45  C   UNL A   1      40.829  33.846  34.603  1.00  0.00     0.091 A 
ATOM     46  F   UNL A   1      40.601  31.537  35.157  1.00  0.00    -0.205 F 
ATOM     47  C   UNL A   1      41.654  34.911  34.203  1.00  0.00     0.022 A 
BRANCH  45  48
ATOM     48  S   UNL A   1      39.107  34.235  34.932  1.00  0.00     0.127 S 
ATOM     49  O   UNL A   1      39.173  35.675  35.183  1.00  0.00    -0.237 OA
ATOM     50  O   UNL A   1      38.467  33.864  33.671  1.00  0.00    -0.237 OA
ATOM     51  O   UNL A   1      38.721  33.424  36.078  1.00  0.00    -0.744 OA
ENDBRANCH  45  48
ENDBRANCH  27  41
BRANCH  28  52
ATOM     52  C   UNL A   1      46.269  22.875  34.821  1.00  0.00     0.023 A 
ATOM     53  C   UNL A   1      45.407  21.770  34.958  1.00  0.00     0.012 A 
ATOM     54  C   UNL A   1      47.657  22.647  34.731  1.00  0.00     0.148 A 
ATOM     55  C   UNL A   1      45.920  20.473  35.042  1.00  0.00     0.002 A 
ATOM     56  C   UNL A   1      48.157  21.350  34.751  1.00  0.00     0.091 A 
ATOM     57  F   UNL A   1      48.472  23.707  34.627  1.00  0.00    -0.205 F 
ATOM     58  C   UNL A   1      47.291  20.261  34.927  1.00  0.00     0.022 A 
BRANCH  56  59
ATOM     59  S   UNL A   1      49.894  20.991  34.466  1.00  0.00     0.127 S 
ATOM     60  O   UNL A   1      50.015  19.642  35.009  1.00  0.00    -0.237 OA
ATOM     61  O   UNL A   1      49.991  21.081  33.009  1.00  0.00    -0.237 OA
ATOM     62  O   UNL A   1      50.625  22.034  35.174  1.00  0.00    -0.744 OA
ENDBRANCH  56  59
ENDBRANCH  28  52
BRANCH  40  63
ATOM     63  C   UNL A   1      45.889  28.162  39.362  1.00  0.00     0.023 A 
ATOM     64  C   UNL A   1      45.042  27.730  40.400  1.00  0.00     0.012 A 
ATOM     65  C   UNL A   1      47.175  28.647  39.666  1.00  0.00     0.148 A 
ATOM     66  C   UNL A   1      45.456  27.815  41.727  1.00  0.00     0.002 A 
ATOM     67  C   UNL A   1      47.601  28.676  40.985  1.00  0.00     0.091 A 
ATOM     68  F   UNL A   1      47.953  29.072  38.659  1.00  0.00    -0.205 F 
ATOM     69  C   UNL A   1      46.739  28.274  42.018  1.00  0.00     0.022 A 
BRANCH  67  70
ATOM     70  S   UNL A   1      49.273  29.148  41.435  1.00  0.00     0.127 S 
ATOM     71  O   UNL A   1      50.070  28.226  40.628  1.00  0.00    -0.237 OA
ATOM     72  O   UNL A   1      49.328  30.544  41.001  1.00  0.00    -0.237 OA
ATOM     73  O   UNL A   1      49.366  28.961  42.877  1.00  0.00    -0.744 OA
ENDBRANCH  67  70
ENDBRANCH  40  63
ENDBRANCH  14  15
ENDBRANCH   7   9
ENDBRANCH   6   7
ENDBRANCH   5   6
ENDBRANCH   4   5
ENDBRANCH   3   4
ENDBRANCH   2   3
ENDBRANCH   1   2
BRANCH   1  74
ATOM     74  O   UNL A   1      42.406  22.746  27.960  1.00  0.00    -0.377 OA
BRANCH  74  75
ATOM     75  C   UNL A   1      42.141  21.412  27.539  1.00  0.00     0.188 C 
BRANCH  75  76
ATOM     76  C   UNL A   1      41.054  21.165  26.465  1.00  0.00     0.188 C 
BRANCH  76  77
ATOM     77  O   UNL A   1      39.736  21.375  26.939  1.00  0.00    -0.376 OA
BRANCH  77  78
ATOM     78  C   UNL A   1      38.948  22.297  26.197  1.00  0.00     0.202 C 
BRANCH  78  79
ATOM     79  C   UNL A   1      37.969  21.718  25.159  1.00  0.00     0.261 C 
BRANCH  79  80
ATOM     80  O   UNL A   1      36.591  21.588  25.562  1.00  0.00    -0.460 OA
BRANCH  80  81
ATOM     81  C   UNL A   1      35.858  20.533  25.141  1.00  0.00     0.338 C 
ATOM     82  O   UNL A   1      36.266  19.443  24.778  1.00  0.00    -0.246 OA
BRANCH  81  83
ATOM     83  C   UNL A   1      34.428  20.881  25.372  1.00  0.00     0.060 A 
ATOM     84  C   UNL A   1      33.438  20.186  24.648  1.00  0.00     0.018 A 
ATOM     85  C   UNL A   1      34.089  21.989  26.189  1.00  0.00     0.022 A 
ATOM     86  C   UNL A   1      32.096  20.541  24.776  1.00  0.00     0.027 A 
ATOM     87  C   UNL A   1      32.762  22.405  26.215  1.00  0.00    -0.011 A 
ATOM     88  C   UNL A   1      31.796  21.626  25.575  1.00  0.00     0.045 A 
ATOM     89  C   UNL A   1      32.073  23.576  26.903  1.00  0.00     0.114 C 
ATOM     90  N   UNL A   1      30.532  22.055  25.939  1.00  0.00    -0.325 N 
ATOM     91  C   UNL A   1      30.596  23.107  26.838  1.00  0.00     0.232 C 
ATOM     92  H   UNL A   1      29.695  21.663  25.600  1.00  0.00     0.169 HD
ATOM     93  O   UNL A   1      29.641  23.568  27.442  1.00  0.00    -0.274 OA
BRANCH  89  94
ATOM     94  C   UNL A   1      32.227  24.984  26.223  1.00  0.00     0.010 C 
ATOM     95  C   UNL A   1      31.228  25.150  25.050  1.00  0.00     0.033 C 
ATOM     96  C   UNL A   1      33.655  25.303  25.720  1.00  0.00     0.033 C 
ATOM     97  C   UNL A   1      31.447  26.424  24.241  1.00  0.00     0.160 C 
ATOM     98  C   UNL A   1      33.706  26.588  24.895  1.00  0.00     0.160 C 
ATOM     99  O   UNL A   1      32.799  26.518  23.800  1.00  0.00    -0.381 OA
ENDBRANCH  89  94
ENDBRANCH  81  83
ENDBRANCH  80  81
ENDBRANCH  79  80
ENDBRANCH  78  79
ENDBRANCH  77  78
ENDBRANCH  76  77
ENDBRANCH  75  76
ENDBRANCH  74  75
ENDBRANCH   1  74
TORSDOF 24
ENDMDL
MODEL 2
REMARK VINA RESULT:      -8.8      4.518      8.600
REMARK SMILES O=C(OCCOCCOCCOCCOC(=O)c1ccc2c(c1)[C@@H](C1CCOCC1)C(=O)N2)c1ccc(-c2c3nc(c(-c4cccc(S(=O)(=O)[O-])c4F)c4ccc([nH]4)c(-c4cccc(S(=O)(=O)[O-])c4F)c4nc(c(-c5cccc(S(=O)(=O)[O-])c5F)c5ccc2[nH]5)C=C4)C=C3)cc1
REMARK SMILES IDX 8 1 7 2 6 3 5 4 4 5 3 6 2 7 1 8 34 9 35 10 96 11 36 12 95 13
REMARK SMILES IDX 37 14 38 15 39 16 89 17 40 18 94 19 88 20 90 21 41 22 93 23
REMARK SMILES IDX 87 24 86 25 42 27 74 28 54 29 73 30 55 31 58 32 72 33 91 34
REMARK SMILES IDX 56 35 57 36 71 38 92 39 59 40 43 41 44 42 52 43 45 44 47 45
REMARK SMILES IDX 53 46 46 47 48 48 49 49 50 50 51 51 75 52 76 53 84 54 77 55
REMARK SMILES IDX 79 56 85 57 78 58 80 59 81 60 82 61 83 62 60 63 61 64 69 65
REMARK SMILES IDX 62 66 64 67 70 68 63 69 65 70 66 71 67 72 68 73 9 74 10 75
REMARK SMILES IDX 11 76 12 77 13 78 14 79 15 80 16 81 17 82 18 83 19 84 23 85
REMARK SMILES IDX 20 86 22 87 21 88 24 89 33 90 31 91 32 93 25 94 26 95 30 96
REMARK SMILES IDX 27 97 29 98 28 99
REMARK H PARENT 90 26 58 37 33 92
REMARK Flexibility Score: inf
ROOT
ATOM      1  C   UNL A   1      37.082  33.804  29.389  1.00  0.00     0.188 C 
ENDROOT
BRANCH   1   2
ATOM      2  C   UNL A   1      37.181  33.265  30.816  1.00  0.00     0.188 C 
BRANCH   2   3
ATOM      3  O   UNL A   1      36.611  34.203  31.720  1.00  0.00    -0.376 OA
BRANCH   3   4
ATOM      4  C   UNL A   1      35.453  33.851  32.459  1.00  0.00     0.202 C 
BRANCH   4   5
ATOM      5  C   UNL A   1      35.519  34.021  33.978  1.00  0.00     0.261 C 
BRANCH   5   6
ATOM      6  O   UNL A   1      35.927  32.845  34.696  1.00  0.00    -0.460 OA
BRANCH   6   7
ATOM      7  C   UNL A   1      37.031  32.680  35.474  1.00  0.00     0.338 C 
ATOM      8  O   UNL A   1      37.025  33.116  36.622  1.00  0.00    -0.246 OA
BRANCH   7   9
ATOM      9  C   UNL A   1      38.241  31.965  34.990  1.00  0.00     0.060 A 
ATOM     10  C   UNL A   1      39.431  31.905  35.701  1.00  0.00     0.016 A 
ATOM     11  C   UNL A   1      38.159  31.242  33.796  1.00  0.00     0.016 A 
ATOM     12  C   UNL A   1      40.579  31.367  35.163  1.00  0.00     0.010 A 
ATOM     13  C   UNL A   1      39.282  30.571  33.299  1.00  0.00     0.010 A 
ATOM     14  C   UNL A   1      40.518  30.694  33.953  1.00  0.00    -0.014 A 
BRANCH  14  15
ATOM     15  C   UNL A   1      41.797  30.269  33.354  1.00  0.00     0.031 A 
ATOM     16  C   UNL A   1      42.556  31.274  32.540  1.00  0.00     0.074 A 
ATOM     17  C   UNL A   1      42.327  29.075  33.679  1.00  0.00     0.049 A 
ATOM     18  N   UNL A   1      43.664  31.124  31.871  1.00  0.00    -0.248 NA
ATOM     19  C   UNL A   1      41.994  32.637  32.474  1.00  0.00     0.031 C 
ATOM     20  C   UNL A   1      41.704  28.082  34.564  1.00  0.00     0.029 A 
ATOM     21  N   UNL A   1      43.523  28.501  33.336  1.00  0.00    -0.354 N 
ATOM     22  C   UNL A   1      43.893  32.346  31.252  1.00  0.00     0.074 A 
ATOM     23  C   UNL A   1      42.817  33.232  31.627  1.00  0.00     0.031 C 
ATOM     24  C   UNL A   1      42.534  27.039  34.713  1.00  0.00     0.029 A 
ATOM     25  C   UNL A   1      43.697  27.241  33.861  1.00  0.00     0.049 A 
ATOM     26  H   UNL A   1      44.192  28.948  32.769  1.00  0.00     0.167 HD
ATOM     27  C   UNL A   1      44.920  32.693  30.445  1.00  0.00     0.034 A 
ATOM     28  C   UNL A   1      44.664  26.335  33.629  1.00  0.00     0.034 A 
ATOM     29  C   UNL A   1      45.990  31.796  30.119  1.00  0.00     0.049 A 
ATOM     30  C   UNL A   1      45.766  26.728  32.684  1.00  0.00     0.074 A 
ATOM     31  C   UNL A   1      47.053  31.991  29.262  1.00  0.00     0.029 A 
ATOM     32  N   UNL A   1      46.128  30.521  30.654  1.00  0.00    -0.354 N 
ATOM     33  N   UNL A   1      45.957  27.875  32.074  1.00  0.00    -0.248 NA
ATOM     34  C   UNL A   1      46.791  25.717  32.403  1.00  0.00     0.031 C 
ATOM     35  C   UNL A   1      47.828  30.826  29.265  1.00  0.00     0.029 A 
ATOM     36  C   UNL A   1      47.264  29.918  30.151  1.00  0.00     0.049 A 
ATOM     37  H   UNL A   1      45.508  30.108  31.299  1.00  0.00     0.167 HD
ATOM     38  C   UNL A   1      47.130  27.730  31.347  1.00  0.00     0.074 A 
ATOM     39  C   UNL A   1      47.625  26.396  31.628  1.00  0.00     0.031 C 
ATOM     40  C   UNL A   1      47.735  28.602  30.503  1.00  0.00     0.034 A 
BRANCH  27  41
ATOM     41  C   UNL A   1      44.894  34.077  29.858  1.00  0.00     0.023 A 
ATOM     42  C   UNL A   1      45.713  35.091  30.396  1.00  0.00     0.012 A 
ATOM     43  C   UNL A   1      44.030  34.381  28.789  1.00  0.00     0.148 A 
ATOM     44  C   UNL A   1      45.643  36.394  29.903  1.00  0.00     0.002 A 
ATOM     45  C   UNL A   1      43.997  35.671  28.274  1.00  0.00     0.091 A 
ATOM     46  F   UNL A   1      43.238  33.410  28.313  1.00  0.00    -0.205 F 
ATOM     47  C   UNL A   1      44.792  36.682  28.839  1.00  0.00     0.022 A 
BRANCH  45  48
ATOM     48  S   UNL A   1      42.974  36.133  26.873  1.00  0.00     0.127 S 
ATOM     49  O   UNL A   1      43.289  37.555  26.734  1.00  0.00    -0.237 OA
ATOM     50  O   UNL A   1      43.513  35.283  25.812  1.00  0.00    -0.237 OA
ATOM     51  O   UNL A   1      41.602  35.837  27.258  1.00  0.00    -0.744 OA
ENDBRANCH  45  48
ENDBRANCH  27  41
BRANCH  28  52
ATOM     52  C   UNL A   1      44.608  24.981  34.254  1.00  0.00     0.023 A 
ATOM     53  C   UNL A   1      44.010  23.907  33.568  1.00  0.00     0.012 A 
ATOM     54  C   UNL A   1      45.154  24.750  35.534  1.00  0.00     0.148 A 
ATOM     55  C   UNL A   1      43.924  22.643  34.158  1.00  0.00     0.002 A 
ATOM     56  C   UNL A   1      45.123  23.476  36.089  1.00  0.00     0.091 A 
ATOM     57  F   UNL A   1      45.698  25.785  36.191  1.00  0.00    -0.205 F 
ATOM     58  C   UNL A   1      44.489  22.425  35.412  1.00  0.00     0.022 A 
BRANCH  56  59
ATOM     59  S   UNL A   1      45.954  23.088  37.634  1.00  0.00     0.127 S 
ATOM     60  O   UNL A   1      47.325  23.493  37.346  1.00  0.00    -0.237 OA
ATOM     61  O   UNL A   1      45.244  23.942  38.587  1.00  0.00    -0.237 OA
ATOM     62  O   UNL A   1      45.739  21.661  37.841  1.00  0.00    -0.744 OA
ENDBRANCH  56  59
ENDBRANCH  28  52
BRANCH  40  63
ATOM     63  C   UNL A   1      49.013  28.144  29.860  1.00  0.00     0.023 A 
ATOM     64  C   UNL A   1      50.251  28.564  30.383  1.00  0.00     0.012 A 
ATOM     65  C   UNL A   1      48.980  27.242  28.781  1.00  0.00     0.148 A 
ATOM     66  C   UNL A   1      51.442  28.118  29.815  1.00  0.00     0.002 A 
ATOM     67  C   UNL A   1      50.169  26.759  28.256  1.00  0.00     0.091 A 
ATOM     68  F   UNL A   1      47.787  26.876  28.288  1.00  0.00    -0.205 F 
ATOM     69  C   UNL A   1      51.401  27.206  28.761  1.00  0.00     0.022 A 
BRANCH  67  70
ATOM     70  S   UNL A   1      50.204  25.502  26.976  1.00  0.00     0.127 S 
ATOM     71  O   UNL A   1      51.629  25.442  26.658  1.00  0.00    -0.237 OA
ATOM     72  O   UNL A   1      49.685  24.328  27.680  1.00  0.00    -0.237 OA
ATOM     73  O   UNL A   1      49.343  25.994  25.909  1.00  0.00    -0.744 OA
ENDBRANCH  67  70
ENDBRANCH  40  63
ENDBRANCH  14  15
ENDBRANCH   7   9
ENDBRANCH   6   7
ENDBRANCH   5   6
ENDBRANCH   4   5
ENDBRANCH   3   4
ENDBRANCH   2   3
ENDBRANCH   1   2
BRANCH   1  74
ATOM     74  O   UNL A   1      35.779  34.257  29.024  1.00  0.00    -0.377 OA
BRANCH  74  75
ATOM     75  C   UNL A   1      34.991  33.334  28.278  1.00  0.00     0.188 C 
BRANCH  75  76
ATOM     76  C   UNL A   1      34.652  31.960  28.903  1.00  0.00     0.188 C 
BRANCH  76  77
ATOM     77  O   UNL A   1      35.297  30.875  28.261  1.00  0.00    -0.376 OA
BRANCH  77  78
ATOM     78  C   UNL A   1      34.444  29.933  27.623  1.00  0.00     0.202 C 
BRANCH  78  79
ATOM     79  C   UNL A   1      33.365  30.485  26.673  1.00  0.00     0.261 C 
BRANCH  79  80
ATOM     80  O   UNL A   1      33.160  29.776  25.434  1.00  0.00    -0.460 OA
BRANCH  80  81
ATOM     81  C   UNL A   1      31.907  29.523  24.997  1.00  0.00     0.338 C 
ATOM     82  O   UNL A   1      30.908  30.197  25.175  1.00  0.00    -0.246 OA
BRANCH  81  83
ATOM     83  C   UNL A   1      31.996  28.343  24.091  1.00  0.00     0.060 A 
ATOM     84  C   UNL A   1      31.152  28.293  22.963  1.00  0.00     0.018 A 
ATOM     85  C   UNL A   1      32.804  27.233  24.446  1.00  0.00     0.022 A 
ATOM     86  C   UNL A   1      31.148  27.167  22.139  1.00  0.00     0.027 A 
ATOM     87  C   UNL A   1      32.702  26.074  23.683  1.00  0.00    -0.011 A 
ATOM     88  C   UNL A   1      31.942  26.101  22.511  1.00  0.00     0.045 A 
ATOM     89  C   UNL A   1      33.346  24.702  23.821  1.00  0.00     0.114 C 
ATOM     90  N   UNL A   1      32.182  24.957  21.772  1.00  0.00    -0.325 N 
ATOM     91  C   UNL A   1      33.113  24.140  22.394  1.00  0.00     0.232 C 
ATOM     92  H   UNL A   1      31.747  24.751  20.913  1.00  0.00     0.169 HD
ATOM     93  O   UNL A   1      33.625  23.155  21.888  1.00  0.00    -0.274 OA
BRANCH  89  94
ATOM     94  C   UNL A   1      32.725  23.736  24.893  1.00  0.00     0.010 C 
ATOM     95  C   UNL A   1      31.207  23.990  25.063  1.00  0.00     0.033 C 
ATOM     96  C   UNL A   1      33.406  23.793  26.281  1.00  0.00     0.033 C 
ATOM     97  C   UNL A   1      30.584  23.205  26.212  1.00  0.00     0.160 C 
ATOM     98  C   UNL A   1      32.646  22.988  27.334  1.00  0.00     0.160 C 
ATOM     99  O   UNL A   1      31.296  23.432  27.426  1.00  0.00    -0.381 OA
ENDBRANCH  89  94
ENDBRANCH  81  83
ENDBRANCH  80  81
ENDBRANCH  79  80
ENDBRANCH  78  79
ENDBRANCH  77  78
ENDBRANCH  76  77
ENDBRANCH  75  76
ENDBRANCH  74  75
ENDBRANCH   1  74
TORSDOF 24
ENDMDL
MODEL 3
REMARK VINA RESULT:      -8.6      4.642      8.770
REMARK SMILES O=C(OCCOCCOCCOCCOC(=O)c1ccc2c(c1)[C@@H](C1CCOCC1)C(=O)N2)c1ccc(-c2c3nc(c(-c4cccc(S(=O)(=O)[O-])c4F)c4ccc([nH]4)c(-c4cccc(S(=O)(=O)[O-])c4F)c4nc(c(-c5cccc(S(=O)(=O)[O-])c5F)c5ccc2[nH]5)C=C4)C=C3)cc1
REMARK SMILES IDX 8 1 7 2 6 3 5 4 4 5 3 6 2 7 1 8 34 9 35 10 96 11 36 12 95 13
REMARK SMILES IDX 37 14 38 15 39 16 89 17 40 18 94 19 88 20 90 21 41 22 93 23
REMARK SMILES IDX 87 24 86 25 42 27 74 28 54 29 73 30 55 31 58 32 72 33 91 34
REMARK SMILES IDX 56 35 57 36 71 38 92 39 59 40 43 41 44 42 52 43 45 44 47 45
REMARK SMILES IDX 53 46 46 47 48 48 49 49 50 50 51 51 75 52 76 53 84 54 77 55
REMARK SMILES IDX 79 56 85 57 78 58 80 59 81 60 82 61 83 62 60 63 61 64 69 65
REMARK SMILES IDX 62 66 64 67 70 68 63 69 65 70 66 71 67 72 68 73 9 74 10 75
REMARK SMILES IDX 11 76 12 77 13 78 14 79 15 80 16 81 17 82 18 83 19 84 23 85
REMARK SMILES IDX 20 86 22 87 21 88 24 89 33 90 31 91 32 93 25 94 26 95 30 96
REMARK SMILES IDX 27 97 29 98 28 99
REMARK H PARENT 90 26 58 37 33 92
REMARK Flexibility Score: inf
ROOT
ATOM      1  C   UNL A   1      36.994  33.818  29.263  1.00  0.00     0.188 C 
ENDROOT
BRANCH   1   2
ATOM      2  C   UNL A   1      37.038  33.359  30.721  1.00  0.00     0.188 C 
BRANCH   2   3
ATOM      3  O   UNL A   1      36.255  34.236  31.520  1.00  0.00    -0.376 OA
BRANCH   3   4
ATOM      4  C   UNL A   1      35.219  33.709  32.333  1.00  0.00     0.202 C 
BRANCH   4   5
ATOM      5  C   UNL A   1      35.257  34.058  33.821  1.00  0.00     0.261 C 
BRANCH   5   6
ATOM      6  O   UNL A   1      35.917  33.084  34.649  1.00  0.00    -0.460 OA
BRANCH   6   7
ATOM      7  C   UNL A   1      37.183  33.126  35.143  1.00  0.00     0.338 C 
ATOM      8  O   UNL A   1      37.420  33.827  36.123  1.00  0.00    -0.246 OA
BRANCH   7   9
ATOM      9  C   UNL A   1      38.290  32.331  34.552  1.00  0.00     0.060 A 
ATOM     10  C   UNL A   1      39.592  32.351  35.035  1.00  0.00     0.016 A 
ATOM     11  C   UNL A   1      37.998  31.449  33.506  1.00  0.00     0.016 A 
ATOM     12  C   UNL A   1      40.626  31.724  34.378  1.00  0.00     0.010 A 
ATOM     13  C   UNL A   1      39.018  30.696  32.912  1.00  0.00     0.010 A 
ATOM     14  C   UNL A   1      40.351  30.889  33.306  1.00  0.00    -0.014 A 
BRANCH  14  15
ATOM     15  C   UNL A   1      41.502  30.363  32.549  1.00  0.00     0.031 A 
ATOM     16  C   UNL A   1      42.126  31.254  31.516  1.00  0.00     0.074 A 
ATOM     17  C   UNL A   1      42.063  29.192  32.907  1.00  0.00     0.049 A 
ATOM     18  N   UNL A   1      43.101  31.000  30.690  1.00  0.00    -0.248 NA
ATOM     19  C   UNL A   1      41.581  32.620  31.400  1.00  0.00     0.031 C 
ATOM     20  C   UNL A   1      41.586  28.317  33.985  1.00  0.00     0.029 A 
ATOM     21  N   UNL A   1      43.174  28.548  32.431  1.00  0.00    -0.354 N 
ATOM     22  C   UNL A   1      43.239  32.144  29.915  1.00  0.00     0.074 A 
ATOM     23  C   UNL A   1      42.256  33.098  30.367  1.00  0.00     0.031 C 
ATOM     24  C   UNL A   1      42.414  27.268  34.103  1.00  0.00     0.029 A 
ATOM     25  C   UNL A   1      43.417  27.343  33.051  1.00  0.00     0.049 A 
ATOM     26  H   UNL A   1      43.743  28.912  31.714  1.00  0.00     0.167 HD
ATOM     27  C   UNL A   1      44.118  32.372  28.914  1.00  0.00     0.034 A 
ATOM     28  C   UNL A   1      44.317  26.387  32.758  1.00  0.00     0.034 A 
ATOM     29  C   UNL A   1      45.103  31.411  28.510  1.00  0.00     0.049 A 
ATOM     30  C   UNL A   1      45.247  26.645  31.604  1.00  0.00     0.074 A 
ATOM     31  C   UNL A   1      46.008  31.483  27.471  1.00  0.00     0.029 A 
ATOM     32  N   UNL A   1      45.313  30.195  29.148  1.00  0.00    -0.354 N 
ATOM     33  N   UNL A   1      45.348  27.716  30.851  1.00  0.00    -0.248 NA
ATOM     34  C   UNL A   1      46.194  25.578  31.264  1.00  0.00     0.031 C 
ATOM     35  C   UNL A   1      46.755  30.299  27.468  1.00  0.00     0.029 A 
ATOM     36  C   UNL A   1      46.337  29.506  28.529  1.00  0.00     0.049 A 
ATOM     37  H   UNL A   1      44.805  29.871  29.928  1.00  0.00     0.167 HD
ATOM     38  C   UNL A   1      46.377  27.459  29.957  1.00  0.00     0.074 A 
ATOM     39  C   UNL A   1      46.893  26.145  30.292  1.00  0.00     0.031 C 
ATOM     40  C   UNL A   1      46.842  28.219  28.935  1.00  0.00     0.034 A 
BRANCH  27  41
ATOM     41  C   UNL A   1      44.012  33.688  28.195  1.00  0.00     0.023 A 
ATOM     42  C   UNL A   1      43.395  33.757  26.929  1.00  0.00     0.012 A 
ATOM     43  C   UNL A   1      44.556  34.856  28.764  1.00  0.00     0.148 A 
ATOM     44  C   UNL A   1      43.355  34.960  26.225  1.00  0.00     0.002 A 
ATOM     45  C   UNL A   1      44.475  36.060  28.075  1.00  0.00     0.091 A 
ATOM     46  F   UNL A   1      45.166  34.762  29.953  1.00  0.00    -0.205 F 
ATOM     47  C   UNL A   1      43.887  36.111  26.799  1.00  0.00     0.022 A 
BRANCH  45  48
ATOM     48  S   UNL A   1      45.083  37.609  28.750  1.00  0.00     0.127 S 
ATOM     49  O   UNL A   1      44.334  37.699  30.003  1.00  0.00    -0.237 OA
ATOM     50  O   UNL A   1      46.510  37.328  28.911  1.00  0.00    -0.237 OA
ATOM     51  O   UNL A   1      44.767  38.631  27.764  1.00  0.00    -0.744 OA
ENDBRANCH  45  48
ENDBRANCH  27  41
BRANCH  28  52
ATOM     52  C   UNL A   1      44.349  25.107  33.525  1.00  0.00     0.023 A 
ATOM     53  C   UNL A   1      43.783  23.939  32.979  1.00  0.00     0.012 A 
ATOM     54  C   UNL A   1      44.946  25.042  34.801  1.00  0.00     0.148 A 
ATOM     55  C   UNL A   1      43.780  22.744  33.704  1.00  0.00     0.002 A 
ATOM     56  C   UNL A   1      44.997  23.835  35.489  1.00  0.00     0.091 A 
ATOM     57  F   UNL A   1      45.458  26.165  35.324  1.00  0.00    -0.205 F 
ATOM     58  C   UNL A   1      44.395  22.688  34.951  1.00  0.00     0.022 A 
BRANCH  56  59
ATOM     59  S   UNL A   1      45.895  23.654  37.034  1.00  0.00     0.127 S 
ATOM     60  O   UNL A   1      47.262  23.958  36.623  1.00  0.00    -0.237 OA
ATOM     61  O   UNL A   1      45.264  24.671  37.877  1.00  0.00    -0.237 OA
ATOM     62  O   UNL A   1      45.647  22.286  37.469  1.00  0.00    -0.744 OA
ENDBRANCH  56  59
ENDBRANCH  28  52
BRANCH  40  63
ATOM     63  C   UNL A   1      47.985  27.656  28.139  1.00  0.00     0.023 A 
ATOM     64  C   UNL A   1      47.727  26.901  26.980  1.00  0.00     0.012 A 
ATOM     65  C   UNL A   1      49.313  27.939  28.510  1.00  0.00     0.148 A 
ATOM     66  C   UNL A   1      48.781  26.403  26.217  1.00  0.00     0.002 A 
ATOM     67  C   UNL A   1      50.355  27.487  27.714  1.00  0.00     0.091 A 
ATOM     68  F   UNL A   1      49.529  28.642  29.631  1.00  0.00    -0.205 F 
ATOM     69  C   UNL A   1      50.093  26.707  26.576  1.00  0.00     0.022 A 
BRANCH  67  70
ATOM     70  S   UNL A   1      52.064  27.927  28.044  1.00  0.00     0.127 S 
ATOM     71  O   UNL A   1      52.303  27.253  29.319  1.00  0.00    -0.237 OA
ATOM     72  O   UNL A   1      52.761  27.337  26.901  1.00  0.00    -0.237 OA
ATOM     73  O   UNL A   1      52.100  29.382  28.087  1.00  0.00    -0.744 OA
ENDBRANCH  67  70
ENDBRANCH  40  63
ENDBRANCH  14  15
ENDBRANCH   7   9
ENDBRANCH   6   7
ENDBRANCH   5   6
ENDBRANCH   4   5
ENDBRANCH   3   4
ENDBRANCH   2   3
ENDBRANCH   1   2
BRANCH   1  74
ATOM     74  O   UNL A   1      35.709  34.260  28.828  1.00  0.00    -0.377 OA
BRANCH  74  75
ATOM     75  C   UNL A   1      34.992  33.352  27.997  1.00  0.00     0.188 C 
BRANCH  75  76
ATOM     76  C   UNL A   1      34.785  31.897  28.478  1.00  0.00     0.188 C 
BRANCH  76  77
ATOM     77  O   UNL A   1      35.365  30.931  27.620  1.00  0.00    -0.376 OA
BRANCH  77  78
ATOM     78  C   UNL A   1      34.579  29.774  27.365  1.00  0.00     0.202 C 
BRANCH  78  79
ATOM     79  C   UNL A   1      33.068  29.977  27.142  1.00  0.00     0.261 C 
BRANCH  79  80
ATOM     80  O   UNL A   1      32.406  29.045  26.263  1.00  0.00    -0.460 OA
BRANCH  80  81
ATOM     81  C   UNL A   1      31.803  27.948  26.771  1.00  0.00     0.338 C 
ATOM     82  O   UNL A   1      31.284  27.825  27.866  1.00  0.00    -0.246 OA
BRANCH  81  83
ATOM     83  C   UNL A   1      31.722  26.950  25.667  1.00  0.00     0.060 A 
ATOM     84  C   UNL A   1      30.484  26.328  25.407  1.00  0.00     0.018 A 
ATOM     85  C   UNL A   1      32.901  26.532  24.999  1.00  0.00     0.022 A 
ATOM     86  C   UNL A   1      30.390  25.329  24.438  1.00  0.00     0.027 A 
ATOM     87  C   UNL A   1      32.814  25.456  24.122  1.00  0.00    -0.011 A 
ATOM     88  C   UNL A   1      31.555  24.940  23.807  1.00  0.00     0.045 A 
ATOM     89  C   UNL A   1      33.867  24.710  23.313  1.00  0.00     0.114 C 
ATOM     90  N   UNL A   1      31.659  24.073  22.734  1.00  0.00    -0.325 N 
ATOM     91  C   UNL A   1      32.965  23.989  22.279  1.00  0.00     0.232 C 
ATOM     92  H   UNL A   1      30.901  23.579  22.346  1.00  0.00     0.169 HD
ATOM     93  O   UNL A   1      33.310  23.427  21.252  1.00  0.00    -0.274 OA
BRANCH  89  94
ATOM     94  C   UNL A   1      34.744  23.665  24.092  1.00  0.00     0.010 C 
ATOM     95  C   UNL A   1      35.284  24.263  25.414  1.00  0.00     0.033 C 
ATOM     96  C   UNL A   1      35.926  23.086  23.279  1.00  0.00     0.033 C 
ATOM     97  C   UNL A   1      36.283  23.358  26.128  1.00  0.00     0.160 C 
ATOM     98  C   UNL A   1      36.858  22.233  24.138  1.00  0.00     0.160 C 
ATOM     99  O   UNL A   1      37.341  22.980  25.250  1.00  0.00    -0.381 OA
ENDBRANCH  89  94
ENDBRANCH  81  83
ENDBRANCH  80  81
ENDBRANCH  79  80
ENDBRANCH  78  79
ENDBRANCH  77  78
ENDBRANCH  76  77
ENDBRANCH  75  76
ENDBRANCH  74  75
ENDBRANCH   1  74
TORSDOF 24
ENDMDL
