MODEL 1
REMARK VINA RESULT:      -9.9      0.000      0.000
REMARK SMILES Cc1cc([C@H](O)CC2(CC(=O)OCCOCCOCCOCCOC(=O)c3ccc(-c4c5nc(c(-c6cccc(S(=O)(=O)[O-])c6F)c6ccc([nH]6)c(-c6cccc(S(=O)(=O)[O-])c6F)c6nc(c(-c7cccc(S(=O)(=O)[O-])c7F)c7ccc4[nH]7)C=C6)C=C5)cc3)CCCC2)ccc1F
REMARK SMILES IDX 17 1 16 2 15 3 14 4 13 5 12 6 10 7 11 8 9 9 8 10 90 11 93 12
REMARK SMILES IDX 91 13 92 14 7 15 5 16 4 17 1 18 2 19 3 20 96 21 95 22 97 23
REMARK SMILES IDX 94 24 6 25 18 27 19 28 20 29 21 30 22 31 23 32 24 33 25 34
REMARK SMILES IDX 26 35 27 36 28 37 89 38 29 39 88 40 30 41 31 42 32 43 82 44
REMARK SMILES IDX 33 45 87 46 81 47 83 48 34 49 86 50 80 51 79 52 35 54 67 55
REMARK SMILES IDX 47 56 66 57 48 58 51 59 65 60 84 61 49 62 50 63 64 65 85 66
REMARK SMILES IDX 52 67 36 68 37 69 45 70 38 71 40 72 46 73 39 74 41 75 42 76
REMARK SMILES IDX 43 77 44 78 68 79 69 80 77 81 70 82 72 83 78 84 71 85 73 86
REMARK SMILES IDX 74 87 75 88 76 89 53 90 54 91 62 92 55 93 57 94 63 95 56 96
REMARK SMILES IDX 58 97 59 98 60 99 61 100
REMARK H PARENT 6 26 83 53 51 64
REMARK Flexibility Score: inf
ROOT
ATOM      1  C   UNL A   1      33.991  34.712  28.553  1.00  0.00     0.188 C 
ENDROOT
BRANCH   1   2
ATOM      2  C   UNL A   1      33.631  33.228  28.301  1.00  0.00     0.188 C 
BRANCH   2   3
ATOM      3  O   UNL A   1      34.618  32.195  28.328  1.00  0.00    -0.376 OA
BRANCH   3   4
ATOM      4  C   UNL A   1      34.505  31.119  27.415  1.00  0.00     0.202 C 
BRANCH   4   5
ATOM      5  C   UNL A   1      33.083  30.537  27.280  1.00  0.00     0.261 C 
BRANCH   5   6
ATOM      6  O   UNL A   1      32.836  29.766  26.079  1.00  0.00    -0.463 OA
BRANCH   6   7
ATOM      7  C   UNL A   1      33.463  28.575  26.007  1.00  0.00     0.306 C 
ATOM      8  O   UNL A   1      33.843  27.950  26.997  1.00  0.00    -0.252 OA
BRANCH   7   9
ATOM      9  C   UNL A   1      33.727  28.018  24.606  1.00  0.00     0.129 C 
BRANCH   9  10
ATOM     10  C   UNL A   1      32.860  27.036  23.719  1.00  0.00    -0.016 C 
ATOM     11  C   UNL A   1      32.388  27.891  22.503  1.00  0.00     0.008 C 
ATOM     12  C   UNL A   1      31.485  26.649  24.301  1.00  0.00     0.008 C 
ATOM     13  C   UNL A   1      31.182  28.685  23.000  1.00  0.00     0.001 C 
ATOM     14  C   UNL A   1      30.592  27.875  24.146  1.00  0.00     0.001 C 
BRANCH  10  15
ATOM     15  C   UNL A   1      33.734  25.818  23.183  1.00  0.00     0.044 C 
BRANCH  15  16
ATOM     16  C   UNL A   1      33.499  24.407  23.802  1.00  0.00     0.145 C 
BRANCH  16  17
ATOM     17  C   UNL A   1      34.682  23.649  24.397  1.00  0.00    -0.019 A 
ATOM     18  C   UNL A   1      38.008  24.084  26.245  1.00  0.00     0.047 C 
ATOM     19  C   UNL A   1      36.842  23.475  25.529  1.00  0.00    -0.015 A 
ATOM     20  C   UNL A   1      35.778  24.256  25.031  1.00  0.00     0.012 A 
ATOM     21  C   UNL A   1      36.789  22.083  25.409  1.00  0.00     0.126 A 
ATOM     22  C   UNL A   1      35.730  21.462  24.769  1.00  0.00     0.040 A 
ATOM     23  F   UNL A   1      37.786  21.335  25.899  1.00  0.00    -0.207 F 
ATOM     24  C   UNL A   1      34.703  22.245  24.242  1.00  0.00     0.009 A 
ENDBRANCH  16  17
BRANCH  16  25
ATOM     25  O   UNL A   1      32.911  23.553  22.823  1.00  0.00    -0.388 OA
ATOM     26  H   UNL A   1      32.018  23.870  22.611  1.00  0.00     0.211 HD
ENDBRANCH  16  25
ENDBRANCH  15  16
ENDBRANCH  10  15
ENDBRANCH   9  10
ENDBRANCH   7   9
ENDBRANCH   6   7
ENDBRANCH   5   6
ENDBRANCH   4   5
ENDBRANCH   3   4
ENDBRANCH   2   3
ENDBRANCH   1   2
BRANCH   1  27
ATOM     27  O   UNL A   1      34.025  35.108  29.910  1.00  0.00    -0.377 OA
BRANCH  27  28
ATOM     28  C   UNL A   1      32.844  35.650  30.472  1.00  0.00     0.188 C 
BRANCH  28  29
ATOM     29  C   UNL A   1      32.937  36.895  31.374  1.00  0.00     0.188 C 
BRANCH  29  30
ATOM     30  O   UNL A   1      34.101  36.956  32.194  1.00  0.00    -0.376 OA
BRANCH  30  31
ATOM     31  C   UNL A   1      34.195  36.060  33.301  1.00  0.00     0.202 C 
BRANCH  31  32
ATOM     32  C   UNL A   1      35.555  35.362  33.401  1.00  0.00     0.261 C 
BRANCH  32  33
ATOM     33  O   UNL A   1      35.819  34.374  32.404  1.00  0.00    -0.460 OA
BRANCH  33  34
ATOM     34  C   UNL A   1      35.721  33.113  32.851  1.00  0.00     0.338 C 
ATOM     35  O   UNL A   1      35.450  32.731  33.971  1.00  0.00    -0.246 OA
BRANCH  34  36
ATOM     36  C   UNL A   1      36.007  32.160  31.771  1.00  0.00     0.060 A 
ATOM     37  C   UNL A   1      36.283  30.872  32.247  1.00  0.00     0.016 A 
ATOM     38  C   UNL A   1      36.599  32.695  30.631  1.00  0.00     0.016 A 
ATOM     39  C   UNL A   1      37.479  30.321  31.876  1.00  0.00     0.010 A 
ATOM     40  C   UNL A   1      37.793  32.149  30.262  1.00  0.00     0.010 A 
ATOM     41  C   UNL A   1      38.262  31.050  30.981  1.00  0.00    -0.014 A 
BRANCH  41  42
ATOM     42  C   UNL A   1      39.626  30.684  30.736  1.00  0.00     0.031 A 
ATOM     43  C   UNL A   1      39.808  29.422  30.018  1.00  0.00     0.074 A 
ATOM     44  C   UNL A   1      40.625  31.455  31.214  1.00  0.00     0.049 A 
ATOM     45  N   UNL A   1      40.694  28.540  30.308  1.00  0.00    -0.248 NA
ATOM     46  C   UNL A   1      38.862  28.979  28.989  1.00  0.00     0.031 C 
ATOM     47  C   UNL A   1      42.038  31.317  30.902  1.00  0.00     0.029 A 
ATOM     48  N   UNL A   1      40.601  32.434  32.212  1.00  0.00    -0.354 N 
ATOM     49  C   UNL A   1      40.696  27.656  29.255  1.00  0.00     0.074 A 
ATOM     50  C   UNL A   1      39.428  27.837  28.590  1.00  0.00     0.031 C 
ATOM     51  C   UNL A   1      42.752  31.924  31.867  1.00  0.00     0.029 A 
ATOM     52  C   UNL A   1      41.816  32.329  32.904  1.00  0.00     0.049 A 
ATOM     53  H   UNL A   1      39.873  33.072  32.394  1.00  0.00     0.167 HD
ATOM     54  C   UNL A   1      41.868  27.060  28.899  1.00  0.00     0.034 A 
ATOM     55  C   UNL A   1      41.944  32.018  34.227  1.00  0.00     0.034 A 
ATOM     56  C   UNL A   1      42.946  27.533  29.753  1.00  0.00     0.049 A 
ATOM     57  C   UNL A   1      42.790  30.781  34.427  1.00  0.00     0.074 A 
ATOM     58  C   UNL A   1      43.862  28.559  29.574  1.00  0.00     0.029 A 
ATOM     59  N   UNL A   1      42.960  27.219  31.103  1.00  0.00    -0.354 N 
ATOM     60  N   UNL A   1      42.856  29.815  33.551  1.00  0.00    -0.248 NA
ATOM     61  C   UNL A   1      43.623  30.534  35.600  1.00  0.00     0.031 C 
ATOM     62  C   UNL A   1      44.428  28.865  30.831  1.00  0.00     0.029 A 
ATOM     63  C   UNL A   1      43.859  28.024  31.769  1.00  0.00     0.049 A 
ATOM     64  H   UNL A   1      42.407  26.523  31.524  1.00  0.00     0.167 HD
ATOM     65  C   UNL A   1      43.780  28.887  33.972  1.00  0.00     0.074 A 
ATOM     66  C   UNL A   1      44.206  29.367  35.271  1.00  0.00     0.031 C 
ATOM     67  C   UNL A   1      44.134  27.827  33.185  1.00  0.00     0.034 A 
BRANCH  54  68
ATOM     68  C   UNL A   1      42.084  26.395  27.561  1.00  0.00     0.023 A 
ATOM     69  C   UNL A   1      42.319  27.123  26.377  1.00  0.00     0.012 A 
ATOM     70  C   UNL A   1      42.090  24.988  27.442  1.00  0.00     0.148 A 
ATOM     71  C   UNL A   1      42.669  26.495  25.173  1.00  0.00     0.002 A 
ATOM     72  C   UNL A   1      42.409  24.365  26.239  1.00  0.00     0.091 A 
ATOM     73  F   UNL A   1      41.790  24.218  28.494  1.00  0.00    -0.205 F 
ATOM     74  C   UNL A   1      42.726  25.111  25.105  1.00  0.00     0.022 A 
BRANCH  72  75
ATOM     75  S   UNL A   1      42.404  22.572  26.175  1.00  0.00     0.127 S 
ATOM     76  O   UNL A   1      41.037  22.238  26.560  1.00  0.00    -0.237 OA
ATOM     77  O   UNL A   1      42.790  22.289  24.797  1.00  0.00    -0.237 OA
ATOM     78  O   UNL A   1      43.415  22.201  27.167  1.00  0.00    -0.744 OA
ENDBRANCH  72  75
ENDBRANCH  54  68
BRANCH  55  79
ATOM     79  C   UNL A   1      40.787  32.384  35.085  1.00  0.00     0.023 A 
ATOM     80  C   UNL A   1      39.493  31.928  34.777  1.00  0.00     0.012 A 
ATOM     81  C   UNL A   1      40.937  33.484  35.953  1.00  0.00     0.148 A 
ATOM     82  C   UNL A   1      38.374  32.616  35.259  1.00  0.00     0.002 A 
ATOM     83  C   UNL A   1      39.821  34.200  36.372  1.00  0.00     0.091 A 
ATOM     84  F   UNL A   1      42.176  33.885  36.278  1.00  0.00    -0.205 F 
ATOM     85  C   UNL A   1      38.537  33.766  36.035  1.00  0.00     0.022 A 
BRANCH  83  86
ATOM     86  S   UNL A   1      40.066  35.832  37.085  1.00  0.00     0.127 S 
ATOM     87  O   UNL A   1      41.463  35.802  37.504  1.00  0.00    -0.237 OA
ATOM     88  O   UNL A   1      39.732  36.719  35.973  1.00  0.00    -0.237 OA
ATOM     89  O   UNL A   1      39.105  35.884  38.187  1.00  0.00    -0.744 OA
ENDBRANCH  83  86
ENDBRANCH  55  79
BRANCH  67  90
ATOM     90  C   UNL A   1      44.901  26.574  33.564  1.00  0.00     0.023 A 
ATOM     91  C   UNL A   1      46.289  26.520  33.242  1.00  0.00     0.012 A 
ATOM     92  C   UNL A   1      44.357  25.409  34.115  1.00  0.00     0.148 A 
ATOM     93  C   UNL A   1      47.073  25.381  33.422  1.00  0.00     0.002 A 
ATOM     94  C   UNL A   1      45.169  24.308  34.400  1.00  0.00     0.091 A 
ATOM     95  F   UNL A   1      43.040  25.308  34.326  1.00  0.00    -0.205 F 
ATOM     96  C   UNL A   1      46.516  24.271  34.026  1.00  0.00     0.022 A 
BRANCH  94  97
ATOM     97  S   UNL A   1      44.480  22.967  35.369  1.00  0.00     0.127 S 
ATOM     98  O   UNL A   1      44.665  21.816  34.489  1.00  0.00    -0.237 OA
ATOM     99  O   UNL A   1      45.279  22.985  36.590  1.00  0.00    -0.237 OA
ATOM    100  O   UNL A   1      43.083  23.364  35.557  1.00  0.00    -0.744 OA
ENDBRANCH  94  97
ENDBRANCH  67  90
ENDBRANCH  41  42
ENDBRANCH  34  36
ENDBRANCH  33  34
ENDBRANCH  32  33
ENDBRANCH  31  32
ENDBRANCH  30  31
ENDBRANCH  29  30
ENDBRANCH  28  29
ENDBRANCH  27  28
ENDBRANCH   1  27
TORSDOF 28
ENDMDL
MODEL 2
REMARK VINA RESULT:      -9.6      2.913      3.886
REMARK SMILES Cc1cc([C@H](O)CC2(CC(=O)OCCOCCOCCOCCOC(=O)c3ccc(-c4c5nc(c(-c6cccc(S(=O)(=O)[O-])c6F)c6ccc([nH]6)c(-c6cccc(S(=O)(=O)[O-])c6F)c6nc(c(-c7cccc(S(=O)(=O)[O-])c7F)c7ccc4[nH]7)C=C6)C=C5)cc3)CCCC2)ccc1F
REMARK SMILES IDX 17 1 16 2 15 3 14 4 13 5 12 6 10 7 11 8 9 9 8 10 90 11 93 12
REMARK SMILES IDX 91 13 92 14 7 15 5 16 4 17 1 18 2 19 3 20 96 21 95 22 97 23
REMARK SMILES IDX 94 24 6 25 18 27 19 28 20 29 21 30 22 31 23 32 24 33 25 34
REMARK SMILES IDX 26 35 27 36 28 37 89 38 29 39 88 40 30 41 31 42 32 43 82 44
REMARK SMILES IDX 33 45 87 46 81 47 83 48 34 49 86 50 80 51 79 52 35 54 67 55
REMARK SMILES IDX 47 56 66 57 48 58 51 59 65 60 84 61 49 62 50 63 64 65 85 66
REMARK SMILES IDX 52 67 36 68 37 69 45 70 38 71 40 72 46 73 39 74 41 75 42 76
REMARK SMILES IDX 43 77 44 78 68 79 69 80 77 81 70 82 72 83 78 84 71 85 73 86
REMARK SMILES IDX 74 87 75 88 76 89 53 90 54 91 62 92 55 93 57 94 63 95 56 96
REMARK SMILES IDX 58 97 59 98 60 99 61 100
REMARK H PARENT 6 26 83 53 51 64
REMARK Flexibility Score: inf
ROOT
ATOM      1  C   UNL A   1      34.900  31.426  27.616  1.00  0.00     0.188 C 
ENDROOT
BRANCH   1   2
ATOM      2  C   UNL A   1      33.401  31.132  27.372  1.00  0.00     0.188 C 
BRANCH   2   3
ATOM      3  O   UNL A   1      32.960  29.941  26.717  1.00  0.00    -0.376 OA
BRANCH   3   4
ATOM      4  C   UNL A   1      31.800  29.288  27.196  1.00  0.00     0.202 C 
BRANCH   4   5
ATOM      5  C   UNL A   1      31.943  27.761  27.365  1.00  0.00     0.261 C 
BRANCH   5   6
ATOM      6  O   UNL A   1      31.726  26.978  26.167  1.00  0.00    -0.463 OA
BRANCH   6   7
ATOM      7  C   UNL A   1      32.823  26.403  25.634  1.00  0.00     0.306 C 
ATOM      8  O   UNL A   1      33.901  26.985  25.515  1.00  0.00    -0.252 OA
BRANCH   7   9
ATOM      9  C   UNL A   1      32.673  24.965  25.132  1.00  0.00     0.129 C 
BRANCH   9  10
ATOM     10  C   UNL A   1      31.995  24.411  23.814  1.00  0.00    -0.016 C 
ATOM     11  C   UNL A   1      33.148  24.327  22.766  1.00  0.00     0.008 C 
ATOM     12  C   UNL A   1      31.061  25.393  23.081  1.00  0.00     0.008 C 
ATOM     13  C   UNL A   1      33.311  25.744  22.219  1.00  0.00     0.001 C 
ATOM     14  C   UNL A   1      31.961  26.423  22.406  1.00  0.00     0.001 C 
BRANCH  10  15
ATOM     15  C   UNL A   1      31.400  22.951  24.040  1.00  0.00     0.044 C 
BRANCH  15  16
ATOM     16  C   UNL A   1      31.885  22.137  25.278  1.00  0.00     0.145 C 
BRANCH  16  17
ATOM     17  C   UNL A   1      32.836  20.961  25.068  1.00  0.00    -0.019 A 
ATOM     18  C   UNL A   1      32.993  17.157  24.654  1.00  0.00     0.047 C 
ATOM     19  C   UNL A   1      33.388  18.595  24.803  1.00  0.00    -0.015 A 
ATOM     20  C   UNL A   1      32.433  19.620  24.970  1.00  0.00     0.012 A 
ATOM     21  C   UNL A   1      34.744  18.925  24.711  1.00  0.00     0.126 A 
ATOM     22  C   UNL A   1      35.168  20.237  24.828  1.00  0.00     0.040 A 
ATOM     23  F   UNL A   1      35.652  17.957  24.531  1.00  0.00    -0.207 F 
ATOM     24  C   UNL A   1      34.221  21.240  25.036  1.00  0.00     0.009 A 
ENDBRANCH  16  17
BRANCH  16  25
ATOM     25  O   UNL A   1      30.755  21.634  25.986  1.00  0.00    -0.388 OA
ATOM     26  H   UNL A   1      30.885  21.766  26.939  1.00  0.00     0.211 HD
ENDBRANCH  16  25
ENDBRANCH  15  16
ENDBRANCH  10  15
ENDBRANCH   9  10
ENDBRANCH   7   9
ENDBRANCH   6   7
ENDBRANCH   5   6
ENDBRANCH   4   5
ENDBRANCH   3   4
ENDBRANCH   2   3
ENDBRANCH   1   2
BRANCH   1  27
ATOM     27  O   UNL A   1      35.232  32.790  27.796  1.00  0.00    -0.377 OA
BRANCH  27  28
ATOM     28  C   UNL A   1      34.401  33.568  28.638  1.00  0.00     0.188 C 
BRANCH  28  29
ATOM     29  C   UNL A   1      35.012  34.266  29.867  1.00  0.00     0.188 C 
BRANCH  29  30
ATOM     30  O   UNL A   1      34.467  33.860  31.120  1.00  0.00    -0.376 OA
BRANCH  30  31
ATOM     31  C   UNL A   1      34.720  32.529  31.568  1.00  0.00     0.202 C 
BRANCH  31  32
ATOM     32  C   UNL A   1      36.211  32.221  31.736  1.00  0.00     0.261 C 
BRANCH  32  33
ATOM     33  O   UNL A   1      36.859  31.653  30.597  1.00  0.00    -0.460 OA
BRANCH  33  34
ATOM     34  C   UNL A   1      36.896  30.312  30.607  1.00  0.00     0.338 C 
ATOM     35  O   UNL A   1      36.334  29.550  31.367  1.00  0.00    -0.246 OA
BRANCH  34  36
ATOM     36  C   UNL A   1      37.759  29.812  29.529  1.00  0.00     0.060 A 
ATOM     37  C   UNL A   1      37.955  28.427  29.594  1.00  0.00     0.016 A 
ATOM     38  C   UNL A   1      38.726  30.699  29.067  1.00  0.00     0.016 A 
ATOM     39  C   UNL A   1      39.250  27.990  29.657  1.00  0.00     0.010 A 
ATOM     40  C   UNL A   1      40.018  30.266  29.132  1.00  0.00     0.010 A 
ATOM     41  C   UNL A   1      40.251  28.956  29.551  1.00  0.00    -0.014 A 
BRANCH  41  42
ATOM     42  C   UNL A   1      41.613  28.636  29.860  1.00  0.00     0.031 A 
ATOM     43  C   UNL A   1      42.174  27.519  29.098  1.00  0.00     0.074 A 
ATOM     44  C   UNL A   1      42.257  29.309  30.837  1.00  0.00     0.049 A 
ATOM     45  N   UNL A   1      42.916  26.599  29.595  1.00  0.00    -0.248 NA
ATOM     46  C   UNL A   1      41.787  27.266  27.707  1.00  0.00     0.031 C 
ATOM     47  C   UNL A   1      43.675  29.225  31.144  1.00  0.00     0.029 A 
ATOM     48  N   UNL A   1      41.741  30.097  31.870  1.00  0.00    -0.354 N 
ATOM     49  C   UNL A   1      43.429  25.913  28.519  1.00  0.00     0.074 A 
ATOM     50  C   UNL A   1      42.552  26.212  27.412  1.00  0.00     0.031 C 
ATOM     51  C   UNL A   1      43.867  29.651  32.405  1.00  0.00     0.029 A 
ATOM     52  C   UNL A   1      42.553  29.869  32.990  1.00  0.00     0.049 A 
ATOM     53  H   UNL A   1      40.960  30.695  31.821  1.00  0.00     0.167 HD
ATOM     54  C   UNL A   1      44.681  25.387  28.610  1.00  0.00     0.034 A 
ATOM     55  C   UNL A   1      42.132  29.330  34.171  1.00  0.00     0.034 A 
ATOM     56  C   UNL A   1      45.259  25.700  29.908  1.00  0.00     0.049 A 
ATOM     57  C   UNL A   1      42.903  28.075  34.515  1.00  0.00     0.074 A 
ATOM     58  C   UNL A   1      46.087  26.738  30.306  1.00  0.00     0.029 A 
ATOM     59  N   UNL A   1      44.724  25.153  31.063  1.00  0.00    -0.354 N 
ATOM     60  N   UNL A   1      43.404  27.278  33.610  1.00  0.00    -0.248 NA
ATOM     61  C   UNL A   1      43.178  27.624  35.875  1.00  0.00     0.031 C 
ATOM     62  C   UNL A   1      46.044  26.818  31.715  1.00  0.00     0.029 A 
ATOM     63  C   UNL A   1      45.195  25.827  32.170  1.00  0.00     0.049 A 
ATOM     64  H   UNL A   1      44.097  24.395  31.089  1.00  0.00     0.167 HD
ATOM     65  C   UNL A   1      44.129  26.289  34.232  1.00  0.00     0.074 A 
ATOM     66  C   UNL A   1      43.929  26.532  35.646  1.00  0.00     0.031 C 
ATOM     67  C   UNL A   1      44.860  25.383  33.515  1.00  0.00     0.034 A 
BRANCH  54  68
ATOM     68  C   UNL A   1      45.492  24.967  27.408  1.00  0.00     0.023 A 
ATOM     69  C   UNL A   1      45.512  23.641  26.927  1.00  0.00     0.012 A 
ATOM     70  C   UNL A   1      46.256  25.907  26.683  1.00  0.00     0.148 A 
ATOM     71  C   UNL A   1      46.144  23.294  25.725  1.00  0.00     0.002 A 
ATOM     72  C   UNL A   1      46.908  25.555  25.504  1.00  0.00     0.091 A 
ATOM     73  F   UNL A   1      46.367  27.168  27.115  1.00  0.00    -0.205 F 
ATOM     74  C   UNL A   1      46.836  24.256  25.004  1.00  0.00     0.022 A 
BRANCH  72  75
ATOM     75  S   UNL A   1      47.849  26.812  24.637  1.00  0.00     0.127 S 
ATOM     76  O   UNL A   1      46.933  27.233  23.582  1.00  0.00    -0.237 OA
ATOM     77  O   UNL A   1      48.144  27.785  25.683  1.00  0.00    -0.237 OA
ATOM     78  O   UNL A   1      49.021  26.078  24.156  1.00  0.00    -0.744 OA
ENDBRANCH  72  75
ENDBRANCH  54  68
BRANCH  55  79
ATOM     79  C   UNL A   1      40.698  29.542  34.496  1.00  0.00     0.023 A 
ATOM     80  C   UNL A   1      39.694  29.183  33.579  1.00  0.00     0.012 A 
ATOM     81  C   UNL A   1      40.387  30.445  35.531  1.00  0.00     0.148 A 
ATOM     82  C   UNL A   1      38.433  29.784  33.649  1.00  0.00     0.002 A 
ATOM     83  C   UNL A   1      39.154  31.087  35.552  1.00  0.00     0.091 A 
ATOM     84  F   UNL A   1      41.337  30.749  36.430  1.00  0.00    -0.205 F 
ATOM     85  C   UNL A   1      38.169  30.754  34.618  1.00  0.00     0.022 A 
BRANCH  83  86
ATOM     86  S   UNL A   1      38.959  32.540  36.593  1.00  0.00     0.127 S 
ATOM     87  O   UNL A   1      38.953  31.982  37.941  1.00  0.00    -0.237 OA
ATOM     88  O   UNL A   1      40.114  33.354  36.222  1.00  0.00    -0.237 OA
ATOM     89  O   UNL A   1      37.679  33.110  36.168  1.00  0.00    -0.744 OA
ENDBRANCH  83  86
ENDBRANCH  55  79
BRANCH  67  90
ATOM     90  C   UNL A   1      45.484  24.082  33.981  1.00  0.00     0.023 A 
ATOM     91  C   UNL A   1      44.630  22.952  34.141  1.00  0.00     0.012 A 
ATOM     92  C   UNL A   1      46.815  23.899  34.373  1.00  0.00     0.148 A 
ATOM     93  C   UNL A   1      45.056  21.739  34.681  1.00  0.00     0.002 A 
ATOM     94  C   UNL A   1      47.266  22.650  34.807  1.00  0.00     0.091 A 
ATOM     95  F   UNL A   1      47.665  24.932  34.392  1.00  0.00    -0.205 F 
ATOM     96  C   UNL A   1      46.391  21.578  34.998  1.00  0.00     0.022 A 
BRANCH  94  97
ATOM     97  S   UNL A   1      49.031  22.403  35.011  1.00  0.00     0.127 S 
ATOM     98  O   UNL A   1      49.306  23.113  36.258  1.00  0.00    -0.237 OA
ATOM     99  O   UNL A   1      49.167  20.951  35.048  1.00  0.00    -0.237 OA
ATOM    100  O   UNL A   1      49.604  23.033  33.820  1.00  0.00    -0.744 OA
ENDBRANCH  94  97
ENDBRANCH  67  90
ENDBRANCH  41  42
ENDBRANCH  34  36
ENDBRANCH  33  34
ENDBRANCH  32  33
ENDBRANCH  31  32
ENDBRANCH  30  31
ENDBRANCH  29  30
ENDBRANCH  28  29
ENDBRANCH  27  28
ENDBRANCH   1  27
TORSDOF 28
ENDMDL
MODEL 3
REMARK VINA RESULT:      -9.3      5.669     10.732
REMARK SMILES Cc1cc([C@H](O)CC2(CC(=O)OCCOCCOCCOCCOC(=O)c3ccc(-c4c5nc(c(-c6cccc(S(=O)(=O)[O-])c6F)c6ccc([nH]6)c(-c6cccc(S(=O)(=O)[O-])c6F)c6nc(c(-c7cccc(S(=O)(=O)[O-])c7F)c7ccc4[nH]7)C=C6)C=C5)cc3)CCCC2)ccc1F
REMARK SMILES IDX 17 1 16 2 15 3 14 4 13 5 12 6 10 7 11 8 9 9 8 10 90 11 93 12
REMARK SMILES IDX 91 13 92 14 7 15 5 16 4 17 1 18 2 19 3 20 96 21 95 22 97 23
REMARK SMILES IDX 94 24 6 25 18 27 19 28 20 29 21 30 22 31 23 32 24 33 25 34
REMARK SMILES IDX 26 35 27 36 28 37 89 38 29 39 88 40 30 41 31 42 32 43 82 44
REMARK SMILES IDX 33 45 87 46 81 47 83 48 34 49 86 50 80 51 79 52 35 54 67 55
REMARK SMILES IDX 47 56 66 57 48 58 51 59 65 60 84 61 49 62 50 63 64 65 85 66
REMARK SMILES IDX 52 67 36 68 37 69 45 70 38 71 40 72 46 73 39 74 41 75 42 76
REMARK SMILES IDX 43 77 44 78 68 79 69 80 77 81 70 82 72 83 78 84 71 85 73 86
REMARK SMILES IDX 74 87 75 88 76 89 53 90 54 91 62 92 55 93 57 94 63 95 56 96
REMARK SMILES IDX 58 97 59 98 60 99 61 100
REMARK H PARENT 6 26 83 53 51 64
REMARK Flexibility Score: inf
ROOT
ATOM      1  C   UNL A   1      33.387  27.756  25.431  1.00  0.00     0.188 C 
ENDROOT
BRANCH   1   2
ATOM      2  C   UNL A   1      32.772  26.422  25.915  1.00  0.00     0.188 C 
BRANCH   2   3
ATOM      3  O   UNL A   1      31.601  25.866  25.313  1.00  0.00    -0.376 OA
BRANCH   3   4
ATOM      4  C   UNL A   1      30.982  26.567  24.252  1.00  0.00     0.202 C 
BRANCH   4   5
ATOM      5  C   UNL A   1      31.451  26.148  22.843  1.00  0.00     0.261 C 
BRANCH   5   6
ATOM      6  O   UNL A   1      32.132  24.873  22.766  1.00  0.00    -0.463 OA
BRANCH   6   7
ATOM      7  C   UNL A   1      33.436  24.923  22.430  1.00  0.00     0.306 C 
ATOM      8  O   UNL A   1      33.972  25.920  21.945  1.00  0.00    -0.252 OA
BRANCH   7   9
ATOM      9  C   UNL A   1      34.254  23.647  22.646  1.00  0.00     0.129 C 
BRANCH   9  10
ATOM     10  C   UNL A   1      34.305  22.667  23.886  1.00  0.00    -0.016 C 
ATOM     11  C   UNL A   1      34.297  23.595  25.141  1.00  0.00     0.008 C 
ATOM     12  C   UNL A   1      35.650  21.948  24.114  1.00  0.00     0.008 C 
ATOM     13  C   UNL A   1      35.740  24.066  25.314  1.00  0.00     0.001 C 
ATOM     14  C   UNL A   1      36.610  22.995  24.668  1.00  0.00     0.001 C 
BRANCH  10  15
ATOM     15  C   UNL A   1      33.019  21.728  23.934  1.00  0.00     0.044 C 
BRANCH  15  16
ATOM     16  C   UNL A   1      32.824  20.800  25.171  1.00  0.00     0.145 C 
BRANCH  16  17
ATOM     17  C   UNL A   1      33.048  19.298  25.016  1.00  0.00    -0.019 A 
ATOM     18  C   UNL A   1      34.471  16.616  22.682  1.00  0.00     0.047 C 
ATOM     19  C   UNL A   1      33.794  17.293  23.835  1.00  0.00    -0.015 A 
ATOM     20  C   UNL A   1      33.654  18.695  23.903  1.00  0.00     0.012 A 
ATOM     21  C   UNL A   1      33.346  16.503  24.899  1.00  0.00     0.126 A 
ATOM     22  C   UNL A   1      32.726  17.073  25.997  1.00  0.00     0.040 A 
ATOM     23  F   UNL A   1      33.496  15.173  24.849  1.00  0.00    -0.207 F 
ATOM     24  C   UNL A   1      32.552  18.456  26.037  1.00  0.00     0.009 A 
ENDBRANCH  16  17
BRANCH  16  25
ATOM     25  O   UNL A   1      31.507  20.971  25.688  1.00  0.00    -0.388 OA
ATOM     26  H   UNL A   1      30.995  21.538  25.088  1.00  0.00     0.211 HD
ENDBRANCH  16  25
ENDBRANCH  15  16
ENDBRANCH  10  15
ENDBRANCH   9  10
ENDBRANCH   7   9
ENDBRANCH   6   7
ENDBRANCH   5   6
ENDBRANCH   4   5
ENDBRANCH   3   4
ENDBRANCH   2   3
ENDBRANCH   1   2
BRANCH   1  27
ATOM     27  O   UNL A   1      33.259  28.845  26.325  1.00  0.00    -0.377 OA
BRANCH  27  28
ATOM     28  C   UNL A   1      32.282  29.829  26.035  1.00  0.00     0.188 C 
BRANCH  28  29
ATOM     29  C   UNL A   1      32.310  31.168  26.794  1.00  0.00     0.188 C 
BRANCH  29  30
ATOM     30  O   UNL A   1      33.605  31.600  27.203  1.00  0.00    -0.376 OA
BRANCH  30  31
ATOM     31  C   UNL A   1      34.339  30.774  28.106  1.00  0.00     0.202 C 
BRANCH  31  32
ATOM     32  C   UNL A   1      35.829  31.125  28.171  1.00  0.00     0.261 C 
BRANCH  32  33
ATOM     33  O   UNL A   1      36.316  31.522  29.453  1.00  0.00    -0.460 OA
BRANCH  33  34
ATOM     34  C   UNL A   1      36.739  32.794  29.503  1.00  0.00     0.338 C 
ATOM     35  O   UNL A   1      36.086  33.795  29.720  1.00  0.00    -0.246 OA
BRANCH  34  36
ATOM     36  C   UNL A   1      38.181  32.870  29.240  1.00  0.00     0.060 A 
ATOM     37  C   UNL A   1      38.887  31.791  29.787  1.00  0.00     0.016 A 
ATOM     38  C   UNL A   1      38.711  34.152  29.130  1.00  0.00     0.016 A 
ATOM     39  C   UNL A   1      39.907  32.095  30.646  1.00  0.00     0.010 A 
ATOM     40  C   UNL A   1      39.726  34.457  29.988  1.00  0.00     0.010 A 
ATOM     41  C   UNL A   1      40.211  33.445  30.817  1.00  0.00    -0.014 A 
BRANCH  41  42
ATOM     42  C   UNL A   1      41.078  33.873  31.876  1.00  0.00     0.031 A 
ATOM     43  C   UNL A   1      40.395  34.280  33.105  1.00  0.00     0.074 A 
ATOM     44  C   UNL A   1      42.410  33.934  31.672  1.00  0.00     0.049 A 
ATOM     45  N   UNL A   1      40.714  35.304  33.809  1.00  0.00    -0.248 NA
ATOM     46  C   UNL A   1      39.159  33.631  33.551  1.00  0.00     0.031 C 
ATOM     47  C   UNL A   1      43.422  34.173  32.687  1.00  0.00     0.029 A 
ATOM     48  N   UNL A   1      43.132  33.952  30.475  1.00  0.00    -0.354 N 
ATOM     49  C   UNL A   1      40.013  35.180  34.985  1.00  0.00     0.074 A 
ATOM     50  C   UNL A   1      38.926  34.274  34.697  1.00  0.00     0.031 C 
ATOM     51  C   UNL A   1      44.542  34.609  32.083  1.00  0.00     0.029 A 
ATOM     52  C   UNL A   1      44.222  34.810  30.678  1.00  0.00     0.049 A 
ATOM     53  H   UNL A   1      42.917  33.459  29.650  1.00  0.00     0.167 HD
ATOM     54  C   UNL A   1      40.574  35.637  36.138  1.00  0.00     0.034 A 
ATOM     55  C   UNL A   1      44.453  35.966  29.989  1.00  0.00     0.034 A 
ATOM     56  C   UNL A   1      41.896  36.180  35.866  1.00  0.00     0.049 A 
ATOM     57  C   UNL A   1      44.531  37.159  30.915  1.00  0.00     0.074 A 
ATOM     58  C   UNL A   1      43.150  35.595  35.944  1.00  0.00     0.029 A 
ATOM     59  N   UNL A   1      42.038  37.327  35.101  1.00  0.00    -0.354 N 
ATOM     60  N   UNL A   1      43.876  37.227  32.042  1.00  0.00    -0.248 NA
ATOM     61  C   UNL A   1      45.339  38.347  30.661  1.00  0.00     0.031 C 
ATOM     62  C   UNL A   1      44.054  36.398  35.214  1.00  0.00     0.029 A 
ATOM     63  C   UNL A   1      43.349  37.470  34.698  1.00  0.00     0.049 A 
ATOM     64  H   UNL A   1      41.309  37.948  34.877  1.00  0.00     0.167 HD
ATOM     65  C   UNL A   1      44.230  38.382  32.700  1.00  0.00     0.074 A 
ATOM     66  C   UNL A   1      45.121  39.060  31.781  1.00  0.00     0.031 C 
ATOM     67  C   UNL A   1      43.782  38.649  33.963  1.00  0.00     0.034 A 
BRANCH  54  68
ATOM     68  C   UNL A   1      40.101  35.222  37.510  1.00  0.00     0.023 A 
ATOM     69  C   UNL A   1      39.878  33.875  37.865  1.00  0.00     0.012 A 
ATOM     70  C   UNL A   1      39.885  36.180  38.525  1.00  0.00     0.148 A 
ATOM     71  C   UNL A   1      39.588  33.490  39.181  1.00  0.00     0.002 A 
ATOM     72  C   UNL A   1      39.567  35.798  39.825  1.00  0.00     0.091 A 
ATOM     73  F   UNL A   1      39.985  37.487  38.255  1.00  0.00    -0.205 F 
ATOM     74  C   UNL A   1      39.442  34.454  40.169  1.00  0.00     0.022 A 
BRANCH  72  75
ATOM     75  S   UNL A   1      39.319  37.078  41.058  1.00  0.00     0.127 S 
ATOM     76  O   UNL A   1      38.822  36.328  42.207  1.00  0.00    -0.237 OA
ATOM     77  O   UNL A   1      40.643  37.678  41.184  1.00  0.00    -0.237 OA
ATOM     78  O   UNL A   1      38.323  37.952  40.434  1.00  0.00    -0.744 OA
ENDBRANCH  72  75
ENDBRANCH  54  68
BRANCH  55  79
ATOM     79  C   UNL A   1      43.892  36.013  28.613  1.00  0.00     0.023 A 
ATOM     80  C   UNL A   1      42.560  36.407  28.395  1.00  0.00     0.012 A 
ATOM     81  C   UNL A   1      44.568  35.297  27.605  1.00  0.00     0.148 A 
ATOM     82  C   UNL A   1      41.896  36.016  27.228  1.00  0.00     0.002 A 
ATOM     83  C   UNL A   1      43.880  34.857  26.480  1.00  0.00     0.091 A 
ATOM     84  F   UNL A   1      45.853  34.963  27.802  1.00  0.00    -0.205 F 
ATOM     85  C   UNL A   1      42.546  35.221  26.282  1.00  0.00     0.022 A 
BRANCH  83  86
ATOM     86  S   UNL A   1      44.633  33.585  25.457  1.00  0.00     0.127 S 
ATOM     87  O   UNL A   1      44.856  32.493  26.399  1.00  0.00    -0.237 OA
ATOM     88  O   UNL A   1      43.622  33.368  24.425  1.00  0.00    -0.237 OA
ATOM     89  O   UNL A   1      45.857  34.212  24.957  1.00  0.00    -0.744 OA
ENDBRANCH  83  86
ENDBRANCH  55  79
BRANCH  67  90
ATOM     90  C   UNL A   1      43.826  39.955  34.733  1.00  0.00     0.023 A 
ATOM     91  C   UNL A   1      43.034  41.038  34.252  1.00  0.00     0.012 A 
ATOM     92  C   UNL A   1      44.653  40.242  35.824  1.00  0.00     0.148 A 
ATOM     93  C   UNL A   1      43.083  42.323  34.793  1.00  0.00     0.002 A 
ATOM     94  C   UNL A   1      44.617  41.498  36.436  1.00  0.00     0.091 A 
ATOM     95  F   UNL A   1      45.534  39.337  36.265  1.00  0.00    -0.205 F 
ATOM     96  C   UNL A   1      43.865  42.552  35.908  1.00  0.00     0.022 A 
BRANCH  94  97
ATOM     97  S   UNL A   1      45.472  41.712  37.998  1.00  0.00     0.127 S 
ATOM     98  O   UNL A   1      44.882  40.663  38.825  1.00  0.00    -0.237 OA
ATOM     99  O   UNL A   1      46.876  41.543  37.640  1.00  0.00    -0.237 OA
ATOM    100  O   UNL A   1      45.111  43.072  38.401  1.00  0.00    -0.744 OA
ENDBRANCH  94  97
ENDBRANCH  67  90
ENDBRANCH  41  42
ENDBRANCH  34  36
ENDBRANCH  33  34
ENDBRANCH  32  33
ENDBRANCH  31  32
ENDBRANCH  30  31
ENDBRANCH  29  30
ENDBRANCH  28  29
ENDBRANCH  27  28
ENDBRANCH   1  27
TORSDOF 28
ENDMDL
