MODEL 1
REMARK VINA RESULT:      -5.7      0.000      0.000
REMARK SMILES COc1cc(/C=N/NC(=O)c2cc(Cl)ccc2O)ccc1OCC(=O)OCCOCCOCCOCCOC(=O)c1ccc(-c2c3nc(c(-c4cccc(S(=O)(=O)[O-])c4F)c4ccc([nH]4)c(-c4cccc(S(=O)(=O)[O-])c4F)c4nc(c(-c5cccc(S(=O)(=O)[O-])c5F)c5ccc2[nH]5)C=C4)C=C3)cc1
REMARK SMILES IDX 30 1 29 2 28 3 27 4 26 5 24 6 25 7 23 8 22 9 21 10 3 11 4 12
REMARK SMILES IDX 5 13 20 14 19 15 2 16 1 17 6 18 7 19 8 20 9 21 10 23 11 24
REMARK SMILES IDX 12 25 17 26 13 27 16 28 14 29 15 30 18 31 31 33 32 34 33 35
REMARK SMILES IDX 34 36 35 37 36 38 37 39 38 40 39 41 40 42 41 43 42 44 103 45
REMARK SMILES IDX 43 46 102 47 44 48 45 49 46 50 96 51 47 52 101 53 95 54
REMARK SMILES IDX 97 55 48 56 100 57 94 58 93 59 49 61 81 62 61 63 80 64 62 65
REMARK SMILES IDX 65 66 79 67 98 68 63 69 64 70 78 72 99 73 66 74 50 75 51 76
REMARK SMILES IDX 59 77 52 78 54 79 60 80 53 81 55 82 56 83 57 84 58 85 82 86
REMARK SMILES IDX 83 87 91 88 84 89 86 90 92 91 85 92 87 93 88 94 89 95 90 96
REMARK SMILES IDX 67 97 68 98 76 99 69 100 71 101 77 102 70 103 72 104 73 105
REMARK SMILES IDX 74 106 75 107
REMARK H PARENT 8 22 18 32 97 60 65 71
REMARK Flexibility Score: inf
ROOT
ATOM      1  C   UNL A   1      39.136  24.714  27.472  1.00  0.00     0.188 C 
ENDROOT
BRANCH   1   2
ATOM      2  O   UNL A   1      39.965  25.784  27.911  1.00  0.00    -0.376 OA
BRANCH   2   3
ATOM      3  C   UNL A   1      39.633  27.107  27.533  1.00  0.00     0.202 C 
BRANCH   3   4
ATOM      4  C   UNL A   1      39.113  28.063  28.618  1.00  0.00     0.261 C 
BRANCH   4   5
ATOM      5  O   UNL A   1      38.473  29.266  28.148  1.00  0.00    -0.461 OA
BRANCH   5   6
ATOM      6  C   UNL A   1      37.369  29.674  28.827  1.00  0.00     0.344 C 
ATOM      7  O   UNL A   1      36.215  29.395  28.513  1.00  0.00    -0.248 OA
BRANCH   6   8
ATOM      8  C   UNL A   1      37.709  30.610  30.007  1.00  0.00     0.352 C 
BRANCH   8   9
ATOM      9  O   UNL A   1      38.913  31.290  30.245  1.00  0.00    -0.478 OA
BRANCH   9  10
ATOM     10  C   UNL A   1      39.814  31.160  31.248  1.00  0.00     0.162 A 
ATOM     11  C   UNL A   1      40.667  32.039  31.928  1.00  0.00     0.161 A 
ATOM     12  C   UNL A   1      41.447  31.550  33.015  1.00  0.00     0.060 A 
ATOM     13  C   UNL A   1      41.425  30.201  33.384  1.00  0.00    -0.002 A 
ATOM     14  C   UNL A   1      39.888  29.790  31.591  1.00  0.00     0.051 A 
ATOM     15  C   UNL A   1      40.677  29.307  32.635  1.00  0.00     0.014 A 
BRANCH  11  16
ATOM     16  O   UNL A   1      41.055  33.297  31.554  1.00  0.00    -0.493 OA
ATOM     17  C   UNL A   1      41.755  33.486  30.339  1.00  0.00     0.278 C 
ENDBRANCH  11  16
BRANCH  13  18
ATOM     18  C   UNL A   1      42.120  29.666  34.578  1.00  0.00     0.141 C 
ATOM     19  N   UNL A   1      43.114  28.836  34.531  1.00  0.00    -0.180 NA
BRANCH  19  20
ATOM     20  N   UNL A   1      43.741  28.452  35.693  1.00  0.00    -0.243 N 
ATOM     21  C   UNL A   1      43.577  27.373  36.549  1.00  0.00     0.275 C 
ATOM     22  H   UNL A   1      44.453  29.071  35.975  1.00  0.00     0.194 HD
ATOM     23  O   UNL A   1      44.140  27.374  37.645  1.00  0.00    -0.267 OA
BRANCH  21  24
ATOM     24  C   UNL A   1      42.768  26.196  36.176  1.00  0.00     0.084 A 
ATOM     25  C   UNL A   1      43.333  25.289  35.266  1.00  0.00     0.038 A 
ATOM     26  C   UNL A   1      41.487  25.957  36.685  1.00  0.00     0.128 A 
ATOM     27  C   UNL A   1      42.649  24.119  34.943  1.00  0.00     0.042 A 
ATOM     28  C   UNL A   1      40.814  24.780  36.366  1.00  0.00     0.048 A 
ATOM     29  Cl  UNL A   1      43.356  22.988  33.858  1.00  0.00    -0.084 Cl
ATOM     30  C   UNL A   1      41.404  23.849  35.507  1.00  0.00     0.024 A 
BRANCH  26  31
ATOM     31  O   UNL A   1      40.836  26.816  37.528  1.00  0.00    -0.507 OA
ATOM     32  H   UNL A   1      41.310  27.254  38.207  1.00  0.00     0.293 HD
ENDBRANCH  26  31
ENDBRANCH  21  24
ENDBRANCH  19  20
ENDBRANCH  13  18
ENDBRANCH   9  10
ENDBRANCH   8   9
ENDBRANCH   6   8
ENDBRANCH   5   6
ENDBRANCH   4   5
ENDBRANCH   3   4
ENDBRANCH   2   3
ENDBRANCH   1   2
BRANCH   1  33
ATOM     33  C   UNL A   1      39.710  23.428  26.853  1.00  0.00     0.188 C 
BRANCH  33  34
ATOM     34  O   UNL A   1      41.079  23.520  26.508  1.00  0.00    -0.377 OA
BRANCH  34  35
ATOM     35  C   UNL A   1      41.628  22.319  25.997  1.00  0.00     0.188 C 
BRANCH  35  36
ATOM     36  C   UNL A   1      43.161  22.275  25.996  1.00  0.00     0.188 C 
BRANCH  36  37
ATOM     37  O   UNL A   1      43.733  23.346  26.751  1.00  0.00    -0.376 OA
BRANCH  37  38
ATOM     38  C   UNL A   1      44.636  24.202  26.062  1.00  0.00     0.202 C 
BRANCH  38  39
ATOM     39  C   UNL A   1      43.933  25.379  25.384  1.00  0.00     0.261 C 
BRANCH  39  40
ATOM     40  O   UNL A   1      43.075  26.164  26.214  1.00  0.00    -0.460 OA
BRANCH  40  41
ATOM     41  C   UNL A   1      43.306  27.489  26.303  1.00  0.00     0.338 C 
ATOM     42  O   UNL A   1      42.946  28.356  25.529  1.00  0.00    -0.246 OA
BRANCH  41  43
ATOM     43  C   UNL A   1      43.836  27.702  27.665  1.00  0.00     0.060 A 
ATOM     44  C   UNL A   1      42.931  27.709  28.732  1.00  0.00     0.016 A 
ATOM     45  C   UNL A   1      45.217  27.722  27.895  1.00  0.00     0.016 A 
ATOM     46  C   UNL A   1      43.409  27.718  30.041  1.00  0.00     0.010 A 
ATOM     47  C   UNL A   1      45.693  27.757  29.203  1.00  0.00     0.010 A 
ATOM     48  C   UNL A   1      44.789  27.769  30.276  1.00  0.00    -0.014 A 
BRANCH  48  49
ATOM     49  C   UNL A   1      45.288  28.076  31.631  1.00  0.00     0.031 A 
ATOM     50  C   UNL A   1      45.705  26.913  32.484  1.00  0.00     0.074 A 
ATOM     51  C   UNL A   1      45.320  29.333  32.104  1.00  0.00     0.049 A 
ATOM     52  N   UNL A   1      46.154  26.903  33.708  1.00  0.00    -0.248 NA
ATOM     53  C   UNL A   1      45.594  25.577  31.868  1.00  0.00     0.031 C 
ATOM     54  C   UNL A   1      44.917  30.529  31.366  1.00  0.00     0.029 A 
ATOM     55  N   UNL A   1      45.682  29.804  33.341  1.00  0.00    -0.354 N 
ATOM     56  C   UNL A   1      46.361  25.565  34.016  1.00  0.00     0.074 A 
ATOM     57  C   UNL A   1      45.982  24.790  32.857  1.00  0.00     0.031 C 
ATOM     58  C   UNL A   1      45.013  31.594  32.181  1.00  0.00     0.029 A 
ATOM     59  C   UNL A   1      45.467  31.153  33.499  1.00  0.00     0.049 A 
ATOM     60  H   UNL A   1      46.059  29.232  34.047  1.00  0.00     0.167 HD
ATOM     61  C   UNL A   1      46.837  25.030  35.162  1.00  0.00     0.034 A 
ATOM     62  C   UNL A   1      45.599  31.929  34.595  1.00  0.00     0.034 A 
ATOM     63  C   UNL A   1      47.198  25.806  36.312  1.00  0.00     0.049 A 
ATOM     64  C   UNL A   1      46.099  31.303  35.874  1.00  0.00     0.074 A 
ATOM     65  C   UNL A   1      47.748  25.374  37.502  1.00  0.00     0.029 A 
ATOM     66  N   UNL A   1      47.010  27.175  36.425  1.00  0.00    -0.354 N 
ATOM     67  N   UNL A   1      46.456  30.061  36.102  1.00  0.00    -0.248 NA
ATOM     68  C   UNL A   1      46.241  32.188  37.040  1.00  0.00     0.031 C 
ATOM     69  C   UNL A   1      47.861  26.479  38.352  1.00  0.00     0.029 A 
ATOM     70  C   UNL A   1      47.405  27.603  37.678  1.00  0.00     0.049 A 
ATOM     71  H   UNL A   1      46.649  27.756  35.716  1.00  0.00     0.167 HD
ATOM     72  C   UNL A   1      46.880  30.018  37.425  1.00  0.00     0.074 A 
ATOM     73  C   UNL A   1      46.762  31.366  37.942  1.00  0.00     0.031 C 
ATOM     74  C   UNL A   1      47.313  28.959  38.155  1.00  0.00     0.034 A 
BRANCH  61  75
ATOM     75  C   UNL A   1      46.994  23.536  35.210  1.00  0.00     0.023 A 
ATOM     76  C   UNL A   1      45.999  22.750  35.825  1.00  0.00     0.012 A 
ATOM     77  C   UNL A   1      48.118  22.912  34.636  1.00  0.00     0.148 A 
ATOM     78  C   UNL A   1      46.135  21.363  35.895  1.00  0.00     0.002 A 
ATOM     79  C   UNL A   1      48.225  21.528  34.674  1.00  0.00     0.091 A 
ATOM     80  F   UNL A   1      49.068  23.684  34.089  1.00  0.00    -0.205 F 
ATOM     81  C   UNL A   1      47.242  20.754  35.311  1.00  0.00     0.022 A 
BRANCH  79  82
ATOM     82  S   UNL A   1      49.580  20.645  33.896  1.00  0.00     0.127 S 
ATOM     83  O   UNL A   1      48.868  19.791  32.945  1.00  0.00    -0.237 OA
ATOM     84  O   UNL A   1      50.345  21.733  33.285  1.00  0.00    -0.237 OA
ATOM     85  O   UNL A   1      50.273  19.945  34.968  1.00  0.00    -0.744 OA
ENDBRANCH  79  82
ENDBRANCH  61  75
BRANCH  62  86
ATOM     86  C   UNL A   1      45.267  33.381  34.526  1.00  0.00     0.023 A 
ATOM     87  C   UNL A   1      46.217  34.293  34.027  1.00  0.00     0.012 A 
ATOM     88  C   UNL A   1      44.004  33.859  34.930  1.00  0.00     0.148 A 
ATOM     89  C   UNL A   1      45.923  35.656  33.953  1.00  0.00     0.002 A 
ATOM     90  C   UNL A   1      43.700  35.210  34.803  1.00  0.00     0.091 A 
ATOM     91  F   UNL A   1      43.120  32.979  35.423  1.00  0.00    -0.205 F 
ATOM     92  C   UNL A   1      44.663  36.113  34.330  1.00  0.00     0.022 A 
BRANCH  90  93
ATOM     93  S   UNL A   1      42.061  35.865  35.143  1.00  0.00     0.127 S 
ATOM     94  O   UNL A   1      42.018  35.822  36.602  1.00  0.00    -0.237 OA
ATOM     95  O   UNL A   1      42.149  37.209  34.568  1.00  0.00    -0.237 OA
ATOM     96  O   UNL A   1      41.131  34.980  34.455  1.00  0.00    -0.744 OA
ENDBRANCH  90  93
ENDBRANCH  62  86
BRANCH  74  97
ATOM     97  C   UNL A   1      47.695  29.204  39.591  1.00  0.00     0.023 A 
ATOM     98  C   UNL A   1      49.008  29.607  39.901  1.00  0.00     0.012 A 
ATOM     99  C   UNL A   1      46.727  29.145  40.614  1.00  0.00     0.148 A 
ATOM    100  C   UNL A   1      49.359  29.928  41.212  1.00  0.00     0.002 A 
ATOM    101  C   UNL A   1      47.071  29.515  41.908  1.00  0.00     0.091 A 
ATOM    102  F   UNL A   1      45.486  28.747  40.297  1.00  0.00    -0.205 F 
ATOM    103  C   UNL A   1      48.388  29.895  42.211  1.00  0.00     0.022 A 
BRANCH 101 104
ATOM    104  S   UNL A   1      45.868  29.599  43.240  1.00  0.00     0.127 S 
ATOM    105  O   UNL A   1      46.674  30.134  44.336  1.00  0.00    -0.237 OA
ATOM    106  O   UNL A   1      44.875  30.529  42.701  1.00  0.00    -0.237 OA
ATOM    107  O   UNL A   1      45.382  28.239  43.431  1.00  0.00    -0.744 OA
ENDBRANCH 101 104
ENDBRANCH  74  97
ENDBRANCH  48  49
ENDBRANCH  41  43
ENDBRANCH  40  41
ENDBRANCH  39  40
ENDBRANCH  38  39
ENDBRANCH  37  38
ENDBRANCH  36  37
ENDBRANCH  35  36
ENDBRANCH  34  35
ENDBRANCH  33  34
ENDBRANCH   1  33
TORSDOF 30
ENDMDL
MODEL 2
REMARK VINA RESULT:      -5.0      4.212     11.574
REMARK SMILES COc1cc(/C=N/NC(=O)c2cc(Cl)ccc2O)ccc1OCC(=O)OCCOCCOCCOCCOC(=O)c1ccc(-c2c3nc(c(-c4cccc(S(=O)(=O)[O-])c4F)c4ccc([nH]4)c(-c4cccc(S(=O)(=O)[O-])c4F)c4nc(c(-c5cccc(S(=O)(=O)[O-])c5F)c5ccc2[nH]5)C=C4)C=C3)cc1
REMARK SMILES IDX 30 1 29 2 28 3 27 4 26 5 24 6 25 7 23 8 22 9 21 10 3 11 4 12
REMARK SMILES IDX 5 13 20 14 19 15 2 16 1 17 6 18 7 19 8 20 9 21 10 23 11 24
REMARK SMILES IDX 12 25 17 26 13 27 16 28 14 29 15 30 18 31 31 33 32 34 33 35
REMARK SMILES IDX 34 36 35 37 36 38 37 39 38 40 39 41 40 42 41 43 42 44 103 45
REMARK SMILES IDX 43 46 102 47 44 48 45 49 46 50 96 51 47 52 101 53 95 54
REMARK SMILES IDX 97 55 48 56 100 57 94 58 93 59 49 61 81 62 61 63 80 64 62 65
REMARK SMILES IDX 65 66 79 67 98 68 63 69 64 70 78 72 99 73 66 74 50 75 51 76
REMARK SMILES IDX 59 77 52 78 54 79 60 80 53 81 55 82 56 83 57 84 58 85 82 86
REMARK SMILES IDX 83 87 91 88 84 89 86 90 92 91 85 92 87 93 88 94 89 95 90 96
REMARK SMILES IDX 67 97 68 98 76 99 69 100 71 101 77 102 70 103 72 104 73 105
REMARK SMILES IDX 74 106 75 107
REMARK H PARENT 8 22 18 32 97 60 65 71
REMARK Flexibility Score: inf
ROOT
ATOM      1  C   UNL A   1      38.845  29.530  32.315  1.00  0.00     0.188 C 
ENDROOT
BRANCH   1   2
ATOM      2  O   UNL A   1      39.320  29.912  31.029  1.00  0.00    -0.376 OA
BRANCH   2   3
ATOM      3  C   UNL A   1      39.040  29.077  29.920  1.00  0.00     0.202 C 
BRANCH   3   4
ATOM      4  C   UNL A   1      40.016  29.094  28.733  1.00  0.00     0.261 C 
BRANCH   4   5
ATOM      5  O   UNL A   1      39.802  28.088  27.725  1.00  0.00    -0.461 OA
BRANCH   5   6
ATOM      6  C   UNL A   1      40.868  27.775  26.941  1.00  0.00     0.344 C 
ATOM      7  O   UNL A   1      40.791  27.223  25.847  1.00  0.00    -0.248 OA
BRANCH   6   8
ATOM      8  C   UNL A   1      42.217  28.112  27.612  1.00  0.00     0.352 C 
BRANCH   8   9
ATOM      9  O   UNL A   1      43.371  27.316  27.670  1.00  0.00    -0.478 OA
BRANCH   9  10
ATOM     10  C   UNL A   1      43.863  26.415  26.787  1.00  0.00     0.162 A 
ATOM     11  C   UNL A   1      44.678  26.492  25.648  1.00  0.00     0.161 A 
ATOM     12  C   UNL A   1      45.064  25.290  24.988  1.00  0.00     0.060 A 
ATOM     13  C   UNL A   1      44.605  24.040  25.412  1.00  0.00    -0.002 A 
ATOM     14  C   UNL A   1      43.347  25.143  27.129  1.00  0.00     0.051 A 
ATOM     15  C   UNL A   1      43.701  23.971  26.461  1.00  0.00     0.014 A 
BRANCH  11  16
ATOM     16  O   UNL A   1      44.990  27.598  24.908  1.00  0.00    -0.493 OA
ATOM     17  C   UNL A   1      46.344  27.894  24.620  1.00  0.00     0.278 C 
ENDBRANCH  11  16
BRANCH  13  18
ATOM     18  C   UNL A   1      45.071  22.756  24.839  1.00  0.00     0.141 C 
ATOM     19  N   UNL A   1      44.428  22.085  23.937  1.00  0.00    -0.180 NA
BRANCH  19  20
ATOM     20  N   UNL A   1      44.979  20.939  23.413  1.00  0.00    -0.243 N 
ATOM     21  C   UNL A   1      45.072  19.633  23.873  1.00  0.00     0.275 C 
ATOM     22  H   UNL A   1      45.392  21.072  22.530  1.00  0.00     0.194 HD
ATOM     23  O   UNL A   1      45.805  18.833  23.291  1.00  0.00    -0.267 OA
BRANCH  21  24
ATOM     24  C   UNL A   1      44.288  19.155  25.030  1.00  0.00     0.084 A 
ATOM     25  C   UNL A   1      43.070  19.799  25.292  1.00  0.00     0.038 A 
ATOM     26  C   UNL A   1      44.708  18.105  25.855  1.00  0.00     0.128 A 
ATOM     27  C   UNL A   1      42.251  19.334  26.319  1.00  0.00     0.042 A 
ATOM     28  C   UNL A   1      43.879  17.640  26.873  1.00  0.00     0.048 A 
ATOM     29  Cl  UNL A   1      40.739  20.098  26.618  1.00  0.00    -0.084 Cl
ATOM     30  C   UNL A   1      42.638  18.243  27.094  1.00  0.00     0.024 A 
BRANCH  26  31
ATOM     31  O   UNL A   1      45.907  17.463  25.710  1.00  0.00    -0.507 OA
ATOM     32  H   UNL A   1      46.019  16.598  26.053  1.00  0.00     0.293 HD
ENDBRANCH  26  31
ENDBRANCH  21  24
ENDBRANCH  19  20
ENDBRANCH  13  18
ENDBRANCH   9  10
ENDBRANCH   8   9
ENDBRANCH   6   8
ENDBRANCH   5   6
ENDBRANCH   4   5
ENDBRANCH   3   4
ENDBRANCH   2   3
ENDBRANCH   1   2
BRANCH   1  33
ATOM     33  C   UNL A   1      37.786  30.347  33.076  1.00  0.00     0.188 C 
BRANCH  33  34
ATOM     34  O   UNL A   1      37.537  31.623  32.519  1.00  0.00    -0.377 OA
BRANCH  34  35
ATOM     35  C   UNL A   1      36.381  32.261  33.032  1.00  0.00     0.188 C 
BRANCH  35  36
ATOM     36  C   UNL A   1      36.449  33.793  33.022  1.00  0.00     0.188 C 
BRANCH  36  37
ATOM     37  O   UNL A   1      36.985  34.318  34.239  1.00  0.00    -0.376 OA
BRANCH  37  38
ATOM     38  C   UNL A   1      36.317  33.956  35.441  1.00  0.00     0.202 C 
BRANCH  38  39
ATOM     39  C   UNL A   1      37.218  33.194  36.413  1.00  0.00     0.261 C 
BRANCH  39  40
ATOM     40  O   UNL A   1      38.593  33.579  36.430  1.00  0.00    -0.460 OA
BRANCH  40  41
ATOM     41  C   UNL A   1      39.411  32.995  37.330  1.00  0.00     0.338 C 
ATOM     42  O   UNL A   1      39.191  32.796  38.509  1.00  0.00    -0.246 OA
BRANCH  41  43
ATOM     43  C   UNL A   1      40.501  32.396  36.533  1.00  0.00     0.060 A 
ATOM     44  C   UNL A   1      41.779  32.338  37.102  1.00  0.00     0.016 A 
ATOM     45  C   UNL A   1      40.225  31.753  35.321  1.00  0.00     0.016 A 
ATOM     46  C   UNL A   1      42.785  31.616  36.462  1.00  0.00     0.010 A 
ATOM     47  C   UNL A   1      41.238  31.053  34.671  1.00  0.00     0.010 A 
ATOM     48  C   UNL A   1      42.522  30.996  35.234  1.00  0.00    -0.014 A 
BRANCH  48  49
ATOM     49  C   UNL A   1      43.643  30.490  34.417  1.00  0.00     0.031 A 
ATOM     50  C   UNL A   1      44.250  31.442  33.428  1.00  0.00     0.074 A 
ATOM     51  C   UNL A   1      44.071  29.220  34.514  1.00  0.00     0.049 A 
ATOM     52  N   UNL A   1      45.221  31.247  32.581  1.00  0.00    -0.248 NA
ATOM     53  C   UNL A   1      43.675  32.800  33.390  1.00  0.00     0.031 C 
ATOM     54  C   UNL A   1      43.535  28.210  35.426  1.00  0.00     0.029 A 
ATOM     55  N   UNL A   1      45.039  28.556  33.805  1.00  0.00    -0.354 N 
ATOM     56  C   UNL A   1      45.362  32.447  31.896  1.00  0.00     0.074 A 
ATOM     57  C   UNL A   1      44.373  33.362  32.418  1.00  0.00     0.031 C 
ATOM     58  C   UNL A   1      44.155  27.040  35.190  1.00  0.00     0.029 A 
ATOM     59  C   UNL A   1      45.116  27.216  34.101  1.00  0.00     0.049 A 
ATOM     60  H   UNL A   1      45.623  28.997  33.146  1.00  0.00     0.167 HD
ATOM     61  C   UNL A   1      46.246  32.762  30.924  1.00  0.00     0.034 A 
ATOM     62  C   UNL A   1      45.860  26.244  33.534  1.00  0.00     0.034 A 
ATOM     63  C   UNL A   1      47.215  31.843  30.403  1.00  0.00     0.049 A 
ATOM     64  C   UNL A   1      46.816  26.611  32.427  1.00  0.00     0.074 A 
ATOM     65  C   UNL A   1      48.200  32.074  29.463  1.00  0.00     0.029 A 
ATOM     66  N   UNL A   1      47.296  30.504  30.756  1.00  0.00    -0.354 N 
ATOM     67  N   UNL A   1      47.062  27.790  31.904  1.00  0.00    -0.248 NA
ATOM     68  C   UNL A   1      47.618  25.524  31.846  1.00  0.00     0.031 C 
ATOM     69  C   UNL A   1      48.855  30.863  29.219  1.00  0.00     0.029 A 
ATOM     70  C   UNL A   1      48.295  29.886  30.029  1.00  0.00     0.049 A 
ATOM     71  H   UNL A   1      46.726  30.061  31.425  1.00  0.00     0.167 HD
ATOM     72  C   UNL A   1      48.055  27.591  30.951  1.00  0.00     0.074 A 
ATOM     73  C   UNL A   1      48.386  26.181  30.987  1.00  0.00     0.031 C 
ATOM     74  C   UNL A   1      48.630  28.487  30.110  1.00  0.00     0.034 A 
BRANCH  61  75
ATOM     75  C   UNL A   1      46.198  34.161  30.378  1.00  0.00     0.023 A 
ATOM     76  C   UNL A   1      46.993  35.166  30.963  1.00  0.00     0.012 A 
ATOM     77  C   UNL A   1      45.376  34.476  29.280  1.00  0.00     0.148 A 
ATOM     78  C   UNL A   1      46.948  36.475  30.482  1.00  0.00     0.002 A 
ATOM     79  C   UNL A   1      45.368  35.772  28.781  1.00  0.00     0.091 A 
ATOM     80  F   UNL A   1      44.601  33.512  28.763  1.00  0.00    -0.205 F 
ATOM     81  C   UNL A   1      46.144  36.773  29.386  1.00  0.00     0.022 A 
BRANCH  79  82
ATOM     82  S   UNL A   1      44.416  36.242  27.333  1.00  0.00     0.127 S 
ATOM     83  O   UNL A   1      44.753  37.660  27.207  1.00  0.00    -0.237 OA
ATOM     84  O   UNL A   1      44.989  35.383  26.297  1.00  0.00    -0.237 OA
ATOM     85  O   UNL A   1      43.025  35.958  27.657  1.00  0.00    -0.744 OA
ENDBRANCH  79  82
ENDBRANCH  61  75
BRANCH  62  86
ATOM     86  C   UNL A   1      45.740  24.837  34.013  1.00  0.00     0.023 A 
ATOM     87  C   UNL A   1      44.748  23.996  33.472  1.00  0.00     0.012 A 
ATOM     88  C   UNL A   1      46.619  24.321  34.985  1.00  0.00     0.148 A 
ATOM     89  C   UNL A   1      44.620  22.675  33.907  1.00  0.00     0.002 A 
ATOM     90  C   UNL A   1      46.522  22.989  35.374  1.00  0.00     0.091 A 
ATOM     91  F   UNL A   1      47.543  25.142  35.505  1.00  0.00    -0.205 F 
ATOM     92  C   UNL A   1      45.513  22.169  34.849  1.00  0.00     0.022 A 
BRANCH  90  93
ATOM     93  S   UNL A   1      47.708  22.219  36.484  1.00  0.00     0.127 S 
ATOM     94  O   UNL A   1      47.176  20.863  36.596  1.00  0.00    -0.237 OA
ATOM     95  O   UNL A   1      48.952  22.333  35.720  1.00  0.00    -0.237 OA
ATOM     96  O   UNL A   1      47.680  23.013  37.704  1.00  0.00    -0.744 OA
ENDBRANCH  90  93
ENDBRANCH  62  86
BRANCH  74  97
ATOM     97  C   UNL A   1      49.680  27.980  29.156  1.00  0.00     0.023 A 
ATOM     98  C   UNL A   1      50.986  27.741  29.625  1.00  0.00     0.012 A 
ATOM     99  C   UNL A   1      49.344  27.637  27.831  1.00  0.00     0.148 A 
ATOM    100  C   UNL A   1      51.950  27.186  28.783  1.00  0.00     0.002 A 
ATOM    101  C   UNL A   1      50.294  27.039  27.014  1.00  0.00     0.091 A 
ATOM    102  F   UNL A   1      48.098  27.886  27.404  1.00  0.00    -0.205 F 
ATOM    103  C   UNL A   1      51.600  26.823  27.484  1.00  0.00     0.022 A 
BRANCH 101 104
ATOM    104  S   UNL A   1      49.911  26.447  25.361  1.00  0.00     0.127 S 
ATOM    105  O   UNL A   1      51.088  25.636  25.055  1.00  0.00    -0.237 OA
ATOM    106  O   UNL A   1      48.683  25.683  25.584  1.00  0.00    -0.237 OA
ATOM    107  O   UNL A   1      49.743  27.636  24.537  1.00  0.00    -0.744 OA
ENDBRANCH 101 104
ENDBRANCH  74  97
ENDBRANCH  48  49
ENDBRANCH  41  43
ENDBRANCH  40  41
ENDBRANCH  39  40
ENDBRANCH  38  39
ENDBRANCH  37  38
ENDBRANCH  36  37
ENDBRANCH  35  36
ENDBRANCH  34  35
ENDBRANCH  33  34
ENDBRANCH   1  33
TORSDOF 30
ENDMDL
MODEL 3
REMARK VINA RESULT:      -4.9      1.266      1.502
REMARK SMILES COc1cc(/C=N/NC(=O)c2cc(Cl)ccc2O)ccc1OCC(=O)OCCOCCOCCOCCOC(=O)c1ccc(-c2c3nc(c(-c4cccc(S(=O)(=O)[O-])c4F)c4ccc([nH]4)c(-c4cccc(S(=O)(=O)[O-])c4F)c4nc(c(-c5cccc(S(=O)(=O)[O-])c5F)c5ccc2[nH]5)C=C4)C=C3)cc1
REMARK SMILES IDX 30 1 29 2 28 3 27 4 26 5 24 6 25 7 23 8 22 9 21 10 3 11 4 12
REMARK SMILES IDX 5 13 20 14 19 15 2 16 1 17 6 18 7 19 8 20 9 21 10 23 11 24
REMARK SMILES IDX 12 25 17 26 13 27 16 28 14 29 15 30 18 31 31 33 32 34 33 35
REMARK SMILES IDX 34 36 35 37 36 38 37 39 38 40 39 41 40 42 41 43 42 44 103 45
REMARK SMILES IDX 43 46 102 47 44 48 45 49 46 50 96 51 47 52 101 53 95 54
REMARK SMILES IDX 97 55 48 56 100 57 94 58 93 59 49 61 81 62 61 63 80 64 62 65
REMARK SMILES IDX 65 66 79 67 98 68 63 69 64 70 78 72 99 73 66 74 50 75 51 76
REMARK SMILES IDX 59 77 52 78 54 79 60 80 53 81 55 82 56 83 57 84 58 85 82 86
REMARK SMILES IDX 83 87 91 88 84 89 86 90 92 91 85 92 87 93 88 94 89 95 90 96
REMARK SMILES IDX 67 97 68 98 76 99 69 100 71 101 77 102 70 103 72 104 73 105
REMARK SMILES IDX 74 106 75 107
REMARK H PARENT 8 22 18 32 97 60 65 71
REMARK Flexibility Score: inf
ROOT
ATOM      1  C   UNL A   1      39.205  24.816  27.501  1.00  0.00     0.188 C 
ENDROOT
BRANCH   1   2
ATOM      2  O   UNL A   1      40.118  25.846  27.861  1.00  0.00    -0.376 OA
BRANCH   2   3
ATOM      3  C   UNL A   1      39.910  27.153  27.359  1.00  0.00     0.202 C 
BRANCH   3   4
ATOM      4  C   UNL A   1      39.517  28.258  28.352  1.00  0.00     0.261 C 
BRANCH   4   5
ATOM      5  O   UNL A   1      39.015  29.478  27.774  1.00  0.00    -0.461 OA
BRANCH   5   6
ATOM      6  C   UNL A   1      37.956  30.058  28.399  1.00  0.00     0.344 C 
ATOM      7  O   UNL A   1      36.779  29.846  28.120  1.00  0.00    -0.248 OA
BRANCH   6   8
ATOM      8  C   UNL A   1      38.388  31.093  29.461  1.00  0.00     0.352 C 
BRANCH   8   9
ATOM      9  O   UNL A   1      39.636  31.721  29.591  1.00  0.00    -0.478 OA
BRANCH   9  10
ATOM     10  C   UNL A   1      40.580  31.611  30.556  1.00  0.00     0.162 A 
ATOM     11  C   UNL A   1      41.460  32.504  31.182  1.00  0.00     0.161 A 
ATOM     12  C   UNL A   1      42.288  32.035  32.242  1.00  0.00     0.060 A 
ATOM     13  C   UNL A   1      42.286  30.693  32.636  1.00  0.00    -0.002 A 
ATOM     14  C   UNL A   1      40.673  30.247  30.919  1.00  0.00     0.051 A 
ATOM     15  C   UNL A   1      41.508  29.784  31.936  1.00  0.00     0.014 A 
BRANCH  11  16
ATOM     16  O   UNL A   1      41.828  33.755  30.770  1.00  0.00    -0.493 OA
ATOM     17  C   UNL A   1      42.474  33.924  29.522  1.00  0.00     0.278 C 
ENDBRANCH  11  16
BRANCH  13  18
ATOM     18  C   UNL A   1      43.034  30.180  33.807  1.00  0.00     0.141 C 
ATOM     19  N   UNL A   1      43.998  29.318  33.734  1.00  0.00    -0.180 NA
BRANCH  19  20
ATOM     20  N   UNL A   1      44.681  28.957  34.873  1.00  0.00    -0.243 N 
ATOM     21  C   UNL A   1      44.485  27.968  35.825  1.00  0.00     0.275 C 
ATOM     22  H   UNL A   1      45.472  29.516  35.047  1.00  0.00     0.194 HD
ATOM     23  O   UNL A   1      45.137  27.991  36.870  1.00  0.00    -0.267 OA
BRANCH  21  24
ATOM     24  C   UNL A   1      43.534  26.858  35.614  1.00  0.00     0.084 A 
ATOM     25  C   UNL A   1      43.910  25.850  34.714  1.00  0.00     0.038 A 
ATOM     26  C   UNL A   1      42.297  26.778  36.266  1.00  0.00     0.128 A 
ATOM     27  C   UNL A   1      43.089  24.738  34.541  1.00  0.00     0.042 A 
ATOM     28  C   UNL A   1      41.487  25.658  36.095  1.00  0.00     0.048 A 
ATOM     29  Cl  UNL A   1      43.567  23.482  33.467  1.00  0.00    -0.084 Cl
ATOM     30  C   UNL A   1      41.892  24.626  35.245  1.00  0.00     0.024 A 
BRANCH  26  31
ATOM     31  O   UNL A   1      41.824  27.744  37.111  1.00  0.00    -0.507 OA
ATOM     32  H   UNL A   1      40.982  28.124  36.961  1.00  0.00     0.293 HD
ENDBRANCH  26  31
ENDBRANCH  21  24
ENDBRANCH  19  20
ENDBRANCH  13  18
ENDBRANCH   9  10
ENDBRANCH   8   9
ENDBRANCH   6   8
ENDBRANCH   5   6
ENDBRANCH   4   5
ENDBRANCH   3   4
ENDBRANCH   2   3
ENDBRANCH   1   2
BRANCH   1  33
ATOM     33  C   UNL A   1      39.672  23.458  26.949  1.00  0.00     0.188 C 
BRANCH  33  34
ATOM     34  O   UNL A   1      41.029  23.437  26.551  1.00  0.00    -0.377 OA
BRANCH  34  35
ATOM     35  C   UNL A   1      41.485  22.168  26.118  1.00  0.00     0.188 C 
BRANCH  35  36
ATOM     36  C   UNL A   1      43.011  22.034  26.051  1.00  0.00     0.188 C 
BRANCH  36  37
ATOM     37  O   UNL A   1      43.678  23.129  26.684  1.00  0.00    -0.376 OA
BRANCH  37  38
ATOM     38  C   UNL A   1      44.568  23.889  25.877  1.00  0.00     0.202 C 
BRANCH  38  39
ATOM     39  C   UNL A   1      43.871  25.037  25.146  1.00  0.00     0.261 C 
BRANCH  39  40
ATOM     40  O   UNL A   1      43.118  25.936  25.962  1.00  0.00    -0.460 OA
BRANCH  40  41
ATOM     41  C   UNL A   1      43.391  27.255  25.882  1.00  0.00     0.338 C 
ATOM     42  O   UNL A   1      42.985  28.045  25.051  1.00  0.00    -0.246 OA
BRANCH  41  43
ATOM     43  C   UNL A   1      44.048  27.594  27.161  1.00  0.00     0.060 A 
ATOM     44  C   UNL A   1      43.242  27.760  28.293  1.00  0.00     0.016 A 
ATOM     45  C   UNL A   1      45.443  27.578  27.269  1.00  0.00     0.016 A 
ATOM     46  C   UNL A   1      43.835  27.893  29.547  1.00  0.00     0.010 A 
ATOM     47  C   UNL A   1      46.035  27.737  28.519  1.00  0.00     0.010 A 
ATOM     48  C   UNL A   1      45.232  27.908  29.657  1.00  0.00    -0.014 A 
BRANCH  48  49
ATOM     49  C   UNL A   1      45.860  28.341  30.920  1.00  0.00     0.031 A 
ATOM     50  C   UNL A   1      46.311  27.264  31.863  1.00  0.00     0.074 A 
ATOM     51  C   UNL A   1      45.978  29.641  31.241  1.00  0.00     0.049 A 
ATOM     52  N   UNL A   1      46.867  27.370  33.037  1.00  0.00    -0.248 NA
ATOM     53  C   UNL A   1      46.099  25.874  31.416  1.00  0.00     0.031 C 
ATOM     54  C   UNL A   1      45.552  30.764  30.407  1.00  0.00     0.029 A 
ATOM     55  N   UNL A   1      46.465  30.230  32.380  1.00  0.00    -0.354 N 
ATOM     56  C   UNL A   1      47.054  26.067  33.478  1.00  0.00     0.074 A 
ATOM     57  C   UNL A   1      46.547  25.185  32.452  1.00  0.00     0.031 C 
ATOM     58  C   UNL A   1      45.758  31.908  31.083  1.00  0.00     0.029 A 
ATOM     59  C   UNL A   1      46.313  31.597  32.400  1.00  0.00     0.049 A 
ATOM     60  H   UNL A   1      46.884  29.724  33.113  1.00  0.00     0.167 HD
ATOM     61  C   UNL A   1      47.612  25.642  34.633  1.00  0.00     0.034 A 
ATOM     62  C   UNL A   1      46.569  32.483  33.384  1.00  0.00     0.034 A 
ATOM     63  C   UNL A   1      48.101  26.524  35.651  1.00  0.00     0.049 A 
ATOM     64  C   UNL A   1      47.159  31.982  34.679  1.00  0.00     0.074 A 
ATOM     65  C   UNL A   1      48.740  26.203  36.832  1.00  0.00     0.029 A 
ATOM     66  N   UNL A   1      47.972  27.905  35.622  1.00  0.00    -0.354 N 
ATOM     67  N   UNL A   1      47.491  30.758  35.018  1.00  0.00    -0.248 NA
ATOM     68  C   UNL A   1      47.436  32.984  35.720  1.00  0.00     0.031 C 
ATOM     69  C   UNL A   1      48.966  27.390  37.537  1.00  0.00     0.029 A 
ATOM     70  C   UNL A   1      48.492  28.451  36.779  1.00  0.00     0.049 A 
ATOM     71  H   UNL A   1      47.569  28.419  34.885  1.00  0.00     0.167 HD
ATOM     72  C   UNL A   1      48.031  30.844  36.297  1.00  0.00     0.074 A 
ATOM     73  C   UNL A   1      48.006  32.246  36.663  1.00  0.00     0.031 C 
ATOM     74  C   UNL A   1      48.489  29.855  37.104  1.00  0.00     0.034 A 
BRANCH  61  75
ATOM     75  C   UNL A   1      47.720  24.157  34.839  1.00  0.00     0.023 A 
ATOM     76  C   UNL A   1      46.695  23.471  35.520  1.00  0.00     0.012 A 
ATOM     77  C   UNL A   1      48.829  23.442  34.348  1.00  0.00     0.148 A 
ATOM     78  C   UNL A   1      46.786  22.096  35.736  1.00  0.00     0.002 A 
ATOM     79  C   UNL A   1      48.892  22.067  34.532  1.00  0.00     0.091 A 
ATOM     80  F   UNL A   1      49.808  24.123  33.736  1.00  0.00    -0.205 F 
ATOM     81  C   UNL A   1      47.878  21.395  35.234  1.00  0.00     0.022 A 
BRANCH  79  82
ATOM     82  S   UNL A   1      50.225  21.066  33.868  1.00  0.00     0.127 S 
ATOM     83  O   UNL A   1      49.485  20.028  33.151  1.00  0.00    -0.237 OA
ATOM     84  O   UNL A   1      50.926  22.020  33.007  1.00  0.00    -0.237 OA
ATOM     85  O   UNL A   1      50.993  20.606  35.016  1.00  0.00    -0.744 OA
ENDBRANCH  79  82
ENDBRANCH  61  75
BRANCH  62  86
ATOM     86  C   UNL A   1      46.282  33.932  33.177  1.00  0.00     0.023 A 
ATOM     87  C   UNL A   1      47.252  34.758  32.576  1.00  0.00     0.012 A 
ATOM     88  C   UNL A   1      45.044  34.490  33.552  1.00  0.00     0.148 A 
ATOM     89  C   UNL A   1      47.001  36.116  32.372  1.00  0.00     0.002 A 
ATOM     90  C   UNL A   1      44.781  35.831  33.297  1.00  0.00     0.091 A 
ATOM     91  F   UNL A   1      44.142  33.694  34.144  1.00  0.00    -0.205 F 
ATOM     92  C   UNL A   1      45.764  36.650  32.722  1.00  0.00     0.022 A 
BRANCH  90  93
ATOM     93  S   UNL A   1      43.171  36.572  33.596  1.00  0.00     0.127 S 
ATOM     94  O   UNL A   1      42.321  35.824  32.674  1.00  0.00    -0.237 OA
ATOM     95  O   UNL A   1      42.959  36.270  35.013  1.00  0.00    -0.237 OA
ATOM     96  O   UNL A   1      43.328  37.991  33.305  1.00  0.00    -0.744 OA
ENDBRANCH  90  93
ENDBRANCH  62  86
BRANCH  74  97
ATOM     97  C   UNL A   1      49.006  30.241  38.465  1.00  0.00     0.023 A 
ATOM     98  C   UNL A   1      50.357  30.612  38.615  1.00  0.00     0.012 A 
ATOM     99  C   UNL A   1      48.132  30.345  39.565  1.00  0.00     0.148 A 
ATOM    100  C   UNL A   1      50.835  31.061  39.845  1.00  0.00     0.002 A 
ATOM    101  C   UNL A   1      48.603  30.840  40.774  1.00  0.00     0.091 A 
ATOM    102  F   UNL A   1      46.854  29.974  39.401  1.00  0.00    -0.205 F 
ATOM    103  C   UNL A   1      49.956  31.188  40.919  1.00  0.00     0.022 A 
BRANCH 101 104
ATOM    104  S   UNL A   1      47.528  31.131  42.183  1.00  0.00     0.127 S 
ATOM    105  O   UNL A   1      47.204  29.768  42.598  1.00  0.00    -0.237 OA
ATOM    106  O   UNL A   1      48.409  31.856  43.099  1.00  0.00    -0.237 OA
ATOM    107  O   UNL A   1      46.405  31.911  41.679  1.00  0.00    -0.744 OA
ENDBRANCH 101 104
ENDBRANCH  74  97
ENDBRANCH  48  49
ENDBRANCH  41  43
ENDBRANCH  40  41
ENDBRANCH  39  40
ENDBRANCH  38  39
ENDBRANCH  37  38
ENDBRANCH  36  37
ENDBRANCH  35  36
ENDBRANCH  34  35
ENDBRANCH  33  34
ENDBRANCH   1  33
TORSDOF 30
ENDMDL
