MODEL 1
REMARK VINA RESULT:      -9.2      0.000      0.000
REMARK SMILES Cn1cc(S(=O)(=O)NC[C@H]2CC[C@@H](C(=O)OCCOCCOCCOCCOC(=O)c3ccc(-c4c5nc(c(-c6cccc(S(=O)(=O)[O-])c6F)c6ccc([nH]6)c(-c6cccc(S(=O)(=O)[O-])c6F)c6nc(c(-c7cccc(S(=O)(=O)[O-])c7F)c7ccc4[nH]7)C=C6)C=C5)cc3)CC2)cn1
REMARK SMILES IDX 21 1 20 2 19 3 18 4 17 5 16 6 14 7 15 8 13 9 10 10 11 11
REMARK SMILES IDX 95 12 12 13 94 14 9 15 8 16 5 18 6 19 7 20 4 21 1 22 2 23
REMARK SMILES IDX 3 24 97 25 96 26 22 27 23 28 24 29 25 30 26 31 27 32 28 33
REMARK SMILES IDX 29 34 30 35 31 36 32 37 93 38 33 39 92 40 34 41 35 42 36 43
REMARK SMILES IDX 86 44 37 45 91 46 85 47 87 48 38 49 90 50 84 51 83 52 39 54
REMARK SMILES IDX 71 55 51 56 70 57 52 58 55 59 69 60 88 61 53 62 54 63 68 65
REMARK SMILES IDX 89 66 56 67 40 68 41 69 49 70 42 71 44 72 50 73 43 74 45 75
REMARK SMILES IDX 46 76 47 77 48 78 72 79 73 80 81 81 74 82 76 83 82 84 75 85
REMARK SMILES IDX 77 86 78 87 79 88 80 89 57 90 58 91 66 92 59 93 61 94 67 95
REMARK SMILES IDX 60 96 62 97 63 98 64 99 65 100
REMARK H PARENT 8 17 87 53 55 64
REMARK Flexibility Score: inf
ROOT
ATOM      1  C   UNL A   1      33.749  26.254  24.056  1.00  0.00     0.188 C 
ENDROOT
BRANCH   1   2
ATOM      2  C   UNL A   1      34.779  25.169  24.389  1.00  0.00     0.188 C 
BRANCH   2   3
ATOM      3  O   UNL A   1      34.714  24.669  25.718  1.00  0.00    -0.376 OA
BRANCH   3   4
ATOM      4  C   UNL A   1      35.602  23.588  25.970  1.00  0.00     0.202 C 
BRANCH   4   5
ATOM      5  C   UNL A   1      34.930  22.323  26.498  1.00  0.00     0.261 C 
BRANCH   5   6
ATOM      6  O   UNL A   1      33.633  22.025  25.951  1.00  0.00    -0.463 OA
BRANCH   6   7
ATOM      7  C   UNL A   1      32.545  22.308  26.694  1.00  0.00     0.309 C 
ATOM      8  O   UNL A   1      32.580  22.591  27.886  1.00  0.00    -0.252 OA
BRANCH   7   9
ATOM      9  C   UNL A   1      31.235  22.186  25.904  1.00  0.00     0.099 C 
ATOM     10  C   UNL A   1      30.146  24.965  25.656  1.00  0.00     0.004 C 
ATOM     11  C   UNL A   1      31.344  24.472  24.830  1.00  0.00     0.006 C 
ATOM     12  C   UNL A   1      29.820  24.098  26.877  1.00  0.00     0.006 C 
ATOM     13  C   UNL A   1      31.354  22.963  24.591  1.00  0.00     0.015 C 
ATOM     14  C   UNL A   1      29.928  22.603  26.593  1.00  0.00     0.015 C 
BRANCH  10  15
ATOM     15  C   UNL A   1      30.255  26.455  26.023  1.00  0.00     0.102 C 
BRANCH  15  16
ATOM     16  N   UNL A   1      30.408  27.370  24.890  1.00  0.00    -0.211 NA
ATOM     17  H   UNL A   1      30.248  28.304  25.269  1.00  0.00     0.141 HD
BRANCH  16  18
ATOM     18  S   UNL A   1      29.515  27.305  23.477  1.00  0.00     0.243 S 
ATOM     19  O   UNL A   1      28.360  26.475  23.735  1.00  0.00    -0.207 OA
ATOM     20  O   UNL A   1      30.416  26.967  22.400  1.00  0.00    -0.207 OA
BRANCH  18  21
ATOM     21  C   UNL A   1      28.849  28.825  23.096  1.00  0.00     0.120 A 
ATOM     22  C   UNL A   1      28.727  32.362  22.546  1.00  0.00     0.173 C 
ATOM     23  N   UNL A   1      28.531  30.943  22.715  1.00  0.00    -0.274 N 
ATOM     24  C   UNL A   1      29.504  29.993  22.783  1.00  0.00     0.130 A 
ATOM     25  N   UNL A   1      27.284  30.465  22.935  1.00  0.00    -0.180 NA
ATOM     26  C   UNL A   1      27.487  29.157  23.133  1.00  0.00     0.156 A 
ENDBRANCH  18  21
ENDBRANCH  16  18
ENDBRANCH  15  16
ENDBRANCH  10  15
ENDBRANCH   7   9
ENDBRANCH   6   7
ENDBRANCH   5   6
ENDBRANCH   4   5
ENDBRANCH   3   4
ENDBRANCH   2   3
ENDBRANCH   1   2
BRANCH   1  27
ATOM     27  O   UNL A   1      34.069  27.619  24.283  1.00  0.00    -0.377 OA
BRANCH  27  28
ATOM     28  C   UNL A   1      33.065  28.610  24.074  1.00  0.00     0.188 C 
BRANCH  28  29
ATOM     29  C   UNL A   1      32.957  29.801  25.047  1.00  0.00     0.188 C 
BRANCH  29  30
ATOM     30  O   UNL A   1      33.099  29.468  26.423  1.00  0.00    -0.376 OA
BRANCH  30  31
ATOM     31  C   UNL A   1      33.470  30.523  27.301  1.00  0.00     0.202 C 
BRANCH  31  32
ATOM     32  C   UNL A   1      32.635  31.805  27.173  1.00  0.00     0.261 C 
BRANCH  32  33
ATOM     33  O   UNL A   1      33.405  33.014  27.079  1.00  0.00    -0.460 OA
BRANCH  33  34
ATOM     34  C   UNL A   1      33.428  33.809  28.170  1.00  0.00     0.338 C 
ATOM     35  O   UNL A   1      32.589  34.620  28.515  1.00  0.00    -0.246 OA
BRANCH  34  36
ATOM     36  C   UNL A   1      34.591  33.424  28.984  1.00  0.00     0.060 A 
ATOM     37  C   UNL A   1      35.873  33.747  28.524  1.00  0.00     0.016 A 
ATOM     38  C   UNL A   1      34.410  32.696  30.163  1.00  0.00     0.016 A 
ATOM     39  C   UNL A   1      36.989  33.287  29.220  1.00  0.00     0.010 A 
ATOM     40  C   UNL A   1      35.528  32.225  30.848  1.00  0.00     0.010 A 
ATOM     41  C   UNL A   1      36.818  32.479  30.353  1.00  0.00    -0.014 A 
BRANCH  41  42
ATOM     42  C   UNL A   1      37.972  31.723  30.889  1.00  0.00     0.031 A 
ATOM     43  C   UNL A   1      38.487  32.090  32.254  1.00  0.00     0.074 A 
ATOM     44  C   UNL A   1      38.557  30.748  30.175  1.00  0.00     0.049 A 
ATOM     45  N   UNL A   1      39.469  31.566  32.936  1.00  0.00    -0.248 NA
ATOM     46  C   UNL A   1      37.803  33.202  32.939  1.00  0.00     0.031 C 
ATOM     47  C   UNL A   1      38.157  30.322  28.835  1.00  0.00     0.029 A 
ATOM     48  N   UNL A   1      39.635  29.955  30.475  1.00  0.00    -0.354 N 
ATOM     49  C   UNL A   1      39.533  32.290  34.121  1.00  0.00     0.074 A 
ATOM     50  C   UNL A   1      38.503  33.302  34.059  1.00  0.00     0.031 C 
ATOM     51  C   UNL A   1      39.003  29.367  28.413  1.00  0.00     0.029 A 
ATOM     52  C   UNL A   1      40.003  29.116  29.450  1.00  0.00     0.049 A 
ATOM     53  H   UNL A   1      40.102  29.984  31.341  1.00  0.00     0.167 HD
ATOM     54  C   UNL A   1      40.360  32.114  35.177  1.00  0.00     0.034 A 
ATOM     55  C   UNL A   1      41.033  28.251  29.363  1.00  0.00     0.034 A 
ATOM     56  C   UNL A   1      41.373  31.098  35.242  1.00  0.00     0.049 A 
ATOM     57  C   UNL A   1      41.935  28.064  30.559  1.00  0.00     0.074 A 
ATOM     58  C   UNL A   1      42.235  30.807  36.284  1.00  0.00     0.029 A 
ATOM     59  N   UNL A   1      41.668  30.214  34.216  1.00  0.00    -0.354 N 
ATOM     60  N   UNL A   1      41.886  28.650  31.732  1.00  0.00    -0.248 NA
ATOM     61  C   UNL A   1      43.006  27.064  30.436  1.00  0.00     0.031 C 
ATOM     62  C   UNL A   1      43.061  29.751  35.881  1.00  0.00     0.029 A 
ATOM     63  C   UNL A   1      42.704  29.379  34.595  1.00  0.00     0.049 A 
ATOM     64  H   UNL A   1      41.209  30.185  33.346  1.00  0.00     0.167 HD
ATOM     65  C   UNL A   1      42.895  28.070  32.496  1.00  0.00     0.074 A 
ATOM     66  C   UNL A   1      43.526  27.070  31.658  1.00  0.00     0.031 C 
ATOM     67  C   UNL A   1      43.278  28.349  33.767  1.00  0.00     0.034 A 
BRANCH  54  68
ATOM     68  C   UNL A   1      40.168  33.017  36.363  1.00  0.00     0.023 A 
ATOM     69  C   UNL A   1      39.142  32.732  37.288  1.00  0.00     0.012 A 
ATOM     70  C   UNL A   1      41.016  34.118  36.587  1.00  0.00     0.148 A 
ATOM     71  C   UNL A   1      38.945  33.547  38.402  1.00  0.00     0.002 A 
ATOM     72  C   UNL A   1      40.836  34.904  37.718  1.00  0.00     0.091 A 
ATOM     73  F   UNL A   1      41.964  34.389  35.679  1.00  0.00    -0.205 F 
ATOM     74  C   UNL A   1      39.798  34.626  38.623  1.00  0.00     0.022 A 
BRANCH  72  75
ATOM     75  S   UNL A   1      41.923  36.277  38.120  1.00  0.00     0.127 S 
ATOM     76  O   UNL A   1      43.105  35.580  38.624  1.00  0.00    -0.237 OA
ATOM     77  O   UNL A   1      42.105  36.921  36.819  1.00  0.00    -0.237 OA
ATOM     78  O   UNL A   1      41.204  37.082  39.096  1.00  0.00    -0.744 OA
ENDBRANCH  72  75
ENDBRANCH  54  68
BRANCH  55  79
ATOM     79  C   UNL A   1      41.223  27.449  28.121  1.00  0.00     0.023 A 
ATOM     80  C   UNL A   1      41.826  28.048  26.998  1.00  0.00     0.012 A 
ATOM     81  C   UNL A   1      40.839  26.094  28.052  1.00  0.00     0.148 A 
ATOM     82  C   UNL A   1      42.019  27.320  25.822  1.00  0.00     0.002 A 
ATOM     83  C   UNL A   1      41.077  25.360  26.893  1.00  0.00     0.091 A 
ATOM     84  F   UNL A   1      40.243  25.546  29.120  1.00  0.00    -0.205 F 
ATOM     85  C   UNL A   1      41.655  25.975  25.773  1.00  0.00     0.022 A 
BRANCH  83  86
ATOM     86  S   UNL A   1      40.720  23.600  26.792  1.00  0.00     0.127 S 
ATOM     87  O   UNL A   1      41.637  23.166  25.741  1.00  0.00    -0.237 OA
ATOM     88  O   UNL A   1      41.061  23.121  28.132  1.00  0.00    -0.237 OA
ATOM     89  O   UNL A   1      39.300  23.503  26.477  1.00  0.00    -0.744 OA
ENDBRANCH  83  86
ENDBRANCH  55  79
BRANCH  67  90
ATOM     90  C   UNL A   1      44.419  27.555  34.348  1.00  0.00     0.023 A 
ATOM     91  C   UNL A   1      45.733  28.052  34.247  1.00  0.00     0.012 A 
ATOM     92  C   UNL A   1      44.182  26.373  35.077  1.00  0.00     0.148 A 
ATOM     93  C   UNL A   1      46.796  27.369  34.837  1.00  0.00     0.002 A 
ATOM     94  C   UNL A   1      45.241  25.721  35.698  1.00  0.00     0.091 A 
ATOM     95  F   UNL A   1      42.927  25.903  35.148  1.00  0.00    -0.205 F 
ATOM     96  C   UNL A   1      46.549  26.213  35.572  1.00  0.00     0.022 A 
BRANCH  94  97
ATOM     97  S   UNL A   1      44.991  24.280  36.743  1.00  0.00     0.127 S 
ATOM     98  O   UNL A   1      44.091  24.805  37.768  1.00  0.00    -0.237 OA
ATOM     99  O   UNL A   1      44.374  23.323  35.823  1.00  0.00    -0.237 OA
ATOM    100  O   UNL A   1      46.318  23.894  37.205  1.00  0.00    -0.744 OA
ENDBRANCH  94  97
ENDBRANCH  67  90
ENDBRANCH  41  42
ENDBRANCH  34  36
ENDBRANCH  33  34
ENDBRANCH  32  33
ENDBRANCH  31  32
ENDBRANCH  30  31
ENDBRANCH  29  30
ENDBRANCH  28  29
ENDBRANCH  27  28
ENDBRANCH   1  27
TORSDOF 27
ENDMDL
MODEL 2
REMARK VINA RESULT:      -8.5      1.950      2.241
REMARK SMILES Cn1cc(S(=O)(=O)NC[C@H]2CC[C@@H](C(=O)OCCOCCOCCOCCOC(=O)c3ccc(-c4c5nc(c(-c6cccc(S(=O)(=O)[O-])c6F)c6ccc([nH]6)c(-c6cccc(S(=O)(=O)[O-])c6F)c6nc(c(-c7cccc(S(=O)(=O)[O-])c7F)c7ccc4[nH]7)C=C6)C=C5)cc3)CC2)cn1
REMARK SMILES IDX 21 1 20 2 19 3 18 4 17 5 16 6 14 7 15 8 13 9 10 10 11 11
REMARK SMILES IDX 95 12 12 13 94 14 9 15 8 16 5 18 6 19 7 20 4 21 1 22 2 23
REMARK SMILES IDX 3 24 97 25 96 26 22 27 23 28 24 29 25 30 26 31 27 32 28 33
REMARK SMILES IDX 29 34 30 35 31 36 32 37 93 38 33 39 92 40 34 41 35 42 36 43
REMARK SMILES IDX 86 44 37 45 91 46 85 47 87 48 38 49 90 50 84 51 83 52 39 54
REMARK SMILES IDX 71 55 51 56 70 57 52 58 55 59 69 60 88 61 53 62 54 63 68 65
REMARK SMILES IDX 89 66 56 67 40 68 41 69 49 70 42 71 44 72 50 73 43 74 45 75
REMARK SMILES IDX 46 76 47 77 48 78 72 79 73 80 81 81 74 82 76 83 82 84 75 85
REMARK SMILES IDX 77 86 78 87 79 88 80 89 57 90 58 91 66 92 59 93 61 94 67 95
REMARK SMILES IDX 60 96 62 97 63 98 64 99 65 100
REMARK H PARENT 8 17 87 53 55 64
REMARK Flexibility Score: inf
ROOT
ATOM      1  C   UNL A   1      33.765  26.382  23.927  1.00  0.00     0.188 C 
ENDROOT
BRANCH   1   2
ATOM      2  C   UNL A   1      34.769  25.332  24.414  1.00  0.00     0.188 C 
BRANCH   2   3
ATOM      3  O   UNL A   1      34.406  24.668  25.617  1.00  0.00    -0.376 OA
BRANCH   3   4
ATOM      4  C   UNL A   1      35.387  23.753  26.087  1.00  0.00     0.202 C 
BRANCH   4   5
ATOM      5  C   UNL A   1      34.842  22.381  26.479  1.00  0.00     0.261 C 
BRANCH   5   6
ATOM      6  O   UNL A   1      33.535  22.057  25.973  1.00  0.00    -0.463 OA
BRANCH   6   7
ATOM      7  C   UNL A   1      32.461  22.378  26.722  1.00  0.00     0.309 C 
ATOM      8  O   UNL A   1      32.518  22.702  27.903  1.00  0.00    -0.252 OA
BRANCH   7   9
ATOM      9  C   UNL A   1      31.139  22.245  25.955  1.00  0.00     0.099 C 
ATOM     10  C   UNL A   1      30.091  25.028  25.604  1.00  0.00     0.004 C 
ATOM     11  C   UNL A   1      31.269  24.480  24.783  1.00  0.00     0.006 C 
ATOM     12  C   UNL A   1      29.768  24.219  26.865  1.00  0.00     0.006 C 
ATOM     13  C   UNL A   1      31.252  22.964  24.609  1.00  0.00     0.015 C 
ATOM     14  C   UNL A   1      29.849  22.712  26.643  1.00  0.00     0.015 C 
BRANCH  10  15
ATOM     15  C   UNL A   1      30.228  26.530  25.905  1.00  0.00     0.102 C 
BRANCH  15  16
ATOM     16  N   UNL A   1      30.497  27.381  24.744  1.00  0.00    -0.211 NA
ATOM     17  H   UNL A   1      30.518  28.336  25.104  1.00  0.00     0.141 HD
BRANCH  16  18
ATOM     18  S   UNL A   1      29.553  27.446  23.364  1.00  0.00     0.243 S 
ATOM     19  O   UNL A   1      28.271  26.865  23.692  1.00  0.00    -0.207 OA
ATOM     20  O   UNL A   1      30.328  26.906  22.272  1.00  0.00    -0.207 OA
BRANCH  18  21
ATOM     21  C   UNL A   1      29.179  29.054  22.947  1.00  0.00     0.120 A 
ATOM     22  C   UNL A   1      28.731  32.583  23.364  1.00  0.00     0.173 C 
ATOM     23  N   UNL A   1      28.832  31.202  22.961  1.00  0.00    -0.274 N 
ATOM     24  C   UNL A   1      29.484  30.209  23.628  1.00  0.00     0.130 A 
ATOM     25  N   UNL A   1      28.147  30.773  21.876  1.00  0.00    -0.180 NA
ATOM     26  C   UNL A   1      28.396  29.458  21.856  1.00  0.00     0.156 A 
ENDBRANCH  18  21
ENDBRANCH  16  18
ENDBRANCH  15  16
ENDBRANCH  10  15
ENDBRANCH   7   9
ENDBRANCH   6   7
ENDBRANCH   5   6
ENDBRANCH   4   5
ENDBRANCH   3   4
ENDBRANCH   2   3
ENDBRANCH   1   2
BRANCH   1  27
ATOM     27  O   UNL A   1      34.130  27.754  23.924  1.00  0.00    -0.377 OA
BRANCH  27  28
ATOM     28  C   UNL A   1      33.131  28.738  24.188  1.00  0.00     0.188 C 
BRANCH  28  29
ATOM     29  C   UNL A   1      33.427  29.872  25.190  1.00  0.00     0.188 C 
BRANCH  29  30
ATOM     30  O   UNL A   1      33.209  29.540  26.557  1.00  0.00    -0.376 OA
BRANCH  30  31
ATOM     31  C   UNL A   1      33.378  30.588  27.503  1.00  0.00     0.202 C 
BRANCH  31  32
ATOM     32  C   UNL A   1      32.694  31.913  27.141  1.00  0.00     0.261 C 
BRANCH  32  33
ATOM     33  O   UNL A   1      33.551  33.064  27.194  1.00  0.00    -0.460 OA
BRANCH  33  34
ATOM     34  C   UNL A   1      33.506  33.806  28.320  1.00  0.00     0.338 C 
ATOM     35  O   UNL A   1      32.625  34.569  28.671  1.00  0.00    -0.246 OA
BRANCH  34  36
ATOM     36  C   UNL A   1      34.654  33.427  29.158  1.00  0.00     0.060 A 
ATOM     37  C   UNL A   1      35.930  33.875  28.796  1.00  0.00     0.016 A 
ATOM     38  C   UNL A   1      34.471  32.585  30.257  1.00  0.00     0.016 A 
ATOM     39  C   UNL A   1      37.043  33.429  29.506  1.00  0.00     0.010 A 
ATOM     40  C   UNL A   1      35.587  32.129  30.956  1.00  0.00     0.010 A 
ATOM     41  C   UNL A   1      36.877  32.512  30.553  1.00  0.00    -0.014 A 
BRANCH  41  42
ATOM     42  C   UNL A   1      38.055  31.788  31.081  1.00  0.00     0.031 A 
ATOM     43  C   UNL A   1      38.483  32.068  32.496  1.00  0.00     0.074 A 
ATOM     44  C   UNL A   1      38.737  30.919  30.318  1.00  0.00     0.049 A 
ATOM     45  N   UNL A   1      39.468  31.552  33.181  1.00  0.00    -0.248 NA
ATOM     46  C   UNL A   1      37.695  33.069  33.237  1.00  0.00     0.031 C 
ATOM     47  C   UNL A   1      38.427  30.586  28.929  1.00  0.00     0.029 A 
ATOM     48  N   UNL A   1      39.853  30.175  30.604  1.00  0.00    -0.354 N 
ATOM     49  C   UNL A   1      39.429  32.172  34.424  1.00  0.00     0.074 A 
ATOM     50  C   UNL A   1      38.336  33.117  34.395  1.00  0.00     0.031 C 
ATOM     51  C   UNL A   1      39.354  29.728  28.471  1.00  0.00     0.029 A 
ATOM     52  C   UNL A   1      40.323  29.453  29.532  1.00  0.00     0.049 A 
ATOM     53  H   UNL A   1      40.278  30.158  31.492  1.00  0.00     0.167 HD
ATOM     54  C   UNL A   1      40.219  31.959  35.501  1.00  0.00     0.034 A 
ATOM     55  C   UNL A   1      41.412  28.667  29.425  1.00  0.00     0.034 A 
ATOM     56  C   UNL A   1      41.296  31.009  35.531  1.00  0.00     0.049 A 
ATOM     57  C   UNL A   1      42.271  28.436  30.645  1.00  0.00     0.074 A 
ATOM     58  C   UNL A   1      42.128  30.685  36.586  1.00  0.00     0.029 A 
ATOM     59  N   UNL A   1      41.696  30.238  34.451  1.00  0.00    -0.354 N 
ATOM     60  N   UNL A   1      42.130  28.913  31.858  1.00  0.00    -0.248 NA
ATOM     61  C   UNL A   1      43.413  27.522  30.492  1.00  0.00     0.031 C 
ATOM     62  C   UNL A   1      43.042  29.724  36.139  1.00  0.00     0.029 A 
ATOM     63  C   UNL A   1      42.769  29.443  34.809  1.00  0.00     0.049 A 
ATOM     64  H   UNL A   1      41.278  30.255  33.559  1.00  0.00     0.167 HD
ATOM     65  C   UNL A   1      43.141  28.336  32.620  1.00  0.00     0.074 A 
ATOM     66  C   UNL A   1      43.876  27.455  31.734  1.00  0.00     0.031 C 
ATOM     67  C   UNL A   1      43.448  28.527  33.928  1.00  0.00     0.034 A 
BRANCH  54  68
ATOM     68  C   UNL A   1      39.913  32.741  36.748  1.00  0.00     0.023 A 
ATOM     69  C   UNL A   1      40.633  33.924  37.014  1.00  0.00     0.012 A 
ATOM     70  C   UNL A   1      38.899  32.332  37.634  1.00  0.00     0.148 A 
ATOM     71  C   UNL A   1      40.365  34.674  38.159  1.00  0.00     0.002 A 
ATOM     72  C   UNL A   1      38.614  33.104  38.754  1.00  0.00     0.091 A 
ATOM     73  F   UNL A   1      38.250  31.187  37.379  1.00  0.00    -0.205 F 
ATOM     74  C   UNL A   1      39.350  34.270  39.022  1.00  0.00     0.022 A 
BRANCH  72  75
ATOM     75  S   UNL A   1      37.283  32.698  39.891  1.00  0.00     0.127 S 
ATOM     76  O   UNL A   1      37.746  31.426  40.444  1.00  0.00    -0.237 OA
ATOM     77  O   UNL A   1      37.321  33.820  40.829  1.00  0.00    -0.237 OA
ATOM     78  O   UNL A   1      36.076  32.628  39.081  1.00  0.00    -0.744 OA
ENDBRANCH  72  75
ENDBRANCH  54  68
BRANCH  55  79
ATOM     79  C   UNL A   1      41.712  27.991  28.131  1.00  0.00     0.023 A 
ATOM     80  C   UNL A   1      42.192  28.752  27.049  1.00  0.00     0.012 A 
ATOM     81  C   UNL A   1      41.553  26.598  27.973  1.00  0.00     0.148 A 
ATOM     82  C   UNL A   1      42.483  28.144  25.825  1.00  0.00     0.002 A 
ATOM     83  C   UNL A   1      41.889  25.991  26.766  1.00  0.00     0.091 A 
ATOM     84  F   UNL A   1      41.070  25.891  29.004  1.00  0.00    -0.205 F 
ATOM     85  C   UNL A   1      42.343  26.764  25.687  1.00  0.00     0.022 A 
BRANCH  83  86
ATOM     86  S   UNL A   1      41.823  24.206  26.549  1.00  0.00     0.127 S 
ATOM     87  O   UNL A   1      40.384  23.961  26.504  1.00  0.00    -0.237 OA
ATOM     88  O   UNL A   1      42.515  24.008  25.274  1.00  0.00    -0.237 OA
ATOM     89  O   UNL A   1      42.530  23.643  27.693  1.00  0.00    -0.744 OA
ENDBRANCH  83  86
ENDBRANCH  55  79
BRANCH  67  90
ATOM     90  C   UNL A   1      44.614  27.762  34.497  1.00  0.00     0.023 A 
ATOM     91  C   UNL A   1      44.412  26.463  35.001  1.00  0.00     0.012 A 
ATOM     92  C   UNL A   1      45.921  28.287  34.444  1.00  0.00     0.148 A 
ATOM     93  C   UNL A   1      45.488  25.709  35.470  1.00  0.00     0.002 A 
ATOM     94  C   UNL A   1      46.993  27.514  34.873  1.00  0.00     0.091 A 
ATOM     95  F   UNL A   1      46.094  29.534  33.977  1.00  0.00    -0.205 F 
ATOM     96  C   UNL A   1      46.778  26.228  35.394  1.00  0.00     0.022 A 
BRANCH  94  97
ATOM     97  S   UNL A   1      48.694  28.074  34.718  1.00  0.00     0.127 S 
ATOM     98  O   UNL A   1      48.624  29.410  35.306  1.00  0.00    -0.237 OA
ATOM     99  O   UNL A   1      49.426  27.093  35.520  1.00  0.00    -0.237 OA
ATOM    100  O   UNL A   1      48.996  28.025  33.294  1.00  0.00    -0.744 OA
ENDBRANCH  94  97
ENDBRANCH  67  90
ENDBRANCH  41  42
ENDBRANCH  34  36
ENDBRANCH  33  34
ENDBRANCH  32  33
ENDBRANCH  31  32
ENDBRANCH  30  31
ENDBRANCH  29  30
ENDBRANCH  28  29
ENDBRANCH  27  28
ENDBRANCH   1  27
TORSDOF 27
ENDMDL
MODEL 3
REMARK VINA RESULT:      -8.3      1.897      2.295
REMARK SMILES Cn1cc(S(=O)(=O)NC[C@H]2CC[C@@H](C(=O)OCCOCCOCCOCCOC(=O)c3ccc(-c4c5nc(c(-c6cccc(S(=O)(=O)[O-])c6F)c6ccc([nH]6)c(-c6cccc(S(=O)(=O)[O-])c6F)c6nc(c(-c7cccc(S(=O)(=O)[O-])c7F)c7ccc4[nH]7)C=C6)C=C5)cc3)CC2)cn1
REMARK SMILES IDX 21 1 20 2 19 3 18 4 17 5 16 6 14 7 15 8 13 9 10 10 11 11
REMARK SMILES IDX 95 12 12 13 94 14 9 15 8 16 5 18 6 19 7 20 4 21 1 22 2 23
REMARK SMILES IDX 3 24 97 25 96 26 22 27 23 28 24 29 25 30 26 31 27 32 28 33
REMARK SMILES IDX 29 34 30 35 31 36 32 37 93 38 33 39 92 40 34 41 35 42 36 43
REMARK SMILES IDX 86 44 37 45 91 46 85 47 87 48 38 49 90 50 84 51 83 52 39 54
REMARK SMILES IDX 71 55 51 56 70 57 52 58 55 59 69 60 88 61 53 62 54 63 68 65
REMARK SMILES IDX 89 66 56 67 40 68 41 69 49 70 42 71 44 72 50 73 43 74 45 75
REMARK SMILES IDX 46 76 47 77 48 78 72 79 73 80 81 81 74 82 76 83 82 84 75 85
REMARK SMILES IDX 77 86 78 87 79 88 80 89 57 90 58 91 66 92 59 93 61 94 67 95
REMARK SMILES IDX 60 96 62 97 63 98 64 99 65 100
REMARK H PARENT 8 17 87 53 55 64
REMARK Flexibility Score: inf
ROOT
ATOM      1  C   UNL A   1      33.565  26.822  24.004  1.00  0.00     0.188 C 
ENDROOT
BRANCH   1   2
ATOM      2  C   UNL A   1      34.642  25.773  24.300  1.00  0.00     0.188 C 
BRANCH   2   3
ATOM      3  O   UNL A   1      34.269  24.783  25.250  1.00  0.00    -0.376 OA
BRANCH   3   4
ATOM      4  C   UNL A   1      35.354  23.986  25.706  1.00  0.00     0.202 C 
BRANCH   4   5
ATOM      5  C   UNL A   1      35.038  22.498  25.839  1.00  0.00     0.261 C 
BRANCH   5   6
ATOM      6  O   UNL A   1      33.707  22.102  25.464  1.00  0.00    -0.463 OA
BRANCH   6   7
ATOM      7  C   UNL A   1      32.726  22.201  26.384  1.00  0.00     0.309 C 
ATOM      8  O   UNL A   1      32.921  22.394  27.579  1.00  0.00    -0.252 OA
BRANCH   7   9
ATOM      9  C   UNL A   1      31.327  21.990  25.789  1.00  0.00     0.099 C 
ATOM     10  C   UNL A   1      30.074  24.704  25.618  1.00  0.00     0.004 C 
ATOM     11  C   UNL A   1      31.169  24.238  24.645  1.00  0.00     0.006 C 
ATOM     12  C   UNL A   1      29.965  23.867  26.896  1.00  0.00     0.006 C 
ATOM     13  C   UNL A   1      31.223  22.725  24.451  1.00  0.00     0.015 C 
ATOM     14  C   UNL A   1      30.110  22.370  26.643  1.00  0.00     0.015 C 
BRANCH  10  15
ATOM     15  C   UNL A   1      30.156  26.210  25.923  1.00  0.00     0.102 C 
BRANCH  15  16
ATOM     16  N   UNL A   1      30.541  27.059  24.793  1.00  0.00    -0.211 NA
ATOM     17  H   UNL A   1      30.612  28.003  25.173  1.00  0.00     0.141 HD
BRANCH  16  18
ATOM     18  S   UNL A   1      29.674  27.214  23.371  1.00  0.00     0.243 S 
ATOM     19  O   UNL A   1      28.341  26.714  23.622  1.00  0.00    -0.207 OA
ATOM     20  O   UNL A   1      30.465  26.645  22.306  1.00  0.00    -0.207 OA
BRANCH  18  21
ATOM     21  C   UNL A   1      29.427  28.851  22.973  1.00  0.00     0.120 A 
ATOM     22  C   UNL A   1      27.705  31.975  22.649  1.00  0.00     0.173 C 
ATOM     23  N   UNL A   1      28.591  30.837  22.671  1.00  0.00    -0.274 N 
ATOM     24  C   UNL A   1      28.420  29.691  23.387  1.00  0.00     0.130 A 
ATOM     25  N   UNL A   1      29.659  30.807  21.840  1.00  0.00    -0.180 NA
ATOM     26  C   UNL A   1      30.186  29.598  22.060  1.00  0.00     0.156 A 
ENDBRANCH  18  21
ENDBRANCH  16  18
ENDBRANCH  15  16
ENDBRANCH  10  15
ENDBRANCH   7   9
ENDBRANCH   6   7
ENDBRANCH   5   6
ENDBRANCH   4   5
ENDBRANCH   3   4
ENDBRANCH   2   3
ENDBRANCH   1   2
BRANCH   1  27
ATOM     27  O   UNL A   1      33.898  28.202  24.047  1.00  0.00    -0.377 OA
BRANCH  27  28
ATOM     28  C   UNL A   1      32.965  29.123  24.609  1.00  0.00     0.188 C 
BRANCH  28  29
ATOM     29  C   UNL A   1      33.468  30.236  25.550  1.00  0.00     0.188 C 
BRANCH  29  30
ATOM     30  O   UNL A   1      33.442  29.910  26.936  1.00  0.00    -0.376 OA
BRANCH  30  31
ATOM     31  C   UNL A   1      33.563  30.994  27.849  1.00  0.00     0.202 C 
BRANCH  31  32
ATOM     32  C   UNL A   1      32.873  32.295  27.415  1.00  0.00     0.261 C 
BRANCH  32  33
ATOM     33  O   UNL A   1      33.643  33.485  27.643  1.00  0.00    -0.460 OA
BRANCH  33  34
ATOM     34  C   UNL A   1      33.430  34.135  28.807  1.00  0.00     0.338 C 
ATOM     35  O   UNL A   1      32.451  34.786  29.126  1.00  0.00    -0.246 OA
BRANCH  34  36
ATOM     36  C   UNL A   1      34.534  33.801  29.719  1.00  0.00     0.060 A 
ATOM     37  C   UNL A   1      35.814  34.293  29.437  1.00  0.00     0.016 A 
ATOM     38  C   UNL A   1      34.310  32.960  30.811  1.00  0.00     0.016 A 
ATOM     39  C   UNL A   1      36.894  33.890  30.220  1.00  0.00     0.010 A 
ATOM     40  C   UNL A   1      35.395  32.547  31.584  1.00  0.00     0.010 A 
ATOM     41  C   UNL A   1      36.694  32.974  31.262  1.00  0.00    -0.014 A 
BRANCH  41  42
ATOM     42  C   UNL A   1      37.860  32.296  31.869  1.00  0.00     0.031 A 
ATOM     43  C   UNL A   1      38.366  32.805  33.191  1.00  0.00     0.074 A 
ATOM     44  C   UNL A   1      38.464  31.266  31.255  1.00  0.00     0.049 A 
ATOM     45  N   UNL A   1      39.357  32.369  33.922  1.00  0.00    -0.248 NA
ATOM     46  C   UNL A   1      37.661  33.966  33.764  1.00  0.00     0.031 C 
ATOM     47  C   UNL A   1      38.075  30.703  29.964  1.00  0.00     0.029 A 
ATOM     48  N   UNL A   1      39.557  30.527  31.631  1.00  0.00    -0.354 N 
ATOM     49  C   UNL A   1      39.405  33.206  35.030  1.00  0.00     0.074 A 
ATOM     50  C   UNL A   1      38.357  34.189  34.869  1.00  0.00     0.031 C 
ATOM     51  C   UNL A   1      38.938  29.726  29.637  1.00  0.00     0.029 A 
ATOM     52  C   UNL A   1      39.942  29.598  30.694  1.00  0.00     0.049 A 
ATOM     53  H   UNL A   1      40.021  30.649  32.491  1.00  0.00     0.167 HD
ATOM     54  C   UNL A   1      40.233  33.151  36.098  1.00  0.00     0.034 A 
ATOM     55  C   UNL A   1      40.987  28.748  30.693  1.00  0.00     0.034 A 
ATOM     56  C   UNL A   1      41.265  32.165  36.263  1.00  0.00     0.049 A 
ATOM     57  C   UNL A   1      41.890  28.696  31.901  1.00  0.00     0.074 A 
ATOM     58  C   UNL A   1      42.130  31.994  37.328  1.00  0.00     0.029 A 
ATOM     59  N   UNL A   1      41.578  31.190  35.328  1.00  0.00    -0.354 N 
ATOM     60  N   UNL A   1      41.829  29.393  33.011  1.00  0.00    -0.248 NA
ATOM     61  C   UNL A   1      42.980  27.709  31.877  1.00  0.00     0.031 C 
ATOM     62  C   UNL A   1      42.976  30.919  37.031  1.00  0.00     0.029 A 
ATOM     63  C   UNL A   1      42.628  30.416  35.787  1.00  0.00     0.049 A 
ATOM     64  H   UNL A   1      41.121  31.067  34.465  1.00  0.00     0.167 HD
ATOM     65  C   UNL A   1      42.846  28.911  33.827  1.00  0.00     0.074 A 
ATOM     66  C   UNL A   1      43.498  27.845  33.092  1.00  0.00     0.031 C 
ATOM     67  C   UNL A   1      43.223  29.320  35.065  1.00  0.00     0.034 A 
BRANCH  54  68
ATOM     68  C   UNL A   1      40.023  34.162  37.190  1.00  0.00     0.023 A 
ATOM     69  C   UNL A   1      40.419  35.499  36.978  1.00  0.00     0.012 A 
ATOM     70  C   UNL A   1      39.406  33.806  38.404  1.00  0.00     0.148 A 
ATOM     71  C   UNL A   1      40.229  36.460  37.970  1.00  0.00     0.002 A 
ATOM     72  C   UNL A   1      39.188  34.777  39.374  1.00  0.00     0.091 A 
ATOM     73  F   UNL A   1      39.067  32.524  38.597  1.00  0.00    -0.205 F 
ATOM     74  C   UNL A   1      39.604  36.102  39.162  1.00  0.00     0.022 A 
BRANCH  72  75
ATOM     75  S   UNL A   1      38.335  34.425  40.916  1.00  0.00     0.127 S 
ATOM     76  O   UNL A   1      37.757  35.728  41.237  1.00  0.00    -0.237 OA
ATOM     77  O   UNL A   1      37.363  33.410  40.509  1.00  0.00    -0.237 OA
ATOM     78  O   UNL A   1      39.358  33.947  41.835  1.00  0.00    -0.744 OA
ENDBRANCH  72  75
ENDBRANCH  54  68
BRANCH  55  79
ATOM     79  C   UNL A   1      41.194  27.831  29.535  1.00  0.00     0.023 A 
ATOM     80  C   UNL A   1      40.495  26.611  29.487  1.00  0.00     0.012 A 
ATOM     81  C   UNL A   1      42.054  28.172  28.470  1.00  0.00     0.148 A 
ATOM     82  C   UNL A   1      40.668  25.734  28.413  1.00  0.00     0.002 A 
ATOM     83  C   UNL A   1      42.186  27.316  27.380  1.00  0.00     0.091 A 
ATOM     84  F   UNL A   1      42.733  29.325  28.543  1.00  0.00    -0.205 F 
ATOM     85  C   UNL A   1      41.503  26.090  27.356  1.00  0.00     0.022 A 
BRANCH  83  86
ATOM     86  S   UNL A   1      43.172  27.754  25.940  1.00  0.00     0.127 S 
ATOM     87  O   UNL A   1      42.963  29.197  25.859  1.00  0.00    -0.237 OA
ATOM     88  O   UNL A   1      44.523  27.355  26.337  1.00  0.00    -0.237 OA
ATOM     89  O   UNL A   1      42.629  26.969  24.837  1.00  0.00    -0.744 OA
ENDBRANCH  83  86
ENDBRANCH  55  79
BRANCH  67  90
ATOM     90  C   UNL A   1      44.377  28.609  35.721  1.00  0.00     0.023 A 
ATOM     91  C   UNL A   1      45.692  29.047  35.477  1.00  0.00     0.012 A 
ATOM     92  C   UNL A   1      44.156  27.574  36.652  1.00  0.00     0.148 A 
ATOM     93  C   UNL A   1      46.772  28.449  36.126  1.00  0.00     0.002 A 
ATOM     94  C   UNL A   1      45.232  27.011  37.328  1.00  0.00     0.091 A 
ATOM     95  F   UNL A   1      42.898  27.155  36.860  1.00  0.00    -0.205 F 
ATOM     96  C   UNL A   1      46.542  27.441  37.060  1.00  0.00     0.022 A 
BRANCH  94  97
ATOM     97  S   UNL A   1      45.010  25.777  38.615  1.00  0.00     0.127 S 
ATOM     98  O   UNL A   1      46.389  25.525  39.030  1.00  0.00    -0.237 OA
ATOM     99  O   UNL A   1      44.198  26.490  39.602  1.00  0.00    -0.237 OA
ATOM    100  O   UNL A   1      44.329  24.660  37.975  1.00  0.00    -0.744 OA
ENDBRANCH  94  97
ENDBRANCH  67  90
ENDBRANCH  41  42
ENDBRANCH  34  36
ENDBRANCH  33  34
ENDBRANCH  32  33
ENDBRANCH  31  32
ENDBRANCH  30  31
ENDBRANCH  29  30
ENDBRANCH  28  29
ENDBRANCH  27  28
ENDBRANCH   1  27
TORSDOF 27
ENDMDL
