MODEL 1
REMARK VINA RESULT:      -7.4      0.000      0.000
REMARK SMILES O=C(OCCOCCOCCOCCOC(=O)[C@@H]1C=C[C@H](NC(=O)[C@@H]2Cc3ccccc3O2)C1)c1ccc(-c2c3nc(c(-c4cccc(S(=O)(=O)[O-])c4F)c4ccc([nH]4)c(-c4cccc(S(=O)(=O)[O-])c4F)c4nc(c(-c5cccc(S(=O)(=O)[O-])c5F)c5ccc2[nH]5)C=C4)C=C3)cc1
REMARK SMILES IDX 8 1 7 2 6 3 5 4 4 5 3 6 2 7 1 8 35 9 36 10 97 11 37 12 96 13
REMARK SMILES IDX 38 14 39 15 40 16 90 17 41 18 95 19 89 20 91 21 42 22 94 23
REMARK SMILES IDX 88 24 87 25 43 27 75 28 55 29 74 30 56 31 59 32 73 33 92 34
REMARK SMILES IDX 57 35 58 36 72 38 93 39 60 40 44 41 45 42 53 43 46 44 48 45
REMARK SMILES IDX 54 46 47 47 49 48 50 49 51 50 52 51 76 52 77 53 85 54 78 55
REMARK SMILES IDX 80 56 86 57 79 58 81 59 82 60 83 61 84 62 61 63 62 64 70 65
REMARK SMILES IDX 63 66 65 67 71 68 64 69 66 70 67 71 68 72 69 73 9 74 10 75
REMARK SMILES IDX 11 76 12 77 13 78 14 79 15 80 16 81 17 82 18 83 19 84 34 85
REMARK SMILES IDX 20 86 21 87 22 88 23 89 24 91 25 92 26 93 33 94 27 95 32 96
REMARK SMILES IDX 28 97 31 98 29 99 30 100
REMARK H PARENT 91 26 59 37 22 90
REMARK Flexibility Score: inf
ROOT
ATOM      1  C   UNL A   1      41.438  23.098  27.105  1.00  0.00     0.188 C 
ENDROOT
BRANCH   1   2
ATOM      2  C   UNL A   1      42.432  23.142  25.943  1.00  0.00     0.188 C 
BRANCH   2   3
ATOM      3  O   UNL A   1      43.715  22.743  26.394  1.00  0.00    -0.376 OA
BRANCH   3   4
ATOM      4  C   UNL A   1      44.689  22.233  25.502  1.00  0.00     0.202 C 
BRANCH   4   5
ATOM      5  C   UNL A   1      45.034  23.028  24.258  1.00  0.00     0.261 C 
BRANCH   5   6
ATOM      6  O   UNL A   1      45.113  24.455  24.391  1.00  0.00    -0.460 OA
BRANCH   6   7
ATOM      7  C   UNL A   1      45.941  25.272  25.073  1.00  0.00     0.338 C 
ATOM      8  O   UNL A   1      47.115  25.340  24.708  1.00  0.00    -0.246 OA
BRANCH   7   9
ATOM      9  C   UNL A   1      45.524  26.136  26.203  1.00  0.00     0.060 A 
ATOM     10  C   UNL A   1      44.214  26.356  26.622  1.00  0.00     0.016 A 
ATOM     11  C   UNL A   1      46.555  26.647  26.997  1.00  0.00     0.016 A 
ATOM     12  C   UNL A   1      43.902  27.178  27.683  1.00  0.00     0.010 A 
ATOM     13  C   UNL A   1      46.263  27.405  28.128  1.00  0.00     0.010 A 
ATOM     14  C   UNL A   1      44.930  27.705  28.436  1.00  0.00    -0.014 A 
BRANCH  14  15
ATOM     15  C   UNL A   1      44.592  28.716  29.435  1.00  0.00     0.031 A 
ATOM     16  C   UNL A   1      44.360  28.223  30.820  1.00  0.00     0.074 A 
ATOM     17  C   UNL A   1      44.561  30.015  29.101  1.00  0.00     0.049 A 
ATOM     18  N   UNL A   1      43.786  28.816  31.820  1.00  0.00    -0.248 NA
ATOM     19  C   UNL A   1      44.818  26.848  31.106  1.00  0.00     0.031 C 
ATOM     20  C   UNL A   1      44.939  30.565  27.795  1.00  0.00     0.029 A 
ATOM     21  N   UNL A   1      44.170  31.103  29.825  1.00  0.00    -0.354 N 
ATOM     22  C   UNL A   1      43.708  27.855  32.816  1.00  0.00     0.074 A 
ATOM     23  C   UNL A   1      44.331  26.653  32.319  1.00  0.00     0.031 C 
ATOM     24  C   UNL A   1      44.719  31.888  27.799  1.00  0.00     0.029 A 
ATOM     25  C   UNL A   1      44.090  32.243  29.062  1.00  0.00     0.049 A 
ATOM     26  H   UNL A   1      43.967  31.075  30.788  1.00  0.00     0.167 HD
ATOM     27  C   UNL A   1      43.122  27.981  34.025  1.00  0.00     0.034 A 
ATOM     28  C   UNL A   1      43.478  33.409  29.334  1.00  0.00     0.034 A 
ATOM     29  C   UNL A   1      42.527  29.215  34.450  1.00  0.00     0.049 A 
ATOM     30  C   UNL A   1      42.795  33.524  30.667  1.00  0.00     0.074 A 
ATOM     31  C   UNL A   1      41.886  29.509  35.634  1.00  0.00     0.029 A 
ATOM     32  N   UNL A   1      42.499  30.370  33.672  1.00  0.00    -0.354 N 
ATOM     33  N   UNL A   1      42.689  32.619  31.614  1.00  0.00    -0.248 NA
ATOM     34  C   UNL A   1      42.160  34.807  30.983  1.00  0.00     0.031 C 
ATOM     35  C   UNL A   1      41.433  30.829  35.553  1.00  0.00     0.029 A 
ATOM     36  C   UNL A   1      41.843  31.378  34.342  1.00  0.00     0.049 A 
ATOM     37  H   UNL A   1      42.891  30.453  32.773  1.00  0.00     0.167 HD
ATOM     38  C   UNL A   1      42.008  33.229  32.656  1.00  0.00     0.074 A 
ATOM     39  C   UNL A   1      41.726  34.586  32.219  1.00  0.00     0.031 C 
ATOM     40  C   UNL A   1      41.644  32.725  33.862  1.00  0.00     0.034 A 
BRANCH  27  41
ATOM     41  C   UNL A   1      43.033  26.744  34.874  1.00  0.00     0.023 A 
ATOM     42  C   UNL A   1      41.869  25.945  34.866  1.00  0.00     0.012 A 
ATOM     43  C   UNL A   1      44.085  26.416  35.750  1.00  0.00     0.148 A 
ATOM     44  C   UNL A   1      41.731  24.883  35.761  1.00  0.00     0.002 A 
ATOM     45  C   UNL A   1      43.964  25.324  36.598  1.00  0.00     0.091 A 
ATOM     46  F   UNL A   1      45.167  27.207  35.773  1.00  0.00    -0.205 F 
ATOM     47  C   UNL A   1      42.780  24.569  36.621  1.00  0.00     0.022 A 
BRANCH  45  48
ATOM     48  S   UNL A   1      45.284  24.797  37.693  1.00  0.00     0.127 S 
ATOM     49  O   UNL A   1      44.544  24.423  38.894  1.00  0.00    -0.237 OA
ATOM     50  O   UNL A   1      45.865  23.678  36.955  1.00  0.00    -0.237 OA
ATOM     51  O   UNL A   1      46.169  25.952  37.838  1.00  0.00    -0.744 OA
ENDBRANCH  45  48
ENDBRANCH  27  41
BRANCH  28  52
ATOM     52  C   UNL A   1      43.462  34.491  28.311  1.00  0.00     0.023 A 
ATOM     53  C   UNL A   1      42.344  34.640  27.472  1.00  0.00     0.012 A 
ATOM     54  C   UNL A   1      44.508  35.436  28.237  1.00  0.00     0.148 A 
ATOM     55  C   UNL A   1      42.274  35.702  26.567  1.00  0.00     0.002 A 
ATOM     56  C   UNL A   1      44.407  36.521  27.375  1.00  0.00     0.091 A 
ATOM     57  F   UNL A   1      45.564  35.276  29.047  1.00  0.00    -0.205 F 
ATOM     58  C   UNL A   1      43.295  36.649  26.528  1.00  0.00     0.022 A 
BRANCH  56  59
ATOM     59  S   UNL A   1      45.605  37.859  27.347  1.00  0.00     0.127 S 
ATOM     60  O   UNL A   1      44.936  38.842  26.501  1.00  0.00    -0.237 OA
ATOM     61  O   UNL A   1      45.690  38.217  28.762  1.00  0.00    -0.237 OA
ATOM     62  O   UNL A   1      46.829  37.285  26.796  1.00  0.00    -0.744 OA
ENDBRANCH  56  59
ENDBRANCH  28  52
BRANCH  40  63
ATOM     63  C   UNL A   1      40.975  33.663  34.823  1.00  0.00     0.023 A 
ATOM     64  C   UNL A   1      39.575  33.799  34.821  1.00  0.00     0.012 A 
ATOM     65  C   UNL A   1      41.744  34.281  35.827  1.00  0.00     0.148 A 
ATOM     66  C   UNL A   1      38.948  34.550  35.812  1.00  0.00     0.002 A 
ATOM     67  C   UNL A   1      41.108  34.974  36.843  1.00  0.00     0.091 A 
ATOM     68  F   UNL A   1      43.077  34.143  35.786  1.00  0.00    -0.205 F 
ATOM     69  C   UNL A   1      39.711  35.120  36.832  1.00  0.00     0.022 A 
BRANCH  67  70
ATOM     70  S   UNL A   1      41.997  35.627  38.258  1.00  0.00     0.127 S 
ATOM     71  O   UNL A   1      40.930  36.307  38.991  1.00  0.00    -0.237 OA
ATOM     72  O   UNL A   1      42.497  34.408  38.894  1.00  0.00    -0.237 OA
ATOM     73  O   UNL A   1      43.032  36.499  37.720  1.00  0.00    -0.744 OA
ENDBRANCH  67  70
ENDBRANCH  40  63
ENDBRANCH  14  15
ENDBRANCH   7   9
ENDBRANCH   6   7
ENDBRANCH   5   6
ENDBRANCH   4   5
ENDBRANCH   3   4
ENDBRANCH   2   3
ENDBRANCH   1   2
BRANCH   1  74
ATOM     74  O   UNL A   1      41.452  24.242  27.956  1.00  0.00    -0.377 OA
BRANCH  74  75
ATOM     75  C   UNL A   1      40.660  25.345  27.520  1.00  0.00     0.188 C 
BRANCH  75  76
ATOM     76  C   UNL A   1      40.522  26.580  28.438  1.00  0.00     0.188 C 
BRANCH  76  77
ATOM     77  O   UNL A   1      39.455  27.439  28.097  1.00  0.00    -0.376 OA
BRANCH  77  78
ATOM     78  C   UNL A   1      39.782  28.797  27.839  1.00  0.00     0.202 C 
BRANCH  78  79
ATOM     79  C   UNL A   1      41.097  29.367  28.407  1.00  0.00     0.261 C 
BRANCH  79  80
ATOM     80  O   UNL A   1      41.145  29.606  29.835  1.00  0.00    -0.463 OA
BRANCH  80  81
ATOM     81  C   UNL A   1      40.062  30.162  30.432  1.00  0.00     0.312 C 
ATOM     82  O   UNL A   1      39.775  31.350  30.350  1.00  0.00    -0.252 OA
BRANCH  81  83
ATOM     83  C   UNL A   1      39.278  29.160  31.308  1.00  0.00     0.124 C 
ATOM     84  C   UNL A   1      37.861  28.801  30.984  1.00  0.00    -0.014 C 
ATOM     85  C   UNL A   1      39.114  29.667  32.759  1.00  0.00     0.048 C 
ATOM     86  C   UNL A   1      36.991  29.276  31.885  1.00  0.00    -0.006 C 
ATOM     87  C   UNL A   1      37.634  30.069  32.961  1.00  0.00     0.106 C 
BRANCH  87  88
ATOM     88  N   UNL A   1      37.444  31.521  32.866  1.00  0.00    -0.347 N 
ATOM     89  C   UNL A   1      36.245  32.206  32.960  1.00  0.00     0.261 C 
ATOM     90  H   UNL A   1      38.252  32.064  32.719  1.00  0.00     0.164 HD
ATOM     91  O   UNL A   1      36.041  32.889  33.967  1.00  0.00    -0.271 OA
BRANCH  89  92
ATOM     92  C   UNL A   1      35.373  32.340  31.701  1.00  0.00     0.266 C 
ATOM     93  C   UNL A   1      36.136  32.470  30.366  1.00  0.00     0.095 C 
ATOM     94  O   UNL A   1      34.442  33.419  31.814  1.00  0.00    -0.480 OA
ATOM     95  C   UNL A   1      35.273  33.464  29.675  1.00  0.00    -0.002 A 
ATOM     96  C   UNL A   1      34.385  33.999  30.587  1.00  0.00     0.123 A 
ATOM     97  C   UNL A   1      35.243  33.888  28.360  1.00  0.00     0.008 A 
ATOM     98  C   UNL A   1      33.474  34.984  30.269  1.00  0.00     0.047 A 
ATOM     99  C   UNL A   1      34.311  34.874  28.000  1.00  0.00     0.001 A 
ATOM    100  C   UNL A   1      33.439  35.428  28.952  1.00  0.00     0.004 A 
ENDBRANCH  89  92
ENDBRANCH  87  88
ENDBRANCH  81  83
ENDBRANCH  80  81
ENDBRANCH  79  80
ENDBRANCH  78  79
ENDBRANCH  77  78
ENDBRANCH  76  77
ENDBRANCH  75  76
ENDBRANCH  74  75
ENDBRANCH   1  74
TORSDOF 25
ENDMDL
MODEL 2
REMARK VINA RESULT:      -7.3      3.258      6.781
REMARK SMILES O=C(OCCOCCOCCOCCOC(=O)[C@@H]1C=C[C@H](NC(=O)[C@@H]2Cc3ccccc3O2)C1)c1ccc(-c2c3nc(c(-c4cccc(S(=O)(=O)[O-])c4F)c4ccc([nH]4)c(-c4cccc(S(=O)(=O)[O-])c4F)c4nc(c(-c5cccc(S(=O)(=O)[O-])c5F)c5ccc2[nH]5)C=C4)C=C3)cc1
REMARK SMILES IDX 8 1 7 2 6 3 5 4 4 5 3 6 2 7 1 8 35 9 36 10 97 11 37 12 96 13
REMARK SMILES IDX 38 14 39 15 40 16 90 17 41 18 95 19 89 20 91 21 42 22 94 23
REMARK SMILES IDX 88 24 87 25 43 27 75 28 55 29 74 30 56 31 59 32 73 33 92 34
REMARK SMILES IDX 57 35 58 36 72 38 93 39 60 40 44 41 45 42 53 43 46 44 48 45
REMARK SMILES IDX 54 46 47 47 49 48 50 49 51 50 52 51 76 52 77 53 85 54 78 55
REMARK SMILES IDX 80 56 86 57 79 58 81 59 82 60 83 61 84 62 61 63 62 64 70 65
REMARK SMILES IDX 63 66 65 67 71 68 64 69 66 70 67 71 68 72 69 73 9 74 10 75
REMARK SMILES IDX 11 76 12 77 13 78 14 79 15 80 16 81 17 82 18 83 19 84 34 85
REMARK SMILES IDX 20 86 21 87 22 88 23 89 24 91 25 92 26 93 33 94 27 95 32 96
REMARK SMILES IDX 28 97 31 98 29 99 30 100
REMARK H PARENT 91 26 59 37 22 90
REMARK Flexibility Score: inf
ROOT
ATOM      1  C   UNL A   1      48.286  27.325  22.896  1.00  0.00     0.188 C 
ENDROOT
BRANCH   1   2
ATOM      2  C   UNL A   1      49.719  27.437  22.375  1.00  0.00     0.188 C 
BRANCH   2   3
ATOM      3  O   UNL A   1      50.632  27.306  23.451  1.00  0.00    -0.376 OA
BRANCH   3   4
ATOM      4  C   UNL A   1      51.592  28.307  23.736  1.00  0.00     0.202 C 
BRANCH   4   5
ATOM      5  C   UNL A   1      52.459  28.163  24.971  1.00  0.00     0.261 C 
BRANCH   5   6
ATOM      6  O   UNL A   1      52.395  26.914  25.676  1.00  0.00    -0.460 OA
BRANCH   6   7
ATOM      7  C   UNL A   1      52.156  26.593  26.963  1.00  0.00     0.338 C 
ATOM      8  O   UNL A   1      53.005  25.934  27.562  1.00  0.00    -0.246 OA
BRANCH   7   9
ATOM      9  C   UNL A   1      50.959  27.023  27.726  1.00  0.00     0.060 A 
ATOM     10  C   UNL A   1      49.640  26.679  27.439  1.00  0.00     0.016 A 
ATOM     11  C   UNL A   1      51.207  27.712  28.918  1.00  0.00     0.016 A 
ATOM     12  C   UNL A   1      48.576  27.121  28.194  1.00  0.00     0.010 A 
ATOM     13  C   UNL A   1      50.151  28.089  29.745  1.00  0.00     0.010 A 
ATOM     14  C   UNL A   1      48.834  27.830  29.349  1.00  0.00    -0.014 A 
BRANCH  14  15
ATOM     15  C   UNL A   1      47.700  28.448  30.034  1.00  0.00     0.031 A 
ATOM     16  C   UNL A   1      47.078  27.652  31.127  1.00  0.00     0.074 A 
ATOM     17  C   UNL A   1      47.309  29.690  29.711  1.00  0.00     0.049 A 
ATOM     18  N   UNL A   1      45.925  27.804  31.702  1.00  0.00    -0.248 NA
ATOM     19  C   UNL A   1      47.860  26.501  31.621  1.00  0.00     0.031 C 
ATOM     20  C   UNL A   1      47.989  30.574  28.759  1.00  0.00     0.029 A 
ATOM     21  N   UNL A   1      46.230  30.411  30.131  1.00  0.00    -0.354 N 
ATOM     22  C   UNL A   1      45.790  26.707  32.539  1.00  0.00     0.074 A 
ATOM     23  C   UNL A   1      46.995  25.921  32.433  1.00  0.00     0.031 C 
ATOM     24  C   UNL A   1      47.282  31.707  28.636  1.00  0.00     0.029 A 
ATOM     25  C   UNL A   1      46.060  31.571  29.415  1.00  0.00     0.049 A 
ATOM     26  H   UNL A   1      45.637  30.132  30.866  1.00  0.00     0.167 HD
ATOM     27  C   UNL A   1      44.719  26.387  33.296  1.00  0.00     0.034 A 
ATOM     28  C   UNL A   1      44.983  32.371  29.331  1.00  0.00     0.034 A 
ATOM     29  C   UNL A   1      43.558  27.227  33.352  1.00  0.00     0.049 A 
ATOM     30  C   UNL A   1      43.783  31.984  30.147  1.00  0.00     0.074 A 
ATOM     31  C   UNL A   1      42.388  27.045  34.057  1.00  0.00     0.029 A 
ATOM     32  N   UNL A   1      43.431  28.422  32.648  1.00  0.00    -0.354 N 
ATOM     33  N   UNL A   1      43.626  30.937  30.928  1.00  0.00    -0.248 NA
ATOM     34  C   UNL A   1      42.620  32.874  30.088  1.00  0.00     0.031 C 
ATOM     35  C   UNL A   1      41.536  28.110  33.744  1.00  0.00     0.029 A 
ATOM     36  C   UNL A   1      42.198  28.986  32.890  1.00  0.00     0.049 A 
ATOM     37  H   UNL A   1      44.122  28.806  32.062  1.00  0.00     0.167 HD
ATOM     38  C   UNL A   1      42.362  31.059  31.484  1.00  0.00     0.074 A 
ATOM     39  C   UNL A   1      41.796  32.285  30.948  1.00  0.00     0.031 C 
ATOM     40  C   UNL A   1      41.722  30.241  32.357  1.00  0.00     0.034 A 
BRANCH  27  41
ATOM     41  C   UNL A   1      44.754  25.062  34.003  1.00  0.00     0.023 A 
ATOM     42  C   UNL A   1      44.233  23.902  33.391  1.00  0.00     0.012 A 
ATOM     43  C   UNL A   1      45.237  24.984  35.324  1.00  0.00     0.148 A 
ATOM     44  C   UNL A   1      44.133  22.707  34.105  1.00  0.00     0.002 A 
ATOM     45  C   UNL A   1      45.185  23.778  36.009  1.00  0.00     0.091 A 
ATOM     46  F   UNL A   1      45.693  26.103  35.905  1.00  0.00    -0.205 F 
ATOM     47  C   UNL A   1      44.615  22.643  35.410  1.00  0.00     0.022 A 
BRANCH  45  48
ATOM     48  S   UNL A   1      45.842  23.577  37.667  1.00  0.00     0.127 S 
ATOM     49  O   UNL A   1      45.706  22.138  37.869  1.00  0.00    -0.237 OA
ATOM     50  O   UNL A   1      47.216  24.048  37.510  1.00  0.00    -0.237 OA
ATOM     51  O   UNL A   1      45.010  24.412  38.531  1.00  0.00    -0.744 OA
ENDBRANCH  45  48
ENDBRANCH  27  41
BRANCH  28  52
ATOM     52  C   UNL A   1      45.007  33.550  28.421  1.00  0.00     0.023 A 
ATOM     53  C   UNL A   1      44.501  33.433  27.115  1.00  0.00     0.012 A 
ATOM     54  C   UNL A   1      45.436  34.814  28.881  1.00  0.00     0.148 A 
ATOM     55  C   UNL A   1      44.434  34.549  26.278  1.00  0.00     0.002 A 
ATOM     56  C   UNL A   1      45.316  35.930  28.063  1.00  0.00     0.091 A 
ATOM     57  F   UNL A   1      45.915  34.904  30.130  1.00  0.00    -0.205 F 
ATOM     58  C   UNL A   1      44.828  35.798  26.754  1.00  0.00     0.022 A 
BRANCH  56  59
ATOM     59  S   UNL A   1      45.671  37.597  28.631  1.00  0.00     0.127 S 
ATOM     60  O   UNL A   1      45.387  38.387  27.437  1.00  0.00    -0.237 OA
ATOM     61  O   UNL A   1      44.709  37.756  29.720  1.00  0.00    -0.237 OA
ATOM     62  O   UNL A   1      47.067  37.583  29.056  1.00  0.00    -0.744 OA
ENDBRANCH  56  59
ENDBRANCH  28  52
BRANCH  40  63
ATOM     63  C   UNL A   1      40.373  30.682  32.845  1.00  0.00     0.023 A 
ATOM     64  C   UNL A   1      40.266  31.513  33.976  1.00  0.00     0.012 A 
ATOM     65  C   UNL A   1      39.234  30.389  32.072  1.00  0.00     0.148 A 
ATOM     66  C   UNL A   1      39.030  32.043  34.334  1.00  0.00     0.002 A 
ATOM     67  C   UNL A   1      38.021  30.970  32.400  1.00  0.00     0.091 A 
ATOM     68  F   UNL A   1      39.372  29.580  31.013  1.00  0.00    -0.205 F 
ATOM     69  C   UNL A   1      37.913  31.788  33.536  1.00  0.00     0.022 A 
BRANCH  67  70
ATOM     70  S   UNL A   1      36.567  30.801  31.361  1.00  0.00     0.127 S 
ATOM     71  O   UNL A   1      35.576  31.573  32.108  1.00  0.00    -0.237 OA
ATOM     72  O   UNL A   1      37.011  31.421  30.112  1.00  0.00    -0.237 OA
ATOM     73  O   UNL A   1      36.299  29.373  31.267  1.00  0.00    -0.744 OA
ENDBRANCH  67  70
ENDBRANCH  40  63
ENDBRANCH  14  15
ENDBRANCH   7   9
ENDBRANCH   6   7
ENDBRANCH   5   6
ENDBRANCH   4   5
ENDBRANCH   3   4
ENDBRANCH   2   3
ENDBRANCH   1   2
BRANCH   1  74
ATOM     74  O   UNL A   1      48.062  27.904  24.180  1.00  0.00    -0.377 OA
BRANCH  74  75
ATOM     75  C   UNL A   1      46.698  28.115  24.532  1.00  0.00     0.188 C 
BRANCH  75  76
ATOM     76  C   UNL A   1      46.356  28.597  25.960  1.00  0.00     0.188 C 
BRANCH  76  77
ATOM     77  O   UNL A   1      45.720  29.857  26.010  1.00  0.00    -0.376 OA
BRANCH  77  78
ATOM     78  C   UNL A   1      44.432  29.902  26.605  1.00  0.00     0.202 C 
BRANCH  78  79
ATOM     79  C   UNL A   1      43.556  28.633  26.582  1.00  0.00     0.261 C 
BRANCH  79  80
ATOM     80  O   UNL A   1      42.130  28.823  26.407  1.00  0.00    -0.463 OA
BRANCH  80  81
ATOM     81  C   UNL A   1      41.337  28.777  27.505  1.00  0.00     0.312 C 
ATOM     82  O   UNL A   1      41.616  29.316  28.569  1.00  0.00    -0.252 OA
BRANCH  81  83
ATOM     83  C   UNL A   1      40.087  27.891  27.308  1.00  0.00     0.124 C 
ATOM     84  C   UNL A   1      39.138  27.639  28.439  1.00  0.00    -0.014 C 
ATOM     85  C   UNL A   1      40.461  26.441  26.927  1.00  0.00     0.048 C 
ATOM     86  C   UNL A   1      39.172  26.371  28.866  1.00  0.00    -0.006 C 
ATOM     87  C   UNL A   1      40.164  25.534  28.145  1.00  0.00     0.106 C 
BRANCH  87  88
ATOM     88  N   UNL A   1      41.381  25.217  28.900  1.00  0.00    -0.347 N 
ATOM     89  C   UNL A   1      42.677  25.218  28.417  1.00  0.00     0.261 C 
ATOM     90  H   UNL A   1      41.263  24.979  29.849  1.00  0.00     0.164 HD
ATOM     91  O   UNL A   1      43.442  26.108  28.797  1.00  0.00    -0.271 OA
BRANCH  89  92
ATOM     92  C   UNL A   1      43.195  23.963  27.694  1.00  0.00     0.266 C 
ATOM     93  C   UNL A   1      44.710  23.698  27.810  1.00  0.00     0.095 C 
ATOM     94  O   UNL A   1      42.823  23.956  26.314  1.00  0.00    -0.480 OA
ATOM     95  C   UNL A   1      44.988  23.205  26.435  1.00  0.00    -0.002 A 
ATOM     96  C   UNL A   1      43.889  23.451  25.638  1.00  0.00     0.123 A 
ATOM     97  C   UNL A   1      46.102  22.588  25.896  1.00  0.00     0.008 A 
ATOM     98  C   UNL A   1      43.845  23.150  24.293  1.00  0.00     0.047 A 
ATOM     99  C   UNL A   1      46.079  22.248  24.534  1.00  0.00     0.001 A 
ATOM    100  C   UNL A   1      44.961  22.539  23.733  1.00  0.00     0.004 A 
ENDBRANCH  89  92
ENDBRANCH  87  88
ENDBRANCH  81  83
ENDBRANCH  80  81
ENDBRANCH  79  80
ENDBRANCH  78  79
ENDBRANCH  77  78
ENDBRANCH  76  77
ENDBRANCH  75  76
ENDBRANCH  74  75
ENDBRANCH   1  74
TORSDOF 25
ENDMDL
MODEL 3
REMARK VINA RESULT:      -7.1      5.555     11.737
REMARK SMILES O=C(OCCOCCOCCOCCOC(=O)[C@@H]1C=C[C@H](NC(=O)[C@@H]2Cc3ccccc3O2)C1)c1ccc(-c2c3nc(c(-c4cccc(S(=O)(=O)[O-])c4F)c4ccc([nH]4)c(-c4cccc(S(=O)(=O)[O-])c4F)c4nc(c(-c5cccc(S(=O)(=O)[O-])c5F)c5ccc2[nH]5)C=C4)C=C3)cc1
REMARK SMILES IDX 8 1 7 2 6 3 5 4 4 5 3 6 2 7 1 8 35 9 36 10 97 11 37 12 96 13
REMARK SMILES IDX 38 14 39 15 40 16 90 17 41 18 95 19 89 20 91 21 42 22 94 23
REMARK SMILES IDX 88 24 87 25 43 27 75 28 55 29 74 30 56 31 59 32 73 33 92 34
REMARK SMILES IDX 57 35 58 36 72 38 93 39 60 40 44 41 45 42 53 43 46 44 48 45
REMARK SMILES IDX 54 46 47 47 49 48 50 49 51 50 52 51 76 52 77 53 85 54 78 55
REMARK SMILES IDX 80 56 86 57 79 58 81 59 82 60 83 61 84 62 61 63 62 64 70 65
REMARK SMILES IDX 63 66 65 67 71 68 64 69 66 70 67 71 68 72 69 73 9 74 10 75
REMARK SMILES IDX 11 76 12 77 13 78 14 79 15 80 16 81 17 82 18 83 19 84 34 85
REMARK SMILES IDX 20 86 21 87 22 88 23 89 24 91 25 92 26 93 33 94 27 95 32 96
REMARK SMILES IDX 28 97 31 98 29 99 30 100
REMARK H PARENT 91 26 59 37 22 90
REMARK Flexibility Score: inf
ROOT
ATOM      1  C   UNL A   1      35.912  33.718  33.636  1.00  0.00     0.188 C 
ENDROOT
BRANCH   1   2
ATOM      2  C   UNL A   1      34.428  33.365  33.744  1.00  0.00     0.188 C 
BRANCH   2   3
ATOM      3  O   UNL A   1      33.902  33.103  32.454  1.00  0.00    -0.376 OA
BRANCH   3   4
ATOM      4  C   UNL A   1      34.736  32.722  31.375  1.00  0.00     0.202 C 
BRANCH   4   5
ATOM      5  C   UNL A   1      34.946  33.694  30.231  1.00  0.00     0.261 C 
BRANCH   5   6
ATOM      6  O   UNL A   1      34.796  33.182  28.899  1.00  0.00    -0.460 OA
BRANCH   6   7
ATOM      7  C   UNL A   1      35.086  31.995  28.329  1.00  0.00     0.338 C 
ATOM      8  O   UNL A   1      34.405  31.633  27.370  1.00  0.00    -0.246 OA
BRANCH   7   9
ATOM      9  C   UNL A   1      36.205  31.116  28.746  1.00  0.00     0.060 A 
ATOM     10  C   UNL A   1      36.084  29.816  29.231  1.00  0.00     0.016 A 
ATOM     11  C   UNL A   1      37.492  31.595  28.484  1.00  0.00     0.016 A 
ATOM     12  C   UNL A   1      37.173  29.058  29.603  1.00  0.00     0.010 A 
ATOM     13  C   UNL A   1      38.607  30.810  28.767  1.00  0.00     0.010 A 
ATOM     14  C   UNL A   1      38.437  29.558  29.372  1.00  0.00    -0.014 A 
BRANCH  14  15
ATOM     15  C   UNL A   1      39.571  28.830  29.938  1.00  0.00     0.031 A 
ATOM     16  C   UNL A   1      40.139  29.375  31.201  1.00  0.00     0.074 A 
ATOM     17  C   UNL A   1      40.009  27.703  29.359  1.00  0.00     0.049 A 
ATOM     18  N   UNL A   1      41.280  29.127  31.765  1.00  0.00    -0.248 NA
ATOM     19  C   UNL A   1      39.308  30.366  31.914  1.00  0.00     0.031 C 
ATOM     20  C   UNL A   1      39.383  27.039  28.211  1.00  0.00     0.029 A 
ATOM     21  N   UNL A   1      41.099  26.932  29.642  1.00  0.00    -0.354 N 
ATOM     22  C   UNL A   1      41.358  30.010  32.832  1.00  0.00     0.074 A 
ATOM     23  C   UNL A   1      40.132  30.770  32.864  1.00  0.00     0.031 C 
ATOM     24  C   UNL A   1      40.128  25.980  27.860  1.00  0.00     0.029 A 
ATOM     25  C   UNL A   1      41.325  25.967  28.690  1.00  0.00     0.049 A 
ATOM     26  H   UNL A   1      41.663  27.054  30.440  1.00  0.00     0.167 HD
ATOM     27  C   UNL A   1      42.397  30.178  33.675  1.00  0.00     0.034 A 
ATOM     28  C   UNL A   1      42.428  25.234  28.465  1.00  0.00     0.034 A 
ATOM     29  C   UNL A   1      43.582  29.376  33.581  1.00  0.00     0.049 A 
ATOM     30  C   UNL A   1      43.593  25.457  29.386  1.00  0.00     0.074 A 
ATOM     31  C   UNL A   1      44.727  29.423  34.347  1.00  0.00     0.029 A 
ATOM     32  N   UNL A   1      43.766  28.373  32.631  1.00  0.00    -0.354 N 
ATOM     33  N   UNL A   1      43.696  26.305  30.386  1.00  0.00    -0.248 NA
ATOM     34  C   UNL A   1      44.785  24.632  29.168  1.00  0.00     0.031 C 
ATOM     35  C   UNL A   1      45.620  28.478  33.832  1.00  0.00     0.029 A 
ATOM     36  C   UNL A   1      45.009  27.800  32.782  1.00  0.00     0.049 A 
ATOM     37  H   UNL A   1      43.103  28.113  31.951  1.00  0.00     0.167 HD
ATOM     38  C   UNL A   1      44.948  26.093  30.943  1.00  0.00     0.074 A 
ATOM     39  C   UNL A   1      45.566  25.033  30.164  1.00  0.00     0.031 C 
ATOM     40  C   UNL A   1      45.539  26.709  31.997  1.00  0.00     0.034 A 
BRANCH  27  41
ATOM     41  C   UNL A   1      42.302  31.309  34.660  1.00  0.00     0.023 A 
ATOM     42  C   UNL A   1      41.790  31.095  35.958  1.00  0.00     0.012 A 
ATOM     43  C   UNL A   1      42.648  32.615  34.265  1.00  0.00     0.148 A 
ATOM     44  C   UNL A   1      41.565  32.171  36.819  1.00  0.00     0.002 A 
ATOM     45  C   UNL A   1      42.474  33.673  35.147  1.00  0.00     0.091 A 
ATOM     46  F   UNL A   1      43.096  32.807  33.016  1.00  0.00    -0.205 F 
ATOM     47  C   UNL A   1      41.913  33.458  36.416  1.00  0.00     0.022 A 
BRANCH  45  48
ATOM     48  S   UNL A   1      42.956  35.355  34.746  1.00  0.00     0.127 S 
ATOM     49  O   UNL A   1      42.694  36.047  36.005  1.00  0.00    -0.237 OA
ATOM     50  O   UNL A   1      44.370  35.198  34.414  1.00  0.00    -0.237 OA
ATOM     51  O   UNL A   1      42.110  35.757  33.624  1.00  0.00    -0.744 OA
ENDBRANCH  45  48
ENDBRANCH  27  41
BRANCH  28  52
ATOM     52  C   UNL A   1      42.465  24.289  27.314  1.00  0.00     0.023 A 
ATOM     53  C   UNL A   1      43.139  24.654  26.135  1.00  0.00     0.012 A 
ATOM     54  C   UNL A   1      41.922  22.991  27.422  1.00  0.00     0.148 A 
ATOM     55  C   UNL A   1      43.261  23.747  25.079  1.00  0.00     0.002 A 
ATOM     56  C   UNL A   1      42.093  22.076  26.390  1.00  0.00     0.091 A 
ATOM     57  F   UNL A   1      41.284  22.664  28.554  1.00  0.00    -0.205 F 
ATOM     58  C   UNL A   1      42.751  22.457  25.211  1.00  0.00     0.022 A 
BRANCH  56  59
ATOM     59  S   UNL A   1      41.592  20.356  26.519  1.00  0.00     0.127 S 
ATOM     60  O   UNL A   1      42.386  19.897  27.654  1.00  0.00    -0.237 OA
ATOM     61  O   UNL A   1      40.158  20.478  26.777  1.00  0.00    -0.237 OA
ATOM     62  O   UNL A   1      41.924  19.748  25.234  1.00  0.00    -0.744 OA
ENDBRANCH  56  59
ENDBRANCH  28  52
BRANCH  40  63
ATOM     63  C   UNL A   1      46.887  26.203  32.419  1.00  0.00     0.023 A 
ATOM     64  C   UNL A   1      48.056  26.850  31.978  1.00  0.00     0.012 A 
ATOM     65  C   UNL A   1      46.965  25.180  33.382  1.00  0.00     0.148 A 
ATOM     66  C   UNL A   1      49.294  26.475  32.493  1.00  0.00     0.002 A 
ATOM     67  C   UNL A   1      48.193  24.855  33.933  1.00  0.00     0.091 A 
ATOM     68  F   UNL A   1      45.831  24.575  33.765  1.00  0.00    -0.205 F 
ATOM     69  C   UNL A   1      49.361  25.493  33.482  1.00  0.00     0.022 A 
BRANCH  67  70
ATOM     70  S   UNL A   1      48.355  23.701  35.297  1.00  0.00     0.127 S 
ATOM     71  O   UNL A   1      49.790  23.759  35.567  1.00  0.00    -0.237 OA
ATOM     72  O   UNL A   1      47.513  24.318  36.322  1.00  0.00    -0.237 OA
ATOM     73  O   UNL A   1      47.868  22.419  34.804  1.00  0.00    -0.744 OA
ENDBRANCH  67  70
ENDBRANCH  40  63
ENDBRANCH  14  15
ENDBRANCH   7   9
ENDBRANCH   6   7
ENDBRANCH   5   6
ENDBRANCH   4   5
ENDBRANCH   3   4
ENDBRANCH   2   3
ENDBRANCH   1   2
BRANCH   1  74
ATOM     74  O   UNL A   1      36.485  34.288  34.811  1.00  0.00    -0.377 OA
BRANCH  74  75
ATOM     75  C   UNL A   1      37.850  33.956  35.055  1.00  0.00     0.188 C 
BRANCH  75  76
ATOM     76  C   UNL A   1      38.182  32.642  35.798  1.00  0.00     0.188 C 
BRANCH  76  77
ATOM     77  O   UNL A   1      37.219  32.259  36.758  1.00  0.00    -0.376 OA
BRANCH  77  78
ATOM     78  C   UNL A   1      37.705  31.877  38.036  1.00  0.00     0.202 C 
BRANCH  78  79
ATOM     79  C   UNL A   1      36.887  32.254  39.287  1.00  0.00     0.261 C 
BRANCH  79  80
ATOM     80  O   UNL A   1      37.245  31.597  40.528  1.00  0.00    -0.463 OA
BRANCH  80  81
ATOM     81  C   UNL A   1      38.051  32.258  41.397  1.00  0.00     0.312 C 
ATOM     82  O   UNL A   1      38.213  33.472  41.384  1.00  0.00    -0.252 OA
BRANCH  81  83
ATOM     83  C   UNL A   1      38.821  31.310  42.342  1.00  0.00     0.124 C 
ATOM     84  C   UNL A   1      38.370  29.896  42.547  1.00  0.00    -0.014 C 
ATOM     85  C   UNL A   1      38.816  31.820  43.801  1.00  0.00     0.048 C 
ATOM     86  C   UNL A   1      37.890  29.683  43.777  1.00  0.00    -0.006 C 
ATOM     87  C   UNL A   1      37.885  30.900  44.626  1.00  0.00     0.106 C 
BRANCH  87  88
ATOM     88  N   UNL A   1      36.567  31.507  44.840  1.00  0.00    -0.347 N 
ATOM     89  C   UNL A   1      35.969  31.777  46.059  1.00  0.00     0.261 C 
ATOM     90  H   UNL A   1      36.054  31.748  44.035  1.00  0.00     0.164 HD
ATOM     91  O   UNL A   1      35.860  32.955  46.408  1.00  0.00    -0.271 OA
BRANCH  89  92
ATOM     92  C   UNL A   1      35.200  30.649  46.767  1.00  0.00     0.266 C 
ATOM     93  C   UNL A   1      35.898  29.274  46.794  1.00  0.00     0.095 C 
ATOM     94  O   UNL A   1      33.882  30.494  46.237  1.00  0.00    -0.480 OA
ATOM     95  C   UNL A   1      34.723  28.387  46.585  1.00  0.00    -0.002 A 
ATOM     96  C   UNL A   1      33.641  29.157  46.209  1.00  0.00     0.123 A 
ATOM     97  C   UNL A   1      34.581  27.017  46.707  1.00  0.00     0.008 A 
ATOM     98  C   UNL A   1      32.406  28.627  45.899  1.00  0.00     0.047 A 
ATOM     99  C   UNL A   1      33.329  26.451  46.420  1.00  0.00     0.001 A 
ATOM    100  C   UNL A   1      32.250  27.250  46.006  1.00  0.00     0.004 A 
ENDBRANCH  89  92
ENDBRANCH  87  88
ENDBRANCH  81  83
ENDBRANCH  80  81
ENDBRANCH  79  80
ENDBRANCH  78  79
ENDBRANCH  77  78
ENDBRANCH  76  77
ENDBRANCH  75  76
ENDBRANCH  74  75
ENDBRANCH   1  74
TORSDOF 25
ENDMDL
