MODEL 1
REMARK VINA RESULT:      -9.3      0.000      0.000
REMARK SMILES Cc1oc2cc3c(cc2c1C)[C@H](C)[C@@H](CC(=O)N[C@H](CC1=c2ccccc2=NC1)C(=O)OCCOCCOCCOCCOC(=O)c1ccc(-c2c4nc(c(-c5cccc(S(=O)(=O)[O-])c5F)c5ccc([nH]5)c(-c5cccc(S(=O)(=O)[O-])c5F)c5nc(c(-c6cccc(S(=O)(=O)[O-])c6F)c6ccc2[nH]6)C=C5)C=C4)cc1)C(=O)O3
REMARK SMILES IDX 38 1 37 2 36 3 35 4 34 5 33 6 32 7 30 8 31 9 19 10 18 11
REMARK SMILES IDX 16 12 17 13 15 15 14 16 1 17 2 18 3 19 10 20 4 21 9 22 11 23
REMARK SMILES IDX 5 24 8 25 6 26 7 27 112 28 12 29 110 30 13 31 111 32 20 33
REMARK SMILES IDX 21 34 22 35 29 36 23 37 27 38 28 39 24 40 26 41 25 42 39 43
REMARK SMILES IDX 40 44 41 45 42 46 43 47 44 48 45 49 46 50 47 51 48 52 109 53
REMARK SMILES IDX 49 54 108 55 50 56 51 57 52 58 102 59 53 60 107 61 101 62
REMARK SMILES IDX 103 63 54 64 106 65 100 66 99 67 55 69 87 70 67 71 86 72
REMARK SMILES IDX 68 73 71 74 85 75 104 76 69 77 70 78 84 80 105 81 72 82
REMARK SMILES IDX 56 83 57 84 65 85 58 86 60 87 66 88 59 89 61 90 62 91 63 92
REMARK SMILES IDX 64 93 88 94 89 95 97 96 90 97 92 98 98 99 91 100 93 101
REMARK SMILES IDX 94 102 95 103 96 104 73 105 74 106 82 107 75 108 77 109
REMARK SMILES IDX 83 110 76 111 78 112 79 113 80 114 81 115
REMARK H PARENT 18 14 103 68 71 79
REMARK Flexibility Score: inf
ROOT
ATOM      1  O   UNL A   1      33.222  24.418  24.948  1.00  0.00    -0.377 OA
ENDROOT
BRANCH   1   2
ATOM      2  C   UNL A   1      33.642  25.591  24.261  1.00  0.00     0.188 C 
BRANCH   2   3
ATOM      3  C   UNL A   1      32.383  26.293  23.732  1.00  0.00     0.188 C 
BRANCH   3   4
ATOM      4  O   UNL A   1      32.566  27.706  23.838  1.00  0.00    -0.376 OA
BRANCH   4   5
ATOM      5  C   UNL A   1      31.743  28.393  24.776  1.00  0.00     0.202 C 
BRANCH   5   6
ATOM      6  C   UNL A   1      32.125  29.824  25.202  1.00  0.00     0.261 C 
BRANCH   6   7
ATOM      7  O   UNL A   1      33.218  29.865  26.125  1.00  0.00    -0.462 OA
BRANCH   7   8
ATOM      8  C   UNL A   1      33.231  30.881  27.004  1.00  0.00     0.329 C 
ATOM      9  O   UNL A   1      32.222  31.515  27.320  1.00  0.00    -0.250 OA
BRANCH   8  10
ATOM     10  C   UNL A   1      34.536  30.976  27.832  1.00  0.00     0.196 C 
BRANCH  10  11
ATOM     11  N   UNL A   1      34.974  32.381  27.819  1.00  0.00    -0.342 N 
ATOM     12  C   UNL A   1      34.834  33.273  28.854  1.00  0.00     0.221 C 
ATOM     13  O   UNL A   1      34.886  34.490  28.661  1.00  0.00    -0.275 OA
ATOM     14  H   UNL A   1      35.404  32.710  26.996  1.00  0.00     0.164 HD
BRANCH  12  15
ATOM     15  C   UNL A   1      34.703  32.761  30.294  1.00  0.00     0.116 C 
BRANCH  15  16
ATOM     16  C   UNL A   1      35.924  33.030  31.195  1.00  0.00     0.116 C 
ATOM     17  C   UNL A   1      39.749  34.484  38.665  1.00  0.00     0.088 C 
ATOM     18  C   UNL A   1      39.012  34.063  37.456  1.00  0.00     0.105 A 
ATOM     19  O   UNL A   1      39.220  34.838  36.356  1.00  0.00    -0.461 OA
ATOM     20  C   UNL A   1      38.127  33.038  37.167  1.00  0.00    -0.002 A 
ATOM     21  C   UNL A   1      38.481  34.310  35.346  1.00  0.00     0.138 A 
ATOM     22  C   UNL A   1      37.805  33.179  35.782  1.00  0.00     0.024 A 
ATOM     23  C   UNL A   1      37.593  31.998  38.078  1.00  0.00     0.049 C 
ATOM     24  C   UNL A   1      38.379  34.838  34.069  1.00  0.00     0.095 A 
ATOM     25  C   UNL A   1      36.989  32.479  34.866  1.00  0.00     0.020 A 
ATOM     26  C   UNL A   1      37.517  34.156  33.207  1.00  0.00     0.138 A 
ATOM     27  C   UNL A   1      36.858  32.956  33.551  1.00  0.00    -0.001 A 
ATOM     28  O   UNL A   1      37.273  34.805  31.998  1.00  0.00    -0.426 OA
ATOM     29  C   UNL A   1      35.903  32.285  32.555  1.00  0.00     0.035 C 
ATOM     30  C   UNL A   1      35.990  34.473  31.646  1.00  0.00     0.315 C 
ATOM     31  C   UNL A   1      36.195  30.793  32.373  1.00  0.00     0.014 C 
ATOM     32  O   UNL A   1      35.038  35.228  31.810  1.00  0.00    -0.251 OA
ENDBRANCH  15  16
ENDBRANCH  12  15
ENDBRANCH  10  11
BRANCH  10  33
ATOM     33  C   UNL A   1      35.648  29.883  27.946  1.00  0.00     0.070 C 
BRANCH  33  34
ATOM     34  C   UNL A   1      36.768  29.905  28.976  1.00  0.00    -0.037 C 
ATOM     35  C   UNL A   1      37.343  28.770  29.424  1.00  0.00     0.001 A 
ATOM     36  C   UNL A   1      37.875  30.829  28.630  1.00  0.00     0.174 C 
ATOM     37  C   UNL A   1      38.003  28.604  30.713  1.00  0.00     0.010 A 
ATOM     38  C   UNL A   1      38.492  28.774  28.466  1.00  0.00     0.065 A 
ATOM     39  N   UNL A   1      38.827  29.919  27.968  1.00  0.00    -0.280 NA
ATOM     40  C   UNL A   1      39.068  27.777  30.802  1.00  0.00     0.001 A 
ATOM     41  C   UNL A   1      39.236  27.499  28.424  1.00  0.00     0.028 A 
ATOM     42  C   UNL A   1      39.485  27.006  29.647  1.00  0.00     0.002 A 
ENDBRANCH  33  34
ENDBRANCH  10  33
ENDBRANCH   8  10
ENDBRANCH   7   8
ENDBRANCH   6   7
ENDBRANCH   5   6
ENDBRANCH   4   5
ENDBRANCH   3   4
ENDBRANCH   2   3
ENDBRANCH   1   2
BRANCH   1  43
ATOM     43  C   UNL A   1      34.158  23.364  25.057  1.00  0.00     0.188 C 
BRANCH  43  44
ATOM     44  C   UNL A   1      35.581  23.720  24.631  1.00  0.00     0.188 C 
BRANCH  44  45
ATOM     45  O   UNL A   1      36.190  22.815  23.711  1.00  0.00    -0.376 OA
BRANCH  45  46
ATOM     46  C   UNL A   1      37.012  21.785  24.259  1.00  0.00     0.202 C 
BRANCH  46  47
ATOM     47  C   UNL A   1      37.527  21.975  25.702  1.00  0.00     0.261 C 
BRANCH  47  48
ATOM     48  O   UNL A   1      38.921  22.375  25.827  1.00  0.00    -0.460 OA
BRANCH  48  49
ATOM     49  C   UNL A   1      39.153  23.515  26.537  1.00  0.00     0.338 C 
ATOM     50  O   UNL A   1      38.319  24.394  26.735  1.00  0.00    -0.246 OA
BRANCH  49  51
ATOM     51  C   UNL A   1      40.526  23.609  27.123  1.00  0.00     0.060 A 
ATOM     52  C   UNL A   1      41.327  22.520  27.489  1.00  0.00     0.016 A 
ATOM     53  C   UNL A   1      41.067  24.887  27.259  1.00  0.00     0.016 A 
ATOM     54  C   UNL A   1      42.621  22.724  28.059  1.00  0.00     0.010 A 
ATOM     55  C   UNL A   1      42.341  25.077  27.828  1.00  0.00     0.010 A 
ATOM     56  C   UNL A   1      43.130  24.015  28.317  1.00  0.00    -0.014 A 
BRANCH  56  57
ATOM     57  C   UNL A   1      44.436  24.305  29.047  1.00  0.00     0.031 A 
ATOM     58  C   UNL A   1      45.593  24.742  28.163  1.00  0.00     0.074 A 
ATOM     59  C   UNL A   1      44.617  24.717  30.334  1.00  0.00     0.049 A 
ATOM     60  N   UNL A   1      45.796  25.971  27.767  1.00  0.00    -0.248 NA
ATOM     61  C   UNL A   1      46.437  23.759  27.479  1.00  0.00     0.031 C 
ATOM     62  C   UNL A   1      43.703  25.592  31.077  1.00  0.00     0.029 A 
ATOM     63  N   UNL A   1      45.746  24.670  31.148  1.00  0.00    -0.354 N 
ATOM     64  C   UNL A   1      46.763  25.933  26.768  1.00  0.00     0.074 A 
ATOM     65  C   UNL A   1      47.114  24.534  26.619  1.00  0.00     0.031 C 
ATOM     66  C   UNL A   1      44.353  26.108  32.145  1.00  0.00     0.029 A 
ATOM     67  C   UNL A   1      45.671  25.485  32.284  1.00  0.00     0.049 A 
ATOM     68  H   UNL A   1      46.531  24.111  30.942  1.00  0.00     0.167 HD
ATOM     69  C   UNL A   1      47.251  27.023  26.105  1.00  0.00     0.034 A 
ATOM     70  C   UNL A   1      46.704  26.064  32.971  1.00  0.00     0.034 A 
ATOM     71  C   UNL A   1      46.773  28.309  26.539  1.00  0.00     0.049 A 
ATOM     72  C   UNL A   1      47.220  27.087  32.003  1.00  0.00     0.074 A 
ATOM     73  C   UNL A   1      45.758  29.185  26.208  1.00  0.00     0.029 A 
ATOM     74  N   UNL A   1      47.414  28.944  27.581  1.00  0.00    -0.354 N 
ATOM     75  N   UNL A   1      46.769  28.298  31.821  1.00  0.00    -0.248 NA
ATOM     76  C   UNL A   1      48.089  26.576  30.947  1.00  0.00     0.031 C 
ATOM     77  C   UNL A   1      45.552  30.009  27.367  1.00  0.00     0.029 A 
ATOM     78  C   UNL A   1      46.455  29.585  28.336  1.00  0.00     0.049 A 
ATOM     79  H   UNL A   1      48.383  28.940  27.755  1.00  0.00     0.167 HD
ATOM     80  C   UNL A   1      47.053  28.587  30.485  1.00  0.00     0.074 A 
ATOM     81  C   UNL A   1      47.846  27.469  30.003  1.00  0.00     0.031 C 
ATOM     82  C   UNL A   1      46.519  29.632  29.784  1.00  0.00     0.034 A 
BRANCH  69  83
ATOM     83  C   UNL A   1      48.362  26.935  25.113  1.00  0.00     0.023 A 
ATOM     84  C   UNL A   1      49.633  26.560  25.592  1.00  0.00     0.012 A 
ATOM     85  C   UNL A   1      48.225  27.317  23.764  1.00  0.00     0.148 A 
ATOM     86  C   UNL A   1      50.756  26.601  24.767  1.00  0.00     0.002 A 
ATOM     87  C   UNL A   1      49.352  27.350  22.939  1.00  0.00     0.091 A 
ATOM     88  F   UNL A   1      47.008  27.659  23.316  1.00  0.00    -0.205 F 
ATOM     89  C   UNL A   1      50.618  27.003  23.444  1.00  0.00     0.022 A 
BRANCH  87  90
ATOM     90  S   UNL A   1      49.305  27.840  21.209  1.00  0.00     0.127 S 
ATOM     91  O   UNL A   1      50.401  27.058  20.640  1.00  0.00    -0.237 OA
ATOM     92  O   UNL A   1      47.968  27.399  20.808  1.00  0.00    -0.237 OA
ATOM     93  O   UNL A   1      49.499  29.283  21.196  1.00  0.00    -0.744 OA
ENDBRANCH  87  90
ENDBRANCH  69  83
BRANCH  70  94
ATOM     94  C   UNL A   1      47.642  25.205  33.779  1.00  0.00     0.023 A 
ATOM     95  C   UNL A   1      47.258  24.917  35.107  1.00  0.00     0.012 A 
ATOM     96  C   UNL A   1      48.901  24.719  33.354  1.00  0.00     0.148 A 
ATOM     97  C   UNL A   1      48.042  24.115  35.945  1.00  0.00     0.002 A 
ATOM     98  C   UNL A   1      49.646  23.861  34.167  1.00  0.00     0.091 A 
ATOM     99  F   UNL A   1      49.384  25.099  32.166  1.00  0.00    -0.205 F 
ATOM    100  C   UNL A   1      49.221  23.562  35.466  1.00  0.00     0.022 A 
BRANCH  98 101
ATOM    101  S   UNL A   1      51.135  23.022  33.594  1.00  0.00     0.127 S 
ATOM    102  O   UNL A   1      50.670  21.645  33.429  1.00  0.00    -0.237 OA
ATOM    103  O   UNL A   1      51.402  23.735  32.346  1.00  0.00    -0.237 OA
ATOM    104  O   UNL A   1      52.129  23.216  34.641  1.00  0.00    -0.744 OA
ENDBRANCH  98 101
ENDBRANCH  70  94
BRANCH  82 105
ATOM    105  C   UNL A   1      45.869  30.727  30.593  1.00  0.00     0.023 A 
ATOM    106  C   UNL A   1      46.611  31.893  30.845  1.00  0.00     0.012 A 
ATOM    107  C   UNL A   1      44.547  30.676  31.075  1.00  0.00     0.148 A 
ATOM    108  C   UNL A   1      46.055  32.964  31.549  1.00  0.00     0.002 A 
ATOM    109  C   UNL A   1      43.979  31.749  31.772  1.00  0.00     0.091 A 
ATOM    110  F   UNL A   1      43.866  29.560  30.851  1.00  0.00    -0.205 F 
ATOM    111  C   UNL A   1      44.743  32.895  32.008  1.00  0.00     0.022 A 
BRANCH 109 112
ATOM    112  S   UNL A   1      42.246  31.772  32.306  1.00  0.00     0.127 S 
ATOM    113  O   UNL A   1      41.508  31.605  31.051  1.00  0.00    -0.237 OA
ATOM    114  O   UNL A   1      42.134  30.624  33.197  1.00  0.00    -0.237 OA
ATOM    115  O   UNL A   1      42.059  33.096  32.898  1.00  0.00    -0.744 OA
ENDBRANCH 109 112
ENDBRANCH  82 105
ENDBRANCH  56  57
ENDBRANCH  49  51
ENDBRANCH  48  49
ENDBRANCH  47  48
ENDBRANCH  46  47
ENDBRANCH  45  46
ENDBRANCH  44  45
ENDBRANCH  43  44
ENDBRANCH   1  43
TORSDOF 28
ENDMDL
MODEL 2
REMARK VINA RESULT:      -9.1      4.673      9.605
REMARK SMILES Cc1oc2cc3c(cc2c1C)[C@H](C)[C@@H](CC(=O)N[C@H](CC1=c2ccccc2=NC1)C(=O)OCCOCCOCCOCCOC(=O)c1ccc(-c2c4nc(c(-c5cccc(S(=O)(=O)[O-])c5F)c5ccc([nH]5)c(-c5cccc(S(=O)(=O)[O-])c5F)c5nc(c(-c6cccc(S(=O)(=O)[O-])c6F)c6ccc2[nH]6)C=C5)C=C4)cc1)C(=O)O3
REMARK SMILES IDX 38 1 37 2 36 3 35 4 34 5 33 6 32 7 30 8 31 9 19 10 18 11
REMARK SMILES IDX 16 12 17 13 15 15 14 16 1 17 2 18 3 19 10 20 4 21 9 22 11 23
REMARK SMILES IDX 5 24 8 25 6 26 7 27 112 28 12 29 110 30 13 31 111 32 20 33
REMARK SMILES IDX 21 34 22 35 29 36 23 37 27 38 28 39 24 40 26 41 25 42 39 43
REMARK SMILES IDX 40 44 41 45 42 46 43 47 44 48 45 49 46 50 47 51 48 52 109 53
REMARK SMILES IDX 49 54 108 55 50 56 51 57 52 58 102 59 53 60 107 61 101 62
REMARK SMILES IDX 103 63 54 64 106 65 100 66 99 67 55 69 87 70 67 71 86 72
REMARK SMILES IDX 68 73 71 74 85 75 104 76 69 77 70 78 84 80 105 81 72 82
REMARK SMILES IDX 56 83 57 84 65 85 58 86 60 87 66 88 59 89 61 90 62 91 63 92
REMARK SMILES IDX 64 93 88 94 89 95 97 96 90 97 92 98 98 99 91 100 93 101
REMARK SMILES IDX 94 102 95 103 96 104 73 105 74 106 82 107 75 108 77 109
REMARK SMILES IDX 83 110 76 111 78 112 79 113 80 114 81 115
REMARK H PARENT 18 14 103 68 71 79
REMARK Flexibility Score: inf
ROOT
ATOM      1  O   UNL A   1      41.665  20.721  27.796  1.00  0.00    -0.377 OA
ENDROOT
BRANCH   1   2
ATOM      2  C   UNL A   1      41.151  22.042  27.922  1.00  0.00     0.188 C 
BRANCH   2   3
ATOM      3  C   UNL A   1      40.127  22.248  26.798  1.00  0.00     0.188 C 
BRANCH   3   4
ATOM      4  O   UNL A   1      39.962  23.651  26.579  1.00  0.00    -0.376 OA
BRANCH   4   5
ATOM      5  C   UNL A   1      41.051  24.492  26.947  1.00  0.00     0.202 C 
BRANCH   5   6
ATOM      6  C   UNL A   1      40.758  25.910  27.475  1.00  0.00     0.261 C 
BRANCH   6   7
ATOM      7  O   UNL A   1      41.932  26.722  27.592  1.00  0.00    -0.462 OA
BRANCH   7   8
ATOM      8  C   UNL A   1      42.024  27.777  26.765  1.00  0.00     0.329 C 
ATOM      9  O   UNL A   1      42.467  27.699  25.617  1.00  0.00    -0.250 OA
BRANCH   8  10
ATOM     10  C   UNL A   1      41.230  29.017  27.242  1.00  0.00     0.196 C 
BRANCH  10  11
ATOM     11  N   UNL A   1      41.852  29.494  28.488  1.00  0.00    -0.342 N 
ATOM     12  C   UNL A   1      43.083  30.095  28.589  1.00  0.00     0.221 C 
ATOM     13  O   UNL A   1      43.687  30.140  29.663  1.00  0.00    -0.275 OA
ATOM     14  H   UNL A   1      41.342  29.372  29.321  1.00  0.00     0.164 HD
BRANCH  12  15
ATOM     15  C   UNL A   1      43.689  30.809  27.374  1.00  0.00     0.116 C 
BRANCH  15  16
ATOM     16  C   UNL A   1      44.610  32.000  27.709  1.00  0.00     0.116 C 
ATOM     17  C   UNL A   1      47.705  39.846  26.530  1.00  0.00     0.088 C 
ATOM     18  C   UNL A   1      46.986  38.575  26.748  1.00  0.00     0.105 A 
ATOM     19  O   UNL A   1      47.782  37.478  26.879  1.00  0.00    -0.461 OA
ATOM     20  C   UNL A   1      45.651  38.220  26.848  1.00  0.00    -0.002 A 
ATOM     21  C   UNL A   1      46.967  36.410  27.078  1.00  0.00     0.138 A 
ATOM     22  C   UNL A   1      45.639  36.812  27.096  1.00  0.00     0.024 A 
ATOM     23  C   UNL A   1      44.456  39.086  26.719  1.00  0.00     0.049 C 
ATOM     24  C   UNL A   1      47.387  35.096  27.210  1.00  0.00     0.095 A 
ATOM     25  C   UNL A   1      44.636  35.840  27.304  1.00  0.00     0.020 A 
ATOM     26  C   UNL A   1      46.366  34.153  27.353  1.00  0.00     0.138 A 
ATOM     27  C   UNL A   1      45.001  34.492  27.460  1.00  0.00    -0.001 A 
ATOM     28  O   UNL A   1      46.789  32.827  27.286  1.00  0.00    -0.426 OA
ATOM     29  C   UNL A   1      43.938  33.392  27.586  1.00  0.00     0.035 C 
ATOM     30  C   UNL A   1      45.751  32.130  26.724  1.00  0.00     0.315 C 
ATOM     31  C   UNL A   1      42.967  33.642  28.743  1.00  0.00     0.014 C 
ATOM     32  O   UNL A   1      45.737  31.791  25.546  1.00  0.00    -0.251 OA
ENDBRANCH  15  16
ENDBRANCH  12  15
ENDBRANCH  10  11
BRANCH  10  33
ATOM     33  C   UNL A   1      39.697  29.264  27.070  1.00  0.00     0.070 C 
BRANCH  33  34
ATOM     34  C   UNL A   1      38.653  28.944  28.130  1.00  0.00    -0.037 C 
ATOM     35  C   UNL A   1      38.981  28.808  29.431  1.00  0.00     0.001 A 
ATOM     36  C   UNL A   1      37.469  29.837  28.086  1.00  0.00     0.174 C 
ATOM     37  C   UNL A   1      38.243  28.024  30.415  1.00  0.00     0.010 A 
ATOM     38  C   UNL A   1      38.669  30.214  29.832  1.00  0.00     0.065 A 
ATOM     39  N   UNL A   1      37.827  30.855  29.090  1.00  0.00    -0.280 NA
ATOM     40  C   UNL A   1      38.198  28.456  31.694  1.00  0.00     0.001 A 
ATOM     41  C   UNL A   1      39.183  30.579  31.168  1.00  0.00     0.028 A 
ATOM     42  C   UNL A   1      38.946  29.634  32.089  1.00  0.00     0.002 A 
ENDBRANCH  33  34
ENDBRANCH  10  33
ENDBRANCH   8  10
ENDBRANCH   7   8
ENDBRANCH   6   7
ENDBRANCH   5   6
ENDBRANCH   4   5
ENDBRANCH   3   4
ENDBRANCH   2   3
ENDBRANCH   1   2
BRANCH   1  43
ATOM     43  C   UNL A   1      41.278  19.983  26.654  1.00  0.00     0.188 C 
BRANCH  43  44
ATOM     44  C   UNL A   1      42.408  19.213  25.973  1.00  0.00     0.188 C 
BRANCH  44  45
ATOM     45  O   UNL A   1      43.077  19.909  24.922  1.00  0.00    -0.376 OA
BRANCH  45  46
ATOM     46  C   UNL A   1      44.189  20.725  25.287  1.00  0.00     0.202 C 
BRANCH  46  47
ATOM     47  C   UNL A   1      43.975  22.253  25.314  1.00  0.00     0.261 C 
BRANCH  47  48
ATOM     48  O   UNL A   1      44.670  23.008  24.282  1.00  0.00    -0.460 OA
BRANCH  48  49
ATOM     49  C   UNL A   1      45.958  23.354  24.562  1.00  0.00     0.338 C 
ATOM     50  O   UNL A   1      46.940  22.926  23.962  1.00  0.00    -0.246 OA
BRANCH  49  51
ATOM     51  C   UNL A   1      46.102  24.363  25.657  1.00  0.00     0.060 A 
ATOM     52  C   UNL A   1      46.709  24.131  26.897  1.00  0.00     0.016 A 
ATOM     53  C   UNL A   1      45.645  25.653  25.389  1.00  0.00     0.016 A 
ATOM     54  C   UNL A   1      46.777  25.164  27.882  1.00  0.00     0.010 A 
ATOM     55  C   UNL A   1      45.712  26.662  26.369  1.00  0.00     0.010 A 
ATOM     56  C   UNL A   1      46.207  26.437  27.671  1.00  0.00    -0.014 A 
BRANCH  56  57
ATOM     57  C   UNL A   1      46.120  27.536  28.722  1.00  0.00     0.031 A 
ATOM     58  C   UNL A   1      45.470  27.131  30.036  1.00  0.00     0.074 A 
ATOM     59  C   UNL A   1      46.930  28.620  28.888  1.00  0.00     0.049 A 
ATOM     60  N   UNL A   1      46.098  26.543  31.020  1.00  0.00    -0.248 NA
ATOM     61  C   UNL A   1      44.014  27.149  30.198  1.00  0.00     0.031 C 
ATOM     62  C   UNL A   1      48.368  28.653  28.596  1.00  0.00     0.029 A 
ATOM     63  N   UNL A   1      46.718  29.810  29.582  1.00  0.00    -0.354 N 
ATOM     64  C   UNL A   1      45.137  26.086  31.915  1.00  0.00     0.074 A 
ATOM     65  C   UNL A   1      43.860  26.476  31.347  1.00  0.00     0.031 C 
ATOM     66  C   UNL A   1      48.924  29.714  29.224  1.00  0.00     0.029 A 
ATOM     67  C   UNL A   1      47.883  30.548  29.826  1.00  0.00     0.049 A 
ATOM     68  H   UNL A   1      45.826  30.106  29.875  1.00  0.00     0.167 HD
ATOM     69  C   UNL A   1      45.400  25.421  33.078  1.00  0.00     0.034 A 
ATOM     70  C   UNL A   1      48.123  31.420  30.854  1.00  0.00     0.034 A 
ATOM     71  C   UNL A   1      46.786  25.255  33.428  1.00  0.00     0.049 A 
ATOM     72  C   UNL A   1      48.182  30.519  32.052  1.00  0.00     0.074 A 
ATOM     73  C   UNL A   1      47.778  24.312  33.247  1.00  0.00     0.029 A 
ATOM     74  N   UNL A   1      47.423  26.258  34.127  1.00  0.00    -0.354 N 
ATOM     75  N   UNL A   1      49.215  29.850  32.485  1.00  0.00    -0.248 NA
ATOM     76  C   UNL A   1      46.891  30.098  32.590  1.00  0.00     0.031 C 
ATOM     77  C   UNL A   1      49.023  25.014  33.394  1.00  0.00     0.029 A 
ATOM     78  C   UNL A   1      48.714  26.345  33.653  1.00  0.00     0.049 A 
ATOM     79  H   UNL A   1      47.026  26.813  34.837  1.00  0.00     0.167 HD
ATOM     80  C   UNL A   1      48.673  28.729  33.117  1.00  0.00     0.074 A 
ATOM     81  C   UNL A   1      47.236  28.938  33.121  1.00  0.00     0.031 C 
ATOM     82  C   UNL A   1      49.386  27.618  33.476  1.00  0.00     0.034 A 
BRANCH  69  83
ATOM     83  C   UNL A   1      44.333  25.042  34.051  1.00  0.00     0.023 A 
ATOM     84  C   UNL A   1      43.837  23.725  33.990  1.00  0.00     0.012 A 
ATOM     85  C   UNL A   1      43.729  25.960  34.931  1.00  0.00     0.148 A 
ATOM     86  C   UNL A   1      42.739  23.331  34.754  1.00  0.00     0.002 A 
ATOM     87  C   UNL A   1      42.633  25.560  35.700  1.00  0.00     0.091 A 
ATOM     88  F   UNL A   1      44.218  27.208  34.989  1.00  0.00    -0.205 F 
ATOM     89  C   UNL A   1      42.133  24.250  35.602  1.00  0.00     0.022 A 
BRANCH  87  90
ATOM     90  S   UNL A   1      41.768  26.648  36.842  1.00  0.00     0.127 S 
ATOM     91  O   UNL A   1      40.686  25.789  37.321  1.00  0.00    -0.237 OA
ATOM     92  O   UNL A   1      42.807  26.930  37.833  1.00  0.00    -0.237 OA
ATOM     93  O   UNL A   1      41.347  27.799  36.056  1.00  0.00    -0.744 OA
ENDBRANCH  87  90
ENDBRANCH  69  83
BRANCH  70  94
ATOM     94  C   UNL A   1      47.401  32.741  30.901  1.00  0.00     0.023 A 
ATOM     95  C   UNL A   1      45.992  32.696  30.998  1.00  0.00     0.012 A 
ATOM     96  C   UNL A   1      47.996  34.020  30.788  1.00  0.00     0.148 A 
ATOM     97  C   UNL A   1      45.218  33.861  31.067  1.00  0.00     0.002 A 
ATOM     98  C   UNL A   1      47.229  35.179  30.928  1.00  0.00     0.091 A 
ATOM     99  F   UNL A   1      49.304  34.113  30.529  1.00  0.00    -0.205 F 
ATOM    100  C   UNL A   1      45.838  35.103  31.061  1.00  0.00     0.022 A 
BRANCH  98 101
ATOM    101  S   UNL A   1      47.957  36.825  31.030  1.00  0.00     0.127 S 
ATOM    102  O   UNL A   1      46.784  37.690  30.909  1.00  0.00    -0.237 OA
ATOM    103  O   UNL A   1      48.560  36.789  32.361  1.00  0.00    -0.237 OA
ATOM    104  O   UNL A   1      48.903  36.911  29.926  1.00  0.00    -0.744 OA
ENDBRANCH  98 101
ENDBRANCH  70  94
BRANCH  82 105
ATOM    105  C   UNL A   1      50.888  27.760  33.509  1.00  0.00     0.023 A 
ATOM    106  C   UNL A   1      51.607  27.459  32.341  1.00  0.00     0.012 A 
ATOM    107  C   UNL A   1      51.613  28.219  34.625  1.00  0.00     0.148 A 
ATOM    108  C   UNL A   1      52.995  27.611  32.289  1.00  0.00     0.002 A 
ATOM    109  C   UNL A   1      53.003  28.385  34.578  1.00  0.00     0.091 A 
ATOM    110  F   UNL A   1      50.924  28.476  35.729  1.00  0.00    -0.205 F 
ATOM    111  C   UNL A   1      53.690  28.076  33.401  1.00  0.00     0.022 A 
BRANCH 109 112
ATOM    112  S   UNL A   1      53.960  29.085  35.949  1.00  0.00     0.127 S 
ATOM    113  O   UNL A   1      53.211  30.296  36.295  1.00  0.00    -0.237 OA
ATOM    114  O   UNL A   1      53.904  28.058  36.982  1.00  0.00    -0.237 OA
ATOM    115  O   UNL A   1      55.272  29.379  35.373  1.00  0.00    -0.744 OA
ENDBRANCH 109 112
ENDBRANCH  82 105
ENDBRANCH  56  57
ENDBRANCH  49  51
ENDBRANCH  48  49
ENDBRANCH  47  48
ENDBRANCH  46  47
ENDBRANCH  45  46
ENDBRANCH  44  45
ENDBRANCH  43  44
ENDBRANCH   1  43
TORSDOF 28
ENDMDL
MODEL 3
REMARK VINA RESULT:      -9.0      4.340     11.513
REMARK SMILES Cc1oc2cc3c(cc2c1C)[C@H](C)[C@@H](CC(=O)N[C@H](CC1=c2ccccc2=NC1)C(=O)OCCOCCOCCOCCOC(=O)c1ccc(-c2c4nc(c(-c5cccc(S(=O)(=O)[O-])c5F)c5ccc([nH]5)c(-c5cccc(S(=O)(=O)[O-])c5F)c5nc(c(-c6cccc(S(=O)(=O)[O-])c6F)c6ccc2[nH]6)C=C5)C=C4)cc1)C(=O)O3
REMARK SMILES IDX 38 1 37 2 36 3 35 4 34 5 33 6 32 7 30 8 31 9 19 10 18 11
REMARK SMILES IDX 16 12 17 13 15 15 14 16 1 17 2 18 3 19 10 20 4 21 9 22 11 23
REMARK SMILES IDX 5 24 8 25 6 26 7 27 112 28 12 29 110 30 13 31 111 32 20 33
REMARK SMILES IDX 21 34 22 35 29 36 23 37 27 38 28 39 24 40 26 41 25 42 39 43
REMARK SMILES IDX 40 44 41 45 42 46 43 47 44 48 45 49 46 50 47 51 48 52 109 53
REMARK SMILES IDX 49 54 108 55 50 56 51 57 52 58 102 59 53 60 107 61 101 62
REMARK SMILES IDX 103 63 54 64 106 65 100 66 99 67 55 69 87 70 67 71 86 72
REMARK SMILES IDX 68 73 71 74 85 75 104 76 69 77 70 78 84 80 105 81 72 82
REMARK SMILES IDX 56 83 57 84 65 85 58 86 60 87 66 88 59 89 61 90 62 91 63 92
REMARK SMILES IDX 64 93 88 94 89 95 97 96 90 97 92 98 98 99 91 100 93 101
REMARK SMILES IDX 94 102 95 103 96 104 73 105 74 106 82 107 75 108 77 109
REMARK SMILES IDX 83 110 76 111 78 112 79 113 80 114 81 115
REMARK H PARENT 18 14 103 68 71 79
REMARK Flexibility Score: inf
ROOT
ATOM      1  O   UNL A   1      36.973  30.769  28.948  1.00  0.00    -0.377 OA
ENDROOT
BRANCH   1   2
ATOM      2  C   UNL A   1      37.643  29.518  29.031  1.00  0.00     0.188 C 
BRANCH   2   3
ATOM      3  C   UNL A   1      39.102  29.746  28.613  1.00  0.00     0.188 C 
BRANCH   3   4
ATOM      4  O   UNL A   1      39.751  28.478  28.497  1.00  0.00    -0.376 OA
BRANCH   4   5
ATOM      5  C   UNL A   1      40.238  28.121  27.207  1.00  0.00     0.202 C 
BRANCH   5   6
ATOM      6  C   UNL A   1      41.677  28.509  26.815  1.00  0.00     0.261 C 
BRANCH   6   7
ATOM      7  O   UNL A   1      42.527  27.378  26.597  1.00  0.00    -0.462 OA
BRANCH   7   8
ATOM      8  C   UNL A   1      43.146  27.306  25.406  1.00  0.00     0.329 C 
ATOM      9  O   UNL A   1      42.724  27.863  24.390  1.00  0.00    -0.250 OA
BRANCH   8  10
ATOM     10  C   UNL A   1      44.590  26.754  25.484  1.00  0.00     0.196 C 
BRANCH  10  11
ATOM     11  N   UNL A   1      45.502  27.822  25.043  1.00  0.00    -0.342 N 
ATOM     12  C   UNL A   1      45.913  28.889  25.804  1.00  0.00     0.221 C 
ATOM     13  O   UNL A   1      46.368  29.909  25.283  1.00  0.00    -0.275 OA
ATOM     14  H   UNL A   1      45.847  27.767  24.123  1.00  0.00     0.164 HD
BRANCH  12  15
ATOM     15  C   UNL A   1      45.897  28.788  27.335  1.00  0.00     0.116 C 
BRANCH  15  16
ATOM     16  C   UNL A   1      46.685  27.600  27.919  1.00  0.00     0.116 C 
ATOM     17  C   UNL A   1      51.769  23.860  33.639  1.00  0.00     0.088 C 
ATOM     18  C   UNL A   1      50.767  24.554  32.804  1.00  0.00     0.105 A 
ATOM     19  O   UNL A   1      50.990  24.488  31.463  1.00  0.00    -0.461 OA
ATOM     20  C   UNL A   1      49.622  25.286  33.071  1.00  0.00    -0.002 A 
ATOM     21  C   UNL A   1      49.982  25.164  30.854  1.00  0.00     0.138 A 
ATOM     22  C   UNL A   1      49.090  25.657  31.797  1.00  0.00     0.024 A 
ATOM     23  C   UNL A   1      49.041  25.640  34.387  1.00  0.00     0.049 C 
ATOM     24  C   UNL A   1      49.868  25.372  29.488  1.00  0.00     0.095 A 
ATOM     25  C   UNL A   1      47.963  26.381  31.354  1.00  0.00     0.020 A 
ATOM     26  C   UNL A   1      48.774  26.144  29.090  1.00  0.00     0.138 A 
ATOM     27  C   UNL A   1      47.783  26.611  29.979  1.00  0.00    -0.001 A 
ATOM     28  O   UNL A   1      48.782  26.509  27.745  1.00  0.00    -0.426 OA
ATOM     29  C   UNL A   1      46.628  27.480  29.464  1.00  0.00     0.035 C 
ATOM     30  C   UNL A   1      48.174  27.736  27.684  1.00  0.00     0.315 C 
ATOM     31  C   UNL A   1      45.260  26.976  29.930  1.00  0.00     0.014 C 
ATOM     32  O   UNL A   1      48.801  28.784  27.583  1.00  0.00    -0.251 OA
ENDBRANCH  15  16
ENDBRANCH  12  15
ENDBRANCH  10  11
BRANCH  10  33
ATOM     33  C   UNL A   1      45.039  25.279  25.223  1.00  0.00     0.070 C 
BRANCH  33  34
ATOM     34  C   UNL A   1      45.257  24.244  26.317  1.00  0.00    -0.037 C 
ATOM     35  C   UNL A   1      44.549  24.264  27.465  1.00  0.00     0.001 A 
ATOM     36  C   UNL A   1      45.221  22.845  25.826  1.00  0.00     0.174 C 
ATOM     37  C   UNL A   1      44.987  23.711  28.741  1.00  0.00     0.010 A 
ATOM     38  C   UNL A   1      43.496  23.294  27.032  1.00  0.00     0.065 A 
ATOM     39  N   UNL A   1      43.819  22.473  26.087  1.00  0.00    -0.280 NA
ATOM     40  C   UNL A   1      44.067  23.170  29.570  1.00  0.00     0.001 A 
ATOM     41  C   UNL A   1      42.321  23.255  27.925  1.00  0.00     0.028 A 
ATOM     42  C   UNL A   1      42.660  23.222  29.223  1.00  0.00     0.002 A 
ENDBRANCH  33  34
ENDBRANCH  10  33
ENDBRANCH   8  10
ENDBRANCH   7   8
ENDBRANCH   6   7
ENDBRANCH   5   6
ENDBRANCH   4   5
ENDBRANCH   3   4
ENDBRANCH   2   3
ENDBRANCH   1   2
BRANCH   1  43
ATOM     43  C   UNL A   1      35.827  30.835  28.122  1.00  0.00     0.188 C 
BRANCH  43  44
ATOM     44  C   UNL A   1      35.265  32.240  27.912  1.00  0.00     0.188 C 
BRANCH  44  45
ATOM     45  O   UNL A   1      33.918  32.432  28.343  1.00  0.00    -0.376 OA
BRANCH  45  46
ATOM     46  C   UNL A   1      33.372  33.744  28.205  1.00  0.00     0.202 C 
BRANCH  46  47
ATOM     47  C   UNL A   1      33.774  34.798  29.258  1.00  0.00     0.261 C 
BRANCH  47  48
ATOM     48  O   UNL A   1      33.456  34.466  30.639  1.00  0.00    -0.460 OA
BRANCH  48  49
ATOM     49  C   UNL A   1      34.202  35.095  31.590  1.00  0.00     0.338 C 
ATOM     50  O   UNL A   1      33.816  36.050  32.259  1.00  0.00    -0.246 OA
BRANCH  49  51
ATOM     51  C   UNL A   1      35.555  34.495  31.811  1.00  0.00     0.060 A 
ATOM     52  C   UNL A   1      36.315  33.831  30.841  1.00  0.00     0.016 A 
ATOM     53  C   UNL A   1      36.122  34.666  33.074  1.00  0.00     0.016 A 
ATOM     54  C   UNL A   1      37.592  33.278  31.165  1.00  0.00     0.010 A 
ATOM     55  C   UNL A   1      37.377  34.112  33.385  1.00  0.00     0.010 A 
ATOM     56  C   UNL A   1      38.122  33.336  32.471  1.00  0.00    -0.014 A 
BRANCH  56  57
ATOM     57  C   UNL A   1      39.407  32.650  32.920  1.00  0.00     0.031 A 
ATOM     58  C   UNL A   1      40.623  33.556  33.032  1.00  0.00     0.074 A 
ATOM     59  C   UNL A   1      39.551  31.535  33.690  1.00  0.00     0.049 A 
ATOM     60  N   UNL A   1      40.906  34.285  34.080  1.00  0.00    -0.248 NA
ATOM     61  C   UNL A   1      41.446  33.869  31.861  1.00  0.00     0.031 C 
ATOM     62  C   UNL A   1      38.650  31.138  34.779  1.00  0.00     0.029 A 
ATOM     63  N   UNL A   1      40.639  30.679  33.848  1.00  0.00    -0.354 N 
ATOM     64  C   UNL A   1      41.914  35.170  33.713  1.00  0.00     0.074 A 
ATOM     65  C   UNL A   1      42.200  34.878  32.321  1.00  0.00     0.031 C 
ATOM     66  C   UNL A   1      39.278  30.234  35.566  1.00  0.00     0.029 A 
ATOM     67  C   UNL A   1      40.554  29.842  34.967  1.00  0.00     0.049 A 
ATOM     68  H   UNL A   1      41.402  30.665  33.225  1.00  0.00     0.167 HD
ATOM     69  C   UNL A   1      42.485  36.096  34.537  1.00  0.00     0.034 A 
ATOM     70  C   UNL A   1      41.584  29.298  35.687  1.00  0.00     0.034 A 
ATOM     71  C   UNL A   1      42.054  36.091  35.910  1.00  0.00     0.049 A 
ATOM     72  C   UNL A   1      42.194  30.493  36.357  1.00  0.00     0.074 A 
ATOM     73  C   UNL A   1      41.101  36.723  36.682  1.00  0.00     0.029 A 
ATOM     74  N   UNL A   1      42.679  35.248  36.803  1.00  0.00    -0.354 N 
ATOM     75  N   UNL A   1      41.813  31.051  37.473  1.00  0.00    -0.248 NA
ATOM     76  C   UNL A   1      43.082  31.299  35.524  1.00  0.00     0.031 C 
ATOM     77  C   UNL A   1      40.886  35.874  37.822  1.00  0.00     0.029 A 
ATOM     78  C   UNL A   1      41.722  34.773  37.673  1.00  0.00     0.049 A 
ATOM     79  H   UNL A   1      43.638  35.025  36.817  1.00  0.00     0.167 HD
ATOM     80  C   UNL A   1      42.172  32.394  37.341  1.00  0.00     0.074 A 
ATOM     81  C   UNL A   1      42.927  32.477  36.103  1.00  0.00     0.031 C 
ATOM     82  C   UNL A   1      41.723  33.402  38.148  1.00  0.00     0.034 A 
BRANCH  69  83
ATOM     83  C   UNL A   1      43.634  36.952  34.118  1.00  0.00     0.023 A 
ATOM     84  C   UNL A   1      43.351  38.283  33.752  1.00  0.00     0.012 A 
ATOM     85  C   UNL A   1      44.945  36.464  33.962  1.00  0.00     0.148 A 
ATOM     86  C   UNL A   1      44.335  39.105  33.203  1.00  0.00     0.002 A 
ATOM     87  C   UNL A   1      45.929  37.293  33.418  1.00  0.00     0.091 A 
ATOM     88  F   UNL A   1      45.205  35.200  34.326  1.00  0.00    -0.205 F 
ATOM     89  C   UNL A   1      45.621  38.608  33.029  1.00  0.00     0.022 A 
BRANCH  87  90
ATOM     90  S   UNL A   1      47.632  36.775  33.152  1.00  0.00     0.127 S 
ATOM     91  O   UNL A   1      48.305  38.050  32.912  1.00  0.00    -0.237 OA
ATOM     92  O   UNL A   1      47.958  36.146  34.433  1.00  0.00    -0.237 OA
ATOM     93  O   UNL A   1      47.600  35.864  32.017  1.00  0.00    -0.744 OA
ENDBRANCH  87  90
ENDBRANCH  69  83
BRANCH  70  94
ATOM     94  C   UNL A   1      42.439  28.219  35.075  1.00  0.00     0.023 A 
ATOM     95  C   UNL A   1      42.411  28.103  33.668  1.00  0.00     0.012 A 
ATOM     96  C   UNL A   1      43.214  27.269  35.782  1.00  0.00     0.148 A 
ATOM     97  C   UNL A   1      43.178  27.149  32.989  1.00  0.00     0.002 A 
ATOM     98  C   UNL A   1      44.033  26.366  35.100  1.00  0.00     0.091 A 
ATOM     99  F   UNL A   1      43.146  27.231  37.117  1.00  0.00    -0.205 F 
ATOM    100  C   UNL A   1      44.012  26.300  33.703  1.00  0.00     0.022 A 
BRANCH  98 101
ATOM    101  S   UNL A   1      45.216  25.296  35.939  1.00  0.00     0.127 S 
ATOM    102  O   UNL A   1      46.003  26.253  36.716  1.00  0.00    -0.237 OA
ATOM    103  O   UNL A   1      44.325  24.449  36.730  1.00  0.00    -0.237 OA
ATOM    104  O   UNL A   1      45.948  24.608  34.885  1.00  0.00    -0.744 OA
ENDBRANCH  98 101
ENDBRANCH  70  94
BRANCH  82 105
ATOM    105  C   UNL A   1      41.094  32.992  39.457  1.00  0.00     0.023 A 
ATOM    106  C   UNL A   1      39.693  33.026  39.557  1.00  0.00     0.012 A 
ATOM    107  C   UNL A   1      41.819  32.530  40.572  1.00  0.00     0.148 A 
ATOM    108  C   UNL A   1      39.043  32.617  40.724  1.00  0.00     0.002 A 
ATOM    109  C   UNL A   1      41.175  32.107  41.741  1.00  0.00     0.091 A 
ATOM    110  F   UNL A   1      43.142  32.525  40.471  1.00  0.00    -0.205 F 
ATOM    111  C   UNL A   1      39.780  32.156  41.810  1.00  0.00     0.022 A 
BRANCH 109 112
ATOM    112  S   UNL A   1      42.062  31.396  43.154  1.00  0.00     0.127 S 
ATOM    113  O   UNL A   1      43.248  32.250  43.267  1.00  0.00    -0.237 OA
ATOM    114  O   UNL A   1      41.134  31.548  44.268  1.00  0.00    -0.237 OA
ATOM    115  O   UNL A   1      42.387  30.033  42.738  1.00  0.00    -0.744 OA
ENDBRANCH 109 112
ENDBRANCH  82 105
ENDBRANCH  56  57
ENDBRANCH  49  51
ENDBRANCH  48  49
ENDBRANCH  47  48
ENDBRANCH  46  47
ENDBRANCH  45  46
ENDBRANCH  44  45
ENDBRANCH  43  44
ENDBRANCH   1  43
TORSDOF 28
ENDMDL
