MODEL 1
REMARK VINA RESULT:      -9.7      0.000      0.000
REMARK SMILES O=C(CCCc1nc(-c2ccc(Cl)c(Cl)c2)c(-c2ccccc2)o1)OCCOCCOCCOCCOC(=O)c1ccc(-c2c3nc(c(-c4cccc(S(=O)(=O)[O-])c4F)c4ccc([nH]4)c(-c4cccc(S(=O)(=O)[O-])c4F)c4nc(c(-c5cccc(S(=O)(=O)[O-])c5F)c5ccc2[nH]5)C=C4)C=C3)cc1
REMARK SMILES IDX 30 1 29 2 28 3 27 4 26 5 25 6 2 7 1 8 3 9 4 10 5 11 6 12
REMARK SMILES IDX 7 13 24 14 8 15 17 16 9 17 10 18 16 19 11 20 14 21 12 22
REMARK SMILES IDX 15 23 13 24 18 25 19 26 23 27 20 28 22 29 21 30 31 31 32 32
REMARK SMILES IDX 33 33 34 34 35 35 36 36 37 37 38 38 39 39 40 40 41 41 102 42
REMARK SMILES IDX 42 43 101 44 43 45 44 46 45 47 95 48 46 49 100 50 94 51
REMARK SMILES IDX 96 52 47 53 99 54 93 55 92 56 48 58 80 59 60 60 79 61 61 62
REMARK SMILES IDX 64 63 78 64 97 65 62 66 63 67 77 69 98 70 65 71 49 72 50 73
REMARK SMILES IDX 58 74 51 75 53 76 59 77 52 78 54 79 55 80 56 81 57 82 81 83
REMARK SMILES IDX 82 84 90 85 83 86 85 87 91 88 84 89 86 90 87 91 88 92 89 93
REMARK SMILES IDX 66 94 67 95 75 96 68 97 70 98 76 99 69 100 71 101 72 102
REMARK SMILES IDX 73 103 74 104
REMARK H PARENT 96 57 64 68
REMARK Flexibility Score: inf
ROOT
ATOM      1  C   UNL A   1      34.956  22.696  25.929  1.00  0.00     0.188 C 
ENDROOT
BRANCH   1   2
ATOM      2  C   UNL A   1      34.034  23.340  26.972  1.00  0.00     0.188 C 
BRANCH   2   3
ATOM      3  O   UNL A   1      33.072  24.287  26.475  1.00  0.00    -0.376 OA
BRANCH   3   4
ATOM      4  C   UNL A   1      31.713  23.921  26.719  1.00  0.00     0.202 C 
BRANCH   4   5
ATOM      5  C   UNL A   1      31.327  22.628  26.003  1.00  0.00     0.261 C 
BRANCH   5   6
ATOM      6  O   UNL A   1      31.401  22.588  24.562  1.00  0.00    -0.463 OA
BRANCH   6   7
ATOM      7  C   UNL A   1      32.057  21.566  23.977  1.00  0.00     0.305 C 
ATOM      8  O   UNL A   1      32.201  20.471  24.508  1.00  0.00    -0.252 OA
BRANCH   7   9
ATOM      9  C   UNL A   1      32.609  21.908  22.606  1.00  0.00     0.123 C 
BRANCH   9  10
ATOM     10  C   UNL A   1      33.490  23.148  22.482  1.00  0.00     0.021 C 
BRANCH  10  11
ATOM     11  C   UNL A   1      32.929  24.401  21.808  1.00  0.00     0.098 C 
BRANCH  11  12
ATOM     12  C   UNL A   1      32.322  25.470  22.652  1.00  0.00     0.195 A 
ATOM     13  N   UNL A   1      31.254  26.185  22.343  1.00  0.00    -0.213 NA
ATOM     14  O   UNL A   1      32.996  25.910  23.764  1.00  0.00    -0.440 OA
ATOM     15  C   UNL A   1      31.236  27.180  23.284  1.00  0.00     0.117 A 
ATOM     16  C   UNL A   1      32.263  26.995  24.192  1.00  0.00     0.162 A 
BRANCH  15  17
ATOM     17  C   UNL A   1      30.308  28.295  23.265  1.00  0.00     0.006 A 
ATOM     18  C   UNL A   1      29.058  28.172  22.656  1.00  0.00     0.012 A 
ATOM     19  C   UNL A   1      30.652  29.509  23.885  1.00  0.00     0.032 A 
ATOM     20  C   UNL A   1      28.145  29.232  22.712  1.00  0.00     0.023 A 
ATOM     21  C   UNL A   1      29.731  30.559  23.960  1.00  0.00     0.060 A 
ATOM     22  C   UNL A   1      28.467  30.414  23.386  1.00  0.00     0.059 A 
ATOM     23  Cl  UNL A   1      30.221  31.995  24.787  1.00  0.00    -0.083 Cl
ATOM     24  Cl  UNL A   1      27.257  31.641  23.491  1.00  0.00    -0.083 Cl
ENDBRANCH  15  17
BRANCH  16  25
ATOM     25  C   UNL A   1      32.700  27.688  25.397  1.00  0.00     0.020 A 
ATOM     26  C   UNL A   1      31.932  27.679  26.564  1.00  0.00     0.012 A 
ATOM     27  C   UNL A   1      33.955  28.322  25.430  1.00  0.00     0.012 A 
ATOM     28  C   UNL A   1      32.413  28.276  27.736  1.00  0.00     0.001 A 
ATOM     29  C   UNL A   1      34.434  28.924  26.595  1.00  0.00     0.001 A 
ATOM     30  C   UNL A   1      33.663  28.897  27.750  1.00  0.00     0.000 A 
ENDBRANCH  16  25
ENDBRANCH  11  12
ENDBRANCH  10  11
ENDBRANCH   9  10
ENDBRANCH   7   9
ENDBRANCH   6   7
ENDBRANCH   5   6
ENDBRANCH   4   5
ENDBRANCH   3   4
ENDBRANCH   2   3
ENDBRANCH   1   2
BRANCH   1  31
ATOM     31  O   UNL A   1      36.077  23.500  25.615  1.00  0.00    -0.377 OA
BRANCH  31  32
ATOM     32  C   UNL A   1      36.963  23.040  24.604  1.00  0.00     0.188 C 
BRANCH  32  33
ATOM     33  C   UNL A   1      37.511  21.605  24.651  1.00  0.00     0.188 C 
BRANCH  33  34
ATOM     34  O   UNL A   1      38.353  21.370  25.784  1.00  0.00    -0.376 OA
BRANCH  34  35
ATOM     35  C   UNL A   1      39.490  20.544  25.550  1.00  0.00     0.202 C 
BRANCH  35  36
ATOM     36  C   UNL A   1      40.417  20.415  26.766  1.00  0.00     0.261 C 
BRANCH  36  37
ATOM     37  O   UNL A   1      41.508  19.489  26.612  1.00  0.00    -0.460 OA
BRANCH  37  38
ATOM     38  C   UNL A   1      42.600  19.894  25.926  1.00  0.00     0.338 C 
ATOM     39  O   UNL A   1      43.095  19.342  24.956  1.00  0.00    -0.246 OA
BRANCH  38  40
ATOM     40  C   UNL A   1      42.947  21.264  26.383  1.00  0.00     0.060 A 
ATOM     41  C   UNL A   1      43.126  22.260  25.414  1.00  0.00     0.016 A 
ATOM     42  C   UNL A   1      43.016  21.595  27.742  1.00  0.00     0.016 A 
ATOM     43  C   UNL A   1      43.384  23.577  25.803  1.00  0.00     0.010 A 
ATOM     44  C   UNL A   1      43.286  22.915  28.126  1.00  0.00     0.010 A 
ATOM     45  C   UNL A   1      43.489  23.912  27.158  1.00  0.00    -0.014 A 
BRANCH  45  46
ATOM     46  C   UNL A   1      43.976  25.261  27.548  1.00  0.00     0.031 A 
ATOM     47  C   UNL A   1      42.968  26.275  28.016  1.00  0.00     0.074 A 
ATOM     48  C   UNL A   1      45.281  25.589  27.507  1.00  0.00     0.049 A 
ATOM     49  N   UNL A   1      43.143  27.529  28.338  1.00  0.00    -0.248 NA
ATOM     50  C   UNL A   1      41.577  25.808  28.142  1.00  0.00     0.031 C 
ATOM     51  C   UNL A   1      46.371  24.697  27.114  1.00  0.00     0.029 A 
ATOM     52  N   UNL A   1      45.907  26.784  27.780  1.00  0.00    -0.354 N 
ATOM     53  C   UNL A   1      41.883  28.013  28.667  1.00  0.00     0.074 A 
ATOM     54  C   UNL A   1      40.954  26.914  28.517  1.00  0.00     0.031 C 
ATOM     55  C   UNL A   1      47.526  25.386  27.136  1.00  0.00     0.029 A 
ATOM     56  C   UNL A   1      47.256  26.775  27.509  1.00  0.00     0.049 A 
ATOM     57  H   UNL A   1      45.434  27.570  28.136  1.00  0.00     0.167 HD
ATOM     58  C   UNL A   1      41.529  29.257  29.064  1.00  0.00     0.034 A 
ATOM     59  C   UNL A   1      48.159  27.780  27.520  1.00  0.00     0.034 A 
ATOM     60  C   UNL A   1      42.445  30.348  29.243  1.00  0.00     0.049 A 
ATOM     61  C   UNL A   1      47.722  29.172  27.909  1.00  0.00     0.074 A 
ATOM     62  C   UNL A   1      42.173  31.630  29.688  1.00  0.00     0.029 A 
ATOM     63  N   UNL A   1      43.801  30.295  28.972  1.00  0.00    -0.354 N 
ATOM     64  N   UNL A   1      46.550  29.588  28.326  1.00  0.00    -0.248 NA
ATOM     65  C   UNL A   1      48.739  30.236  27.841  1.00  0.00     0.031 C 
ATOM     66  C   UNL A   1      43.364  32.363  29.658  1.00  0.00     0.029 A 
ATOM     67  C   UNL A   1      44.378  31.530  29.217  1.00  0.00     0.049 A 
ATOM     68  H   UNL A   1      44.284  29.499  28.655  1.00  0.00     0.167 HD
ATOM     69  C   UNL A   1      46.697  30.947  28.591  1.00  0.00     0.074 A 
ATOM     70  C   UNL A   1      48.077  31.281  28.320  1.00  0.00     0.031 C 
ATOM     71  C   UNL A   1      45.765  31.844  28.998  1.00  0.00     0.034 A 
BRANCH  58  72
ATOM     72  C   UNL A   1      40.075  29.513  29.341  1.00  0.00     0.023 A 
ATOM     73  C   UNL A   1      39.188  29.735  28.270  1.00  0.00     0.012 A 
ATOM     74  C   UNL A   1      39.579  29.454  30.657  1.00  0.00     0.148 A 
ATOM     75  C   UNL A   1      37.826  29.910  28.507  1.00  0.00     0.002 A 
ATOM     76  C   UNL A   1      38.216  29.591  30.882  1.00  0.00     0.091 A 
ATOM     77  F   UNL A   1      40.449  29.267  31.659  1.00  0.00    -0.205 F 
ATOM     78  C   UNL A   1      37.339  29.825  29.810  1.00  0.00     0.022 A 
BRANCH  76  79
ATOM     79  S   UNL A   1      37.482  29.430  32.513  1.00  0.00     0.127 S 
ATOM     80  O   UNL A   1      38.297  30.359  33.295  1.00  0.00    -0.237 OA
ATOM     81  O   UNL A   1      36.109  29.875  32.276  1.00  0.00    -0.237 OA
ATOM     82  O   UNL A   1      37.615  28.028  32.879  1.00  0.00    -0.744 OA
ENDBRANCH  76  79
ENDBRANCH  58  72
BRANCH  59  83
ATOM     83  C   UNL A   1      49.578  27.530  27.129  1.00  0.00     0.023 A 
ATOM     84  C   UNL A   1      50.493  27.045  28.085  1.00  0.00     0.012 A 
ATOM     85  C   UNL A   1      50.034  27.807  25.826  1.00  0.00     0.148 A 
ATOM     86  C   UNL A   1      51.841  26.879  27.760  1.00  0.00     0.002 A 
ATOM     87  C   UNL A   1      51.365  27.582  25.492  1.00  0.00     0.091 A 
ATOM     88  F   UNL A   1      49.161  28.301  24.938  1.00  0.00    -0.205 F 
ATOM     89  C   UNL A   1      52.275  27.137  26.462  1.00  0.00     0.022 A 
BRANCH  87  90
ATOM     90  S   UNL A   1      51.969  27.767  23.812  1.00  0.00     0.127 S 
ATOM     91  O   UNL A   1      50.906  28.554  23.194  1.00  0.00    -0.237 OA
ATOM     92  O   UNL A   1      53.228  28.486  24.018  1.00  0.00    -0.237 OA
ATOM     93  O   UNL A   1      52.134  26.409  23.310  1.00  0.00    -0.744 OA
ENDBRANCH  87  90
ENDBRANCH  59  83
BRANCH  71  94
ATOM     94  C   UNL A   1      46.196  33.276  29.195  1.00  0.00     0.023 A 
ATOM     95  C   UNL A   1      47.008  33.610  30.296  1.00  0.00     0.012 A 
ATOM     96  C   UNL A   1      45.875  34.268  28.247  1.00  0.00     0.148 A 
ATOM     97  C   UNL A   1      47.473  34.913  30.465  1.00  0.00     0.002 A 
ATOM     98  C   UNL A   1      46.380  35.555  28.398  1.00  0.00     0.091 A 
ATOM     99  F   UNL A   1      45.089  33.935  27.213  1.00  0.00    -0.205 F 
ATOM    100  C   UNL A   1      47.171  35.882  29.511  1.00  0.00     0.022 A 
BRANCH  98 101
ATOM    101  S   UNL A   1      46.121  36.843  27.171  1.00  0.00     0.127 S 
ATOM    102  O   UNL A   1      46.689  38.011  27.842  1.00  0.00    -0.237 OA
ATOM    103  O   UNL A   1      46.902  36.353  26.035  1.00  0.00    -0.237 OA
ATOM    104  O   UNL A   1      44.684  36.893  26.939  1.00  0.00    -0.744 OA
ENDBRANCH  98 101
ENDBRANCH  71  94
ENDBRANCH  45  46
ENDBRANCH  38  40
ENDBRANCH  37  38
ENDBRANCH  36  37
ENDBRANCH  35  36
ENDBRANCH  34  35
ENDBRANCH  33  34
ENDBRANCH  32  33
ENDBRANCH  31  32
ENDBRANCH   1  31
TORSDOF 28
ENDMDL
MODEL 2
REMARK VINA RESULT:      -9.4      1.521      7.430
REMARK SMILES O=C(CCCc1nc(-c2ccc(Cl)c(Cl)c2)c(-c2ccccc2)o1)OCCOCCOCCOCCOC(=O)c1ccc(-c2c3nc(c(-c4cccc(S(=O)(=O)[O-])c4F)c4ccc([nH]4)c(-c4cccc(S(=O)(=O)[O-])c4F)c4nc(c(-c5cccc(S(=O)(=O)[O-])c5F)c5ccc2[nH]5)C=C4)C=C3)cc1
REMARK SMILES IDX 30 1 29 2 28 3 27 4 26 5 25 6 2 7 1 8 3 9 4 10 5 11 6 12
REMARK SMILES IDX 7 13 24 14 8 15 17 16 9 17 10 18 16 19 11 20 14 21 12 22
REMARK SMILES IDX 15 23 13 24 18 25 19 26 23 27 20 28 22 29 21 30 31 31 32 32
REMARK SMILES IDX 33 33 34 34 35 35 36 36 37 37 38 38 39 39 40 40 41 41 102 42
REMARK SMILES IDX 42 43 101 44 43 45 44 46 45 47 95 48 46 49 100 50 94 51
REMARK SMILES IDX 96 52 47 53 99 54 93 55 92 56 48 58 80 59 60 60 79 61 61 62
REMARK SMILES IDX 64 63 78 64 97 65 62 66 63 67 77 69 98 70 65 71 49 72 50 73
REMARK SMILES IDX 58 74 51 75 53 76 59 77 52 78 54 79 55 80 56 81 57 82 81 83
REMARK SMILES IDX 82 84 90 85 83 86 85 87 91 88 84 89 86 90 87 91 88 92 89 93
REMARK SMILES IDX 66 94 67 95 75 96 68 97 70 98 76 99 69 100 71 101 72 102
REMARK SMILES IDX 73 103 74 104
REMARK H PARENT 96 57 64 68
REMARK Flexibility Score: inf
ROOT
ATOM      1  C   UNL A   1      34.967  22.402  26.126  1.00  0.00     0.188 C 
ENDROOT
BRANCH   1   2
ATOM      2  C   UNL A   1      34.031  23.335  26.904  1.00  0.00     0.188 C 
BRANCH   2   3
ATOM      3  O   UNL A   1      33.549  24.490  26.195  1.00  0.00    -0.376 OA
BRANCH   3   4
ATOM      4  C   UNL A   1      32.158  24.753  26.384  1.00  0.00     0.202 C 
BRANCH   4   5
ATOM      5  C   UNL A   1      31.310  23.489  26.256  1.00  0.00     0.261 C 
BRANCH   5   6
ATOM      6  O   UNL A   1      31.020  22.982  24.935  1.00  0.00    -0.463 OA
BRANCH   6   7
ATOM      7  C   UNL A   1      31.692  21.900  24.497  1.00  0.00     0.305 C 
ATOM      8  O   UNL A   1      31.787  20.862  25.144  1.00  0.00    -0.252 OA
BRANCH   7   9
ATOM      9  C   UNL A   1      32.329  22.095  23.133  1.00  0.00     0.123 C 
BRANCH   9  10
ATOM     10  C   UNL A   1      33.211  23.324  22.929  1.00  0.00     0.021 C 
BRANCH  10  11
ATOM     11  C   UNL A   1      32.762  24.413  21.954  1.00  0.00     0.098 C 
BRANCH  11  12
ATOM     12  C   UNL A   1      32.448  25.773  22.479  1.00  0.00     0.195 A 
ATOM     13  N   UNL A   1      33.118  26.411  23.424  1.00  0.00    -0.213 NA
ATOM     14  O   UNL A   1      31.270  26.377  22.114  1.00  0.00    -0.440 OA
ATOM     15  C   UNL A   1      32.322  27.483  23.730  1.00  0.00     0.117 A 
ATOM     16  C   UNL A   1      31.215  27.506  22.901  1.00  0.00     0.162 A 
BRANCH  15  17
ATOM     17  C   UNL A   1      32.588  28.403  24.819  1.00  0.00     0.006 A 
ATOM     18  C   UNL A   1      33.666  28.194  25.682  1.00  0.00     0.012 A 
ATOM     19  C   UNL A   1      31.773  29.533  25.003  1.00  0.00     0.032 A 
ATOM     20  C   UNL A   1      33.956  29.132  26.680  1.00  0.00     0.023 A 
ATOM     21  C   UNL A   1      32.075  30.479  25.987  1.00  0.00     0.060 A 
ATOM     22  C   UNL A   1      33.180  30.287  26.818  1.00  0.00     0.059 A 
ATOM     23  Cl  UNL A   1      31.048  31.864  26.107  1.00  0.00    -0.083 Cl
ATOM     24  Cl  UNL A   1      33.650  31.440  28.013  1.00  0.00    -0.083 Cl
ENDBRANCH  15  17
BRANCH  16  25
ATOM     25  C   UNL A   1      30.080  28.405  22.735  1.00  0.00     0.020 A 
ATOM     26  C   UNL A   1      30.199  29.611  22.038  1.00  0.00     0.012 A 
ATOM     27  C   UNL A   1      28.811  28.035  23.214  1.00  0.00     0.012 A 
ATOM     28  C   UNL A   1      29.075  30.416  21.814  1.00  0.00     0.001 A 
ATOM     29  C   UNL A   1      27.691  28.839  22.998  1.00  0.00     0.001 A 
ATOM     30  C   UNL A   1      27.824  30.029  22.294  1.00  0.00     0.000 A 
ENDBRANCH  16  25
ENDBRANCH  11  12
ENDBRANCH  10  11
ENDBRANCH   9  10
ENDBRANCH   7   9
ENDBRANCH   6   7
ENDBRANCH   5   6
ENDBRANCH   4   5
ENDBRANCH   3   4
ENDBRANCH   2   3
ENDBRANCH   1   2
BRANCH   1  31
ATOM     31  O   UNL A   1      36.134  23.055  25.662  1.00  0.00    -0.377 OA
BRANCH  31  32
ATOM     32  C   UNL A   1      36.804  22.501  24.539  1.00  0.00     0.188 C 
BRANCH  32  33
ATOM     33  C   UNL A   1      37.422  21.097  24.623  1.00  0.00     0.188 C 
BRANCH  33  34
ATOM     34  O   UNL A   1      38.172  20.892  25.824  1.00  0.00    -0.376 OA
BRANCH  34  35
ATOM     35  C   UNL A   1      39.589  20.869  25.674  1.00  0.00     0.202 C 
BRANCH  35  36
ATOM     36  C   UNL A   1      40.340  20.548  26.973  1.00  0.00     0.261 C 
BRANCH  36  37
ATOM     37  O   UNL A   1      41.422  19.608  26.842  1.00  0.00    -0.460 OA
BRANCH  37  38
ATOM     38  C   UNL A   1      42.409  19.885  25.961  1.00  0.00     0.338 C 
ATOM     39  O   UNL A   1      42.741  19.205  25.004  1.00  0.00    -0.246 OA
BRANCH  38  40
ATOM     40  C   UNL A   1      42.853  21.284  26.195  1.00  0.00     0.060 A 
ATOM     41  C   UNL A   1      43.306  21.629  27.474  1.00  0.00     0.016 A 
ATOM     42  C   UNL A   1      42.904  22.225  25.160  1.00  0.00     0.016 A 
ATOM     43  C   UNL A   1      43.797  22.915  27.719  1.00  0.00     0.010 A 
ATOM     44  C   UNL A   1      43.387  23.516  25.414  1.00  0.00     0.010 A 
ATOM     45  C   UNL A   1      43.821  23.875  26.701  1.00  0.00    -0.014 A 
BRANCH  45  46
ATOM     46  C   UNL A   1      44.138  25.289  27.028  1.00  0.00     0.031 A 
ATOM     47  C   UNL A   1      45.490  25.824  26.640  1.00  0.00     0.074 A 
ATOM     48  C   UNL A   1      43.254  26.097  27.641  1.00  0.00     0.049 A 
ATOM     49  N   UNL A   1      46.019  26.994  26.882  1.00  0.00    -0.248 NA
ATOM     50  C   UNL A   1      46.360  24.916  25.873  1.00  0.00     0.031 C 
ATOM     51  C   UNL A   1      41.896  25.727  28.038  1.00  0.00     0.029 A 
ATOM     52  N   UNL A   1      43.383  27.401  28.062  1.00  0.00    -0.354 N 
ATOM     53  C   UNL A   1      47.294  26.952  26.333  1.00  0.00     0.074 A 
ATOM     54  C   UNL A   1      47.457  25.646  25.734  1.00  0.00     0.031 C 
ATOM     55  C   UNL A   1      41.330  26.767  28.676  1.00  0.00     0.029 A 
ATOM     56  C   UNL A   1      42.295  27.864  28.766  1.00  0.00     0.049 A 
ATOM     57  H   UNL A   1      44.178  27.950  27.876  1.00  0.00     0.167 HD
ATOM     58  C   UNL A   1      48.244  27.916  26.320  1.00  0.00     0.034 A 
ATOM     59  C   UNL A   1      42.115  29.021  29.440  1.00  0.00     0.034 A 
ATOM     60  C   UNL A   1      48.085  29.226  26.886  1.00  0.00     0.049 A 
ATOM     61  C   UNL A   1      43.217  30.053  29.460  1.00  0.00     0.074 A 
ATOM     62  C   UNL A   1      48.984  30.278  26.874  1.00  0.00     0.029 A 
ATOM     63  N   UNL A   1      46.967  29.660  27.576  1.00  0.00    -0.354 N 
ATOM     64  N   UNL A   1      44.373  30.044  28.840  1.00  0.00    -0.248 NA
ATOM     65  C   UNL A   1      42.984  31.266  30.264  1.00  0.00     0.031 C 
ATOM     66  C   UNL A   1      48.420  31.342  27.586  1.00  0.00     0.029 A 
ATOM     67  C   UNL A   1      47.162  30.957  28.019  1.00  0.00     0.049 A 
ATOM     68  H   UNL A   1      46.154  29.126  27.729  1.00  0.00     0.167 HD
ATOM     69  C   UNL A   1      44.989  31.251  29.160  1.00  0.00     0.074 A 
ATOM     70  C   UNL A   1      44.068  31.983  30.001  1.00  0.00     0.031 C 
ATOM     71  C   UNL A   1      46.218  31.703  28.810  1.00  0.00     0.034 A 
BRANCH  58  72
ATOM     72  C   UNL A   1      49.556  27.592  25.664  1.00  0.00     0.023 A 
ATOM     73  C   UNL A   1      49.694  27.737  24.270  1.00  0.00     0.012 A 
ATOM     74  C   UNL A   1      50.670  27.222  26.440  1.00  0.00     0.148 A 
ATOM     75  C   UNL A   1      50.922  27.502  23.655  1.00  0.00     0.002 A 
ATOM     76  C   UNL A   1      51.899  27.027  25.826  1.00  0.00     0.091 A 
ATOM     77  F   UNL A   1      50.503  27.066  27.762  1.00  0.00    -0.205 F 
ATOM     78  C   UNL A   1      52.026  27.160  24.434  1.00  0.00     0.022 A 
BRANCH  76  79
ATOM     79  S   UNL A   1      53.394  26.651  26.747  1.00  0.00     0.127 S 
ATOM     80  O   UNL A   1      54.055  25.697  25.859  1.00  0.00    -0.237 OA
ATOM     81  O   UNL A   1      54.041  27.960  26.827  1.00  0.00    -0.237 OA
ATOM     82  O   UNL A   1      52.955  26.109  28.025  1.00  0.00    -0.744 OA
ENDBRANCH  76  79
ENDBRANCH  58  72
BRANCH  59  83
ATOM     83  C   UNL A   1      40.846  29.276  30.185  1.00  0.00     0.023 A 
ATOM     84  C   UNL A   1      40.767  28.975  31.559  1.00  0.00     0.012 A 
ATOM     85  C   UNL A   1      39.706  29.779  29.529  1.00  0.00     0.148 A 
ATOM     86  C   UNL A   1      39.567  29.133  32.255  1.00  0.00     0.002 A 
ATOM     87  C   UNL A   1      38.531  29.991  30.242  1.00  0.00     0.091 A 
ATOM     88  F   UNL A   1      39.784  30.026  28.215  1.00  0.00    -0.205 F 
ATOM     89  C   UNL A   1      38.452  29.651  31.601  1.00  0.00     0.022 A 
BRANCH  87  90
ATOM     90  S   UNL A   1      37.095  30.773  29.500  1.00  0.00     0.127 S 
ATOM     91  O   UNL A   1      36.524  29.678  28.722  1.00  0.00    -0.237 OA
ATOM     92  O   UNL A   1      36.318  31.165  30.677  1.00  0.00    -0.237 OA
ATOM     93  O   UNL A   1      37.621  31.895  28.734  1.00  0.00    -0.744 OA
ENDBRANCH  87  90
ENDBRANCH  59  83
BRANCH  71  94
ATOM     94  C   UNL A   1      46.648  33.058  29.313  1.00  0.00     0.023 A 
ATOM     95  C   UNL A   1      47.245  33.169  30.583  1.00  0.00     0.012 A 
ATOM     96  C   UNL A   1      46.545  34.202  28.496  1.00  0.00     0.148 A 
ATOM     97  C   UNL A   1      47.710  34.400  31.044  1.00  0.00     0.002 A 
ATOM     98  C   UNL A   1      47.052  35.417  28.943  1.00  0.00     0.091 A 
ATOM     99  F   UNL A   1      45.960  34.080  27.295  1.00  0.00    -0.205 F 
ATOM    100  C   UNL A   1      47.626  35.520  30.220  1.00  0.00     0.022 A 
BRANCH  98 101
ATOM    101  S   UNL A   1      47.072  36.891  27.915  1.00  0.00     0.127 S 
ATOM    102  O   UNL A   1      48.083  36.545  26.918  1.00  0.00    -0.237 OA
ATOM    103  O   UNL A   1      45.701  36.934  27.404  1.00  0.00    -0.237 OA
ATOM    104  O   UNL A   1      47.420  37.994  28.801  1.00  0.00    -0.744 OA
ENDBRANCH  98 101
ENDBRANCH  71  94
ENDBRANCH  45  46
ENDBRANCH  38  40
ENDBRANCH  37  38
ENDBRANCH  36  37
ENDBRANCH  35  36
ENDBRANCH  34  35
ENDBRANCH  33  34
ENDBRANCH  32  33
ENDBRANCH  31  32
ENDBRANCH   1  31
TORSDOF 28
ENDMDL
MODEL 3
REMARK VINA RESULT:      -9.3      2.007      2.992
REMARK SMILES O=C(CCCc1nc(-c2ccc(Cl)c(Cl)c2)c(-c2ccccc2)o1)OCCOCCOCCOCCOC(=O)c1ccc(-c2c3nc(c(-c4cccc(S(=O)(=O)[O-])c4F)c4ccc([nH]4)c(-c4cccc(S(=O)(=O)[O-])c4F)c4nc(c(-c5cccc(S(=O)(=O)[O-])c5F)c5ccc2[nH]5)C=C4)C=C3)cc1
REMARK SMILES IDX 30 1 29 2 28 3 27 4 26 5 25 6 2 7 1 8 3 9 4 10 5 11 6 12
REMARK SMILES IDX 7 13 24 14 8 15 17 16 9 17 10 18 16 19 11 20 14 21 12 22
REMARK SMILES IDX 15 23 13 24 18 25 19 26 23 27 20 28 22 29 21 30 31 31 32 32
REMARK SMILES IDX 33 33 34 34 35 35 36 36 37 37 38 38 39 39 40 40 41 41 102 42
REMARK SMILES IDX 42 43 101 44 43 45 44 46 45 47 95 48 46 49 100 50 94 51
REMARK SMILES IDX 96 52 47 53 99 54 93 55 92 56 48 58 80 59 60 60 79 61 61 62
REMARK SMILES IDX 64 63 78 64 97 65 62 66 63 67 77 69 98 70 65 71 49 72 50 73
REMARK SMILES IDX 58 74 51 75 53 76 59 77 52 78 54 79 55 80 56 81 57 82 81 83
REMARK SMILES IDX 82 84 90 85 83 86 85 87 91 88 84 89 86 90 87 91 88 92 89 93
REMARK SMILES IDX 66 94 67 95 75 96 68 97 70 98 76 99 69 100 71 101 72 102
REMARK SMILES IDX 73 103 74 104
REMARK H PARENT 96 57 64 68
REMARK Flexibility Score: inf
ROOT
ATOM      1  C   UNL A   1      33.561  22.022  27.387  1.00  0.00     0.188 C 
ENDROOT
BRANCH   1   2
ATOM      2  C   UNL A   1      32.477  23.101  27.274  1.00  0.00     0.188 C 
BRANCH   2   3
ATOM      3  O   UNL A   1      32.823  24.275  26.517  1.00  0.00    -0.376 OA
BRANCH   3   4
ATOM      4  C   UNL A   1      31.824  24.681  25.580  1.00  0.00     0.202 C 
BRANCH   4   5
ATOM      5  C   UNL A   1      30.952  23.513  25.125  1.00  0.00     0.261 C 
BRANCH   5   6
ATOM      6  O   UNL A   1      31.098  23.028  23.772  1.00  0.00    -0.463 OA
BRANCH   6   7
ATOM      7  C   UNL A   1      32.064  22.126  23.510  1.00  0.00     0.305 C 
ATOM      8  O   UNL A   1      32.282  21.151  24.220  1.00  0.00    -0.252 OA
BRANCH   7   9
ATOM      9  C   UNL A   1      32.863  22.443  22.259  1.00  0.00     0.123 C 
BRANCH   9  10
ATOM     10  C   UNL A   1      33.416  23.858  22.107  1.00  0.00     0.021 C 
BRANCH  10  11
ATOM     11  C   UNL A   1      32.633  24.883  21.285  1.00  0.00     0.098 C 
BRANCH  11  12
ATOM     12  C   UNL A   1      32.287  26.197  21.900  1.00  0.00     0.195 A 
ATOM     13  N   UNL A   1      32.991  26.826  22.827  1.00  0.00    -0.213 NA
ATOM     14  O   UNL A   1      31.055  26.749  21.652  1.00  0.00    -0.440 OA
ATOM     15  C   UNL A   1      32.163  27.835  23.243  1.00  0.00     0.117 A 
ATOM     16  C   UNL A   1      30.998  27.835  22.498  1.00  0.00     0.162 A 
BRANCH  15  17
ATOM     17  C   UNL A   1      32.461  28.716  24.357  1.00  0.00     0.006 A 
ATOM     18  C   UNL A   1      31.547  29.694  24.756  1.00  0.00     0.012 A 
ATOM     19  C   UNL A   1      33.668  28.578  25.063  1.00  0.00     0.032 A 
ATOM     20  C   UNL A   1      31.816  30.485  25.880  1.00  0.00     0.023 A 
ATOM     21  C   UNL A   1      33.926  29.353  26.197  1.00  0.00     0.060 A 
ATOM     22  C   UNL A   1      32.989  30.299  26.617  1.00  0.00     0.059 A 
ATOM     23  Cl  UNL A   1      35.413  29.078  27.033  1.00  0.00    -0.083 Cl
ATOM     24  Cl  UNL A   1      33.210  31.250  28.041  1.00  0.00    -0.083 Cl
ENDBRANCH  15  17
BRANCH  16  25
ATOM     25  C   UNL A   1      29.809  28.675  22.460  1.00  0.00     0.020 A 
ATOM     26  C   UNL A   1      28.639  28.317  23.136  1.00  0.00     0.012 A 
ATOM     27  C   UNL A   1      29.841  29.914  21.797  1.00  0.00     0.012 A 
ATOM     28  C   UNL A   1      27.538  29.182  23.160  1.00  0.00     0.001 A 
ATOM     29  C   UNL A   1      28.743  30.775  21.812  1.00  0.00     0.001 A 
ATOM     30  C   UNL A   1      27.592  30.410  22.498  1.00  0.00     0.000 A 
ENDBRANCH  16  25
ENDBRANCH  11  12
ENDBRANCH  10  11
ENDBRANCH   9  10
ENDBRANCH   7   9
ENDBRANCH   6   7
ENDBRANCH   5   6
ENDBRANCH   4   5
ENDBRANCH   3   4
ENDBRANCH   2   3
ENDBRANCH   1   2
BRANCH   1  31
ATOM     31  O   UNL A   1      34.583  22.164  26.418  1.00  0.00    -0.377 OA
BRANCH  31  32
ATOM     32  C   UNL A   1      35.327  21.009  26.063  1.00  0.00     0.188 C 
BRANCH  32  33
ATOM     33  C   UNL A   1      36.409  21.090  24.974  1.00  0.00     0.188 C 
BRANCH  33  34
ATOM     34  O   UNL A   1      37.270  22.221  25.132  1.00  0.00    -0.376 OA
BRANCH  34  35
ATOM     35  C   UNL A   1      38.392  22.031  25.991  1.00  0.00     0.202 C 
BRANCH  35  36
ATOM     36  C   UNL A   1      38.919  20.590  26.004  1.00  0.00     0.261 C 
BRANCH  36  37
ATOM     37  O   UNL A   1      40.191  20.394  25.360  1.00  0.00    -0.460 OA
BRANCH  37  38
ATOM     38  C   UNL A   1      41.266  20.119  26.133  1.00  0.00     0.338 C 
ATOM     39  O   UNL A   1      41.725  19.013  26.371  1.00  0.00    -0.246 OA
BRANCH  38  40
ATOM     40  C   UNL A   1      41.954  21.400  26.435  1.00  0.00     0.060 A 
ATOM     41  C   UNL A   1      42.145  21.748  27.779  1.00  0.00     0.016 A 
ATOM     42  C   UNL A   1      42.479  22.213  25.424  1.00  0.00     0.016 A 
ATOM     43  C   UNL A   1      42.848  22.910  28.107  1.00  0.00     0.010 A 
ATOM     44  C   UNL A   1      43.174  23.383  25.759  1.00  0.00     0.010 A 
ATOM     45  C   UNL A   1      43.349  23.748  27.104  1.00  0.00    -0.014 A 
BRANCH  45  46
ATOM     46  C   UNL A   1      43.899  25.081  27.463  1.00  0.00     0.031 A 
ATOM     47  C   UNL A   1      42.953  26.124  27.993  1.00  0.00     0.074 A 
ATOM     48  C   UNL A   1      45.208  25.370  27.341  1.00  0.00     0.049 A 
ATOM     49  N   UNL A   1      43.184  27.372  28.303  1.00  0.00    -0.248 NA
ATOM     50  C   UNL A   1      41.559  25.698  28.205  1.00  0.00     0.031 C 
ATOM     51  C   UNL A   1      46.245  24.448  26.881  1.00  0.00     0.029 A 
ATOM     52  N   UNL A   1      45.885  26.546  27.575  1.00  0.00    -0.354 N 
ATOM     53  C   UNL A   1      41.962  27.892  28.709  1.00  0.00     0.074 A 
ATOM     54  C   UNL A   1      40.993  26.821  28.618  1.00  0.00     0.031 C 
ATOM     55  C   UNL A   1      47.419  25.102  26.831  1.00  0.00     0.029 A 
ATOM     56  C   UNL A   1      47.214  26.498  27.220  1.00  0.00     0.049 A 
ATOM     57  H   UNL A   1      45.458  27.345  27.959  1.00  0.00     0.167 HD
ATOM     58  C   UNL A   1      41.670  29.145  29.127  1.00  0.00     0.034 A 
ATOM     59  C   UNL A   1      48.144  27.475  27.175  1.00  0.00     0.034 A 
ATOM     60  C   UNL A   1      42.627  30.208  29.249  1.00  0.00     0.049 A 
ATOM     61  C   UNL A   1      47.774  28.880  27.590  1.00  0.00     0.074 A 
ATOM     62  C   UNL A   1      42.422  31.497  29.710  1.00  0.00     0.029 A 
ATOM     63  N   UNL A   1      43.962  30.116  28.895  1.00  0.00    -0.354 N 
ATOM     64  N   UNL A   1      46.643  29.329  28.079  1.00  0.00    -0.248 NA
ATOM     65  C   UNL A   1      48.816  29.913  27.459  1.00  0.00     0.031 C 
ATOM     66  C   UNL A   1      43.629  32.195  29.606  1.00  0.00     0.029 A 
ATOM     67  C   UNL A   1      44.589  31.333  29.103  1.00  0.00     0.049 A 
ATOM     68  H   UNL A   1      44.401  29.306  28.548  1.00  0.00     0.167 HD
ATOM     69  C   UNL A   1      46.846  30.682  28.334  1.00  0.00     0.074 A 
ATOM     70  C   UNL A   1      48.216  30.976  27.977  1.00  0.00     0.031 C 
ATOM     71  C   UNL A   1      45.969  31.606  28.798  1.00  0.00     0.034 A 
BRANCH  58  72
ATOM     72  C   UNL A   1      40.244  29.443  29.494  1.00  0.00     0.023 A 
ATOM     73  C   UNL A   1      39.317  29.771  28.486  1.00  0.00     0.012 A 
ATOM     74  C   UNL A   1      39.810  29.319  30.828  1.00  0.00     0.148 A 
ATOM     75  C   UNL A   1      37.977  29.988  28.803  1.00  0.00     0.002 A 
ATOM     76  C   UNL A   1      38.467  29.498  31.130  1.00  0.00     0.091 A 
ATOM     77  F   UNL A   1      40.719  29.031  31.770  1.00  0.00    -0.205 F 
ATOM     78  C   UNL A   1      37.551  29.839  30.122  1.00  0.00     0.022 A 
BRANCH  76  79
ATOM     79  S   UNL A   1      37.807  29.263  32.784  1.00  0.00     0.127 S 
ATOM     80  O   UNL A   1      38.069  27.841  33.005  1.00  0.00    -0.237 OA
ATOM     81  O   UNL A   1      38.639  30.166  33.577  1.00  0.00    -0.237 OA
ATOM     82  O   UNL A   1      36.401  29.632  32.713  1.00  0.00    -0.744 OA
ENDBRANCH  76  79
ENDBRANCH  58  72
BRANCH  59  83
ATOM     83  C   UNL A   1      49.529  27.184  26.696  1.00  0.00     0.023 A 
ATOM     84  C   UNL A   1      49.751  26.880  25.339  1.00  0.00     0.012 A 
ATOM     85  C   UNL A   1      50.619  27.169  27.588  1.00  0.00     0.148 A 
ATOM     86  C   UNL A   1      51.025  26.529  24.887  1.00  0.00     0.002 A 
ATOM     87  C   UNL A   1      51.895  26.877  27.119  1.00  0.00     0.091 A 
ATOM     88  F   UNL A   1      50.388  27.425  28.882  1.00  0.00    -0.205 F 
ATOM     89  C   UNL A   1      52.099  26.537  25.773  1.00  0.00     0.022 A 
BRANCH  87  90
ATOM     90  S   UNL A   1      53.345  26.995  28.172  1.00  0.00     0.127 S 
ATOM     91  O   UNL A   1      53.235  28.357  28.685  1.00  0.00    -0.237 OA
ATOM     92  O   UNL A   1      53.093  25.942  29.158  1.00  0.00    -0.237 OA
ATOM     93  O   UNL A   1      54.479  26.731  27.296  1.00  0.00    -0.744 OA
ENDBRANCH  87  90
ENDBRANCH  59  83
BRANCH  71  94
ATOM     94  C   UNL A   1      46.453  33.024  28.968  1.00  0.00     0.023 A 
ATOM     95  C   UNL A   1      46.160  33.981  27.977  1.00  0.00     0.012 A 
ATOM     96  C   UNL A   1      47.114  33.429  30.145  1.00  0.00     0.148 A 
ATOM     97  C   UNL A   1      46.540  35.312  28.142  1.00  0.00     0.002 A 
ATOM     98  C   UNL A   1      47.449  34.766  30.324  1.00  0.00     0.091 A 
ATOM     99  F   UNL A   1      47.397  32.501  31.072  1.00  0.00    -0.205 F 
ATOM    100  C   UNL A   1      47.172  35.707  29.319  1.00  0.00     0.022 A 
BRANCH  98 101
ATOM    101  S   UNL A   1      48.180  35.384  31.845  1.00  0.00     0.127 S 
ATOM    102  O   UNL A   1      49.608  35.269  31.557  1.00  0.00    -0.237 OA
ATOM    103  O   UNL A   1      47.677  36.758  31.896  1.00  0.00    -0.237 OA
ATOM    104  O   UNL A   1      47.685  34.521  32.908  1.00  0.00    -0.744 OA
ENDBRANCH  98 101
ENDBRANCH  71  94
ENDBRANCH  45  46
ENDBRANCH  38  40
ENDBRANCH  37  38
ENDBRANCH  36  37
ENDBRANCH  35  36
ENDBRANCH  34  35
ENDBRANCH  33  34
ENDBRANCH  32  33
ENDBRANCH  31  32
ENDBRANCH   1  31
TORSDOF 28
ENDMDL
