MODEL 1
REMARK VINA RESULT:      -8.4      0.000      0.000
REMARK SMILES O=C(COc1ccccc1/C=N/NC(=O)c1cc(-c2ccc(F)cc2)nc2ccccc12)OCCOCCOCCOCCOC(=O)c1ccc(-c2c3nc(c(-c4cccc(S(=O)(=O)[O-])c4F)c4ccc([nH]4)c(-c4cccc(S(=O)(=O)[O-])c4F)c4nc(c(-c5cccc(S(=O)(=O)[O-])c5F)c5ccc2[nH]5)C=C4)C=C3)cc1
REMARK SMILES IDX 37 1 36 2 35 3 34 4 33 5 2 6 1 7 3 8 4 9 5 10 6 11 10 12
REMARK SMILES IDX 7 13 9 14 8 15 11 16 12 17 13 18 14 19 15 21 16 22 17 23
REMARK SMILES IDX 32 24 18 25 27 26 31 27 26 28 28 29 30 30 29 31 19 32 20 33
REMARK SMILES IDX 25 34 21 35 24 36 22 37 23 38 38 39 39 40 40 41 41 42 42 43
REMARK SMILES IDX 43 44 44 45 45 46 46 47 47 48 48 49 49 50 110 51 50 52
REMARK SMILES IDX 109 53 51 54 52 55 53 56 103 57 54 58 108 59 102 60 104 61
REMARK SMILES IDX 55 62 107 63 101 64 100 65 56 67 88 68 68 69 87 70 69 71
REMARK SMILES IDX 72 72 86 73 105 74 70 75 71 76 85 78 106 79 73 80 57 81
REMARK SMILES IDX 58 82 66 83 59 84 61 85 67 86 60 87 62 88 63 89 64 90 65 91
REMARK SMILES IDX 89 92 90 93 98 94 91 95 93 96 99 97 92 98 94 99 95 100
REMARK SMILES IDX 96 101 97 102 74 103 75 104 83 105 76 106 78 107 84 108
REMARK SMILES IDX 77 109 79 110 80 111 81 112 82 113
REMARK H PARENT 13 20 104 66 72 77
REMARK Flexibility Score: inf
ROOT
ATOM      1  C   UNL A   1      40.569  29.351  30.401  1.00  0.00     0.188 C 
ENDROOT
BRANCH   1   2
ATOM      2  O   UNL A   1      41.965  29.426  30.168  1.00  0.00    -0.376 OA
BRANCH   2   3
ATOM      3  C   UNL A   1      42.683  29.791  29.003  1.00  0.00     0.202 C 
BRANCH   3   4
ATOM      4  C   UNL A   1      42.125  29.635  27.586  1.00  0.00     0.261 C 
BRANCH   4   5
ATOM      5  O   UNL A   1      42.923  28.844  26.673  1.00  0.00    -0.461 OA
BRANCH   5   6
ATOM      6  C   UNL A   1      42.533  27.847  25.818  1.00  0.00     0.344 C 
ATOM      7  O   UNL A   1      42.666  27.946  24.599  1.00  0.00    -0.248 OA
BRANCH   6   8
ATOM      8  C   UNL A   1      41.818  26.661  26.391  1.00  0.00     0.352 C 
BRANCH   8   9
ATOM      9  O   UNL A   1      42.162  26.615  27.752  1.00  0.00    -0.481 OA
BRANCH   9  10
ATOM     10  C   UNL A   1      42.702  25.385  27.964  1.00  0.00     0.129 A 
ATOM     11  C   UNL A   1      43.983  25.608  28.507  1.00  0.00     0.047 A 
ATOM     12  C   UNL A   1      42.016  24.129  27.867  1.00  0.00     0.037 A 
ATOM     13  C   UNL A   1      44.659  24.555  29.049  1.00  0.00     0.004 A 
ATOM     14  C   UNL A   1      42.747  23.088  28.432  1.00  0.00     0.013 A 
ATOM     15  C   UNL A   1      44.037  23.305  29.018  1.00  0.00     0.001 A 
BRANCH  12  16
ATOM     16  C   UNL A   1      40.679  23.840  27.027  1.00  0.00     0.145 C 
ATOM     17  N   UNL A   1      39.454  24.354  27.157  1.00  0.00    -0.180 NA
BRANCH  17  18
ATOM     18  N   UNL A   1      38.435  23.968  26.071  1.00  0.00    -0.243 N 
ATOM     19  C   UNL A   1      37.901  22.609  25.862  1.00  0.00     0.272 C 
ATOM     20  H   UNL A   1      38.116  24.680  25.471  1.00  0.00     0.194 HD
ATOM     21  O   UNL A   1      38.653  21.701  25.503  1.00  0.00    -0.267 OA
BRANCH  19  22
ATOM     22  C   UNL A   1      36.348  22.284  25.889  1.00  0.00     0.053 A 
ATOM     23  C   UNL A   1      35.969  20.950  25.515  1.00  0.00     0.043 A 
ATOM     24  C   UNL A   1      35.147  23.279  25.966  1.00  0.00     0.013 A 
ATOM     25  C   UNL A   1      34.725  20.816  24.880  1.00  0.00     0.072 A 
ATOM     26  C   UNL A   1      34.074  22.482  25.992  1.00  0.00     0.072 A 
ATOM     27  C   UNL A   1      34.536  24.634  25.931  1.00  0.00     0.011 A 
ATOM     28  N   UNL A   1      34.068  21.922  24.861  1.00  0.00    -0.248 NA
ATOM     29  C   UNL A   1      32.763  22.609  26.386  1.00  0.00     0.029 A 
ATOM     30  C   UNL A   1      33.087  24.839  25.858  1.00  0.00     0.001 A 
ATOM     31  C   UNL A   1      32.192  23.802  26.101  1.00  0.00     0.002 A 
BRANCH  25  32
ATOM     32  C   UNL A   1      33.616  19.912  24.430  1.00  0.00     0.000 A 
ATOM     33  C   UNL A   1      33.876  18.505  24.301  1.00  0.00     0.013 A 
ATOM     34  C   UNL A   1      32.695  20.372  23.493  1.00  0.00     0.013 A 
ATOM     35  C   UNL A   1      33.245  17.651  23.361  1.00  0.00     0.040 A 
ATOM     36  C   UNL A   1      32.035  19.490  22.604  1.00  0.00     0.040 A 
ATOM     37  C   UNL A   1      32.284  18.154  22.539  1.00  0.00     0.123 A 
ATOM     38  F   UNL A   1      31.598  17.404  21.667  1.00  0.00    -0.207 F 
ENDBRANCH  25  32
ENDBRANCH  19  22
ENDBRANCH  17  18
ENDBRANCH  12  16
ENDBRANCH   9  10
ENDBRANCH   8   9
ENDBRANCH   6   8
ENDBRANCH   5   6
ENDBRANCH   4   5
ENDBRANCH   3   4
ENDBRANCH   2   3
ENDBRANCH   1   2
BRANCH   1  39
ATOM     39  C   UNL A   1      39.490  28.865  29.428  1.00  0.00     0.188 C 
BRANCH  39  40
ATOM     40  O   UNL A   1      38.683  29.774  28.730  1.00  0.00    -0.377 OA
BRANCH  40  41
ATOM     41  C   UNL A   1      37.323  29.486  28.663  1.00  0.00     0.188 C 
BRANCH  41  42
ATOM     42  C   UNL A   1      36.777  29.356  30.070  1.00  0.00     0.188 C 
BRANCH  42  43
ATOM     43  O   UNL A   1      37.021  30.330  31.071  1.00  0.00    -0.376 OA
BRANCH  43  44
ATOM     44  C   UNL A   1      37.320  29.838  32.362  1.00  0.00     0.202 C 
BRANCH  44  45
ATOM     45  C   UNL A   1      38.442  30.453  33.218  1.00  0.00     0.261 C 
BRANCH  45  46
ATOM     46  O   UNL A   1      39.305  31.670  32.976  1.00  0.00    -0.460 OA
BRANCH  46  47
ATOM     47  C   UNL A   1      39.196  33.030  32.949  1.00  0.00     0.338 C 
ATOM     48  O   UNL A   1      38.409  33.664  33.640  1.00  0.00    -0.246 OA
BRANCH  47  49
ATOM     49  C   UNL A   1      40.335  33.799  32.186  1.00  0.00     0.060 A 
ATOM     50  C   UNL A   1      40.194  33.962  30.795  1.00  0.00     0.016 A 
ATOM     51  C   UNL A   1      41.534  34.317  32.708  1.00  0.00     0.016 A 
ATOM     52  C   UNL A   1      41.253  34.445  29.983  1.00  0.00     0.010 A 
ATOM     53  C   UNL A   1      42.487  35.006  31.934  1.00  0.00     0.010 A 
ATOM     54  C   UNL A   1      42.447  34.902  30.552  1.00  0.00    -0.014 A 
BRANCH  54  55
ATOM     55  C   UNL A   1      43.739  35.014  29.804  1.00  0.00     0.031 A 
ATOM     56  C   UNL A   1      44.110  36.347  29.166  1.00  0.00     0.074 A 
ATOM     57  C   UNL A   1      44.572  33.968  29.651  1.00  0.00     0.049 A 
ATOM     58  N   UNL A   1      45.172  36.675  28.475  1.00  0.00    -0.248 NA
ATOM     59  C   UNL A   1      43.143  37.453  29.301  1.00  0.00     0.031 C 
ATOM     60  C   UNL A   1      44.320  32.621  30.154  1.00  0.00     0.029 A 
ATOM     61  N   UNL A   1      45.786  33.868  29.015  1.00  0.00    -0.354 N 
ATOM     62  C   UNL A   1      44.978  37.996  28.073  1.00  0.00     0.074 A 
ATOM     63  C   UNL A   1      43.674  38.392  28.539  1.00  0.00     0.031 C 
ATOM     64  C   UNL A   1      45.356  31.831  29.829  1.00  0.00     0.029 A 
ATOM     65  C   UNL A   1      46.323  32.603  29.050  1.00  0.00     0.049 A 
ATOM     66  H   UNL A   1      46.229  34.629  28.575  1.00  0.00     0.167 HD
ATOM     67  C   UNL A   1      45.811  38.823  27.399  1.00  0.00     0.034 A 
ATOM     68  C   UNL A   1      47.451  32.110  28.498  1.00  0.00     0.034 A 
ATOM     69  C   UNL A   1      47.101  38.424  26.917  1.00  0.00     0.049 A 
ATOM     70  C   UNL A   1      48.350  33.022  27.713  1.00  0.00     0.074 A 
ATOM     71  C   UNL A   1      48.052  39.193  26.275  1.00  0.00     0.029 A 
ATOM     72  N   UNL A   1      47.595  37.133  26.977  1.00  0.00    -0.354 N 
ATOM     73  N   UNL A   1      48.191  34.294  27.440  1.00  0.00    -0.248 NA
ATOM     74  C   UNL A   1      49.594  32.444  27.180  1.00  0.00     0.031 C 
ATOM     75  C   UNL A   1      49.078  38.345  25.856  1.00  0.00     0.029 A 
ATOM     76  C   UNL A   1      48.823  37.073  26.347  1.00  0.00     0.049 A 
ATOM     77  H   UNL A   1      47.141  36.371  27.405  1.00  0.00     0.167 HD
ATOM     78  C   UNL A   1      49.333  34.682  26.749  1.00  0.00     0.074 A 
ATOM     79  C   UNL A   1      50.174  33.508  26.642  1.00  0.00     0.031 C 
ATOM     80  C   UNL A   1      49.657  35.904  26.263  1.00  0.00     0.034 A 
BRANCH  67  81
ATOM     81  C   UNL A   1      45.332  40.226  27.108  1.00  0.00     0.023 A 
ATOM     82  C   UNL A   1      44.498  40.493  26.000  1.00  0.00     0.012 A 
ATOM     83  C   UNL A   1      45.711  41.289  27.952  1.00  0.00     0.148 A 
ATOM     84  C   UNL A   1      44.117  41.800  25.697  1.00  0.00     0.002 A 
ATOM     85  C   UNL A   1      45.276  42.578  27.679  1.00  0.00     0.091 A 
ATOM     86  F   UNL A   1      46.504  41.022  28.999  1.00  0.00    -0.205 F 
ATOM     87  C   UNL A   1      44.499  42.840  26.540  1.00  0.00     0.022 A 
BRANCH  85  88
ATOM     88  S   UNL A   1      45.660  43.970  28.744  1.00  0.00     0.127 S 
ATOM     89  O   UNL A   1      45.435  45.100  27.842  1.00  0.00    -0.237 OA
ATOM     90  O   UNL A   1      44.660  43.827  29.803  1.00  0.00    -0.237 OA
ATOM     91  O   UNL A   1      47.039  43.787  29.175  1.00  0.00    -0.744 OA
ENDBRANCH  85  88
ENDBRANCH  67  81
BRANCH  68  92
ATOM     92  C   UNL A   1      47.786  30.670  28.672  1.00  0.00     0.023 A 
ATOM     93  C   UNL A   1      48.321  30.199  29.886  1.00  0.00     0.012 A 
ATOM     94  C   UNL A   1      47.535  29.759  27.628  1.00  0.00     0.148 A 
ATOM     95  C   UNL A   1      48.622  28.845  30.048  1.00  0.00     0.002 A 
ATOM     96  C   UNL A   1      47.784  28.405  27.818  1.00  0.00     0.091 A 
ATOM     97  F   UNL A   1      47.025  30.233  26.485  1.00  0.00    -0.205 F 
ATOM     98  C   UNL A   1      48.342  27.950  29.020  1.00  0.00     0.022 A 
BRANCH  96  99
ATOM     99  S   UNL A   1      47.346  27.188  26.572  1.00  0.00     0.127 S 
ATOM    100  O   UNL A   1      46.023  27.685  26.140  1.00  0.00    -0.237 OA
ATOM    101  O   UNL A   1      48.418  27.401  25.578  1.00  0.00    -0.237 OA
ATOM    102  O   UNL A   1      47.358  25.918  27.216  1.00  0.00    -0.744 OA
ENDBRANCH  96  99
ENDBRANCH  68  92
BRANCH  80 103
ATOM    103  C   UNL A   1      51.020  36.084  25.654  1.00  0.00     0.023 A 
ATOM    104  C   UNL A   1      51.225  35.956  24.268  1.00  0.00     0.012 A 
ATOM    105  C   UNL A   1      52.089  36.480  26.482  1.00  0.00     0.148 A 
ATOM    106  C   UNL A   1      52.487  36.187  23.722  1.00  0.00     0.002 A 
ATOM    107  C   UNL A   1      53.323  36.768  25.925  1.00  0.00     0.091 A 
ATOM    108  F   UNL A   1      51.867  36.588  27.801  1.00  0.00    -0.205 F 
ATOM    109  C   UNL A   1      53.531  36.607  24.547  1.00  0.00     0.022 A 
BRANCH 107 110
ATOM    110  S   UNL A   1      54.691  37.393  26.904  1.00  0.00     0.127 S 
ATOM    111  O   UNL A   1      55.705  37.626  25.877  1.00  0.00    -0.237 OA
ATOM    112  O   UNL A   1      54.121  38.607  27.487  1.00  0.00    -0.237 OA
ATOM    113  O   UNL A   1      55.018  36.349  27.866  1.00  0.00    -0.744 OA
ENDBRANCH 107 110
ENDBRANCH  80 103
ENDBRANCH  54  55
ENDBRANCH  47  49
ENDBRANCH  46  47
ENDBRANCH  45  46
ENDBRANCH  44  45
ENDBRANCH  43  44
ENDBRANCH  42  43
ENDBRANCH  41  42
ENDBRANCH  40  41
ENDBRANCH  39  40
ENDBRANCH   1  39
TORSDOF 29
ENDMDL
MODEL 2
REMARK VINA RESULT:      -8.1      4.046      9.638
REMARK SMILES O=C(COc1ccccc1/C=N/NC(=O)c1cc(-c2ccc(F)cc2)nc2ccccc12)OCCOCCOCCOCCOC(=O)c1ccc(-c2c3nc(c(-c4cccc(S(=O)(=O)[O-])c4F)c4ccc([nH]4)c(-c4cccc(S(=O)(=O)[O-])c4F)c4nc(c(-c5cccc(S(=O)(=O)[O-])c5F)c5ccc2[nH]5)C=C4)C=C3)cc1
REMARK SMILES IDX 37 1 36 2 35 3 34 4 33 5 2 6 1 7 3 8 4 9 5 10 6 11 10 12
REMARK SMILES IDX 7 13 9 14 8 15 11 16 12 17 13 18 14 19 15 21 16 22 17 23
REMARK SMILES IDX 32 24 18 25 27 26 31 27 26 28 28 29 30 30 29 31 19 32 20 33
REMARK SMILES IDX 25 34 21 35 24 36 22 37 23 38 38 39 39 40 40 41 41 42 42 43
REMARK SMILES IDX 43 44 44 45 45 46 46 47 47 48 48 49 49 50 110 51 50 52
REMARK SMILES IDX 109 53 51 54 52 55 53 56 103 57 54 58 108 59 102 60 104 61
REMARK SMILES IDX 55 62 107 63 101 64 100 65 56 67 88 68 68 69 87 70 69 71
REMARK SMILES IDX 72 72 86 73 105 74 70 75 71 76 85 78 106 79 73 80 57 81
REMARK SMILES IDX 58 82 66 83 59 84 61 85 67 86 60 87 62 88 63 89 64 90 65 91
REMARK SMILES IDX 89 92 90 93 98 94 91 95 93 96 99 97 92 98 94 99 95 100
REMARK SMILES IDX 96 101 97 102 74 103 75 104 83 105 76 106 78 107 84 108
REMARK SMILES IDX 77 109 79 110 80 111 81 112 82 113
REMARK H PARENT 13 20 104 66 72 77
REMARK Flexibility Score: inf
ROOT
ATOM      1  C   UNL A   1      36.536  22.003  25.675  1.00  0.00     0.188 C 
ENDROOT
BRANCH   1   2
ATOM      2  O   UNL A   1      35.573  21.787  26.691  1.00  0.00    -0.376 OA
BRANCH   2   3
ATOM      3  C   UNL A   1      34.526  22.622  27.156  1.00  0.00     0.202 C 
BRANCH   3   4
ATOM      4  C   UNL A   1      33.320  22.103  27.942  1.00  0.00     0.261 C 
BRANCH   4   5
ATOM      5  O   UNL A   1      32.124  22.915  27.880  1.00  0.00    -0.461 OA
BRANCH   5   6
ATOM      6  C   UNL A   1      31.118  22.912  26.949  1.00  0.00     0.344 C 
ATOM      7  O   UNL A   1      29.947  23.133  27.255  1.00  0.00    -0.248 OA
BRANCH   6   8
ATOM      8  C   UNL A   1      31.453  22.509  25.545  1.00  0.00     0.352 C 
BRANCH   8   9
ATOM      9  O   UNL A   1      31.124  21.148  25.437  1.00  0.00    -0.481 OA
BRANCH   9  10
ATOM     10  C   UNL A   1      32.281  20.503  25.127  1.00  0.00     0.129 A 
ATOM     11  C   UNL A   1      32.199  19.236  25.738  1.00  0.00     0.047 A 
ATOM     12  C   UNL A   1      33.270  20.941  24.185  1.00  0.00     0.037 A 
ATOM     13  C   UNL A   1      33.109  18.281  25.394  1.00  0.00     0.004 A 
ATOM     14  C   UNL A   1      34.174  19.931  23.867  1.00  0.00     0.013 A 
ATOM     15  C   UNL A   1      34.083  18.627  24.456  1.00  0.00     0.001 A 
BRANCH  12  16
ATOM     16  C   UNL A   1      33.507  22.448  23.689  1.00  0.00     0.145 C 
ATOM     17  N   UNL A   1      34.619  23.046  23.254  1.00  0.00    -0.180 NA
BRANCH  17  18
ATOM     18  N   UNL A   1      34.454  24.473  22.703  1.00  0.00    -0.243 N 
ATOM     19  C   UNL A   1      33.162  25.156  22.505  1.00  0.00     0.272 C 
ATOM     20  H   UNL A   1      35.271  24.967  22.464  1.00  0.00     0.194 HD
ATOM     21  O   UNL A   1      32.359  24.724  21.676  1.00  0.00    -0.267 OA
BRANCH  19  22
ATOM     22  C   UNL A   1      32.818  26.552  23.176  1.00  0.00     0.053 A 
ATOM     23  C   UNL A   1      33.685  26.982  24.237  1.00  0.00     0.043 A 
ATOM     24  C   UNL A   1      31.502  27.387  23.064  1.00  0.00     0.013 A 
ATOM     25  C   UNL A   1      33.090  27.752  25.248  1.00  0.00     0.072 A 
ATOM     26  C   UNL A   1      31.756  28.480  23.790  1.00  0.00     0.072 A 
ATOM     27  C   UNL A   1      30.083  27.589  22.670  1.00  0.00     0.011 A 
ATOM     28  N   UNL A   1      31.871  28.055  24.973  1.00  0.00    -0.248 NA
ATOM     29  C   UNL A   1      31.241  29.752  23.868  1.00  0.00     0.029 A 
ATOM     30  C   UNL A   1      29.295  28.732  23.137  1.00  0.00     0.001 A 
ATOM     31  C   UNL A   1      29.897  29.834  23.737  1.00  0.00     0.002 A 
BRANCH  25  32
ATOM     32  C   UNL A   1      33.268  28.667  26.423  1.00  0.00     0.000 A 
ATOM     33  C   UNL A   1      32.288  29.689  26.661  1.00  0.00     0.013 A 
ATOM     34  C   UNL A   1      34.551  29.060  26.796  1.00  0.00     0.013 A 
ATOM     35  C   UNL A   1      32.563  30.949  27.251  1.00  0.00     0.040 A 
ATOM     36  C   UNL A   1      34.792  30.300  27.436  1.00  0.00     0.040 A 
ATOM     37  C   UNL A   1      33.826  31.227  27.678  1.00  0.00     0.123 A 
ATOM     38  F   UNL A   1      34.156  32.367  28.299  1.00  0.00    -0.207 F 
ENDBRANCH  25  32
ENDBRANCH  19  22
ENDBRANCH  17  18
ENDBRANCH  12  16
ENDBRANCH   9  10
ENDBRANCH   8   9
ENDBRANCH   6   8
ENDBRANCH   5   6
ENDBRANCH   4   5
ENDBRANCH   3   4
ENDBRANCH   2   3
ENDBRANCH   1   2
BRANCH   1  39
ATOM     39  C   UNL A   1      37.496  23.189  25.540  1.00  0.00     0.188 C 
BRANCH  39  40
ATOM     40  O   UNL A   1      38.852  23.063  25.871  1.00  0.00    -0.377 OA
BRANCH  40  41
ATOM     41  C   UNL A   1      39.269  21.829  26.360  1.00  0.00     0.188 C 
BRANCH  41  42
ATOM     42  C   UNL A   1      40.779  21.745  26.261  1.00  0.00     0.188 C 
BRANCH  42  43
ATOM     43  O   UNL A   1      41.579  22.860  25.908  1.00  0.00    -0.376 OA
BRANCH  43  44
ATOM     44  C   UNL A   1      42.193  23.552  26.976  1.00  0.00     0.202 C 
BRANCH  44  45
ATOM     45  C   UNL A   1      41.540  24.793  27.613  1.00  0.00     0.261 C 
BRANCH  45  46
ATOM     46  O   UNL A   1      42.146  25.905  28.436  1.00  0.00    -0.460 OA
BRANCH  46  47
ATOM     47  C   UNL A   1      43.329  26.225  29.038  1.00  0.00     0.338 C 
ATOM     48  O   UNL A   1      44.166  25.398  29.376  1.00  0.00    -0.246 OA
BRANCH  47  49
ATOM     49  C   UNL A   1      43.717  27.748  29.033  1.00  0.00     0.060 A 
ATOM     50  C   UNL A   1      44.927  28.116  29.652  1.00  0.00     0.016 A 
ATOM     51  C   UNL A   1      42.977  28.831  28.526  1.00  0.00     0.016 A 
ATOM     52  C   UNL A   1      45.266  29.473  29.893  1.00  0.00     0.010 A 
ATOM     53  C   UNL A   1      43.425  30.165  28.560  1.00  0.00     0.010 A 
ATOM     54  C   UNL A   1      44.466  30.513  29.408  1.00  0.00    -0.014 A 
BRANCH  54  55
ATOM     55  C   UNL A   1      44.487  31.907  29.955  1.00  0.00     0.031 A 
ATOM     56  C   UNL A   1      45.430  32.929  29.334  1.00  0.00     0.074 A 
ATOM     57  C   UNL A   1      43.721  32.280  30.996  1.00  0.00     0.049 A 
ATOM     58  N   UNL A   1      45.617  34.188  29.641  1.00  0.00    -0.248 NA
ATOM     59  C   UNL A   1      46.300  32.467  28.236  1.00  0.00     0.031 C 
ATOM     60  C   UNL A   1      42.818  31.396  31.727  1.00  0.00     0.029 A 
ATOM     61  N   UNL A   1      43.593  33.492  31.632  1.00  0.00    -0.354 N 
ATOM     62  C   UNL A   1      46.637  34.641  28.805  1.00  0.00     0.074 A 
ATOM     63  C   UNL A   1      47.075  33.515  28.022  1.00  0.00     0.031 C 
ATOM     64  C   UNL A   1      42.210  32.096  32.697  1.00  0.00     0.029 A 
ATOM     65  C   UNL A   1      42.717  33.467  32.692  1.00  0.00     0.049 A 
ATOM     66  H   UNL A   1      44.082  34.300  31.357  1.00  0.00     0.167 HD
ATOM     67  C   UNL A   1      47.155  35.885  28.675  1.00  0.00     0.034 A 
ATOM     68  C   UNL A   1      42.379  34.428  33.577  1.00  0.00     0.034 A 
ATOM     69  C   UNL A   1      46.733  37.004  29.467  1.00  0.00     0.049 A 
ATOM     70  C   UNL A   1      42.989  35.795  33.454  1.00  0.00     0.074 A 
ATOM     71  C   UNL A   1      47.145  38.320  29.379  1.00  0.00     0.029 A 
ATOM     72  N   UNL A   1      45.846  36.925  30.526  1.00  0.00    -0.354 N 
ATOM     73  N   UNL A   1      43.873  36.223  32.585  1.00  0.00    -0.248 NA
ATOM     74  C   UNL A   1      42.542  36.819  34.411  1.00  0.00     0.031 C 
ATOM     75  C   UNL A   1      46.584  39.016  30.452  1.00  0.00     0.029 A 
ATOM     76  C   UNL A   1      45.727  38.162  31.129  1.00  0.00     0.049 A 
ATOM     77  H   UNL A   1      45.371  36.110  30.807  1.00  0.00     0.167 HD
ATOM     78  C   UNL A   1      44.052  37.574  32.858  1.00  0.00     0.074 A 
ATOM     79  C   UNL A   1      43.187  37.893  33.974  1.00  0.00     0.031 C 
ATOM     80  C   UNL A   1      44.850  38.468  32.227  1.00  0.00     0.034 A 
BRANCH  67  81
ATOM     81  C   UNL A   1      48.260  36.089  27.666  1.00  0.00     0.023 A 
ATOM     82  C   UNL A   1      47.970  36.476  26.339  1.00  0.00     0.012 A 
ATOM     83  C   UNL A   1      49.605  35.902  28.045  1.00  0.00     0.148 A 
ATOM     84  C   UNL A   1      48.989  36.595  25.394  1.00  0.00     0.002 A 
ATOM     85  C   UNL A   1      50.618  36.084  27.115  1.00  0.00     0.091 A 
ATOM     86  F   UNL A   1      49.867  35.534  29.308  1.00  0.00    -0.205 F 
ATOM     87  C   UNL A   1      50.313  36.406  25.785  1.00  0.00     0.022 A 
BRANCH  85  88
ATOM     88  S   UNL A   1      52.355  35.930  27.541  1.00  0.00     0.127 S 
ATOM     89  O   UNL A   1      52.989  36.041  26.227  1.00  0.00    -0.237 OA
ATOM     90  O   UNL A   1      52.556  37.086  28.415  1.00  0.00    -0.237 OA
ATOM     91  O   UNL A   1      52.502  34.636  28.193  1.00  0.00    -0.744 OA
ENDBRANCH  85  88
ENDBRANCH  67  81
BRANCH  68  92
ATOM     92  C   UNL A   1      41.409  34.119  34.662  1.00  0.00     0.023 A 
ATOM     93  C   UNL A   1      40.022  34.204  34.432  1.00  0.00     0.012 A 
ATOM     94  C   UNL A   1      41.874  33.702  35.924  1.00  0.00     0.148 A 
ATOM     95  C   UNL A   1      39.116  33.900  35.450  1.00  0.00     0.002 A 
ATOM     96  C   UNL A   1      40.966  33.348  36.914  1.00  0.00     0.091 A 
ATOM     97  F   UNL A   1      43.197  33.629  36.115  1.00  0.00    -0.205 F 
ATOM     98  C   UNL A   1      39.589  33.462  36.684  1.00  0.00     0.022 A 
BRANCH  96  99
ATOM     99  S   UNL A   1      41.510  32.674  38.487  1.00  0.00     0.127 S 
ATOM    100  O   UNL A   1      42.312  33.797  39.016  1.00  0.00    -0.237 OA
ATOM    101  O   UNL A   1      40.218  32.486  39.177  1.00  0.00    -0.237 OA
ATOM    102  O   UNL A   1      42.225  31.477  38.197  1.00  0.00    -0.744 OA
ENDBRANCH  96  99
ENDBRANCH  68  92
BRANCH  80 103
ATOM    103  C   UNL A   1      44.767  39.910  32.648  1.00  0.00     0.023 A 
ATOM    104  C   UNL A   1      45.653  40.447  33.600  1.00  0.00     0.012 A 
ATOM    105  C   UNL A   1      43.842  40.755  32.003  1.00  0.00     0.148 A 
ATOM    106  C   UNL A   1      45.591  41.801  33.928  1.00  0.00     0.002 A 
ATOM    107  C   UNL A   1      43.830  42.110  32.287  1.00  0.00     0.091 A 
ATOM    108  F   UNL A   1      43.005  40.215  31.103  1.00  0.00    -0.205 F 
ATOM    109  C   UNL A   1      44.692  42.634  33.262  1.00  0.00     0.022 A 
BRANCH 107 110
ATOM    110  S   UNL A   1      42.764  43.261  31.416  1.00  0.00     0.127 S 
ATOM    111  O   UNL A   1      41.672  42.386  30.991  1.00  0.00    -0.237 OA
ATOM    112  O   UNL A   1      42.412  44.211  32.470  1.00  0.00    -0.237 OA
ATOM    113  O   UNL A   1      43.562  43.818  30.332  1.00  0.00    -0.744 OA
ENDBRANCH 107 110
ENDBRANCH  80 103
ENDBRANCH  54  55
ENDBRANCH  47  49
ENDBRANCH  46  47
ENDBRANCH  45  46
ENDBRANCH  44  45
ENDBRANCH  43  44
ENDBRANCH  42  43
ENDBRANCH  41  42
ENDBRANCH  40  41
ENDBRANCH  39  40
ENDBRANCH   1  39
TORSDOF 29
ENDMDL
MODEL 3
REMARK VINA RESULT:      -8.0      6.888     11.576
REMARK SMILES O=C(COc1ccccc1/C=N/NC(=O)c1cc(-c2ccc(F)cc2)nc2ccccc12)OCCOCCOCCOCCOC(=O)c1ccc(-c2c3nc(c(-c4cccc(S(=O)(=O)[O-])c4F)c4ccc([nH]4)c(-c4cccc(S(=O)(=O)[O-])c4F)c4nc(c(-c5cccc(S(=O)(=O)[O-])c5F)c5ccc2[nH]5)C=C4)C=C3)cc1
REMARK SMILES IDX 37 1 36 2 35 3 34 4 33 5 2 6 1 7 3 8 4 9 5 10 6 11 10 12
REMARK SMILES IDX 7 13 9 14 8 15 11 16 12 17 13 18 14 19 15 21 16 22 17 23
REMARK SMILES IDX 32 24 18 25 27 26 31 27 26 28 28 29 30 30 29 31 19 32 20 33
REMARK SMILES IDX 25 34 21 35 24 36 22 37 23 38 38 39 39 40 40 41 41 42 42 43
REMARK SMILES IDX 43 44 44 45 45 46 46 47 47 48 48 49 49 50 110 51 50 52
REMARK SMILES IDX 109 53 51 54 52 55 53 56 103 57 54 58 108 59 102 60 104 61
REMARK SMILES IDX 55 62 107 63 101 64 100 65 56 67 88 68 68 69 87 70 69 71
REMARK SMILES IDX 72 72 86 73 105 74 70 75 71 76 85 78 106 79 73 80 57 81
REMARK SMILES IDX 58 82 66 83 59 84 61 85 67 86 60 87 62 88 63 89 64 90 65 91
REMARK SMILES IDX 89 92 90 93 98 94 91 95 93 96 99 97 92 98 94 99 95 100
REMARK SMILES IDX 96 101 97 102 74 103 75 104 83 105 76 106 78 107 84 108
REMARK SMILES IDX 77 109 79 110 80 111 81 112 82 113
REMARK H PARENT 13 20 104 66 72 77
REMARK Flexibility Score: inf
ROOT
ATOM      1  C   UNL A   1      42.006  30.825  30.648  1.00  0.00     0.188 C 
ENDROOT
BRANCH   1   2
ATOM      2  O   UNL A   1      41.947  32.210  30.354  1.00  0.00    -0.376 OA
BRANCH   2   3
ATOM      3  C   UNL A   1      42.619  33.305  30.951  1.00  0.00     0.202 C 
BRANCH   3   4
ATOM      4  C   UNL A   1      43.154  33.284  32.385  1.00  0.00     0.261 C 
BRANCH   4   5
ATOM      5  O   UNL A   1      42.286  33.850  33.395  1.00  0.00    -0.461 OA
BRANCH   5   6
ATOM      6  C   UNL A   1      42.579  34.237  34.677  1.00  0.00     0.344 C 
ATOM      7  O   UNL A   1      43.572  34.913  34.942  1.00  0.00    -0.248 OA
BRANCH   6   8
ATOM      8  C   UNL A   1      41.720  33.713  35.788  1.00  0.00     0.352 C 
BRANCH   8   9
ATOM      9  O   UNL A   1      40.588  34.543  35.835  1.00  0.00    -0.481 OA
BRANCH   9  10
ATOM     10  C   UNL A   1      39.949  34.244  36.997  1.00  0.00     0.129 A 
ATOM     11  C   UNL A   1      40.658  34.909  38.018  1.00  0.00     0.047 A 
ATOM     12  C   UNL A   1      38.683  33.579  37.124  1.00  0.00     0.037 A 
ATOM     13  C   UNL A   1      40.101  34.992  39.259  1.00  0.00     0.004 A 
ATOM     14  C   UNL A   1      38.158  33.692  38.407  1.00  0.00     0.013 A 
ATOM     15  C   UNL A   1      38.853  34.394  39.447  1.00  0.00     0.001 A 
BRANCH  12  16
ATOM     16  C   UNL A   1      38.005  32.616  36.035  1.00  0.00     0.145 C 
ATOM     17  N   UNL A   1      38.556  31.701  35.233  1.00  0.00    -0.180 NA
BRANCH  17  18
ATOM     18  N   UNL A   1      37.582  30.836  34.416  1.00  0.00    -0.243 N 
ATOM     19  C   UNL A   1      36.898  31.272  33.184  1.00  0.00     0.272 C 
ATOM     20  H   UNL A   1      37.400  29.924  34.738  1.00  0.00     0.194 HD
ATOM     21  O   UNL A   1      36.075  32.188  33.228  1.00  0.00    -0.267 OA
BRANCH  19  22
ATOM     22  C   UNL A   1      37.024  30.489  31.809  1.00  0.00     0.053 A 
ATOM     23  C   UNL A   1      38.031  29.467  31.747  1.00  0.00     0.043 A 
ATOM     24  C   UNL A   1      36.426  30.865  30.417  1.00  0.00     0.013 A 
ATOM     25  C   UNL A   1      38.628  29.262  30.493  1.00  0.00     0.072 A 
ATOM     26  C   UNL A   1      36.804  29.857  29.624  1.00  0.00     0.072 A 
ATOM     27  C   UNL A   1      35.744  31.780  29.463  1.00  0.00     0.011 A 
ATOM     28  N   UNL A   1      38.061  29.953  29.568  1.00  0.00    -0.248 NA
ATOM     29  C   UNL A   1      36.385  29.340  28.421  1.00  0.00     0.029 A 
ATOM     30  C   UNL A   1      35.681  31.509  28.025  1.00  0.00     0.001 A 
ATOM     31  C   UNL A   1      36.001  30.259  27.506  1.00  0.00     0.002 A 
BRANCH  25  32
ATOM     32  C   UNL A   1      39.467  28.387  29.610  1.00  0.00     0.000 A 
ATOM     33  C   UNL A   1      39.909  28.900  28.343  1.00  0.00     0.013 A 
ATOM     34  C   UNL A   1      39.225  27.016  29.575  1.00  0.00     0.013 A 
ATOM     35  C   UNL A   1      40.126  28.112  27.184  1.00  0.00     0.040 A 
ATOM     36  C   UNL A   1      39.505  26.241  28.424  1.00  0.00     0.040 A 
ATOM     37  C   UNL A   1      39.960  26.763  27.252  1.00  0.00     0.123 A 
ATOM     38  F   UNL A   1      40.202  25.941  26.223  1.00  0.00    -0.207 F 
ENDBRANCH  25  32
ENDBRANCH  19  22
ENDBRANCH  17  18
ENDBRANCH  12  16
ENDBRANCH   9  10
ENDBRANCH   8   9
ENDBRANCH   6   8
ENDBRANCH   5   6
ENDBRANCH   4   5
ENDBRANCH   3   4
ENDBRANCH   2   3
ENDBRANCH   1   2
BRANCH   1  39
ATOM     39  C   UNL A   1      42.480  30.171  31.950  1.00  0.00     0.188 C 
BRANCH  39  40
ATOM     40  O   UNL A   1      42.397  28.784  32.135  1.00  0.00    -0.377 OA
BRANCH  40  41
ATOM     41  C   UNL A   1      42.517  28.314  33.439  1.00  0.00     0.188 C 
BRANCH  41  42
ATOM     42  C   UNL A   1      41.154  27.874  33.932  1.00  0.00     0.188 C 
BRANCH  42  43
ATOM     43  O   UNL A   1      40.978  26.742  34.767  1.00  0.00    -0.376 OA
BRANCH  43  44
ATOM     44  C   UNL A   1      41.974  26.528  35.746  1.00  0.00     0.202 C 
BRANCH  44  45
ATOM     45  C   UNL A   1      42.946  25.337  35.660  1.00  0.00     0.261 C 
BRANCH  45  46
ATOM     46  O   UNL A   1      44.282  25.113  36.330  1.00  0.00    -0.460 OA
BRANCH  46  47
ATOM     47  C   UNL A   1      45.321  24.228  36.301  1.00  0.00     0.338 C 
ATOM     48  O   UNL A   1      45.276  23.110  36.797  1.00  0.00    -0.246 OA
BRANCH  47  49
ATOM     49  C   UNL A   1      46.514  24.594  35.345  1.00  0.00     0.060 A 
ATOM     50  C   UNL A   1      46.713  25.955  35.042  1.00  0.00     0.016 A 
ATOM     51  C   UNL A   1      47.403  23.723  34.693  1.00  0.00     0.016 A 
ATOM     52  C   UNL A   1      47.616  26.376  34.031  1.00  0.00     0.010 A 
ATOM     53  C   UNL A   1      48.454  24.158  33.863  1.00  0.00     0.010 A 
ATOM     54  C   UNL A   1      48.444  25.457  33.376  1.00  0.00    -0.014 A 
BRANCH  54  55
ATOM     55  C   UNL A   1      49.086  25.711  32.047  1.00  0.00     0.031 A 
ATOM     56  C   UNL A   1      48.222  25.692  30.794  1.00  0.00     0.074 A 
ATOM     57  C   UNL A   1      50.408  25.928  31.921  1.00  0.00     0.049 A 
ATOM     58  N   UNL A   1      48.559  25.886  29.543  1.00  0.00    -0.248 NA
ATOM     59  C   UNL A   1      46.789  25.389  30.965  1.00  0.00     0.031 C 
ATOM     60  C   UNL A   1      51.365  25.915  33.024  1.00  0.00     0.029 A 
ATOM     61  N   UNL A   1      51.178  26.182  30.811  1.00  0.00    -0.354 N 
ATOM     62  C   UNL A   1      47.398  25.693  28.797  1.00  0.00     0.074 A 
ATOM     63  C   UNL A   1      46.361  25.306  29.718  1.00  0.00     0.031 C 
ATOM     64  C   UNL A   1      52.591  26.173  32.542  1.00  0.00     0.029 A 
ATOM     65  C   UNL A   1      52.517  26.319  31.089  1.00  0.00     0.049 A 
ATOM     66  H   UNL A   1      50.806  26.258  29.903  1.00  0.00     0.167 HD
ATOM     67  C   UNL A   1      47.194  25.844  27.467  1.00  0.00     0.034 A 
ATOM     68  C   UNL A   1      53.571  26.514  30.269  1.00  0.00     0.034 A 
ATOM     69  C   UNL A   1      48.230  26.211  26.545  1.00  0.00     0.049 A 
ATOM     70  C   UNL A   1      53.344  26.637  28.789  1.00  0.00     0.074 A 
ATOM     71  C   UNL A   1      48.124  26.450  25.189  1.00  0.00     0.029 A 
ATOM     72  N   UNL A   1      49.567  26.335  26.878  1.00  0.00    -0.354 N 
ATOM     73  N   UNL A   1      52.218  26.556  28.123  1.00  0.00    -0.248 NA
ATOM     74  C   UNL A   1      54.522  26.904  27.949  1.00  0.00     0.031 C 
ATOM     75  C   UNL A   1      49.414  26.620  24.682  1.00  0.00     0.029 A 
ATOM     76  C   UNL A   1      50.306  26.609  25.744  1.00  0.00     0.049 A 
ATOM     77  H   UNL A   1      49.936  26.244  27.786  1.00  0.00     0.167 HD
ATOM     78  C   UNL A   1      52.541  26.809  26.795  1.00  0.00     0.074 A 
ATOM     79  C   UNL A   1      53.970  27.044  26.751  1.00  0.00     0.031 C 
ATOM     80  C   UNL A   1      51.723  26.858  25.717  1.00  0.00     0.034 A 
BRANCH  67  81
ATOM     81  C   UNL A   1      45.809  25.574  26.928  1.00  0.00     0.023 A 
ATOM     82  C   UNL A   1      44.815  26.577  26.946  1.00  0.00     0.012 A 
ATOM     83  C   UNL A   1      45.495  24.310  26.391  1.00  0.00     0.148 A 
ATOM     84  C   UNL A   1      43.518  26.300  26.512  1.00  0.00     0.002 A 
ATOM     85  C   UNL A   1      44.221  24.061  25.902  1.00  0.00     0.091 A 
ATOM     86  F   UNL A   1      46.448  23.366  26.380  1.00  0.00    -0.205 F 
ATOM     87  C   UNL A   1      43.224  25.046  25.984  1.00  0.00     0.022 A 
BRANCH  85  88
ATOM     88  S   UNL A   1      43.768  22.501  25.141  1.00  0.00     0.127 S 
ATOM     89  O   UNL A   1      44.421  22.611  23.837  1.00  0.00    -0.237 OA
ATOM     90  O   UNL A   1      44.380  21.531  26.050  1.00  0.00    -0.237 OA
ATOM     91  O   UNL A   1      42.312  22.472  25.105  1.00  0.00    -0.744 OA
ENDBRANCH  85  88
ENDBRANCH  67  81
BRANCH  68  92
ATOM     92  C   UNL A   1      54.942  26.600  30.842  1.00  0.00     0.023 A 
ATOM     93  C   UNL A   1      55.500  27.846  31.185  1.00  0.00     0.012 A 
ATOM     94  C   UNL A   1      55.680  25.424  31.079  1.00  0.00     0.148 A 
ATOM     95  C   UNL A   1      56.781  27.920  31.735  1.00  0.00     0.002 A 
ATOM     96  C   UNL A   1      56.931  25.503  31.678  1.00  0.00     0.091 A 
ATOM     97  F   UNL A   1      55.125  24.253  30.744  1.00  0.00    -0.205 F 
ATOM     98  C   UNL A   1      57.489  26.749  31.991  1.00  0.00     0.022 A 
BRANCH  96  99
ATOM     99  S   UNL A   1      57.847  24.026  32.131  1.00  0.00     0.127 S 
ATOM    100  O   UNL A   1      58.103  23.430  30.803  1.00  0.00    -0.237 OA
ATOM    101  O   UNL A   1      59.045  24.617  32.761  1.00  0.00    -0.237 OA
ATOM    102  O   UNL A   1      57.009  23.274  33.003  1.00  0.00    -0.744 OA
ENDBRANCH  96  99
ENDBRANCH  68  92
BRANCH  80 103
ATOM    103  C   UNL A   1      52.315  27.274  24.399  1.00  0.00     0.023 A 
ATOM    104  C   UNL A   1      52.860  26.330  23.509  1.00  0.00     0.012 A 
ATOM    105  C   UNL A   1      52.234  28.628  24.014  1.00  0.00     0.148 A 
ATOM    106  C   UNL A   1      53.348  26.737  22.268  1.00  0.00     0.002 A 
ATOM    107  C   UNL A   1      52.663  29.014  22.755  1.00  0.00     0.091 A 
ATOM    108  F   UNL A   1      51.716  29.508  24.884  1.00  0.00    -0.205 F 
ATOM    109  C   UNL A   1      53.235  28.074  21.886  1.00  0.00     0.022 A 
BRANCH 107 110
ATOM    110  S   UNL A   1      52.477  30.695  22.156  1.00  0.00     0.127 S 
ATOM    111  O   UNL A   1      53.864  31.067  21.886  1.00  0.00    -0.237 OA
ATOM    112  O   UNL A   1      51.651  30.506  20.964  1.00  0.00    -0.237 OA
ATOM    113  O   UNL A   1      51.837  31.445  23.229  1.00  0.00    -0.744 OA
ENDBRANCH 107 110
ENDBRANCH  80 103
ENDBRANCH  54  55
ENDBRANCH  47  49
ENDBRANCH  46  47
ENDBRANCH  45  46
ENDBRANCH  44  45
ENDBRANCH  43  44
ENDBRANCH  42  43
ENDBRANCH  41  42
ENDBRANCH  40  41
ENDBRANCH  39  40
ENDBRANCH   1  39
TORSDOF 29
ENDMDL
