MODEL 1
REMARK VINA RESULT:     -10.6      0.000      0.000
REMARK SMILES O=C(OCCOCCOCCOCCOC(=O)[C@H]1Cc2[nH]cnc2CN1C(=O)c1ccncc1Cl)c1ccc(-c2c3nc(c(-c4cccc(S(=O)(=O)[O-])c4F)c4ccc([nH]4)c(-c4cccc(S(=O)(=O)[O-])c4F)c4nc(c(-c5cccc(S(=O)(=O)[O-])c5F)c5ccc2[nH]5)C=C4)C=C3)cc1
REMARK SMILES IDX 8 1 7 2 6 3 5 4 4 5 3 6 2 7 1 8 36 9 37 10 98 11 38 12 97 13
REMARK SMILES IDX 39 14 40 15 41 16 91 17 42 18 96 19 90 20 92 21 43 22 95 23
REMARK SMILES IDX 89 24 88 25 44 27 76 28 56 29 75 30 57 31 60 32 74 33 93 34
REMARK SMILES IDX 58 35 59 36 73 38 94 39 61 40 45 41 46 42 54 43 47 44 49 45
REMARK SMILES IDX 55 46 48 47 50 48 51 49 52 50 53 51 77 52 78 53 86 54 79 55
REMARK SMILES IDX 81 56 87 57 80 58 82 59 83 60 84 61 85 62 62 63 63 64 71 65
REMARK SMILES IDX 64 66 66 67 72 68 65 69 67 70 68 71 69 72 70 73 9 74 10 75
REMARK SMILES IDX 11 76 12 77 13 78 14 79 15 80 16 81 17 82 18 83 19 84 26 85
REMARK SMILES IDX 20 86 25 87 21 88 24 89 22 90 23 92 27 93 28 94 29 95 30 96
REMARK SMILES IDX 34 97 31 98 33 99 35 100 32 101
REMARK H PARENT 92 26 60 37 21 91
REMARK Flexibility Score: inf
ROOT
ATOM      1  C   UNL A   1      41.900  19.764  27.299  1.00  0.00     0.188 C 
ENDROOT
BRANCH   1   2
ATOM      2  C   UNL A   1      42.005  18.947  25.998  1.00  0.00     0.188 C 
BRANCH   2   3
ATOM      3  O   UNL A   1      43.207  18.772  25.252  1.00  0.00    -0.376 OA
BRANCH   3   4
ATOM      4  C   UNL A   1      44.459  18.484  25.846  1.00  0.00     0.202 C 
BRANCH   4   5
ATOM      5  C   UNL A   1      45.635  19.127  25.119  1.00  0.00     0.261 C 
BRANCH   5   6
ATOM      6  O   UNL A   1      45.728  20.553  25.274  1.00  0.00    -0.460 OA
BRANCH   6   7
ATOM      7  C   UNL A   1      44.931  21.432  24.623  1.00  0.00     0.338 C 
ATOM      8  O   UNL A   1      44.614  21.224  23.454  1.00  0.00    -0.246 OA
BRANCH   7   9
ATOM      9  C   UNL A   1      44.248  22.526  25.373  1.00  0.00     0.060 A 
ATOM     10  C   UNL A   1      43.336  23.428  24.819  1.00  0.00     0.016 A 
ATOM     11  C   UNL A   1      44.638  22.679  26.715  1.00  0.00     0.016 A 
ATOM     12  C   UNL A   1      43.052  24.596  25.476  1.00  0.00     0.010 A 
ATOM     13  C   UNL A   1      44.342  23.841  27.393  1.00  0.00     0.010 A 
ATOM     14  C   UNL A   1      43.660  24.827  26.705  1.00  0.00    -0.014 A 
BRANCH  14  15
ATOM     15  C   UNL A   1      43.544  26.163  27.227  1.00  0.00     0.031 A 
ATOM     16  C   UNL A   1      44.723  26.988  26.903  1.00  0.00     0.074 A 
ATOM     17  C   UNL A   1      42.505  26.490  28.019  1.00  0.00     0.049 A 
ATOM     18  N   UNL A   1      45.716  27.234  27.690  1.00  0.00    -0.248 NA
ATOM     19  C   UNL A   1      44.963  27.349  25.501  1.00  0.00     0.031 C 
ATOM     20  C   UNL A   1      41.239  25.777  28.211  1.00  0.00     0.029 A 
ATOM     21  N   UNL A   1      42.329  27.602  28.771  1.00  0.00    -0.354 N 
ATOM     22  C   UNL A   1      46.571  28.043  26.953  1.00  0.00     0.074 A 
ATOM     23  C   UNL A   1      46.187  27.878  25.577  1.00  0.00     0.031 C 
ATOM     24  C   UNL A   1      40.341  26.613  28.783  1.00  0.00     0.029 A 
ATOM     25  C   UNL A   1      41.011  27.855  29.128  1.00  0.00     0.049 A 
ATOM     26  H   UNL A   1      43.076  28.185  29.042  1.00  0.00     0.167 HD
ATOM     27  C   UNL A   1      47.290  29.008  27.585  1.00  0.00     0.034 A 
ATOM     28  C   UNL A   1      40.520  29.035  29.590  1.00  0.00     0.034 A 
ATOM     29  C   UNL A   1      47.366  28.743  29.004  1.00  0.00     0.049 A 
ATOM     30  C   UNL A   1      41.673  29.808  30.116  1.00  0.00     0.074 A 
ATOM     31  C   UNL A   1      47.837  27.696  29.774  1.00  0.00     0.029 A 
ATOM     32  N   UNL A   1      46.503  29.452  29.806  1.00  0.00    -0.354 N 
ATOM     33  N   UNL A   1      42.344  29.444  31.174  1.00  0.00    -0.248 NA
ATOM     34  C   UNL A   1      42.386  30.673  29.186  1.00  0.00     0.031 C 
ATOM     35  C   UNL A   1      46.885  27.559  30.827  1.00  0.00     0.029 A 
ATOM     36  C   UNL A   1      45.946  28.586  30.707  1.00  0.00     0.049 A 
ATOM     37  H   UNL A   1      46.318  30.417  29.743  1.00  0.00     0.167 HD
ATOM     38  C   UNL A   1      43.673  29.607  30.804  1.00  0.00     0.074 A 
ATOM     39  C   UNL A   1      43.636  30.450  29.606  1.00  0.00     0.031 C 
ATOM     40  C   UNL A   1      44.646  28.792  31.305  1.00  0.00     0.034 A 
BRANCH  27  41
ATOM     41  C   UNL A   1      47.511  30.398  27.031  1.00  0.00     0.023 A 
ATOM     42  C   UNL A   1      48.810  30.937  27.168  1.00  0.00     0.012 A 
ATOM     43  C   UNL A   1      46.480  31.300  26.676  1.00  0.00     0.148 A 
ATOM     44  C   UNL A   1      49.053  32.308  27.043  1.00  0.00     0.002 A 
ATOM     45  C   UNL A   1      46.737  32.651  26.484  1.00  0.00     0.091 A 
ATOM     46  F   UNL A   1      45.211  30.896  26.634  1.00  0.00    -0.205 F 
ATOM     47  C   UNL A   1      48.015  33.167  26.702  1.00  0.00     0.022 A 
BRANCH  45  48
ATOM     48  S   UNL A   1      45.440  33.803  26.009  1.00  0.00     0.127 S 
ATOM     49  O   UNL A   1      46.219  34.962  25.583  1.00  0.00    -0.237 OA
ATOM     50  O   UNL A   1      44.779  33.068  24.930  1.00  0.00    -0.237 OA
ATOM     51  O   UNL A   1      44.616  33.996  27.195  1.00  0.00    -0.744 OA
ENDBRANCH  45  48
ENDBRANCH  27  41
BRANCH  28  52
ATOM     52  C   UNL A   1      39.219  29.686  29.290  1.00  0.00     0.023 A 
ATOM     53  C   UNL A   1      38.497  29.312  28.136  1.00  0.00     0.012 A 
ATOM     54  C   UNL A   1      38.545  30.443  30.275  1.00  0.00     0.148 A 
ATOM     55  C   UNL A   1      37.145  29.649  27.987  1.00  0.00     0.002 A 
ATOM     56  C   UNL A   1      37.202  30.777  30.122  1.00  0.00     0.091 A 
ATOM     57  F   UNL A   1      39.192  30.755  31.404  1.00  0.00    -0.205 F 
ATOM     58  C   UNL A   1      36.494  30.372  28.985  1.00  0.00     0.022 A 
BRANCH  56  59
ATOM     59  S   UNL A   1      36.287  31.670  31.388  1.00  0.00     0.127 S 
ATOM     60  O   UNL A   1      37.122  32.856  31.584  1.00  0.00    -0.237 OA
ATOM     61  O   UNL A   1      35.014  31.923  30.718  1.00  0.00    -0.237 OA
ATOM     62  O   UNL A   1      36.226  30.782  32.541  1.00  0.00    -0.744 OA
ENDBRANCH  56  59
ENDBRANCH  28  52
BRANCH  40  63
ATOM     63  C   UNL A   1      44.295  27.898  32.465  1.00  0.00     0.023 A 
ATOM     64  C   UNL A   1      43.982  26.528  32.329  1.00  0.00     0.012 A 
ATOM     65  C   UNL A   1      44.432  28.439  33.752  1.00  0.00     0.148 A 
ATOM     66  C   UNL A   1      43.784  25.729  33.461  1.00  0.00     0.002 A 
ATOM     67  C   UNL A   1      44.280  27.634  34.869  1.00  0.00     0.091 A 
ATOM     68  F   UNL A   1      44.731  29.744  33.860  1.00  0.00    -0.205 F 
ATOM     69  C   UNL A   1      43.945  26.280  34.732  1.00  0.00     0.022 A 
BRANCH  67  70
ATOM     70  S   UNL A   1      44.589  28.277  36.514  1.00  0.00     0.127 S 
ATOM     71  O   UNL A   1      43.235  28.504  37.012  1.00  0.00    -0.237 OA
ATOM     72  O   UNL A   1      45.302  27.171  37.157  1.00  0.00    -0.237 OA
ATOM     73  O   UNL A   1      45.400  29.474  36.328  1.00  0.00    -0.744 OA
ENDBRANCH  67  70
ENDBRANCH  40  63
ENDBRANCH  14  15
ENDBRANCH   7   9
ENDBRANCH   6   7
ENDBRANCH   5   6
ENDBRANCH   4   5
ENDBRANCH   3   4
ENDBRANCH   2   3
ENDBRANCH   1   2
BRANCH   1  74
ATOM     74  O   UNL A   1      40.736  20.532  27.545  1.00  0.00    -0.377 OA
BRANCH  74  75
ATOM     75  C   UNL A   1      40.908  21.930  27.596  1.00  0.00     0.188 C 
BRANCH  75  76
ATOM     76  C   UNL A   1      40.105  22.710  26.587  1.00  0.00     0.188 C 
BRANCH  76  77
ATOM     77  O   UNL A   1      38.770  22.291  26.379  1.00  0.00    -0.376 OA
BRANCH  77  78
ATOM     78  C   UNL A   1      37.876  23.277  25.860  1.00  0.00     0.202 C 
BRANCH  78  79
ATOM     79  C   UNL A   1      36.787  22.900  24.824  1.00  0.00     0.261 C 
BRANCH  79  80
ATOM     80  O   UNL A   1      35.661  23.786  24.715  1.00  0.00    -0.462 OA
BRANCH  80  81
ATOM     81  C   UNL A   1      34.540  23.543  25.472  1.00  0.00     0.329 C 
ATOM     82  O   UNL A   1      34.105  24.281  26.324  1.00  0.00    -0.250 OA
BRANCH  81  83
ATOM     83  C   UNL A   1      33.944  22.187  24.999  1.00  0.00     0.201 C 
ATOM     84  C   UNL A   1      33.575  21.364  26.264  1.00  0.00     0.093 C 
ATOM     85  N   UNL A   1      32.922  22.053  23.874  1.00  0.00    -0.318 N 
ATOM     86  C   UNL A   1      33.100  20.029  25.829  1.00  0.00     0.042 A 
ATOM     87  C   UNL A   1      32.728  20.650  23.398  1.00  0.00     0.179 C 
ATOM     88  N   UNL A   1      32.964  18.888  26.561  1.00  0.00    -0.348 N 
ATOM     89  C   UNL A   1      32.709  19.707  24.551  1.00  0.00     0.081 A 
ATOM     90  C   UNL A   1      32.480  17.930  25.709  1.00  0.00     0.197 A 
ATOM     91  H   UNL A   1      33.173  18.774  27.516  1.00  0.00     0.167 HD
ATOM     92  N   UNL A   1      32.331  18.391  24.487  1.00  0.00    -0.240 NA
BRANCH  85  93
ATOM     93  C   UNL A   1      32.581  22.999  22.879  1.00  0.00     0.256 C 
ATOM     94  O   UNL A   1      32.707  22.728  21.683  1.00  0.00    -0.269 OA
BRANCH  93  95
ATOM     95  C   UNL A   1      31.883  24.274  23.172  1.00  0.00     0.061 A 
ATOM     96  C   UNL A   1      30.874  24.255  24.134  1.00  0.00     0.035 A 
ATOM     97  C   UNL A   1      31.951  25.393  22.335  1.00  0.00     0.072 A 
ATOM     98  C   UNL A   1      30.076  25.384  24.283  1.00  0.00     0.112 A 
ATOM     99  C   UNL A   1      31.170  26.503  22.619  1.00  0.00     0.132 A 
ATOM    100  Cl  UNL A   1      32.769  25.453  20.849  1.00  0.00    -0.082 Cl
ATOM    101  N   UNL A   1      30.234  26.527  23.586  1.00  0.00    -0.263 NA
ENDBRANCH  93  95
ENDBRANCH  85  93
ENDBRANCH  81  83
ENDBRANCH  80  81
ENDBRANCH  79  80
ENDBRANCH  78  79
ENDBRANCH  77  78
ENDBRANCH  76  77
ENDBRANCH  75  76
ENDBRANCH  74  75
ENDBRANCH   1  74
TORSDOF 25
ENDMDL
MODEL 2
REMARK VINA RESULT:     -10.2      3.019      4.843
REMARK SMILES O=C(OCCOCCOCCOCCOC(=O)[C@H]1Cc2[nH]cnc2CN1C(=O)c1ccncc1Cl)c1ccc(-c2c3nc(c(-c4cccc(S(=O)(=O)[O-])c4F)c4ccc([nH]4)c(-c4cccc(S(=O)(=O)[O-])c4F)c4nc(c(-c5cccc(S(=O)(=O)[O-])c5F)c5ccc2[nH]5)C=C4)C=C3)cc1
REMARK SMILES IDX 8 1 7 2 6 3 5 4 4 5 3 6 2 7 1 8 36 9 37 10 98 11 38 12 97 13
REMARK SMILES IDX 39 14 40 15 41 16 91 17 42 18 96 19 90 20 92 21 43 22 95 23
REMARK SMILES IDX 89 24 88 25 44 27 76 28 56 29 75 30 57 31 60 32 74 33 93 34
REMARK SMILES IDX 58 35 59 36 73 38 94 39 61 40 45 41 46 42 54 43 47 44 49 45
REMARK SMILES IDX 55 46 48 47 50 48 51 49 52 50 53 51 77 52 78 53 86 54 79 55
REMARK SMILES IDX 81 56 87 57 80 58 82 59 83 60 84 61 85 62 62 63 63 64 71 65
REMARK SMILES IDX 64 66 66 67 72 68 65 69 67 70 68 71 69 72 70 73 9 74 10 75
REMARK SMILES IDX 11 76 12 77 13 78 14 79 15 80 16 81 17 82 18 83 19 84 26 85
REMARK SMILES IDX 20 86 25 87 21 88 24 89 22 90 23 92 27 93 28 94 29 95 30 96
REMARK SMILES IDX 34 97 31 98 33 99 35 100 32 101
REMARK H PARENT 92 26 60 37 21 91
REMARK Flexibility Score: inf
ROOT
ATOM      1  C   UNL A   1      35.297  24.156  25.255  1.00  0.00     0.188 C 
ENDROOT
BRANCH   1   2
ATOM      2  C   UNL A   1      36.775  24.022  25.666  1.00  0.00     0.188 C 
BRANCH   2   3
ATOM      3  O   UNL A   1      37.642  22.978  25.228  1.00  0.00    -0.376 OA
BRANCH   3   4
ATOM      4  C   UNL A   1      37.937  21.833  26.004  1.00  0.00     0.202 C 
BRANCH   4   5
ATOM      5  C   UNL A   1      39.421  21.480  26.022  1.00  0.00     0.261 C 
BRANCH   5   6
ATOM      6  O   UNL A   1      40.300  22.577  25.726  1.00  0.00    -0.460 OA
BRANCH   6   7
ATOM      7  C   UNL A   1      41.210  23.067  26.599  1.00  0.00     0.338 C 
ATOM      8  O   UNL A   1      42.378  22.688  26.546  1.00  0.00    -0.246 OA
BRANCH   7   9
ATOM      9  C   UNL A   1      40.865  24.225  27.475  1.00  0.00     0.060 A 
ATOM     10  C   UNL A   1      39.661  24.933  27.428  1.00  0.00     0.016 A 
ATOM     11  C   UNL A   1      41.883  24.655  28.343  1.00  0.00     0.016 A 
ATOM     12  C   UNL A   1      39.583  26.177  27.997  1.00  0.00     0.010 A 
ATOM     13  C   UNL A   1      41.807  25.896  28.937  1.00  0.00     0.010 A 
ATOM     14  C   UNL A   1      40.707  26.680  28.642  1.00  0.00    -0.014 A 
BRANCH  14  15
ATOM     15  C   UNL A   1      40.667  28.076  28.987  1.00  0.00     0.031 A 
ATOM     16  C   UNL A   1      41.748  28.839  28.333  1.00  0.00     0.074 A 
ATOM     17  C   UNL A   1      39.792  28.519  29.909  1.00  0.00     0.049 A 
ATOM     18  N   UNL A   1      42.867  29.185  28.874  1.00  0.00    -0.248 NA
ATOM     19  C   UNL A   1      41.710  28.999  26.874  1.00  0.00     0.031 C 
ATOM     20  C   UNL A   1      38.599  27.849  30.436  1.00  0.00     0.029 A 
ATOM     21  N   UNL A   1      39.741  29.726  30.520  1.00  0.00    -0.354 N 
ATOM     22  C   UNL A   1      43.551  29.876  27.883  1.00  0.00     0.074 A 
ATOM     23  C   UNL A   1      42.916  29.524  26.642  1.00  0.00     0.031 C 
ATOM     24  C   UNL A   1      37.811  28.763  31.048  1.00  0.00     0.029 A 
ATOM     25  C   UNL A   1      38.510  30.036  31.084  1.00  0.00     0.049 A 
ATOM     26  H   UNL A   1      40.515  30.335  30.561  1.00  0.00     0.167 HD
ATOM     27  C   UNL A   1      44.358  30.915  28.227  1.00  0.00     0.034 A 
ATOM     28  C   UNL A   1      38.093  31.272  31.464  1.00  0.00     0.034 A 
ATOM     29  C   UNL A   1      44.708  30.849  29.628  1.00  0.00     0.049 A 
ATOM     30  C   UNL A   1      39.311  32.103  31.648  1.00  0.00     0.074 A 
ATOM     31  C   UNL A   1      45.336  29.916  30.431  1.00  0.00     0.029 A 
ATOM     32  N   UNL A   1      44.000  31.670  30.474  1.00  0.00    -0.354 N 
ATOM     33  N   UNL A   1      40.177  31.885  32.598  1.00  0.00    -0.248 NA
ATOM     34  C   UNL A   1      39.817  32.824  30.489  1.00  0.00     0.031 C 
ATOM     35  C   UNL A   1      44.604  29.934  31.655  1.00  0.00     0.029 A 
ATOM     36  C   UNL A   1      43.640  30.941  31.576  1.00  0.00     0.049 A 
ATOM     37  H   UNL A   1      43.788  32.618  30.315  1.00  0.00     0.167 HD
ATOM     38  C   UNL A   1      41.408  31.984  31.962  1.00  0.00     0.074 A 
ATOM     39  C   UNL A   1      41.128  32.652  30.689  1.00  0.00     0.031 C 
ATOM     40  C   UNL A   1      42.474  31.238  32.376  1.00  0.00     0.034 A 
BRANCH  27  41
ATOM     41  C   UNL A   1      44.443  32.212  27.454  1.00  0.00     0.023 A 
ATOM     42  C   UNL A   1      43.760  32.260  26.218  1.00  0.00     0.012 A 
ATOM     43  C   UNL A   1      45.376  33.245  27.708  1.00  0.00     0.148 A 
ATOM     44  C   UNL A   1      44.051  33.232  25.256  1.00  0.00     0.002 A 
ATOM     45  C   UNL A   1      45.614  34.248  26.778  1.00  0.00     0.091 A 
ATOM     46  F   UNL A   1      46.142  33.212  28.799  1.00  0.00    -0.205 F 
ATOM     47  C   UNL A   1      44.980  34.226  25.535  1.00  0.00     0.022 A 
BRANCH  45  48
ATOM     48  S   UNL A   1      46.780  35.580  27.100  1.00  0.00     0.127 S 
ATOM     49  O   UNL A   1      46.580  36.432  25.932  1.00  0.00    -0.237 OA
ATOM     50  O   UNL A   1      46.266  36.119  28.359  1.00  0.00    -0.237 OA
ATOM     51  O   UNL A   1      48.090  34.952  27.207  1.00  0.00    -0.744 OA
ENDBRANCH  45  48
ENDBRANCH  27  41
BRANCH  28  52
ATOM     52  C   UNL A   1      36.747  31.886  31.331  1.00  0.00     0.023 A 
ATOM     53  C   UNL A   1      36.200  32.615  32.408  1.00  0.00     0.012 A 
ATOM     54  C   UNL A   1      36.134  32.017  30.065  1.00  0.00     0.148 A 
ATOM     55  C   UNL A   1      35.105  33.471  32.222  1.00  0.00     0.002 A 
ATOM     56  C   UNL A   1      35.046  32.867  29.884  1.00  0.00     0.091 A 
ATOM     57  F   UNL A   1      36.674  31.384  29.017  1.00  0.00    -0.205 F 
ATOM     58  C   UNL A   1      34.535  33.606  30.958  1.00  0.00     0.022 A 
BRANCH  56  59
ATOM     59  S   UNL A   1      34.287  33.123  28.273  1.00  0.00     0.127 S 
ATOM     60  O   UNL A   1      33.210  34.060  28.592  1.00  0.00    -0.237 OA
ATOM     61  O   UNL A   1      35.391  33.699  27.508  1.00  0.00    -0.237 OA
ATOM     62  O   UNL A   1      33.832  31.811  27.831  1.00  0.00    -0.744 OA
ENDBRANCH  56  59
ENDBRANCH  28  52
BRANCH  40  63
ATOM     63  C   UNL A   1      42.367  30.517  33.694  1.00  0.00     0.023 A 
ATOM     64  C   UNL A   1      41.791  29.238  33.840  1.00  0.00     0.012 A 
ATOM     65  C   UNL A   1      43.007  31.104  34.796  1.00  0.00     0.148 A 
ATOM     66  C   UNL A   1      41.833  28.575  35.072  1.00  0.00     0.002 A 
ATOM     67  C   UNL A   1      43.087  30.426  36.002  1.00  0.00     0.091 A 
ATOM     68  F   UNL A   1      43.550  32.322  34.637  1.00  0.00    -0.205 F 
ATOM     69  C   UNL A   1      42.493  29.165  36.151  1.00  0.00     0.022 A 
BRANCH  67  70
ATOM     70  S   UNL A   1      44.022  31.099  37.375  1.00  0.00     0.127 S 
ATOM     71  O   UNL A   1      43.213  32.255  37.756  1.00  0.00    -0.237 OA
ATOM     72  O   UNL A   1      44.007  29.997  38.339  1.00  0.00    -0.237 OA
ATOM     73  O   UNL A   1      45.345  31.404  36.845  1.00  0.00    -0.744 OA
ENDBRANCH  67  70
ENDBRANCH  40  63
ENDBRANCH  14  15
ENDBRANCH   7   9
ENDBRANCH   6   7
ENDBRANCH   5   6
ENDBRANCH   4   5
ENDBRANCH   3   4
ENDBRANCH   2   3
ENDBRANCH   1   2
BRANCH   1  74
ATOM     74  O   UNL A   1      34.297  23.550  26.055  1.00  0.00    -0.377 OA
BRANCH  74  75
ATOM     75  C   UNL A   1      34.053  22.182  25.821  1.00  0.00     0.188 C 
BRANCH  75  76
ATOM     76  C   UNL A   1      32.760  21.657  26.390  1.00  0.00     0.188 C 
BRANCH  76  77
ATOM     77  O   UNL A   1      31.630  21.699  25.539  1.00  0.00    -0.376 OA
BRANCH  77  78
ATOM     78  C   UNL A   1      30.430  22.218  26.114  1.00  0.00     0.202 C 
BRANCH  78  79
ATOM     79  C   UNL A   1      30.395  23.632  26.746  1.00  0.00     0.261 C 
BRANCH  79  80
ATOM     80  O   UNL A   1      30.374  24.748  25.840  1.00  0.00    -0.462 OA
BRANCH  80  81
ATOM     81  C   UNL A   1      31.376  25.685  25.908  1.00  0.00     0.329 C 
ATOM     82  O   UNL A   1      31.797  26.178  26.927  1.00  0.00    -0.250 OA
BRANCH  81  83
ATOM     83  C   UNL A   1      31.869  25.945  24.456  1.00  0.00     0.201 C 
ATOM     84  C   UNL A   1      31.733  24.615  23.664  1.00  0.00     0.093 C 
ATOM     85  N   UNL A   1      31.491  27.175  23.637  1.00  0.00    -0.318 N 
ATOM     86  C   UNL A   1      32.295  24.822  22.308  1.00  0.00     0.042 A 
ATOM     87  C   UNL A   1      32.316  27.357  22.404  1.00  0.00     0.179 C 
ATOM     88  N   UNL A   1      32.673  23.892  21.386  1.00  0.00    -0.348 N 
ATOM     89  C   UNL A   1      32.547  26.046  21.734  1.00  0.00     0.081 A 
ATOM     90  C   UNL A   1      33.116  24.583  20.289  1.00  0.00     0.197 A 
ATOM     91  H   UNL A   1      32.634  22.914  21.489  1.00  0.00     0.167 HD
ATOM     92  N   UNL A   1      33.067  25.884  20.477  1.00  0.00    -0.240 NA
BRANCH  85  93
ATOM     93  C   UNL A   1      30.945  28.399  24.090  1.00  0.00     0.256 C 
ATOM     94  O   UNL A   1      31.579  29.127  24.856  1.00  0.00    -0.269 OA
BRANCH  93  95
ATOM     95  C   UNL A   1      29.695  28.984  23.545  1.00  0.00     0.061 A 
ATOM     96  C   UNL A   1      29.596  30.374  23.498  1.00  0.00     0.035 A 
ATOM     97  C   UNL A   1      28.516  28.250  23.382  1.00  0.00     0.072 A 
ATOM     98  C   UNL A   1      28.368  30.942  23.181  1.00  0.00     0.112 A 
ATOM     99  C   UNL A   1      27.358  28.903  22.982  1.00  0.00     0.132 A 
ATOM    100  Cl  UNL A   1      28.304  26.627  23.831  1.00  0.00    -0.082 Cl
ATOM    101  N   UNL A   1      27.260  30.240  22.869  1.00  0.00    -0.263 NA
ENDBRANCH  93  95
ENDBRANCH  85  93
ENDBRANCH  81  83
ENDBRANCH  80  81
ENDBRANCH  79  80
ENDBRANCH  78  79
ENDBRANCH  77  78
ENDBRANCH  76  77
ENDBRANCH  75  76
ENDBRANCH  74  75
ENDBRANCH   1  74
TORSDOF 25
ENDMDL
MODEL 3
REMARK VINA RESULT:     -10.1      3.189     10.033
REMARK SMILES O=C(OCCOCCOCCOCCOC(=O)[C@H]1Cc2[nH]cnc2CN1C(=O)c1ccncc1Cl)c1ccc(-c2c3nc(c(-c4cccc(S(=O)(=O)[O-])c4F)c4ccc([nH]4)c(-c4cccc(S(=O)(=O)[O-])c4F)c4nc(c(-c5cccc(S(=O)(=O)[O-])c5F)c5ccc2[nH]5)C=C4)C=C3)cc1
REMARK SMILES IDX 8 1 7 2 6 3 5 4 4 5 3 6 2 7 1 8 36 9 37 10 98 11 38 12 97 13
REMARK SMILES IDX 39 14 40 15 41 16 91 17 42 18 96 19 90 20 92 21 43 22 95 23
REMARK SMILES IDX 89 24 88 25 44 27 76 28 56 29 75 30 57 31 60 32 74 33 93 34
REMARK SMILES IDX 58 35 59 36 73 38 94 39 61 40 45 41 46 42 54 43 47 44 49 45
REMARK SMILES IDX 55 46 48 47 50 48 51 49 52 50 53 51 77 52 78 53 86 54 79 55
REMARK SMILES IDX 81 56 87 57 80 58 82 59 83 60 84 61 85 62 62 63 63 64 71 65
REMARK SMILES IDX 64 66 66 67 72 68 65 69 67 70 68 71 69 72 70 73 9 74 10 75
REMARK SMILES IDX 11 76 12 77 13 78 14 79 15 80 16 81 17 82 18 83 19 84 26 85
REMARK SMILES IDX 20 86 25 87 21 88 24 89 22 90 23 92 27 93 28 94 29 95 30 96
REMARK SMILES IDX 34 97 31 98 33 99 35 100 32 101
REMARK H PARENT 92 26 60 37 21 91
REMARK Flexibility Score: inf
ROOT
ATOM      1  C   UNL A   1      33.343  35.462  30.869  1.00  0.00     0.188 C 
ENDROOT
BRANCH   1   2
ATOM      2  C   UNL A   1      33.808  34.595  32.053  1.00  0.00     0.188 C 
BRANCH   2   3
ATOM      3  O   UNL A   1      34.425  35.106  33.233  1.00  0.00    -0.376 OA
BRANCH   3   4
ATOM      4  C   UNL A   1      35.411  34.403  33.964  1.00  0.00     0.202 C 
BRANCH   4   5
ATOM      5  C   UNL A   1      36.560  33.896  33.097  1.00  0.00     0.261 C 
BRANCH   5   6
ATOM      6  O   UNL A   1      36.763  32.475  33.144  1.00  0.00    -0.460 OA
BRANCH   6   7
ATOM      7  C   UNL A   1      36.414  31.633  32.143  1.00  0.00     0.338 C 
ATOM      8  O   UNL A   1      35.306  31.728  31.620  1.00  0.00    -0.246 OA
BRANCH   7   9
ATOM      9  C   UNL A   1      37.435  30.746  31.516  1.00  0.00     0.060 A 
ATOM     10  C   UNL A   1      37.289  29.370  31.319  1.00  0.00     0.016 A 
ATOM     11  C   UNL A   1      38.654  31.362  31.182  1.00  0.00     0.016 A 
ATOM     12  C   UNL A   1      38.395  28.596  31.082  1.00  0.00     0.010 A 
ATOM     13  C   UNL A   1      39.769  30.595  30.922  1.00  0.00     0.010 A 
ATOM     14  C   UNL A   1      39.634  29.222  31.006  1.00  0.00    -0.014 A 
BRANCH  14  15
ATOM     15  C   UNL A   1      40.782  28.355  31.022  1.00  0.00     0.031 A 
ATOM     16  C   UNL A   1      41.456  28.353  32.333  1.00  0.00     0.074 A 
ATOM     17  C   UNL A   1      41.193  27.759  29.886  1.00  0.00     0.049 A 
ATOM     18  N   UNL A   1      42.508  29.032  32.647  1.00  0.00    -0.248 NA
ATOM     19  C   UNL A   1      40.755  27.766  33.482  1.00  0.00     0.031 C 
ATOM     20  C   UNL A   1      40.463  27.583  28.627  1.00  0.00     0.029 A 
ATOM     21  N   UNL A   1      42.350  27.095  29.648  1.00  0.00    -0.354 N 
ATOM     22  C   UNL A   1      42.766  28.710  33.973  1.00  0.00     0.074 A 
ATOM     23  C   UNL A   1      41.550  28.140  34.487  1.00  0.00     0.031 C 
ATOM     24  C   UNL A   1      41.076  26.628  27.889  1.00  0.00     0.029 A 
ATOM     25  C   UNL A   1      42.309  26.241  28.553  1.00  0.00     0.049 A 
ATOM     26  H   UNL A   1      43.154  27.209  30.205  1.00  0.00     0.167 HD
ATOM     27  C   UNL A   1      44.052  28.649  34.409  1.00  0.00     0.034 A 
ATOM     28  C   UNL A   1      43.191  25.242  28.285  1.00  0.00     0.034 A 
ATOM     29  C   UNL A   1      44.932  29.362  33.510  1.00  0.00     0.049 A 
ATOM     30  C   UNL A   1      44.432  25.546  29.041  1.00  0.00     0.074 A 
ATOM     31  C   UNL A   1      45.005  30.662  33.049  1.00  0.00     0.029 A 
ATOM     32  N   UNL A   1      45.643  28.597  32.617  1.00  0.00    -0.354 N 
ATOM     33  N   UNL A   1      45.196  26.566  28.763  1.00  0.00    -0.248 NA
ATOM     34  C   UNL A   1      44.538  25.034  30.400  1.00  0.00     0.031 C 
ATOM     35  C   UNL A   1      45.349  30.543  31.671  1.00  0.00     0.029 A 
ATOM     36  C   UNL A   1      45.569  29.194  31.387  1.00  0.00     0.049 A 
ATOM     37  H   UNL A   1      46.123  27.763  32.825  1.00  0.00     0.167 HD
ATOM     38  C   UNL A   1      45.484  27.121  30.003  1.00  0.00     0.074 A 
ATOM     39  C   UNL A   1      45.129  26.085  30.977  1.00  0.00     0.031 C 
ATOM     40  C   UNL A   1      45.678  28.464  30.144  1.00  0.00     0.034 A 
BRANCH  27  41
ATOM     41  C   UNL A   1      44.578  27.585  35.347  1.00  0.00     0.023 A 
ATOM     42  C   UNL A   1      45.414  28.023  36.398  1.00  0.00     0.012 A 
ATOM     43  C   UNL A   1      44.557  26.195  35.085  1.00  0.00     0.148 A 
ATOM     44  C   UNL A   1      46.246  27.138  37.092  1.00  0.00     0.002 A 
ATOM     45  C   UNL A   1      45.333  25.310  35.822  1.00  0.00     0.091 A 
ATOM     46  F   UNL A   1      43.882  25.712  34.042  1.00  0.00    -0.205 F 
ATOM     47  C   UNL A   1      46.206  25.780  36.803  1.00  0.00     0.022 A 
BRANCH  45  48
ATOM     48  S   UNL A   1      45.296  23.538  35.515  1.00  0.00     0.127 S 
ATOM     49  O   UNL A   1      43.867  23.254  35.607  1.00  0.00    -0.237 OA
ATOM     50  O   UNL A   1      45.860  23.464  34.167  1.00  0.00    -0.237 OA
ATOM     51  O   UNL A   1      46.129  22.932  36.546  1.00  0.00    -0.744 OA
ENDBRANCH  45  48
ENDBRANCH  27  41
BRANCH  28  52
ATOM     52  C   UNL A   1      42.929  23.889  27.732  1.00  0.00     0.023 A 
ATOM     53  C   UNL A   1      41.643  23.319  27.851  1.00  0.00     0.012 A 
ATOM     54  C   UNL A   1      43.838  23.286  26.833  1.00  0.00     0.148 A 
ATOM     55  C   UNL A   1      41.266  22.214  27.076  1.00  0.00     0.002 A 
ATOM     56  C   UNL A   1      43.460  22.188  26.067  1.00  0.00     0.091 A 
ATOM     57  F   UNL A   1      45.041  23.847  26.659  1.00  0.00    -0.205 F 
ATOM     58  C   UNL A   1      42.170  21.655  26.176  1.00  0.00     0.022 A 
BRANCH  56  59
ATOM     59  S   UNL A   1      44.560  21.442  24.854  1.00  0.00     0.127 S 
ATOM     60  O   UNL A   1      44.433  22.362  23.724  1.00  0.00    -0.237 OA
ATOM     61  O   UNL A   1      45.848  21.493  25.543  1.00  0.00    -0.237 OA
ATOM     62  O   UNL A   1      44.034  20.106  24.603  1.00  0.00    -0.744 OA
ENDBRANCH  56  59
ENDBRANCH  28  52
BRANCH  40  63
ATOM     63  C   UNL A   1      45.843  29.292  28.896  1.00  0.00     0.023 A 
ATOM     64  C   UNL A   1      44.761  29.768  28.126  1.00  0.00     0.012 A 
ATOM     65  C   UNL A   1      47.142  29.721  28.583  1.00  0.00     0.148 A 
ATOM     66  C   UNL A   1      44.982  30.632  27.047  1.00  0.00     0.002 A 
ATOM     67  C   UNL A   1      47.351  30.613  27.543  1.00  0.00     0.091 A 
ATOM     68  F   UNL A   1      48.157  29.259  29.329  1.00  0.00    -0.205 F 
ATOM     69  C   UNL A   1      46.277  31.065  26.764  1.00  0.00     0.022 A 
BRANCH  67  70
ATOM     70  S   UNL A   1      48.984  31.279  27.220  1.00  0.00     0.127 S 
ATOM     71  O   UNL A   1      49.469  31.563  28.568  1.00  0.00    -0.237 OA
ATOM     72  O   UNL A   1      49.654  30.164  26.548  1.00  0.00    -0.237 OA
ATOM     73  O   UNL A   1      48.777  32.444  26.368  1.00  0.00    -0.744 OA
ENDBRANCH  67  70
ENDBRANCH  40  63
ENDBRANCH  14  15
ENDBRANCH   7   9
ENDBRANCH   6   7
ENDBRANCH   5   6
ENDBRANCH   4   5
ENDBRANCH   3   4
ENDBRANCH   2   3
ENDBRANCH   1   2
BRANCH   1  74
ATOM     74  O   UNL A   1      33.962  35.299  29.605  1.00  0.00    -0.377 OA
BRANCH  74  75
ATOM     75  C   UNL A   1      33.323  34.423  28.705  1.00  0.00     0.188 C 
BRANCH  75  76
ATOM     76  C   UNL A   1      34.208  33.354  28.116  1.00  0.00     0.188 C 
BRANCH  76  77
ATOM     77  O   UNL A   1      33.937  32.021  28.507  1.00  0.00    -0.376 OA
BRANCH  77  78
ATOM     78  C   UNL A   1      33.394  31.169  27.499  1.00  0.00     0.202 C 
BRANCH  78  79
ATOM     79  C   UNL A   1      33.773  29.669  27.432  1.00  0.00     0.261 C 
BRANCH  79  80
ATOM     80  O   UNL A   1      33.111  28.875  26.433  1.00  0.00    -0.462 OA
BRANCH  80  81
ATOM     81  C   UNL A   1      31.995  28.154  26.781  1.00  0.00     0.329 C 
ATOM     82  O   UNL A   1      31.808  27.642  27.859  1.00  0.00    -0.250 OA
BRANCH  81  83
ATOM     83  C   UNL A   1      31.035  28.161  25.557  1.00  0.00     0.201 C 
ATOM     84  C   UNL A   1      31.343  29.434  24.721  1.00  0.00     0.093 C 
ATOM     85  N   UNL A   1      30.742  26.934  24.699  1.00  0.00    -0.318 N 
ATOM     86  C   UNL A   1      30.368  29.506  23.608  1.00  0.00     0.042 A 
ATOM     87  C   UNL A   1      29.574  27.104  23.782  1.00  0.00     0.179 C 
ATOM     88  N   UNL A   1      30.048  30.569  22.816  1.00  0.00    -0.348 N 
ATOM     89  C   UNL A   1      29.582  28.464  23.175  1.00  0.00     0.081 A 
ATOM     90  C   UNL A   1      29.102  30.128  21.928  1.00  0.00     0.197 A 
ATOM     91  H   UNL A   1      30.424  31.477  22.873  1.00  0.00     0.167 HD
ATOM     92  N   UNL A   1      28.791  28.866  22.132  1.00  0.00    -0.240 NA
BRANCH  85  93
ATOM     93  C   UNL A   1      30.981  25.573  25.001  1.00  0.00     0.256 C 
ATOM     94  O   UNL A   1      30.390  25.020  25.932  1.00  0.00    -0.269 OA
BRANCH  93  95
ATOM     95  C   UNL A   1      31.781  24.674  24.134  1.00  0.00     0.061 A 
ATOM     96  C   UNL A   1      31.177  23.501  23.683  1.00  0.00     0.035 A 
ATOM     97  C   UNL A   1      33.170  24.770  24.010  1.00  0.00     0.072 A 
ATOM     98  C   UNL A   1      31.965  22.554  23.039  1.00  0.00     0.112 A 
ATOM     99  C   UNL A   1      33.855  23.814  23.274  1.00  0.00     0.132 A 
ATOM    100  Cl  UNL A   1      34.155  25.860  24.861  1.00  0.00    -0.082 Cl
ATOM    101  N   UNL A   1      33.279  22.705  22.775  1.00  0.00    -0.263 NA
ENDBRANCH  93  95
ENDBRANCH  85  93
ENDBRANCH  81  83
ENDBRANCH  80  81
ENDBRANCH  79  80
ENDBRANCH  78  79
ENDBRANCH  77  78
ENDBRANCH  76  77
ENDBRANCH  75  76
ENDBRANCH  74  75
ENDBRANCH   1  74
TORSDOF 25
ENDMDL
