MODEL 1
REMARK VINA RESULT:      -8.4      0.000      0.000
REMARK SMILES O=C(CN(CC(F)(F)F)C(=O)[C@H]1C[C@H]2CC[C@@H]1[NH2+]2)OCCOCCOCCOCCOC(=O)c1ccc(-c2c3nc(c(-c4cccc(S(=O)(=O)[O-])c4F)c4ccc([nH]4)c(-c4cccc(S(=O)(=O)[O-])c4F)c4nc(c(-c5cccc(S(=O)(=O)[O-])c5F)c5ccc2[nH]5)C=C4)C=C3)cc1
REMARK SMILES IDX 25 1 24 2 23 3 22 4 21 5 20 6 19 7 2 8 1 9 3 10 4 11 5 12
REMARK SMILES IDX 6 13 7 14 8 15 9 16 10 17 11 18 12 19 13 20 17 21 14 22
REMARK SMILES IDX 16 23 18 24 15 25 26 28 27 29 28 30 29 31 30 32 31 33 32 34
REMARK SMILES IDX 33 35 34 36 35 37 96 38 36 39 95 40 37 41 38 42 39 43 89 44
REMARK SMILES IDX 40 45 94 46 88 47 90 48 41 49 93 50 87 51 86 52 42 54 74 55
REMARK SMILES IDX 54 56 73 57 55 58 58 59 72 60 91 61 56 62 57 63 71 65 92 66
REMARK SMILES IDX 59 67 43 68 44 69 52 70 45 71 47 72 53 73 46 74 48 75 49 76
REMARK SMILES IDX 50 77 51 78 75 79 76 80 84 81 77 82 79 83 85 84 78 85 80 86
REMARK SMILES IDX 81 87 82 88 83 89 60 90 61 91 69 92 62 93 64 94 70 95 63 96
REMARK SMILES IDX 65 97 66 98 67 99 68 100
REMARK H PARENT 18 26 18 27 90 53 58 64
REMARK Flexibility Score: inf
ROOT
ATOM      1  O   UNL A   1      34.599  31.928  28.576  1.00  0.00    -0.377 OA
ENDROOT
BRANCH   1   2
ATOM      2  C   UNL A   1      33.492  31.495  27.802  1.00  0.00     0.188 C 
BRANCH   2   3
ATOM      3  C   UNL A   1      33.698  30.203  27.016  1.00  0.00     0.188 C 
BRANCH   3   4
ATOM      4  O   UNL A   1      33.104  29.957  25.737  1.00  0.00    -0.376 OA
BRANCH   4   5
ATOM      5  C   UNL A   1      31.776  29.516  25.513  1.00  0.00     0.202 C 
BRANCH   5   6
ATOM      6  C   UNL A   1      31.510  28.083  25.070  1.00  0.00     0.261 C 
BRANCH   6   7
ATOM      7  O   UNL A   1      31.843  27.804  23.713  1.00  0.00    -0.462 OA
BRANCH   7   8
ATOM      8  C   UNL A   1      33.093  27.724  23.206  1.00  0.00     0.325 C 
ATOM      9  O   UNL A   1      33.482  28.645  22.479  1.00  0.00    -0.250 OA
BRANCH   8  10
ATOM     10  C   UNL A   1      33.937  26.425  23.315  1.00  0.00     0.242 C 
BRANCH  10  11
ATOM     11  N   UNL A   1      33.289  25.186  23.749  1.00  0.00    -0.322 N 
BRANCH  11  12
ATOM     12  C   UNL A   1      32.066  24.718  23.025  1.00  0.00     0.235 C 
BRANCH  12  13
ATOM     13  C   UNL A   1      30.814  24.200  23.753  1.00  0.00     0.406 C 
ATOM     14  F   UNL A   1      29.680  24.560  23.108  1.00  0.00    -0.169 F 
ATOM     15  F   UNL A   1      30.808  22.845  23.786  1.00  0.00    -0.169 F 
ATOM     16  F   UNL A   1      30.735  24.638  25.026  1.00  0.00    -0.169 F 
ENDBRANCH  12  13
ENDBRANCH  11  12
BRANCH  11  17
ATOM     17  C   UNL A   1      33.898  24.673  24.874  1.00  0.00     0.232 C 
ATOM     18  O   UNL A   1      34.289  25.453  25.754  1.00  0.00    -0.274 OA
BRANCH  17  19
ATOM     19  C   UNL A   1      34.115  23.206  25.110  1.00  0.00     0.142 C 
ATOM     20  C   UNL A   1      34.657  22.332  23.989  1.00  0.00     0.084 C 
ATOM     21  C   UNL A   1      35.255  23.092  26.156  1.00  0.00     0.195 C 
ATOM     22  C   UNL A   1      35.961  21.774  24.555  1.00  0.00     0.183 C 
ATOM     23  C   UNL A   1      36.553  23.785  25.682  1.00  0.00     0.072 C 
ATOM     24  N   UNL A   1      35.622  21.673  25.981  1.00  0.00    -0.341 N 
ATOM     25  C   UNL A   1      37.013  22.886  24.535  1.00  0.00     0.071 C 
ATOM     26  H   UNL A   1      36.419  21.399  26.556  1.00  0.00     0.346 HD
ATOM     27  H   UNL A   1      34.925  20.977  26.244  1.00  0.00     0.346 HD
ENDBRANCH  17  19
ENDBRANCH  11  17
ENDBRANCH  10  11
ENDBRANCH   8  10
ENDBRANCH   7   8
ENDBRANCH   6   7
ENDBRANCH   5   6
ENDBRANCH   4   5
ENDBRANCH   3   4
ENDBRANCH   2   3
ENDBRANCH   1   2
BRANCH   1  28
ATOM     28  C   UNL A   1      34.532  33.283  28.970  1.00  0.00     0.188 C 
BRANCH  28  29
ATOM     29  C   UNL A   1      33.592  34.135  28.099  1.00  0.00     0.188 C 
BRANCH  29  30
ATOM     30  O   UNL A   1      32.667  34.978  28.756  1.00  0.00    -0.376 OA
BRANCH  30  31
ATOM     31  C   UNL A   1      32.981  36.303  29.152  1.00  0.00     0.202 C 
BRANCH  31  32
ATOM     32  C   UNL A   1      33.041  36.866  30.589  1.00  0.00     0.261 C 
BRANCH  32  33
ATOM     33  O   UNL A   1      33.974  36.318  31.517  1.00  0.00    -0.460 OA
BRANCH  33  34
ATOM     34  C   UNL A   1      33.570  35.262  32.250  1.00  0.00     0.338 C 
ATOM     35  O   UNL A   1      32.433  34.820  32.327  1.00  0.00    -0.246 OA
BRANCH  34  36
ATOM     36  C   UNL A   1      34.786  34.562  32.732  1.00  0.00     0.060 A 
ATOM     37  C   UNL A   1      36.024  35.004  32.244  1.00  0.00     0.016 A 
ATOM     38  C   UNL A   1      34.732  33.572  33.721  1.00  0.00     0.016 A 
ATOM     39  C   UNL A   1      37.203  34.428  32.702  1.00  0.00     0.010 A 
ATOM     40  C   UNL A   1      35.918  32.966  34.154  1.00  0.00     0.010 A 
ATOM     41  C   UNL A   1      37.152  33.362  33.608  1.00  0.00    -0.014 A 
BRANCH  41  42
ATOM     42  C   UNL A   1      38.365  32.525  33.758  1.00  0.00     0.031 A 
ATOM     43  C   UNL A   1      39.235  32.765  34.963  1.00  0.00     0.074 A 
ATOM     44  C   UNL A   1      38.636  31.518  32.910  1.00  0.00     0.049 A 
ATOM     45  N   UNL A   1      40.301  32.120  35.357  1.00  0.00    -0.248 NA
ATOM     46  C   UNL A   1      38.844  33.877  35.847  1.00  0.00     0.031 C 
ATOM     47  C   UNL A   1      37.859  31.178  31.720  1.00  0.00     0.029 A 
ATOM     48  N   UNL A   1      39.654  30.598  32.924  1.00  0.00    -0.354 N 
ATOM     49  C   UNL A   1      40.712  32.752  36.524  1.00  0.00     0.074 A 
ATOM     50  C   UNL A   1      39.799  33.845  36.763  1.00  0.00     0.031 C 
ATOM     51  C   UNL A   1      38.447  30.139  31.100  1.00  0.00     0.029 A 
ATOM     52  C   UNL A   1      39.647  29.753  31.840  1.00  0.00     0.049 A 
ATOM     53  H   UNL A   1      40.325  30.548  33.642  1.00  0.00     0.167 HD
ATOM     54  C   UNL A   1      41.745  32.437  37.341  1.00  0.00     0.034 A 
ATOM     55  C   UNL A   1      40.525  28.795  31.479  1.00  0.00     0.034 A 
ATOM     56  C   UNL A   1      42.652  31.348  37.103  1.00  0.00     0.049 A 
ATOM     57  C   UNL A   1      41.692  28.492  32.384  1.00  0.00     0.074 A 
ATOM     58  C   UNL A   1      43.725  30.939  37.876  1.00  0.00     0.029 A 
ATOM     59  N   UNL A   1      42.605  30.505  36.004  1.00  0.00    -0.354 N 
ATOM     60  N   UNL A   1      42.011  29.033  33.537  1.00  0.00    -0.248 NA
ATOM     61  C   UNL A   1      42.600  27.417  31.958  1.00  0.00     0.031 C 
ATOM     62  C   UNL A   1      44.345  29.867  37.226  1.00  0.00     0.029 A 
ATOM     63  C   UNL A   1      43.633  29.581  36.073  1.00  0.00     0.049 A 
ATOM     64  H   UNL A   1      41.939  30.555  35.282  1.00  0.00     0.167 HD
ATOM     65  C   UNL A   1      43.134  28.345  33.985  1.00  0.00     0.074 A 
ATOM     66  C   UNL A   1      43.416  27.323  32.998  1.00  0.00     0.031 C 
ATOM     67  C   UNL A   1      43.878  28.546  35.102  1.00  0.00     0.034 A 
BRANCH  54  68
ATOM     68  C   UNL A   1      41.936  33.273  38.578  1.00  0.00     0.023 A 
ATOM     69  C   UNL A   1      41.385  32.843  39.804  1.00  0.00     0.012 A 
ATOM     70  C   UNL A   1      42.706  34.450  38.541  1.00  0.00     0.148 A 
ATOM     71  C   UNL A   1      41.578  33.585  40.968  1.00  0.00     0.002 A 
ATOM     72  C   UNL A   1      42.934  35.159  39.714  1.00  0.00     0.091 A 
ATOM     73  F   UNL A   1      43.199  34.855  37.362  1.00  0.00    -0.205 F 
ATOM     74  C   UNL A   1      42.363  34.734  40.925  1.00  0.00     0.022 A 
BRANCH  72  75
ATOM     75  S   UNL A   1      43.992  36.609  39.783  1.00  0.00     0.127 S 
ATOM     76  O   UNL A   1      45.239  36.091  39.219  1.00  0.00    -0.237 OA
ATOM     77  O   UNL A   1      43.277  37.547  38.920  1.00  0.00    -0.237 OA
ATOM     78  O   UNL A   1      44.060  36.994  41.184  1.00  0.00    -0.744 OA
ENDBRANCH  72  75
ENDBRANCH  54  68
BRANCH  55  79
ATOM     79  C   UNL A   1      40.341  28.049  30.202  1.00  0.00     0.023 A 
ATOM     80  C   UNL A   1      39.312  27.096  30.078  1.00  0.00     0.012 A 
ATOM     81  C   UNL A   1      41.204  28.272  29.111  1.00  0.00     0.148 A 
ATOM     82  C   UNL A   1      39.174  26.347  28.907  1.00  0.00     0.002 A 
ATOM     83  C   UNL A   1      41.022  27.570  27.927  1.00  0.00     0.091 A 
ATOM     84  F   UNL A   1      42.190  29.169  29.255  1.00  0.00    -0.205 F 
ATOM     85  C   UNL A   1      40.022  26.590  27.830  1.00  0.00     0.022 A 
BRANCH  83  86
ATOM     86  S   UNL A   1      41.977  27.919  26.448  1.00  0.00     0.127 S 
ATOM     87  O   UNL A   1      41.370  27.012  25.478  1.00  0.00    -0.237 OA
ATOM     88  O   UNL A   1      41.689  29.338  26.235  1.00  0.00    -0.237 OA
ATOM     89  O   UNL A   1      43.362  27.636  26.801  1.00  0.00    -0.744 OA
ENDBRANCH  83  86
ENDBRANCH  55  79
BRANCH  67  90
ATOM     90  C   UNL A   1      45.046  27.621  35.334  1.00  0.00     0.023 A 
ATOM     91  C   UNL A   1      46.349  28.026  34.979  1.00  0.00     0.012 A 
ATOM     92  C   UNL A   1      44.856  26.360  35.935  1.00  0.00     0.148 A 
ATOM     93  C   UNL A   1      47.434  27.171  35.165  1.00  0.00     0.002 A 
ATOM     94  C   UNL A   1      45.950  25.537  36.170  1.00  0.00     0.091 A 
ATOM     95  F   UNL A   1      43.610  25.985  36.256  1.00  0.00    -0.205 F 
ATOM     96  C   UNL A   1      47.237  25.931  35.768  1.00  0.00     0.022 A 
BRANCH  94  97
ATOM     97  S   UNL A   1      45.805  23.966  37.028  1.00  0.00     0.127 S 
ATOM     98  O   UNL A   1      44.835  23.259  36.193  1.00  0.00    -0.237 OA
ATOM     99  O   UNL A   1      47.170  23.444  36.953  1.00  0.00    -0.237 OA
ATOM    100  O   UNL A   1      45.354  24.286  38.376  1.00  0.00    -0.744 OA
ENDBRANCH  94  97
ENDBRANCH  67  90
ENDBRANCH  41  42
ENDBRANCH  34  36
ENDBRANCH  33  34
ENDBRANCH  32  33
ENDBRANCH  31  32
ENDBRANCH  30  31
ENDBRANCH  29  30
ENDBRANCH  28  29
ENDBRANCH   1  28
TORSDOF 28
ENDMDL
MODEL 2
REMARK VINA RESULT:      -8.4      3.512      5.213
REMARK SMILES O=C(CN(CC(F)(F)F)C(=O)[C@H]1C[C@H]2CC[C@@H]1[NH2+]2)OCCOCCOCCOCCOC(=O)c1ccc(-c2c3nc(c(-c4cccc(S(=O)(=O)[O-])c4F)c4ccc([nH]4)c(-c4cccc(S(=O)(=O)[O-])c4F)c4nc(c(-c5cccc(S(=O)(=O)[O-])c5F)c5ccc2[nH]5)C=C4)C=C3)cc1
REMARK SMILES IDX 25 1 24 2 23 3 22 4 21 5 20 6 19 7 2 8 1 9 3 10 4 11 5 12
REMARK SMILES IDX 6 13 7 14 8 15 9 16 10 17 11 18 12 19 13 20 17 21 14 22
REMARK SMILES IDX 16 23 18 24 15 25 26 28 27 29 28 30 29 31 30 32 31 33 32 34
REMARK SMILES IDX 33 35 34 36 35 37 96 38 36 39 95 40 37 41 38 42 39 43 89 44
REMARK SMILES IDX 40 45 94 46 88 47 90 48 41 49 93 50 87 51 86 52 42 54 74 55
REMARK SMILES IDX 54 56 73 57 55 58 58 59 72 60 91 61 56 62 57 63 71 65 92 66
REMARK SMILES IDX 59 67 43 68 44 69 52 70 45 71 47 72 53 73 46 74 48 75 49 76
REMARK SMILES IDX 50 77 51 78 75 79 76 80 84 81 77 82 79 83 85 84 78 85 80 86
REMARK SMILES IDX 81 87 82 88 83 89 60 90 61 91 69 92 62 93 64 94 70 95 63 96
REMARK SMILES IDX 65 97 66 98 67 99 68 100
REMARK H PARENT 18 26 18 27 90 53 58 64
REMARK Flexibility Score: inf
ROOT
ATOM      1  O   UNL A   1      34.035  33.027  28.699  1.00  0.00    -0.377 OA
ENDROOT
BRANCH   1   2
ATOM      2  C   UNL A   1      35.210  32.883  27.919  1.00  0.00     0.188 C 
BRANCH   2   3
ATOM      3  C   UNL A   1      35.841  31.492  27.922  1.00  0.00     0.188 C 
BRANCH   3   4
ATOM      4  O   UNL A   1      35.081  30.284  28.030  1.00  0.00    -0.376 OA
BRANCH   4   5
ATOM      5  C   UNL A   1      34.005  29.905  27.189  1.00  0.00     0.202 C 
BRANCH   5   6
ATOM      6  C   UNL A   1      33.916  28.482  26.655  1.00  0.00     0.261 C 
BRANCH   6   7
ATOM      7  O   UNL A   1      32.621  27.893  26.734  1.00  0.00    -0.462 OA
BRANCH   7   8
ATOM      8  C   UNL A   1      31.645  27.998  25.805  1.00  0.00     0.325 C 
ATOM      9  O   UNL A   1      30.878  27.040  25.663  1.00  0.00    -0.250 OA
BRANCH   8  10
ATOM     10  C   UNL A   1      31.618  29.163  24.777  1.00  0.00     0.242 C 
BRANCH  10  11
ATOM     11  N   UNL A   1      31.482  28.855  23.352  1.00  0.00    -0.322 N 
BRANCH  11  12
ATOM     12  C   UNL A   1      32.637  28.229  22.636  1.00  0.00     0.235 C 
BRANCH  12  13
ATOM     13  C   UNL A   1      32.715  26.720  22.341  1.00  0.00     0.406 C 
ATOM     14  F   UNL A   1      32.744  25.993  23.482  1.00  0.00    -0.169 F 
ATOM     15  F   UNL A   1      31.613  26.309  21.667  1.00  0.00    -0.169 F 
ATOM     16  F   UNL A   1      33.792  26.390  21.601  1.00  0.00    -0.169 F 
ENDBRANCH  12  13
ENDBRANCH  11  12
BRANCH  11  17
ATOM     17  C   UNL A   1      30.275  29.299  22.860  1.00  0.00     0.232 C 
ATOM     18  O   UNL A   1      29.965  29.025  21.692  1.00  0.00    -0.274 OA
BRANCH  17  19
ATOM     19  C   UNL A   1      29.291  30.102  23.661  1.00  0.00     0.142 C 
ATOM     20  C   UNL A   1      29.483  31.604  23.809  1.00  0.00     0.084 C 
ATOM     21  C   UNL A   1      27.946  30.048  22.892  1.00  0.00     0.195 C 
ATOM     22  C   UNL A   1      28.216  32.199  23.200  1.00  0.00     0.183 C 
ATOM     23  C   UNL A   1      28.076  30.591  21.450  1.00  0.00     0.072 C 
ATOM     24  N   UNL A   1      27.232  31.163  23.543  1.00  0.00    -0.341 N 
ATOM     25  C   UNL A   1      28.311  32.085  21.676  1.00  0.00     0.071 C 
ATOM     26  H   UNL A   1      26.316  31.339  23.129  1.00  0.00     0.346 HD
ATOM     27  H   UNL A   1      26.999  31.053  24.529  1.00  0.00     0.346 HD
ENDBRANCH  17  19
ENDBRANCH  11  17
ENDBRANCH  10  11
ENDBRANCH   8  10
ENDBRANCH   7   8
ENDBRANCH   6   7
ENDBRANCH   5   6
ENDBRANCH   4   5
ENDBRANCH   3   4
ENDBRANCH   2   3
ENDBRANCH   1   2
BRANCH   1  28
ATOM     28  C   UNL A   1      33.264  34.166  28.374  1.00  0.00     0.188 C 
BRANCH  28  29
ATOM     29  C   UNL A   1      33.552  35.384  29.269  1.00  0.00     0.188 C 
BRANCH  29  30
ATOM     30  O   UNL A   1      32.896  35.455  30.520  1.00  0.00    -0.376 OA
BRANCH  30  31
ATOM     31  C   UNL A   1      33.539  35.911  31.699  1.00  0.00     0.202 C 
BRANCH  31  32
ATOM     32  C   UNL A   1      34.478  35.110  32.628  1.00  0.00     0.261 C 
BRANCH  32  33
ATOM     33  O   UNL A   1      35.466  34.256  32.057  1.00  0.00    -0.460 OA
BRANCH  33  34
ATOM     34  C   UNL A   1      35.191  32.938  32.010  1.00  0.00     0.338 C 
ATOM     35  O   UNL A   1      34.084  32.426  31.947  1.00  0.00    -0.246 OA
BRANCH  34  36
ATOM     36  C   UNL A   1      36.470  32.224  31.773  1.00  0.00     0.060 A 
ATOM     37  C   UNL A   1      36.599  30.933  32.303  1.00  0.00     0.016 A 
ATOM     38  C   UNL A   1      37.479  32.755  30.959  1.00  0.00     0.016 A 
ATOM     39  C   UNL A   1      37.750  30.191  32.065  1.00  0.00     0.010 A 
ATOM     40  C   UNL A   1      38.653  32.021  30.750  1.00  0.00     0.010 A 
ATOM     41  C   UNL A   1      38.808  30.756  31.345  1.00  0.00    -0.014 A 
BRANCH  41  42
ATOM     42  C   UNL A   1      40.139  30.115  31.456  1.00  0.00     0.031 A 
ATOM     43  C   UNL A   1      41.006  30.502  32.625  1.00  0.00     0.074 A 
ATOM     44  C   UNL A   1      40.529  29.148  30.609  1.00  0.00     0.049 A 
ATOM     45  N   UNL A   1      42.170  30.032  32.985  1.00  0.00    -0.248 NA
ATOM     46  C   UNL A   1      40.482  31.556  33.512  1.00  0.00     0.031 C 
ATOM     47  C   UNL A   1      39.770  28.676  29.452  1.00  0.00     0.029 A 
ATOM     48  N   UNL A   1      41.675  28.393  30.593  1.00  0.00    -0.354 N 
ATOM     49  C   UNL A   1      42.522  30.737  34.130  1.00  0.00     0.074 A 
ATOM     50  C   UNL A   1      41.462  31.683  34.392  1.00  0.00     0.031 C 
ATOM     51  C   UNL A   1      40.487  27.728  28.820  1.00  0.00     0.029 A 
ATOM     52  C   UNL A   1      41.758  27.541  29.518  1.00  0.00     0.049 A 
ATOM     53  H   UNL A   1      42.371  28.456  31.285  1.00  0.00     0.167 HD
ATOM     54  C   UNL A   1      43.619  30.596  34.909  1.00  0.00     0.034 A 
ATOM     55  C   UNL A   1      42.758  26.721  29.134  1.00  0.00     0.034 A 
ATOM     56  C   UNL A   1      44.673  29.654  34.647  1.00  0.00     0.049 A 
ATOM     57  C   UNL A   1      43.990  26.613  29.996  1.00  0.00     0.074 A 
ATOM     58  C   UNL A   1      45.822  29.424  35.383  1.00  0.00     0.029 A 
ATOM     59  N   UNL A   1      44.715  28.797  33.560  1.00  0.00    -0.354 N 
ATOM     60  N   UNL A   1      44.263  27.213  31.131  1.00  0.00    -0.248 NA
ATOM     61  C   UNL A   1      45.034  25.681  29.547  1.00  0.00     0.031 C 
ATOM     62  C   UNL A   1      46.575  28.449  34.721  1.00  0.00     0.029 A 
ATOM     63  C   UNL A   1      45.874  28.040  33.598  1.00  0.00     0.049 A 
ATOM     64  H   UNL A   1      44.024  28.734  32.862  1.00  0.00     0.167 HD
ATOM     65  C   UNL A   1      45.493  26.711  31.543  1.00  0.00     0.074 A 
ATOM     66  C   UNL A   1      45.893  25.729  30.556  1.00  0.00     0.031 C 
ATOM     67  C   UNL A   1      46.238  27.040  32.628  1.00  0.00     0.034 A 
BRANCH  54  68
ATOM     68  C   UNL A   1      43.726  31.470  36.130  1.00  0.00     0.023 A 
ATOM     69  C   UNL A   1      43.228  31.007  37.366  1.00  0.00     0.012 A 
ATOM     70  C   UNL A   1      44.367  32.721  36.067  1.00  0.00     0.148 A 
ATOM     71  C   UNL A   1      43.346  31.786  38.516  1.00  0.00     0.002 A 
ATOM     72  C   UNL A   1      44.523  33.471  37.227  1.00  0.00     0.091 A 
ATOM     73  F   UNL A   1      44.810  33.154  34.878  1.00  0.00    -0.205 F 
ATOM     74  C   UNL A   1      44.004  33.011  38.448  1.00  0.00     0.022 A 
BRANCH  72  75
ATOM     75  S   UNL A   1      45.422  35.026  37.263  1.00  0.00     0.127 S 
ATOM     76  O   UNL A   1      44.603  35.861  36.384  1.00  0.00    -0.237 OA
ATOM     77  O   UNL A   1      45.354  35.383  38.680  1.00  0.00    -0.237 OA
ATOM     78  O   UNL A   1      46.759  34.732  36.769  1.00  0.00    -0.744 OA
ENDBRANCH  72  75
ENDBRANCH  54  68
BRANCH  55  79
ATOM     79  C   UNL A   1      42.644  25.937  27.871  1.00  0.00     0.023 A 
ATOM     80  C   UNL A   1      42.982  26.524  26.637  1.00  0.00     0.012 A 
ATOM     81  C   UNL A   1      42.179  24.607  27.893  1.00  0.00     0.148 A 
ATOM     82  C   UNL A   1      42.817  25.817  25.444  1.00  0.00     0.002 A 
ATOM     83  C   UNL A   1      42.077  23.888  26.709  1.00  0.00     0.091 A 
ATOM     84  F   UNL A   1      41.842  24.072  29.075  1.00  0.00    -0.205 F 
ATOM     85  C   UNL A   1      42.374  24.498  25.481  1.00  0.00     0.022 A 
BRANCH  83  86
ATOM     86  S   UNL A   1      41.649  22.145  26.679  1.00  0.00     0.127 S 
ATOM     87  O   UNL A   1      40.205  22.187  26.889  1.00  0.00    -0.237 OA
ATOM     88  O   UNL A   1      42.069  21.758  25.332  1.00  0.00    -0.237 OA
ATOM     89  O   UNL A   1      42.428  21.533  27.748  1.00  0.00    -0.744 OA
ENDBRANCH  83  86
ENDBRANCH  55  79
BRANCH  67  90
ATOM     90  C   UNL A   1      47.541  26.307  32.825  1.00  0.00     0.023 A 
ATOM     91  C   UNL A   1      47.585  25.147  33.624  1.00  0.00     0.012 A 
ATOM     92  C   UNL A   1      48.719  26.751  32.190  1.00  0.00     0.148 A 
ATOM     93  C   UNL A   1      48.788  24.474  33.835  1.00  0.00     0.002 A 
ATOM     94  C   UNL A   1      49.902  26.043  32.358  1.00  0.00     0.091 A 
ATOM     95  F   UNL A   1      48.663  27.862  31.442  1.00  0.00    -0.205 F 
ATOM     96  C   UNL A   1      49.943  24.916  33.195  1.00  0.00     0.022 A 
BRANCH  94  97
ATOM     97  S   UNL A   1      51.416  26.480  31.498  1.00  0.00     0.127 S 
ATOM     98  O   UNL A   1      50.977  26.478  30.103  1.00  0.00    -0.237 OA
ATOM     99  O   UNL A   1      51.711  27.805  32.043  1.00  0.00    -0.237 OA
ATOM    100  O   UNL A   1      52.388  25.453  31.848  1.00  0.00    -0.744 OA
ENDBRANCH  94  97
ENDBRANCH  67  90
ENDBRANCH  41  42
ENDBRANCH  34  36
ENDBRANCH  33  34
ENDBRANCH  32  33
ENDBRANCH  31  32
ENDBRANCH  30  31
ENDBRANCH  29  30
ENDBRANCH  28  29
ENDBRANCH   1  28
TORSDOF 28
ENDMDL
MODEL 3
REMARK VINA RESULT:      -8.3      1.536      2.066
REMARK SMILES O=C(CN(CC(F)(F)F)C(=O)[C@H]1C[C@H]2CC[C@@H]1[NH2+]2)OCCOCCOCCOCCOC(=O)c1ccc(-c2c3nc(c(-c4cccc(S(=O)(=O)[O-])c4F)c4ccc([nH]4)c(-c4cccc(S(=O)(=O)[O-])c4F)c4nc(c(-c5cccc(S(=O)(=O)[O-])c5F)c5ccc2[nH]5)C=C4)C=C3)cc1
REMARK SMILES IDX 25 1 24 2 23 3 22 4 21 5 20 6 19 7 2 8 1 9 3 10 4 11 5 12
REMARK SMILES IDX 6 13 7 14 8 15 9 16 10 17 11 18 12 19 13 20 17 21 14 22
REMARK SMILES IDX 16 23 18 24 15 25 26 28 27 29 28 30 29 31 30 32 31 33 32 34
REMARK SMILES IDX 33 35 34 36 35 37 96 38 36 39 95 40 37 41 38 42 39 43 89 44
REMARK SMILES IDX 40 45 94 46 88 47 90 48 41 49 93 50 87 51 86 52 42 54 74 55
REMARK SMILES IDX 54 56 73 57 55 58 58 59 72 60 91 61 56 62 57 63 71 65 92 66
REMARK SMILES IDX 59 67 43 68 44 69 52 70 45 71 47 72 53 73 46 74 48 75 49 76
REMARK SMILES IDX 50 77 51 78 75 79 76 80 84 81 77 82 79 83 85 84 78 85 80 86
REMARK SMILES IDX 81 87 82 88 83 89 60 90 61 91 69 92 62 93 64 94 70 95 63 96
REMARK SMILES IDX 65 97 66 98 67 99 68 100
REMARK H PARENT 18 26 18 27 90 53 58 64
REMARK Flexibility Score: inf
ROOT
ATOM      1  O   UNL A   1      34.413  31.725  28.434  1.00  0.00    -0.377 OA
ENDROOT
BRANCH   1   2
ATOM      2  C   UNL A   1      33.220  31.350  27.766  1.00  0.00     0.188 C 
BRANCH   2   3
ATOM      3  C   UNL A   1      33.312  30.095  26.901  1.00  0.00     0.188 C 
BRANCH   3   4
ATOM      4  O   UNL A   1      32.842  30.033  25.550  1.00  0.00    -0.376 OA
BRANCH   4   5
ATOM      5  C   UNL A   1      31.484  30.014  25.147  1.00  0.00     0.202 C 
BRANCH   5   6
ATOM      6  C   UNL A   1      30.940  28.839  24.346  1.00  0.00     0.261 C 
BRANCH   6   7
ATOM      7  O   UNL A   1      31.524  28.671  23.057  1.00  0.00    -0.462 OA
BRANCH   7   8
ATOM      8  C   UNL A   1      32.501  27.795  22.739  1.00  0.00     0.325 C 
ATOM      9  O   UNL A   1      33.573  28.250  22.325  1.00  0.00    -0.250 OA
BRANCH   8  10
ATOM     10  C   UNL A   1      32.232  26.267  22.654  1.00  0.00     0.242 C 
BRANCH  10  11
ATOM     11  N   UNL A   1      33.232  25.335  23.179  1.00  0.00    -0.322 N 
BRANCH  11  12
ATOM     12  C   UNL A   1      33.967  25.695  24.432  1.00  0.00     0.235 C 
BRANCH  12  13
ATOM     13  C   UNL A   1      33.270  25.825  25.797  1.00  0.00     0.406 C 
ATOM     14  F   UNL A   1      31.922  25.789  25.672  1.00  0.00    -0.169 F 
ATOM     15  F   UNL A   1      33.596  24.782  26.600  1.00  0.00    -0.169 F 
ATOM     16  F   UNL A   1      33.605  26.958  26.446  1.00  0.00    -0.169 F 
ENDBRANCH  12  13
ENDBRANCH  11  12
BRANCH  11  17
ATOM     17  C   UNL A   1      33.403  24.260  22.334  1.00  0.00     0.232 C 
ATOM     18  O   UNL A   1      33.396  24.451  21.110  1.00  0.00    -0.274 OA
BRANCH  17  19
ATOM     19  C   UNL A   1      33.607  22.850  22.809  1.00  0.00     0.142 C 
ATOM     20  C   UNL A   1      33.949  22.586  24.267  1.00  0.00     0.084 C 
ATOM     21  C   UNL A   1      32.233  22.142  22.691  1.00  0.00     0.195 C 
ATOM     22  C   UNL A   1      32.801  21.709  24.762  1.00  0.00     0.183 C 
ATOM     23  C   UNL A   1      31.135  22.859  23.510  1.00  0.00     0.072 C 
ATOM     24  N   UNL A   1      32.480  20.960  23.540  1.00  0.00    -0.341 N 
ATOM     25  C   UNL A   1      31.564  22.592  24.952  1.00  0.00     0.071 C 
ATOM     26  H   UNL A   1      31.653  20.371  23.646  1.00  0.00     0.346 HD
ATOM     27  H   UNL A   1      33.174  20.289  23.212  1.00  0.00     0.346 HD
ENDBRANCH  17  19
ENDBRANCH  11  17
ENDBRANCH  10  11
ENDBRANCH   8  10
ENDBRANCH   7   8
ENDBRANCH   6   7
ENDBRANCH   5   6
ENDBRANCH   4   5
ENDBRANCH   3   4
ENDBRANCH   2   3
ENDBRANCH   1   2
BRANCH   1  28
ATOM     28  C   UNL A   1      34.449  33.080  28.831  1.00  0.00     0.188 C 
BRANCH  28  29
ATOM     29  C   UNL A   1      33.456  33.975  28.069  1.00  0.00     0.188 C 
BRANCH  29  30
ATOM     30  O   UNL A   1      32.572  34.776  28.828  1.00  0.00    -0.376 OA
BRANCH  30  31
ATOM     31  C   UNL A   1      32.888  36.099  29.229  1.00  0.00     0.202 C 
BRANCH  31  32
ATOM     32  C   UNL A   1      33.007  36.641  30.671  1.00  0.00     0.261 C 
BRANCH  32  33
ATOM     33  O   UNL A   1      34.055  36.166  31.513  1.00  0.00    -0.460 OA
BRANCH  33  34
ATOM     34  C   UNL A   1      33.744  35.208  32.407  1.00  0.00     0.338 C 
ATOM     35  O   UNL A   1      32.627  34.787  32.664  1.00  0.00    -0.246 OA
BRANCH  34  36
ATOM     36  C   UNL A   1      35.012  34.562  32.827  1.00  0.00     0.060 A 
ATOM     37  C   UNL A   1      36.175  34.900  32.123  1.00  0.00     0.016 A 
ATOM     38  C   UNL A   1      35.086  33.731  33.952  1.00  0.00     0.016 A 
ATOM     39  C   UNL A   1      37.404  34.373  32.506  1.00  0.00     0.010 A 
ATOM     40  C   UNL A   1      36.318  33.172  34.315  1.00  0.00     0.010 A 
ATOM     41  C   UNL A   1      37.470  33.456  33.561  1.00  0.00    -0.014 A 
BRANCH  41  42
ATOM     42  C   UNL A   1      38.691  32.625  33.676  1.00  0.00     0.031 A 
ATOM     43  C   UNL A   1      39.625  32.911  34.822  1.00  0.00     0.074 A 
ATOM     44  C   UNL A   1      38.917  31.586  32.855  1.00  0.00     0.049 A 
ATOM     45  N   UNL A   1      40.712  32.281  35.182  1.00  0.00    -0.248 NA
ATOM     46  C   UNL A   1      39.281  34.057  35.682  1.00  0.00     0.031 C 
ATOM     47  C   UNL A   1      38.077  31.200  31.723  1.00  0.00     0.029 A 
ATOM     48  N   UNL A   1      39.936  30.666  32.849  1.00  0.00    -0.354 N 
ATOM     49  C   UNL A   1      41.184  32.958  36.300  1.00  0.00     0.074 A 
ATOM     50  C   UNL A   1      40.284  34.061  36.546  1.00  0.00     0.031 C 
ATOM     51  C   UNL A   1      38.632  30.137  31.113  1.00  0.00     0.029 A 
ATOM     52  C   UNL A   1      39.871  29.780  31.801  1.00  0.00     0.049 A 
ATOM     53  H   UNL A   1      40.645  30.644  33.531  1.00  0.00     0.167 HD
ATOM     54  C   UNL A   1      42.261  32.675  37.071  1.00  0.00     0.034 A 
ATOM     55  C   UNL A   1      40.730  28.808  31.431  1.00  0.00     0.034 A 
ATOM     56  C   UNL A   1      43.156  31.578  36.826  1.00  0.00     0.049 A 
ATOM     57  C   UNL A   1      41.946  28.540  32.281  1.00  0.00     0.074 A 
ATOM     58  C   UNL A   1      44.270  31.199  37.555  1.00  0.00     0.029 A 
ATOM     59  N   UNL A   1      43.051  30.693  35.765  1.00  0.00    -0.354 N 
ATOM     60  N   UNL A   1      42.325  29.125  33.393  1.00  0.00    -0.248 NA
ATOM     61  C   UNL A   1      42.830  27.449  31.849  1.00  0.00     0.031 C 
ATOM     62  C   UNL A   1      44.855  30.102  36.915  1.00  0.00     0.029 A 
ATOM     63  C   UNL A   1      44.082  29.771  35.814  1.00  0.00     0.049 A 
ATOM     64  H   UNL A   1      42.346  30.715  35.079  1.00  0.00     0.167 HD
ATOM     65  C   UNL A   1      43.472  28.455  33.806  1.00  0.00     0.074 A 
ATOM     66  C   UNL A   1      43.703  27.395  32.845  1.00  0.00     0.031 C 
ATOM     67  C   UNL A   1      44.276  28.699  34.872  1.00  0.00     0.034 A 
BRANCH  54  68
ATOM     68  C   UNL A   1      42.518  33.559  38.262  1.00  0.00     0.023 A 
ATOM     69  C   UNL A   1      43.365  34.679  38.132  1.00  0.00     0.012 A 
ATOM     70  C   UNL A   1      41.878  33.315  39.492  1.00  0.00     0.148 A 
ATOM     71  C   UNL A   1      43.591  35.528  39.214  1.00  0.00     0.002 A 
ATOM     72  C   UNL A   1      42.070  34.193  40.551  1.00  0.00     0.091 A 
ATOM     73  F   UNL A   1      41.097  32.231  39.602  1.00  0.00    -0.205 F 
ATOM     74  C   UNL A   1      42.934  35.293  40.418  1.00  0.00     0.022 A 
BRANCH  72  75
ATOM     75  S   UNL A   1      41.211  34.023  42.120  1.00  0.00     0.127 S 
ATOM     76  O   UNL A   1      39.892  33.564  41.686  1.00  0.00    -0.237 OA
ATOM     77  O   UNL A   1      42.017  33.009  42.799  1.00  0.00    -0.237 OA
ATOM     78  O   UNL A   1      41.236  35.340  42.739  1.00  0.00    -0.744 OA
ENDBRANCH  72  75
ENDBRANCH  54  68
BRANCH  55  79
ATOM     79  C   UNL A   1      40.478  28.013  30.195  1.00  0.00     0.023 A 
ATOM     80  C   UNL A   1      39.458  27.044  30.170  1.00  0.00     0.012 A 
ATOM     81  C   UNL A   1      41.269  28.206  29.045  1.00  0.00     0.148 A 
ATOM     82  C   UNL A   1      39.258  26.251  29.038  1.00  0.00     0.002 A 
ATOM     83  C   UNL A   1      41.024  27.457  27.901  1.00  0.00     0.091 A 
ATOM     84  F   UNL A   1      42.250  29.119  29.094  1.00  0.00    -0.205 F 
ATOM     85  C   UNL A   1      40.034  26.463  27.902  1.00  0.00     0.022 A 
BRANCH  83  86
ATOM     86  S   UNL A   1      41.881  27.763  26.354  1.00  0.00     0.127 S 
ATOM     87  O   UNL A   1      41.589  29.174  26.122  1.00  0.00    -0.237 OA
ATOM     88  O   UNL A   1      43.268  27.468  26.718  1.00  0.00    -0.237 OA
ATOM     89  O   UNL A   1      41.303  26.830  25.396  1.00  0.00    -0.744 OA
ENDBRANCH  83  86
ENDBRANCH  55  79
BRANCH  67  90
ATOM     90  C   UNL A   1      45.456  27.784  35.076  1.00  0.00     0.023 A 
ATOM     91  C   UNL A   1      46.712  28.118  34.529  1.00  0.00     0.012 A 
ATOM     92  C   UNL A   1      45.329  26.606  35.839  1.00  0.00     0.148 A 
ATOM     93  C   UNL A   1      47.806  27.268  34.688  1.00  0.00     0.002 A 
ATOM     94  C   UNL A   1      46.437  25.792  36.042  1.00  0.00     0.091 A 
ATOM     95  F   UNL A   1      44.126  26.296  36.343  1.00  0.00    -0.205 F 
ATOM     96  C   UNL A   1      47.671  26.111  35.452  1.00  0.00     0.022 A 
BRANCH  94  97
ATOM     97  S   UNL A   1      46.382  24.336  37.091  1.00  0.00     0.127 S 
ATOM     98  O   UNL A   1      45.497  23.455  36.331  1.00  0.00    -0.237 OA
ATOM     99  O   UNL A   1      47.784  23.918  37.116  1.00  0.00    -0.237 OA
ATOM    100  O   UNL A   1      45.864  24.786  38.376  1.00  0.00    -0.744 OA
ENDBRANCH  94  97
ENDBRANCH  67  90
ENDBRANCH  41  42
ENDBRANCH  34  36
ENDBRANCH  33  34
ENDBRANCH  32  33
ENDBRANCH  31  32
ENDBRANCH  30  31
ENDBRANCH  29  30
ENDBRANCH  28  29
ENDBRANCH   1  28
TORSDOF 28
ENDMDL
