MODEL 1
REMARK VINA RESULT:      -8.9      0.000      0.000
REMARK SMILES CC(C)(C)c1cc2c(cc1Cl)C=C(C(=O)OCCOCCOCCOCCOC(=O)c1ccc(-c3c4nc(c(-c5cccc(S(=O)(=O)[O-])c5F)c5ccc([nH]5)c(-c5cccc(S(=O)(=O)[O-])c5F)c5nc(c(-c6cccc(S(=O)(=O)[O-])c6F)c6ccc3[nH]6)C=C5)C=C4)cc1)[C@@H](C(F)(F)F)O2
REMARK SMILES IDX 23 1 22 2 21 3 20 4 19 5 18 6 17 7 16 8 14 9 15 10 13 11
REMARK SMILES IDX 5 12 6 13 10 14 7 15 9 16 11 17 8 18 99 19 12 20 94 21 2 22
REMARK SMILES IDX 1 23 3 24 4 25 95 26 96 27 97 28 98 29 24 30 25 31 26 32
REMARK SMILES IDX 27 33 28 34 29 35 30 36 31 37 32 38 93 39 33 40 92 41 34 42
REMARK SMILES IDX 35 43 36 44 86 45 37 46 91 47 85 48 87 49 38 50 90 51 84 52
REMARK SMILES IDX 83 53 39 55 71 56 51 57 70 58 52 59 55 60 69 61 88 62 53 63
REMARK SMILES IDX 54 64 68 66 89 67 56 68 40 69 41 70 49 71 42 72 44 73 50 74
REMARK SMILES IDX 43 75 45 76 46 77 47 78 48 79 72 80 73 81 81 82 74 83 76 84
REMARK SMILES IDX 82 85 75 86 77 87 78 88 79 89 80 90 57 91 58 92 66 93 59 94
REMARK SMILES IDX 61 95 67 96 60 97 62 98 63 99 64 100 65 101
REMARK H PARENT 87 54 55 65
REMARK Flexibility Score: inf
ROOT
ATOM      1  C   UNL A   1      33.513  23.048  23.399  1.00  0.00     0.188 C 
ENDROOT
BRANCH   1   2
ATOM      2  O   UNL A   1      33.730  23.404  22.033  1.00  0.00    -0.377 OA
BRANCH   2   3
ATOM      3  C   UNL A   1      32.943  24.438  21.473  1.00  0.00     0.188 C 
BRANCH   3   4
ATOM      4  C   UNL A   1      32.531  25.532  22.473  1.00  0.00     0.188 C 
BRANCH   4   5
ATOM      5  O   UNL A   1      32.239  26.787  21.862  1.00  0.00    -0.376 OA
BRANCH   5   6
ATOM      6  C   UNL A   1      32.064  27.900  22.732  1.00  0.00     0.202 C 
BRANCH   6   7
ATOM      7  C   UNL A   1      33.353  28.562  23.243  1.00  0.00     0.261 C 
BRANCH   7   8
ATOM      8  O   UNL A   1      34.022  27.837  24.286  1.00  0.00    -0.460 OA
BRANCH   8   9
ATOM      9  C   UNL A   1      33.400  27.756  25.476  1.00  0.00     0.338 C 
ATOM     10  O   UNL A   1      32.727  26.828  25.893  1.00  0.00    -0.246 OA
BRANCH   9  11
ATOM     11  C   UNL A   1      33.821  28.914  26.291  1.00  0.00     0.087 C 
ATOM     12  C   UNL A   1      35.797  31.889  29.861  1.00  0.00    -0.020 A 
ATOM     13  C   UNL A   1      34.867  32.054  28.805  1.00  0.00     0.053 A 
ATOM     14  C   UNL A   1      36.529  30.679  29.854  1.00  0.00     0.045 A 
ATOM     15  C   UNL A   1      34.590  31.039  27.882  1.00  0.00     0.128 A 
ATOM     16  C   UNL A   1      36.262  29.671  28.913  1.00  0.00     0.032 A 
ATOM     17  Cl  UNL A   1      37.756  30.268  31.003  1.00  0.00    -0.084 Cl
ATOM     18  C   UNL A   1      35.253  29.826  27.966  1.00  0.00     0.019 A 
ATOM     19  O   UNL A   1      33.626  31.315  26.956  1.00  0.00    -0.475 OA
ATOM     20  C   UNL A   1      34.842  28.713  27.133  1.00  0.00     0.027 C 
ATOM     21  C   UNL A   1      33.138  30.244  26.097  1.00  0.00     0.316 C 
BRANCH  12  22
ATOM     22  C   UNL A   1      35.853  32.940  30.999  1.00  0.00    -0.012 C 
ATOM     23  C   UNL A   1      34.712  33.994  30.932  1.00  0.00     0.016 C 
ATOM     24  C   UNL A   1      37.160  33.762  31.021  1.00  0.00     0.016 C 
ATOM     25  C   UNL A   1      35.669  32.200  32.344  1.00  0.00     0.016 C 
ENDBRANCH  12  22
BRANCH  21  26
ATOM     26  C   UNL A   1      31.615  30.145  26.278  1.00  0.00     0.430 C 
ATOM     27  F   UNL A   1      31.001  29.848  25.108  1.00  0.00    -0.167 F 
ATOM     28  F   UNL A   1      31.268  29.185  27.163  1.00  0.00    -0.167 F 
ATOM     29  F   UNL A   1      31.094  31.314  26.723  1.00  0.00    -0.167 F 
ENDBRANCH  21  26
ENDBRANCH   9  11
ENDBRANCH   8   9
ENDBRANCH   7   8
ENDBRANCH   6   7
ENDBRANCH   5   6
ENDBRANCH   4   5
ENDBRANCH   3   4
ENDBRANCH   2   3
ENDBRANCH   1   2
BRANCH   1  30
ATOM     30  C   UNL A   1      34.670  22.852  24.406  1.00  0.00     0.188 C 
BRANCH  30  31
ATOM     31  O   UNL A   1      35.787  22.131  23.890  1.00  0.00    -0.376 OA
BRANCH  31  32
ATOM     32  C   UNL A   1      36.640  21.522  24.848  1.00  0.00     0.202 C 
BRANCH  32  33
ATOM     33  C   UNL A   1      37.032  22.458  25.995  1.00  0.00     0.261 C 
BRANCH  33  34
ATOM     34  O   UNL A   1      38.340  23.037  25.885  1.00  0.00    -0.460 OA
BRANCH  34  35
ATOM     35  C   UNL A   1      39.337  22.494  26.621  1.00  0.00     0.338 C 
ATOM     36  O   UNL A   1      39.573  21.310  26.781  1.00  0.00    -0.246 OA
BRANCH  35  37
ATOM     37  C   UNL A   1      40.207  23.610  27.041  1.00  0.00     0.060 A 
ATOM     38  C   UNL A   1      41.216  23.386  27.981  1.00  0.00     0.016 A 
ATOM     39  C   UNL A   1      39.963  24.899  26.551  1.00  0.00     0.016 A 
ATOM     40  C   UNL A   1      41.991  24.455  28.428  1.00  0.00     0.010 A 
ATOM     41  C   UNL A   1      40.734  25.970  27.008  1.00  0.00     0.010 A 
ATOM     42  C   UNL A   1      41.761  25.751  27.940  1.00  0.00    -0.014 A 
BRANCH  42  43
ATOM     43  C   UNL A   1      42.719  26.828  28.278  1.00  0.00     0.031 A 
ATOM     44  C   UNL A   1      44.043  26.967  27.593  1.00  0.00     0.074 A 
ATOM     45  C   UNL A   1      42.352  27.707  29.230  1.00  0.00     0.049 A 
ATOM     46  N   UNL A   1      44.924  27.925  27.715  1.00  0.00    -0.248 NA
ATOM     47  C   UNL A   1      44.433  25.903  26.656  1.00  0.00     0.031 C 
ATOM     48  C   UNL A   1      41.102  27.642  29.991  1.00  0.00     0.029 A 
ATOM     49  N   UNL A   1      42.987  28.818  29.719  1.00  0.00    -0.354 N 
ATOM     50  C   UNL A   1      45.976  27.587  26.875  1.00  0.00     0.074 A 
ATOM     51  C   UNL A   1      45.630  26.322  26.258  1.00  0.00     0.031 C 
ATOM     52  C   UNL A   1      41.058  28.674  30.846  1.00  0.00     0.029 A 
ATOM     53  C   UNL A   1      42.275  29.466  30.699  1.00  0.00     0.049 A 
ATOM     54  H   UNL A   1      43.866  29.123  29.400  1.00  0.00     0.167 HD
ATOM     55  C   UNL A   1      47.112  28.283  26.629  1.00  0.00     0.034 A 
ATOM     56  C   UNL A   1      42.561  30.581  31.398  1.00  0.00     0.034 A 
ATOM     57  C   UNL A   1      47.441  29.548  27.234  1.00  0.00     0.049 A 
ATOM     58  C   UNL A   1      43.825  31.332  31.101  1.00  0.00     0.074 A 
ATOM     59  C   UNL A   1      48.538  30.356  26.988  1.00  0.00     0.029 A 
ATOM     60  N   UNL A   1      46.692  30.182  28.213  1.00  0.00    -0.354 N 
ATOM     61  N   UNL A   1      44.737  31.074  30.197  1.00  0.00    -0.248 NA
ATOM     62  C   UNL A   1      44.087  32.539  31.897  1.00  0.00     0.031 C 
ATOM     63  C   UNL A   1      48.460  31.471  27.828  1.00  0.00     0.029 A 
ATOM     64  C   UNL A   1      47.310  31.362  28.592  1.00  0.00     0.049 A 
ATOM     65  H   UNL A   1      45.846  29.843  28.584  1.00  0.00     0.167 HD
ATOM     66  C   UNL A   1      45.675  32.092  30.303  1.00  0.00     0.074 A 
ATOM     67  C   UNL A   1      45.211  32.982  31.348  1.00  0.00     0.031 C 
ATOM     68  C   UNL A   1      46.826  32.261  29.608  1.00  0.00     0.034 A 
BRANCH  55  69
ATOM     69  C   UNL A   1      48.073  27.741  25.607  1.00  0.00     0.023 A 
ATOM     70  C   UNL A   1      49.068  26.834  26.023  1.00  0.00     0.012 A 
ATOM     71  C   UNL A   1      47.909  28.013  24.235  1.00  0.00     0.148 A 
ATOM     72  C   UNL A   1      49.890  26.207  25.088  1.00  0.00     0.002 A 
ATOM     73  C   UNL A   1      48.717  27.364  23.306  1.00  0.00     0.091 A 
ATOM     74  F   UNL A   1      46.960  28.884  23.866  1.00  0.00    -0.205 F 
ATOM     75  C   UNL A   1      49.707  26.463  23.732  1.00  0.00     0.022 A 
BRANCH  73  76
ATOM     76  S   UNL A   1      48.530  27.579  21.533  1.00  0.00     0.127 S 
ATOM     77  O   UNL A   1      49.487  28.651  21.264  1.00  0.00    -0.237 OA
ATOM     78  O   UNL A   1      48.925  26.266  21.021  1.00  0.00    -0.237 OA
ATOM     79  O   UNL A   1      47.133  27.927  21.312  1.00  0.00    -0.744 OA
ENDBRANCH  73  76
ENDBRANCH  55  69
BRANCH  56  80
ATOM     80  C   UNL A   1      41.577  31.078  32.392  1.00  0.00     0.023 A 
ATOM     81  C   UNL A   1      40.615  32.024  31.992  1.00  0.00     0.012 A 
ATOM     82  C   UNL A   1      41.530  30.548  33.694  1.00  0.00     0.148 A 
ATOM     83  C   UNL A   1      39.623  32.441  32.878  1.00  0.00     0.002 A 
ATOM     84  C   UNL A   1      40.516  30.936  34.560  1.00  0.00     0.091 A 
ATOM     85  F   UNL A   1      42.459  29.647  34.044  1.00  0.00    -0.205 F 
ATOM     86  C   UNL A   1      39.567  31.890  34.157  1.00  0.00     0.022 A 
BRANCH  84  87
ATOM     87  S   UNL A   1      40.295  30.206  36.184  1.00  0.00     0.127 S 
ATOM     88  O   UNL A   1      41.080  31.105  37.026  1.00  0.00    -0.237 OA
ATOM     89  O   UNL A   1      38.845  30.304  36.361  1.00  0.00    -0.237 OA
ATOM     90  O   UNL A   1      40.802  28.844  36.081  1.00  0.00    -0.744 OA
ENDBRANCH  84  87
ENDBRANCH  56  80
BRANCH  68  91
ATOM     91  C   UNL A   1      47.686  33.445  29.949  1.00  0.00     0.023 A 
ATOM     92  C   UNL A   1      48.780  33.271  30.818  1.00  0.00     0.012 A 
ATOM     93  C   UNL A   1      47.479  34.695  29.333  1.00  0.00     0.148 A 
ATOM     94  C   UNL A   1      49.654  34.325  31.076  1.00  0.00     0.002 A 
ATOM     95  C   UNL A   1      48.373  35.733  29.569  1.00  0.00     0.091 A 
ATOM     96  F   UNL A   1      46.425  34.838  28.518  1.00  0.00    -0.205 F 
ATOM     97  C   UNL A   1      49.458  35.551  30.444  1.00  0.00     0.022 A 
BRANCH  95  98
ATOM     98  S   UNL A   1      48.248  37.328  28.751  1.00  0.00     0.127 S 
ATOM     99  O   UNL A   1      46.900  37.751  29.132  1.00  0.00    -0.237 OA
ATOM    100  O   UNL A   1      49.327  38.085  29.385  1.00  0.00    -0.237 OA
ATOM    101  O   UNL A   1      48.436  37.070  27.331  1.00  0.00    -0.744 OA
ENDBRANCH  95  98
ENDBRANCH  68  91
ENDBRANCH  42  43
ENDBRANCH  35  37
ENDBRANCH  34  35
ENDBRANCH  33  34
ENDBRANCH  32  33
ENDBRANCH  31  32
ENDBRANCH  30  31
ENDBRANCH   1  30
TORSDOF 25
ENDMDL
MODEL 2
REMARK VINA RESULT:      -8.8      4.607      9.384
REMARK SMILES CC(C)(C)c1cc2c(cc1Cl)C=C(C(=O)OCCOCCOCCOCCOC(=O)c1ccc(-c3c4nc(c(-c5cccc(S(=O)(=O)[O-])c5F)c5ccc([nH]5)c(-c5cccc(S(=O)(=O)[O-])c5F)c5nc(c(-c6cccc(S(=O)(=O)[O-])c6F)c6ccc3[nH]6)C=C5)C=C4)cc1)[C@@H](C(F)(F)F)O2
REMARK SMILES IDX 23 1 22 2 21 3 20 4 19 5 18 6 17 7 16 8 14 9 15 10 13 11
REMARK SMILES IDX 5 12 6 13 10 14 7 15 9 16 11 17 8 18 99 19 12 20 94 21 2 22
REMARK SMILES IDX 1 23 3 24 4 25 95 26 96 27 97 28 98 29 24 30 25 31 26 32
REMARK SMILES IDX 27 33 28 34 29 35 30 36 31 37 32 38 93 39 33 40 92 41 34 42
REMARK SMILES IDX 35 43 36 44 86 45 37 46 91 47 85 48 87 49 38 50 90 51 84 52
REMARK SMILES IDX 83 53 39 55 71 56 51 57 70 58 52 59 55 60 69 61 88 62 53 63
REMARK SMILES IDX 54 64 68 66 89 67 56 68 40 69 41 70 49 71 42 72 44 73 50 74
REMARK SMILES IDX 43 75 45 76 46 77 47 78 48 79 72 80 73 81 81 82 74 83 76 84
REMARK SMILES IDX 82 85 75 86 77 87 78 88 79 89 80 90 57 91 58 92 66 93 59 94
REMARK SMILES IDX 61 95 67 96 60 97 62 98 63 99 64 100 65 101
REMARK H PARENT 87 54 55 65
REMARK Flexibility Score: inf
ROOT
ATOM      1  C   UNL A   1      33.722  34.736  32.410  1.00  0.00     0.188 C 
ENDROOT
BRANCH   1   2
ATOM      2  O   UNL A   1      34.434  35.076  31.219  1.00  0.00    -0.377 OA
BRANCH   2   3
ATOM      3  C   UNL A   1      33.878  34.705  29.973  1.00  0.00     0.188 C 
BRANCH   3   4
ATOM      4  C   UNL A   1      34.374  33.352  29.435  1.00  0.00     0.188 C 
BRANCH   4   5
ATOM      5  O   UNL A   1      35.632  32.948  29.972  1.00  0.00    -0.376 OA
BRANCH   5   6
ATOM      6  C   UNL A   1      36.754  33.012  29.098  1.00  0.00     0.202 C 
BRANCH   6   7
ATOM      7  C   UNL A   1      36.972  31.790  28.194  1.00  0.00     0.261 C 
BRANCH   7   8
ATOM      8  O   UNL A   1      37.481  30.630  28.871  1.00  0.00    -0.460 OA
BRANCH   8   9
ATOM      9  C   UNL A   1      38.488  30.819  29.742  1.00  0.00     0.338 C 
ATOM     10  O   UNL A   1      38.539  31.639  30.642  1.00  0.00    -0.246 OA
BRANCH   9  11
ATOM     11  C   UNL A   1      39.468  29.730  29.548  1.00  0.00     0.087 C 
ATOM     12  C   UNL A   1      42.656  26.349  27.572  1.00  0.00    -0.020 A 
ATOM     13  C   UNL A   1      42.033  26.540  28.830  1.00  0.00     0.053 A 
ATOM     14  C   UNL A   1      42.556  27.429  26.664  1.00  0.00     0.045 A 
ATOM     15  C   UNL A   1      41.259  27.668  29.122  1.00  0.00     0.128 A 
ATOM     16  C   UNL A   1      41.794  28.569  26.969  1.00  0.00     0.032 A 
ATOM     17  Cl  UNL A   1      43.275  27.459  25.090  1.00  0.00    -0.084 Cl
ATOM     18  C   UNL A   1      41.097  28.662  28.171  1.00  0.00     0.019 A 
ATOM     19  O   UNL A   1      40.668  27.690  30.352  1.00  0.00    -0.475 OA
ATOM     20  C   UNL A   1      40.152  29.739  28.397  1.00  0.00     0.027 C 
ATOM     21  C   UNL A   1      39.686  28.725  30.650  1.00  0.00     0.316 C 
BRANCH  12  22
ATOM     22  C   UNL A   1      43.263  24.966  27.223  1.00  0.00    -0.012 C 
ATOM     23  C   UNL A   1      42.500  24.216  26.095  1.00  0.00     0.016 C 
ATOM     24  C   UNL A   1      43.290  23.983  28.413  1.00  0.00     0.016 C 
ATOM     25  C   UNL A   1      44.696  25.192  26.689  1.00  0.00     0.016 C 
ENDBRANCH  12  22
BRANCH  21  26
ATOM     26  C   UNL A   1      38.379  28.033  31.070  1.00  0.00     0.430 C 
ATOM     27  F   UNL A   1      37.408  28.214  30.143  1.00  0.00    -0.167 F 
ATOM     28  F   UNL A   1      38.535  26.699  31.225  1.00  0.00    -0.167 F 
ATOM     29  F   UNL A   1      37.915  28.526  32.243  1.00  0.00    -0.167 F 
ENDBRANCH  21  26
ENDBRANCH   9  11
ENDBRANCH   8   9
ENDBRANCH   7   8
ENDBRANCH   6   7
ENDBRANCH   5   6
ENDBRANCH   4   5
ENDBRANCH   3   4
ENDBRANCH   2   3
ENDBRANCH   1   2
BRANCH   1  30
ATOM     30  C   UNL A   1      34.024  33.460  33.229  1.00  0.00     0.188 C 
BRANCH  30  31
ATOM     31  O   UNL A   1      35.408  33.134  33.328  1.00  0.00    -0.376 OA
BRANCH  31  32
ATOM     32  C   UNL A   1      36.256  34.141  33.862  1.00  0.00     0.202 C 
BRANCH  32  33
ATOM     33  C   UNL A   1      36.468  34.019  35.373  1.00  0.00     0.261 C 
BRANCH  33  34
ATOM     34  O   UNL A   1      37.007  32.763  35.810  1.00  0.00    -0.460 OA
BRANCH  34  35
ATOM     35  C   UNL A   1      38.220  32.769  36.410  1.00  0.00     0.338 C 
ATOM     36  O   UNL A   1      38.461  33.002  37.581  1.00  0.00    -0.246 OA
BRANCH  35  37
ATOM     37  C   UNL A   1      39.182  32.246  35.420  1.00  0.00     0.060 A 
ATOM     38  C   UNL A   1      38.770  31.286  34.493  1.00  0.00     0.016 A 
ATOM     39  C   UNL A   1      40.519  32.662  35.469  1.00  0.00     0.016 A 
ATOM     40  C   UNL A   1      39.697  30.744  33.605  1.00  0.00     0.010 A 
ATOM     41  C   UNL A   1      41.448  32.109  34.585  1.00  0.00     0.010 A 
ATOM     42  C   UNL A   1      41.039  31.156  33.640  1.00  0.00    -0.014 A 
BRANCH  42  43
ATOM     43  C   UNL A   1      41.956  30.715  32.564  1.00  0.00     0.031 A 
ATOM     44  C   UNL A   1      42.335  31.603  31.420  1.00  0.00     0.074 A 
ATOM     45  C   UNL A   1      42.461  29.470  32.653  1.00  0.00     0.049 A 
ATOM     46  N   UNL A   1      43.211  31.381  30.475  1.00  0.00    -0.248 NA
ATOM     47  C   UNL A   1      41.651  32.900  31.317  1.00  0.00     0.031 C 
ATOM     48  C   UNL A   1      42.127  28.505  33.703  1.00  0.00     0.029 A 
ATOM     49  N   UNL A   1      43.354  28.804  31.856  1.00  0.00    -0.354 N 
ATOM     50  C   UNL A   1      43.190  32.505  29.661  1.00  0.00     0.074 A 
ATOM     51  C   UNL A   1      42.198  33.405  30.215  1.00  0.00     0.031 C 
ATOM     52  C   UNL A   1      42.813  27.373  33.491  1.00  0.00     0.029 A 
ATOM     53  C   UNL A   1      43.627  27.530  32.289  1.00  0.00     0.049 A 
ATOM     54  H   UNL A   1      43.762  29.200  31.053  1.00  0.00     0.167 HD
ATOM     55  C   UNL A   1      43.945  32.764  28.567  1.00  0.00     0.034 A 
ATOM     56  C   UNL A   1      44.449  26.590  31.784  1.00  0.00     0.034 A 
ATOM     57  C   UNL A   1      44.940  31.871  28.032  1.00  0.00     0.049 A 
ATOM     58  C   UNL A   1      45.275  26.907  30.574  1.00  0.00     0.074 A 
ATOM     59  C   UNL A   1      45.801  32.085  26.968  1.00  0.00     0.029 A 
ATOM     60  N   UNL A   1      45.200  30.593  28.502  1.00  0.00    -0.354 N 
ATOM     61  N   UNL A   1      45.348  28.031  29.904  1.00  0.00    -0.248 NA
ATOM     62  C   UNL A   1      46.152  25.843  30.066  1.00  0.00     0.031 C 
ATOM     63  C   UNL A   1      46.571  30.932  26.787  1.00  0.00     0.029 A 
ATOM     64  C   UNL A   1      46.195  30.002  27.742  1.00  0.00     0.049 A 
ATOM     65  H   UNL A   1      44.743  30.169  29.264  1.00  0.00     0.167 HD
ATOM     66  C   UNL A   1      46.286  27.817  28.904  1.00  0.00     0.074 A 
ATOM     67  C   UNL A   1      46.770  26.460  29.066  1.00  0.00     0.031 C 
ATOM     68  C   UNL A   1      46.695  28.664  27.929  1.00  0.00     0.034 A 
BRANCH  55  69
ATOM     69  C   UNL A   1      43.790  34.101  27.894  1.00  0.00     0.023 A 
ATOM     70  C   UNL A   1      43.033  34.181  26.708  1.00  0.00     0.012 A 
ATOM     71  C   UNL A   1      44.266  35.281  28.497  1.00  0.00     0.148 A 
ATOM     72  C   UNL A   1      42.754  35.418  26.130  1.00  0.00     0.002 A 
ATOM     73  C   UNL A   1      43.962  36.513  27.928  1.00  0.00     0.091 A 
ATOM     74  F   UNL A   1      44.990  35.176  29.620  1.00  0.00    -0.205 F 
ATOM     75  C   UNL A   1      43.208  36.582  26.744  1.00  0.00     0.022 A 
BRANCH  73  76
ATOM     76  S   UNL A   1      44.450  38.076  28.665  1.00  0.00     0.127 S 
ATOM     77  O   UNL A   1      43.962  39.034  27.674  1.00  0.00    -0.237 OA
ATOM     78  O   UNL A   1      43.706  38.068  29.925  1.00  0.00    -0.237 OA
ATOM     79  O   UNL A   1      45.898  38.020  28.810  1.00  0.00    -0.744 OA
ENDBRANCH  73  76
ENDBRANCH  55  69
BRANCH  56  80
ATOM     80  C   UNL A   1      44.571  25.288  32.489  1.00  0.00     0.023 A 
ATOM     81  C   UNL A   1      43.758  24.212  32.087  1.00  0.00     0.012 A 
ATOM     82  C   UNL A   1      45.547  25.089  33.482  1.00  0.00     0.148 A 
ATOM     83  C   UNL A   1      43.913  22.954  32.668  1.00  0.00     0.002 A 
ATOM     84  C   UNL A   1      45.724  23.825  34.029  1.00  0.00     0.091 A 
ATOM     85  F   UNL A   1      46.306  26.134  33.841  1.00  0.00    -0.205 F 
ATOM     86  C   UNL A   1      44.902  22.758  33.630  1.00  0.00     0.022 A 
BRANCH  84  87
ATOM     87  S   UNL A   1      47.038  23.447  35.192  1.00  0.00     0.127 S 
ATOM     88  O   UNL A   1      48.222  23.890  34.459  1.00  0.00    -0.237 OA
ATOM     89  O   UNL A   1      46.674  24.282  36.336  1.00  0.00    -0.237 OA
ATOM     90  O   UNL A   1      46.954  22.013  35.435  1.00  0.00    -0.744 OA
ENDBRANCH  84  87
ENDBRANCH  56  80
BRANCH  68  91
ATOM     91  C   UNL A   1      47.711  28.162  26.942  1.00  0.00     0.023 A 
ATOM     92  C   UNL A   1      47.270  27.627  25.716  1.00  0.00     0.012 A 
ATOM     93  C   UNL A   1      49.091  28.316  27.177  1.00  0.00     0.148 A 
ATOM     94  C   UNL A   1      48.188  27.245  24.740  1.00  0.00     0.002 A 
ATOM     95  C   UNL A   1      50.001  27.963  26.186  1.00  0.00     0.091 A 
ATOM     96  F   UNL A   1      49.486  28.818  28.356  1.00  0.00    -0.205 F 
ATOM     97  C   UNL A   1      49.550  27.423  24.970  1.00  0.00     0.022 A 
BRANCH  95  98
ATOM     98  S   UNL A   1      51.771  28.216  26.358  1.00  0.00     0.127 S 
ATOM     99  O   UNL A   1      52.052  27.510  27.608  1.00  0.00    -0.237 OA
ATOM    100  O   UNL A   1      52.293  27.562  25.158  1.00  0.00    -0.237 OA
ATOM    101  O   UNL A   1      51.971  29.657  26.403  1.00  0.00    -0.744 OA
ENDBRANCH  95  98
ENDBRANCH  68  91
ENDBRANCH  42  43
ENDBRANCH  35  37
ENDBRANCH  34  35
ENDBRANCH  33  34
ENDBRANCH  32  33
ENDBRANCH  31  32
ENDBRANCH  30  31
ENDBRANCH   1  30
TORSDOF 25
ENDMDL
MODEL 3
REMARK VINA RESULT:      -8.4      4.975      9.990
REMARK SMILES CC(C)(C)c1cc2c(cc1Cl)C=C(C(=O)OCCOCCOCCOCCOC(=O)c1ccc(-c3c4nc(c(-c5cccc(S(=O)(=O)[O-])c5F)c5ccc([nH]5)c(-c5cccc(S(=O)(=O)[O-])c5F)c5nc(c(-c6cccc(S(=O)(=O)[O-])c6F)c6ccc3[nH]6)C=C5)C=C4)cc1)[C@@H](C(F)(F)F)O2
REMARK SMILES IDX 23 1 22 2 21 3 20 4 19 5 18 6 17 7 16 8 14 9 15 10 13 11
REMARK SMILES IDX 5 12 6 13 10 14 7 15 9 16 11 17 8 18 99 19 12 20 94 21 2 22
REMARK SMILES IDX 1 23 3 24 4 25 95 26 96 27 97 28 98 29 24 30 25 31 26 32
REMARK SMILES IDX 27 33 28 34 29 35 30 36 31 37 32 38 93 39 33 40 92 41 34 42
REMARK SMILES IDX 35 43 36 44 86 45 37 46 91 47 85 48 87 49 38 50 90 51 84 52
REMARK SMILES IDX 83 53 39 55 71 56 51 57 70 58 52 59 55 60 69 61 88 62 53 63
REMARK SMILES IDX 54 64 68 66 89 67 56 68 40 69 41 70 49 71 42 72 44 73 50 74
REMARK SMILES IDX 43 75 45 76 46 77 47 78 48 79 72 80 73 81 81 82 74 83 76 84
REMARK SMILES IDX 82 85 75 86 77 87 78 88 79 89 80 90 57 91 58 92 66 93 59 94
REMARK SMILES IDX 61 95 67 96 60 97 62 98 63 99 64 100 65 101
REMARK H PARENT 87 54 55 65
REMARK Flexibility Score: inf
ROOT
ATOM      1  C   UNL A   1      31.393  27.462  26.623  1.00  0.00     0.188 C 
ENDROOT
BRANCH   1   2
ATOM      2  O   UNL A   1      30.779  26.373  27.313  1.00  0.00    -0.377 OA
BRANCH   2   3
ATOM      3  C   UNL A   1      30.943  25.067  26.794  1.00  0.00     0.188 C 
BRANCH   3   4
ATOM      4  C   UNL A   1      32.300  24.422  27.120  1.00  0.00     0.188 C 
BRANCH   4   5
ATOM      5  O   UNL A   1      32.200  23.069  27.561  1.00  0.00    -0.376 OA
BRANCH   5   6
ATOM      6  C   UNL A   1      32.846  22.083  26.762  1.00  0.00     0.202 C 
BRANCH   6   7
ATOM      7  C   UNL A   1      32.951  22.398  25.262  1.00  0.00     0.261 C 
BRANCH   7   8
ATOM      8  O   UNL A   1      31.774  22.082  24.502  1.00  0.00    -0.460 OA
BRANCH   8   9
ATOM      9  C   UNL A   1      31.699  22.572  23.252  1.00  0.00     0.338 C 
ATOM     10  O   UNL A   1      31.691  21.937  22.211  1.00  0.00    -0.246 OA
BRANCH   9  11
ATOM     11  C   UNL A   1      31.436  24.024  23.346  1.00  0.00     0.087 C 
ATOM     12  C   UNL A   1      29.278  28.589  23.299  1.00  0.00    -0.020 A 
ATOM     13  C   UNL A   1      30.606  28.096  23.337  1.00  0.00     0.053 A 
ATOM     14  C   UNL A   1      28.259  27.632  23.516  1.00  0.00     0.045 A 
ATOM     15  C   UNL A   1      30.898  26.732  23.455  1.00  0.00     0.128 A 
ATOM     16  C   UNL A   1      28.558  26.267  23.653  1.00  0.00     0.032 A 
ATOM     17  Cl  UNL A   1      26.568  27.995  23.569  1.00  0.00    -0.084 Cl
ATOM     18  C   UNL A   1      29.870  25.810  23.563  1.00  0.00     0.019 A 
ATOM     19  O   UNL A   1      32.220  26.395  23.416  1.00  0.00    -0.475 OA
ATOM     20  C   UNL A   1      30.157  24.390  23.500  1.00  0.00     0.027 C 
ATOM     21  C   UNL A   1      32.593  24.989  23.324  1.00  0.00     0.316 C 
BRANCH  12  22
ATOM     22  C   UNL A   1      29.024  30.063  22.894  1.00  0.00    -0.012 C 
ATOM     23  C   UNL A   1      27.516  30.435  22.808  1.00  0.00     0.016 C 
ATOM     24  C   UNL A   1      29.611  30.439  21.517  1.00  0.00     0.016 C 
ATOM     25  C   UNL A   1      29.623  30.972  23.992  1.00  0.00     0.016 C 
ENDBRANCH  12  22
BRANCH  21  26
ATOM     26  C   UNL A   1      33.473  24.811  22.077  1.00  0.00     0.430 C 
ATOM     27  F   UNL A   1      34.406  23.848  22.269  1.00  0.00    -0.167 F 
ATOM     28  F   UNL A   1      32.753  24.454  20.991  1.00  0.00    -0.167 F 
ATOM     29  F   UNL A   1      34.131  25.955  21.770  1.00  0.00    -0.167 F 
ENDBRANCH  21  26
ENDBRANCH   9  11
ENDBRANCH   8   9
ENDBRANCH   7   8
ENDBRANCH   6   7
ENDBRANCH   5   6
ENDBRANCH   4   5
ENDBRANCH   3   4
ENDBRANCH   2   3
ENDBRANCH   1   2
BRANCH   1  30
ATOM     30  C   UNL A   1      32.473  28.360  27.270  1.00  0.00     0.188 C 
BRANCH  30  31
ATOM     31  O   UNL A   1      32.848  29.491  26.487  1.00  0.00    -0.376 OA
BRANCH  31  32
ATOM     32  C   UNL A   1      33.043  30.709  27.192  1.00  0.00     0.202 C 
BRANCH  32  33
ATOM     33  C   UNL A   1      34.510  30.981  27.538  1.00  0.00     0.261 C 
BRANCH  33  34
ATOM     34  O   UNL A   1      34.770  32.274  28.103  1.00  0.00    -0.460 OA
BRANCH  34  35
ATOM     35  C   UNL A   1      34.937  32.357  29.443  1.00  0.00     0.338 C 
ATOM     36  O   UNL A   1      34.122  32.737  30.265  1.00  0.00    -0.246 OA
BRANCH  35  37
ATOM     37  C   UNL A   1      36.231  31.716  29.748  1.00  0.00     0.060 A 
ATOM     38  C   UNL A   1      37.410  32.250  29.221  1.00  0.00     0.016 A 
ATOM     39  C   UNL A   1      36.258  30.534  30.498  1.00  0.00     0.016 A 
ATOM     40  C   UNL A   1      38.622  31.603  29.452  1.00  0.00     0.010 A 
ATOM     41  C   UNL A   1      37.473  29.882  30.720  1.00  0.00     0.010 A 
ATOM     42  C   UNL A   1      38.663  30.420  30.208  1.00  0.00    -0.014 A 
BRANCH  42  43
ATOM     43  C   UNL A   1      39.978  29.864  30.603  1.00  0.00     0.031 A 
ATOM     44  C   UNL A   1      40.703  30.319  31.832  1.00  0.00     0.074 A 
ATOM     45  C   UNL A   1      40.507  28.907  29.818  1.00  0.00     0.049 A 
ATOM     46  N   UNL A   1      41.803  29.838  32.350  1.00  0.00    -0.248 NA
ATOM     47  C   UNL A   1      40.131  31.453  32.573  1.00  0.00     0.031 C 
ATOM     48  C   UNL A   1      39.904  28.418  28.576  1.00  0.00     0.029 A 
ATOM     49  N   UNL A   1      41.660  28.179  29.943  1.00  0.00    -0.354 N 
ATOM     50  C   UNL A   1      42.061  30.604  33.478  1.00  0.00     0.074 A 
ATOM     51  C   UNL A   1      41.009  31.597  33.560  1.00  0.00     0.031 C 
ATOM     52  C   UNL A   1      40.690  27.463  28.056  1.00  0.00     0.029 A 
ATOM     53  C   UNL A   1      41.851  27.280  28.923  1.00  0.00     0.049 A 
ATOM     54  H   UNL A   1      42.290  28.288  30.691  1.00  0.00     0.167 HD
ATOM     55  C   UNL A   1      43.073  30.472  34.370  1.00  0.00     0.034 A 
ATOM     56  C   UNL A   1      42.843  26.395  28.708  1.00  0.00     0.034 A 
ATOM     57  C   UNL A   1      44.106  29.472  34.290  1.00  0.00     0.049 A 
ATOM     58  C   UNL A   1      43.948  26.270  29.715  1.00  0.00     0.074 A 
ATOM     59  C   UNL A   1      45.128  29.222  35.190  1.00  0.00     0.029 A 
ATOM     60  N   UNL A   1      44.262  28.569  33.250  1.00  0.00    -0.354 N 
ATOM     61  N   UNL A   1      44.096  26.904  30.852  1.00  0.00    -0.248 NA
ATOM     62  C   UNL A   1      45.005  25.291  29.427  1.00  0.00     0.031 C 
ATOM     63  C   UNL A   1      45.911  28.178  34.687  1.00  0.00     0.029 A 
ATOM     64  C   UNL A   1      45.372  27.772  33.478  1.00  0.00     0.049 A 
ATOM     65  H   UNL A   1      43.672  28.505  32.465  1.00  0.00     0.167 HD
ATOM     66  C   UNL A   1      45.253  26.394  31.423  1.00  0.00     0.074 A 
ATOM     67  C   UNL A   1      45.759  25.383  30.516  1.00  0.00     0.031 C 
ATOM     68  C   UNL A   1      45.850  26.746  32.587  1.00  0.00     0.034 A 
BRANCH  55  69
ATOM     69  C   UNL A   1      43.092  31.385  35.566  1.00  0.00     0.023 A 
ATOM     70  C   UNL A   1      42.532  30.931  36.776  1.00  0.00     0.012 A 
ATOM     71  C   UNL A   1      43.777  32.615  35.534  1.00  0.00     0.148 A 
ATOM     72  C   UNL A   1      42.649  31.690  37.939  1.00  0.00     0.002 A 
ATOM     73  C   UNL A   1      43.912  33.355  36.704  1.00  0.00     0.091 A 
ATOM     74  F   UNL A   1      44.294  33.027  34.369  1.00  0.00    -0.205 F 
ATOM     75  C   UNL A   1      43.348  32.894  37.906  1.00  0.00     0.022 A 
BRANCH  73  76
ATOM     76  S   UNL A   1      44.837  34.892  36.785  1.00  0.00     0.127 S 
ATOM     77  O   UNL A   1      45.118  34.991  38.217  1.00  0.00    -0.237 OA
ATOM     78  O   UNL A   1      46.003  34.594  35.954  1.00  0.00    -0.237 OA
ATOM     79  O   UNL A   1      43.955  35.923  36.256  1.00  0.00    -0.744 OA
ENDBRANCH  73  76
ENDBRANCH  55  69
BRANCH  56  80
ATOM     80  C   UNL A   1      42.775  25.513  27.515  1.00  0.00     0.023 A 
ATOM     81  C   UNL A   1      43.419  25.912  26.329  1.00  0.00     0.012 A 
ATOM     82  C   UNL A   1      42.161  24.249  27.582  1.00  0.00     0.148 A 
ATOM     83  C   UNL A   1      43.448  25.064  25.223  1.00  0.00     0.002 A 
ATOM     84  C   UNL A   1      42.227  23.394  26.490  1.00  0.00     0.091 A 
ATOM     85  F   UNL A   1      41.557  23.899  28.726  1.00  0.00    -0.205 F 
ATOM     86  C   UNL A   1      42.863  23.803  25.306  1.00  0.00     0.022 A 
BRANCH  84  87
ATOM     87  S   UNL A   1      41.600  21.712  26.536  1.00  0.00     0.127 S 
ATOM     88  O   UNL A   1      42.271  21.112  25.385  1.00  0.00    -0.237 OA
ATOM     89  O   UNL A   1      42.080  21.250  27.839  1.00  0.00    -0.237 OA
ATOM     90  O   UNL A   1      40.152  21.824  26.428  1.00  0.00    -0.744 OA
ENDBRANCH  84  87
ENDBRANCH  56  80
BRANCH  68  91
ATOM     91  C   UNL A   1      47.130  26.050  32.960  1.00  0.00     0.023 A 
ATOM     92  C   UNL A   1      48.359  26.657  32.639  1.00  0.00     0.012 A 
ATOM     93  C   UNL A   1      47.117  24.861  33.714  1.00  0.00     0.148 A 
ATOM     94  C   UNL A   1      49.559  26.087  33.057  1.00  0.00     0.002 A 
ATOM     95  C   UNL A   1      48.317  24.315  34.156  1.00  0.00     0.091 A 
ATOM     96  F   UNL A   1      45.934  24.297  33.997  1.00  0.00    -0.205 F 
ATOM     97  C   UNL A   1      49.538  24.925  33.824  1.00  0.00     0.022 A 
BRANCH  95  98
ATOM     98  S   UNL A   1      48.394  22.859  35.205  1.00  0.00     0.127 S 
ATOM     99  O   UNL A   1      48.249  23.445  36.538  1.00  0.00    -0.237 OA
ATOM    100  O   UNL A   1      47.237  22.088  34.749  1.00  0.00    -0.237 OA
ATOM    101  O   UNL A   1      49.683  22.237  34.941  1.00  0.00    -0.744 OA
ENDBRANCH  95  98
ENDBRANCH  68  91
ENDBRANCH  42  43
ENDBRANCH  35  37
ENDBRANCH  34  35
ENDBRANCH  33  34
ENDBRANCH  32  33
ENDBRANCH  31  32
ENDBRANCH  30  31
ENDBRANCH   1  30
TORSDOF 25
ENDMDL
