MODEL 1
REMARK VINA RESULT:      -7.5      0.000      0.000
REMARK SMILES Cc1ccc(OCCn2ccnc2)c(/C=C/C(=O)OCCOCCOCCOCCOC(=O)c2ccc(-c3c4nc(c(-c5cccc(S(=O)(=O)[O-])c5F)c5ccc([nH]5)c(-c5cccc(S(=O)(=O)[O-])c5F)c5nc(c(-c6cccc(S(=O)(=O)[O-])c6F)c6ccc3[nH]6)C=C5)C=C4)cc2)n1
REMARK SMILES IDX 24 1 23 2 22 3 21 4 20 5 19 6 17 7 18 8 16 9 15 10 14 11
REMARK SMILES IDX 1 12 2 13 3 14 97 15 4 16 5 17 6 18 7 19 8 20 9 21 10 22
REMARK SMILES IDX 13 23 11 24 12 25 25 26 26 27 27 28 28 29 29 30 30 31 31 32
REMARK SMILES IDX 32 33 33 34 34 35 35 36 96 37 36 38 95 39 37 40 38 41 39 42
REMARK SMILES IDX 89 43 40 44 94 45 88 46 90 47 41 48 93 49 87 50 86 51 42 53
REMARK SMILES IDX 74 54 54 55 73 56 55 57 58 58 72 59 91 60 56 61 57 62 71 64
REMARK SMILES IDX 92 65 59 66 43 67 44 68 52 69 45 70 47 71 53 72 46 73 48 74
REMARK SMILES IDX 49 75 50 76 51 77 75 78 76 79 84 80 77 81 79 82 85 83 78 84
REMARK SMILES IDX 80 85 81 86 82 87 83 88 60 89 61 90 69 91 62 92 64 93 70 94
REMARK SMILES IDX 63 95 65 96 66 97 67 98 68 99
REMARK H PARENT 90 52 58 63
REMARK Flexibility Score: inf
ROOT
ATOM      1  C   UNL A   1      35.709  31.181  28.406  1.00  0.00     0.188 C 
ENDROOT
BRANCH   1   2
ATOM      2  C   UNL A   1      35.924  29.844  27.663  1.00  0.00     0.188 C 
BRANCH   2   3
ATOM      3  O   UNL A   1      34.890  28.872  27.551  1.00  0.00    -0.376 OA
BRANCH   3   4
ATOM      4  C   UNL A   1      34.039  28.802  26.420  1.00  0.00     0.202 C 
BRANCH   4   5
ATOM      5  C   UNL A   1      33.399  27.497  25.920  1.00  0.00     0.261 C 
BRANCH   5   6
ATOM      6  O   UNL A   1      32.154  27.119  26.504  1.00  0.00    -0.460 OA
BRANCH   6   7
ATOM      7  C   UNL A   1      31.844  25.807  26.439  1.00  0.00     0.330 C 
ATOM      8  O   UNL A   1      30.734  25.315  26.564  1.00  0.00    -0.247 OA
BRANCH   7   9
ATOM      9  C   UNL A   1      33.021  25.014  26.031  1.00  0.00     0.096 C 
ATOM     10  C   UNL A   1      33.158  23.691  26.226  1.00  0.00     0.040 C 
BRANCH  10  11
ATOM     11  C   UNL A   1      34.406  22.963  25.925  1.00  0.00     0.105 A 
ATOM     12  C   UNL A   1      37.967  23.906  25.928  1.00  0.00     0.067 C 
ATOM     13  C   UNL A   1      36.730  23.066  25.846  1.00  0.00     0.038 A 
ATOM     14  C   UNL A   1      36.816  21.713  25.560  1.00  0.00     0.027 A 
ATOM     15  N   UNL A   1      35.549  23.686  26.073  1.00  0.00    -0.250 NA
ATOM     16  C   UNL A   1      35.640  20.982  25.407  1.00  0.00     0.050 A 
ATOM     17  C   UNL A   1      34.406  21.621  25.521  1.00  0.00     0.145 A 
BRANCH  17  18
ATOM     18  O   UNL A   1      33.210  21.027  25.218  1.00  0.00    -0.489 OA
BRANCH  18  19
ATOM     19  C   UNL A   1      33.099  20.368  23.947  1.00  0.00     0.251 C 
BRANCH  19  20
ATOM     20  C   UNL A   1      32.236  19.098  23.983  1.00  0.00     0.164 C 
BRANCH  20  21
ATOM     21  N   UNL A   1      32.940  17.896  24.385  1.00  0.00    -0.334 N 
ATOM     22  C   UNL A   1      32.748  17.194  25.543  1.00  0.00     0.107 A 
ATOM     23  C   UNL A   1      33.929  17.265  23.684  1.00  0.00     0.199 A 
ATOM     24  C   UNL A   1      33.573  16.100  25.438  1.00  0.00     0.130 A 
ATOM     25  N   UNL A   1      34.319  16.165  24.289  1.00  0.00    -0.245 NA
ENDBRANCH  20  21
ENDBRANCH  19  20
ENDBRANCH  18  19
ENDBRANCH  17  18
ENDBRANCH  10  11
ENDBRANCH   7   9
ENDBRANCH   6   7
ENDBRANCH   5   6
ENDBRANCH   4   5
ENDBRANCH   3   4
ENDBRANCH   2   3
ENDBRANCH   1   2
BRANCH   1  26
ATOM     26  O   UNL A   1      35.152  32.208  27.601  1.00  0.00    -0.377 OA
BRANCH  26  27
ATOM     27  C   UNL A   1      35.098  33.507  28.190  1.00  0.00     0.188 C 
BRANCH  27  28
ATOM     28  C   UNL A   1      36.161  33.878  29.255  1.00  0.00     0.188 C 
BRANCH  28  29
ATOM     29  O   UNL A   1      35.633  34.407  30.466  1.00  0.00    -0.376 OA
BRANCH  29  30
ATOM     30  C   UNL A   1      34.453  33.875  31.044  1.00  0.00     0.202 C 
BRANCH  30  31
ATOM     31  C   UNL A   1      34.623  32.866  32.171  1.00  0.00     0.261 C 
BRANCH  31  32
ATOM     32  O   UNL A   1      35.728  33.133  33.013  1.00  0.00    -0.460 OA
BRANCH  32  33
ATOM     33  C   UNL A   1      36.714  32.218  32.946  1.00  0.00     0.338 C 
ATOM     34  O   UNL A   1      36.614  31.024  32.739  1.00  0.00    -0.246 OA
BRANCH  33  35
ATOM     35  C   UNL A   1      37.948  32.879  33.344  1.00  0.00     0.060 A 
ATOM     36  C   UNL A   1      38.120  34.197  32.924  1.00  0.00     0.016 A 
ATOM     37  C   UNL A   1      39.004  32.073  33.798  1.00  0.00     0.016 A 
ATOM     38  C   UNL A   1      39.406  34.653  32.770  1.00  0.00     0.010 A 
ATOM     39  C   UNL A   1      40.282  32.515  33.606  1.00  0.00     0.010 A 
ATOM     40  C   UNL A   1      40.460  33.772  33.033  1.00  0.00    -0.014 A 
BRANCH  40  41
ATOM     41  C   UNL A   1      41.807  34.262  32.873  1.00  0.00     0.031 A 
ATOM     42  C   UNL A   1      42.296  34.015  31.498  1.00  0.00     0.074 A 
ATOM     43  C   UNL A   1      42.409  34.964  33.853  1.00  0.00     0.049 A 
ATOM     44  N   UNL A   1      43.273  33.256  31.133  1.00  0.00    -0.248 NA
ATOM     45  C   UNL A   1      41.450  34.474  30.377  1.00  0.00     0.031 C 
ATOM     46  C   UNL A   1      41.786  35.430  35.100  1.00  0.00     0.029 A 
ATOM     47  N   UNL A   1      43.635  35.555  33.881  1.00  0.00    -0.354 N 
ATOM     48  C   UNL A   1      43.332  33.406  29.748  1.00  0.00     0.074 A 
ATOM     49  C   UNL A   1      42.055  33.905  29.337  1.00  0.00     0.031 C 
ATOM     50  C   UNL A   1      42.531  36.431  35.617  1.00  0.00     0.029 A 
ATOM     51  C   UNL A   1      43.721  36.598  34.803  1.00  0.00     0.049 A 
ATOM     52  H   UNL A   1      44.384  35.276  33.307  1.00  0.00     0.167 HD
ATOM     53  C   UNL A   1      44.541  33.501  29.135  1.00  0.00     0.034 A 
ATOM     54  C   UNL A   1      44.648  37.587  34.820  1.00  0.00     0.034 A 
ATOM     55  C   UNL A   1      45.574  32.955  29.981  1.00  0.00     0.049 A 
ATOM     56  C   UNL A   1      45.784  37.134  33.988  1.00  0.00     0.074 A 
ATOM     57  C   UNL A   1      45.866  31.719  30.515  1.00  0.00     0.029 A 
ATOM     58  N   UNL A   1      46.253  33.893  30.713  1.00  0.00    -0.354 N 
ATOM     59  N   UNL A   1      46.579  36.155  34.315  1.00  0.00    -0.248 NA
ATOM     60  C   UNL A   1      45.837  37.545  32.590  1.00  0.00     0.031 C 
ATOM     61  C   UNL A   1      46.537  31.983  31.744  1.00  0.00     0.029 A 
ATOM     62  C   UNL A   1      46.682  33.364  31.895  1.00  0.00     0.049 A 
ATOM     63  H   UNL A   1      46.410  34.821  30.426  1.00  0.00     0.167 HD
ATOM     64  C   UNL A   1      46.864  35.539  33.107  1.00  0.00     0.074 A 
ATOM     65  C   UNL A   1      46.543  36.529  32.088  1.00  0.00     0.031 C 
ATOM     66  C   UNL A   1      47.012  34.184  33.042  1.00  0.00     0.034 A 
BRANCH  53  67
ATOM     67  C   UNL A   1      44.880  34.545  28.075  1.00  0.00     0.023 A 
ATOM     68  C   UNL A   1      45.644  34.088  26.975  1.00  0.00     0.012 A 
ATOM     69  C   UNL A   1      44.782  35.950  28.231  1.00  0.00     0.148 A 
ATOM     70  C   UNL A   1      46.342  34.970  26.142  1.00  0.00     0.002 A 
ATOM     71  C   UNL A   1      45.422  36.826  27.361  1.00  0.00     0.091 A 
ATOM     72  F   UNL A   1      44.163  36.479  29.285  1.00  0.00    -0.205 F 
ATOM     73  C   UNL A   1      46.233  36.340  26.336  1.00  0.00     0.022 A 
BRANCH  71  74
ATOM     74  S   UNL A   1      45.289  38.612  27.548  1.00  0.00     0.127 S 
ATOM     75  O   UNL A   1      45.324  38.757  29.000  1.00  0.00    -0.237 OA
ATOM     76  O   UNL A   1      46.489  39.070  26.847  1.00  0.00    -0.237 OA
ATOM     77  O   UNL A   1      44.038  38.993  26.904  1.00  0.00    -0.744 OA
ENDBRANCH  71  74
ENDBRANCH  53  67
BRANCH  54  78
ATOM     78  C   UNL A   1      44.557  38.991  35.293  1.00  0.00     0.023 A 
ATOM     79  C   UNL A   1      45.379  39.412  36.360  1.00  0.00     0.012 A 
ATOM     80  C   UNL A   1      43.887  39.984  34.546  1.00  0.00     0.148 A 
ATOM     81  C   UNL A   1      45.566  40.771  36.640  1.00  0.00     0.002 A 
ATOM     82  C   UNL A   1      44.063  41.334  34.837  1.00  0.00     0.091 A 
ATOM     83  F   UNL A   1      43.153  39.615  33.488  1.00  0.00    -0.205 F 
ATOM     84  C   UNL A   1      44.914  41.732  35.874  1.00  0.00     0.022 A 
BRANCH  82  85
ATOM     85  S   UNL A   1      43.267  42.630  33.877  1.00  0.00     0.127 S 
ATOM     86  O   UNL A   1      41.852  42.408  34.180  1.00  0.00    -0.237 OA
ATOM     87  O   UNL A   1      43.838  43.837  34.468  1.00  0.00    -0.237 OA
ATOM     88  O   UNL A   1      43.627  42.373  32.488  1.00  0.00    -0.744 OA
ENDBRANCH  82  85
ENDBRANCH  54  78
BRANCH  66  89
ATOM     89  C   UNL A   1      47.370  33.455  34.305  1.00  0.00     0.023 A 
ATOM     90  C   UNL A   1      48.684  33.353  34.800  1.00  0.00     0.012 A 
ATOM     91  C   UNL A   1      46.303  32.985  35.088  1.00  0.00     0.148 A 
ATOM     92  C   UNL A   1      48.925  32.779  36.052  1.00  0.00     0.002 A 
ATOM     93  C   UNL A   1      46.540  32.472  36.353  1.00  0.00     0.091 A 
ATOM     94  F   UNL A   1      45.060  33.077  34.589  1.00  0.00    -0.205 F 
ATOM     95  C   UNL A   1      47.852  32.355  36.836  1.00  0.00     0.022 A 
BRANCH  93  96
ATOM     96  S   UNL A   1      45.185  32.050  37.449  1.00  0.00     0.127 S 
ATOM     97  O   UNL A   1      45.813  32.151  38.764  1.00  0.00    -0.237 OA
ATOM     98  O   UNL A   1      44.205  33.097  37.155  1.00  0.00    -0.237 OA
ATOM     99  O   UNL A   1      44.757  30.713  37.056  1.00  0.00    -0.744 OA
ENDBRANCH  93  96
ENDBRANCH  66  89
ENDBRANCH  40  41
ENDBRANCH  33  35
ENDBRANCH  32  33
ENDBRANCH  31  32
ENDBRANCH  30  31
ENDBRANCH  29  30
ENDBRANCH  28  29
ENDBRANCH  27  28
ENDBRANCH  26  27
ENDBRANCH   1  26
TORSDOF 28
ENDMDL
MODEL 2
REMARK VINA RESULT:      -7.5      5.374     10.956
REMARK SMILES Cc1ccc(OCCn2ccnc2)c(/C=C/C(=O)OCCOCCOCCOCCOC(=O)c2ccc(-c3c4nc(c(-c5cccc(S(=O)(=O)[O-])c5F)c5ccc([nH]5)c(-c5cccc(S(=O)(=O)[O-])c5F)c5nc(c(-c6cccc(S(=O)(=O)[O-])c6F)c6ccc3[nH]6)C=C5)C=C4)cc2)n1
REMARK SMILES IDX 24 1 23 2 22 3 21 4 20 5 19 6 17 7 18 8 16 9 15 10 14 11
REMARK SMILES IDX 1 12 2 13 3 14 97 15 4 16 5 17 6 18 7 19 8 20 9 21 10 22
REMARK SMILES IDX 13 23 11 24 12 25 25 26 26 27 27 28 28 29 29 30 30 31 31 32
REMARK SMILES IDX 32 33 33 34 34 35 35 36 96 37 36 38 95 39 37 40 38 41 39 42
REMARK SMILES IDX 89 43 40 44 94 45 88 46 90 47 41 48 93 49 87 50 86 51 42 53
REMARK SMILES IDX 74 54 54 55 73 56 55 57 58 58 72 59 91 60 56 61 57 62 71 64
REMARK SMILES IDX 92 65 59 66 43 67 44 68 52 69 45 70 47 71 53 72 46 73 48 74
REMARK SMILES IDX 49 75 50 76 51 77 75 78 76 79 84 80 77 81 79 82 85 83 78 84
REMARK SMILES IDX 80 85 81 86 82 87 83 88 60 89 61 90 69 91 62 92 64 93 70 94
REMARK SMILES IDX 63 95 65 96 66 97 67 98 68 99
REMARK H PARENT 90 52 58 63
REMARK Flexibility Score: inf
ROOT
ATOM      1  C   UNL A   1      33.864  23.203  25.723  1.00  0.00     0.188 C 
ENDROOT
BRANCH   1   2
ATOM      2  C   UNL A   1      33.157  24.340  26.492  1.00  0.00     0.188 C 
BRANCH   2   3
ATOM      3  O   UNL A   1      32.488  25.400  25.819  1.00  0.00    -0.376 OA
BRANCH   3   4
ATOM      4  C   UNL A   1      32.352  26.690  26.388  1.00  0.00     0.202 C 
BRANCH   4   5
ATOM      5  C   UNL A   1      32.399  27.989  25.567  1.00  0.00     0.261 C 
BRANCH   5   6
ATOM      6  O   UNL A   1      33.586  28.774  25.665  1.00  0.00    -0.460 OA
BRANCH   6   7
ATOM      7  C   UNL A   1      33.485  29.908  26.391  1.00  0.00     0.330 C 
ATOM      8  O   UNL A   1      32.487  30.598  26.528  1.00  0.00    -0.247 OA
BRANCH   7   9
ATOM      9  C   UNL A   1      34.726  30.149  27.155  1.00  0.00     0.096 C 
ATOM     10  C   UNL A   1      34.770  30.525  28.444  1.00  0.00     0.040 C 
BRANCH  10  11
ATOM     11  C   UNL A   1      36.026  30.885  29.129  1.00  0.00     0.105 A 
ATOM     12  C   UNL A   1      38.797  28.927  30.565  1.00  0.00     0.067 C 
ATOM     13  C   UNL A   1      37.994  30.100  30.094  1.00  0.00     0.038 A 
ATOM     14  C   UNL A   1      38.467  31.391  30.267  1.00  0.00     0.027 A 
ATOM     15  N   UNL A   1      36.812  29.835  29.493  1.00  0.00    -0.250 NA
ATOM     16  C   UNL A   1      37.655  32.460  29.896  1.00  0.00     0.050 A 
ATOM     17  C   UNL A   1      36.382  32.218  29.380  1.00  0.00     0.145 A 
BRANCH  17  18
ATOM     18  O   UNL A   1      35.454  33.199  29.151  1.00  0.00    -0.489 OA
BRANCH  18  19
ATOM     19  C   UNL A   1      34.461  33.423  30.164  1.00  0.00     0.251 C 
BRANCH  19  20
ATOM     20  C   UNL A   1      33.613  34.682  29.930  1.00  0.00     0.164 C 
BRANCH  20  21
ATOM     21  N   UNL A   1      33.625  35.635  31.024  1.00  0.00    -0.334 N 
ATOM     22  C   UNL A   1      34.219  35.460  32.243  1.00  0.00     0.107 A 
ATOM     23  C   UNL A   1      33.030  36.865  31.032  1.00  0.00     0.199 A 
ATOM     24  C   UNL A   1      34.037  36.652  32.902  1.00  0.00     0.130 A 
ATOM     25  N   UNL A   1      33.278  37.511  32.150  1.00  0.00    -0.245 NA
ENDBRANCH  20  21
ENDBRANCH  19  20
ENDBRANCH  18  19
ENDBRANCH  17  18
ENDBRANCH  10  11
ENDBRANCH   7   9
ENDBRANCH   6   7
ENDBRANCH   5   6
ENDBRANCH   4   5
ENDBRANCH   3   4
ENDBRANCH   2   3
ENDBRANCH   1   2
BRANCH   1  26
ATOM     26  O   UNL A   1      33.435  21.901  26.089  1.00  0.00    -0.377 OA
BRANCH  26  27
ATOM     27  C   UNL A   1      34.047  20.818  25.390  1.00  0.00     0.188 C 
BRANCH  27  28
ATOM     28  C   UNL A   1      35.415  21.062  24.705  1.00  0.00     0.188 C 
BRANCH  28  29
ATOM     29  O   UNL A   1      36.528  21.106  25.590  1.00  0.00    -0.376 OA
BRANCH  29  30
ATOM     30  C   UNL A   1      37.701  21.828  25.256  1.00  0.00     0.202 C 
BRANCH  30  31
ATOM     31  C   UNL A   1      38.969  21.490  26.028  1.00  0.00     0.261 C 
BRANCH  31  32
ATOM     32  O   UNL A   1      39.625  22.619  26.570  1.00  0.00    -0.460 OA
BRANCH  32  33
ATOM     33  C   UNL A   1      38.861  23.725  26.645  1.00  0.00     0.338 C 
ATOM     34  O   UNL A   1      37.687  23.845  26.354  1.00  0.00    -0.246 OA
BRANCH  33  35
ATOM     35  C   UNL A   1      39.738  24.838  26.981  1.00  0.00     0.060 A 
ATOM     36  C   UNL A   1      40.861  25.020  26.174  1.00  0.00     0.016 A 
ATOM     37  C   UNL A   1      39.605  25.415  28.253  1.00  0.00     0.016 A 
ATOM     38  C   UNL A   1      41.955  25.631  26.735  1.00  0.00     0.010 A 
ATOM     39  C   UNL A   1      40.707  25.986  28.822  1.00  0.00     0.010 A 
ATOM     40  C   UNL A   1      41.883  26.024  28.075  1.00  0.00    -0.014 A 
BRANCH  40  41
ATOM     41  C   UNL A   1      43.035  26.670  28.654  1.00  0.00     0.031 A 
ATOM     42  C   UNL A   1      43.103  28.090  28.240  1.00  0.00     0.074 A 
ATOM     43  C   UNL A   1      43.809  26.030  29.552  1.00  0.00     0.049 A 
ATOM     44  N   UNL A   1      44.013  28.660  27.525  1.00  0.00    -0.248 NA
ATOM     45  C   UNL A   1      41.898  28.921  28.440  1.00  0.00     0.031 C 
ATOM     46  C   UNL A   1      43.545  24.714  30.150  1.00  0.00     0.029 A 
ATOM     47  N   UNL A   1      44.891  26.473  30.249  1.00  0.00    -0.354 N 
ATOM     48  C   UNL A   1      43.621  29.996  27.461  1.00  0.00     0.074 A 
ATOM     49  C   UNL A   1      42.224  30.026  27.771  1.00  0.00     0.031 C 
ATOM     50  C   UNL A   1      44.270  24.591  31.282  1.00  0.00     0.029 A 
ATOM     51  C   UNL A   1      45.116  25.761  31.427  1.00  0.00     0.049 A 
ATOM     52  H   UNL A   1      45.457  27.222  29.952  1.00  0.00     0.167 HD
ATOM     53  C   UNL A   1      44.556  30.975  27.568  1.00  0.00     0.034 A 
ATOM     54  C   UNL A   1      45.860  26.165  32.486  1.00  0.00     0.034 A 
ATOM     55  C   UNL A   1      45.864  30.453  27.256  1.00  0.00     0.049 A 
ATOM     56  C   UNL A   1      46.733  27.261  32.013  1.00  0.00     0.074 A 
ATOM     57  C   UNL A   1      46.472  29.899  26.151  1.00  0.00     0.029 A 
ATOM     58  N   UNL A   1      46.602  30.099  28.355  1.00  0.00    -0.354 N 
ATOM     59  N   UNL A   1      47.715  27.096  31.174  1.00  0.00    -0.248 NA
ATOM     60  C   UNL A   1      46.295  28.638  32.203  1.00  0.00     0.031 C 
ATOM     61  C   UNL A   1      47.448  28.996  26.664  1.00  0.00     0.029 A 
ATOM     62  C   UNL A   1      47.444  29.067  28.059  1.00  0.00     0.049 A 
ATOM     63  H   UNL A   1      46.536  30.530  29.238  1.00  0.00     0.167 HD
ATOM     64  C   UNL A   1      47.694  28.248  30.404  1.00  0.00     0.074 A 
ATOM     65  C   UNL A   1      46.942  29.218  31.189  1.00  0.00     0.031 C 
ATOM     66  C   UNL A   1      47.997  28.196  29.075  1.00  0.00     0.034 A 
BRANCH  53  67
ATOM     67  C   UNL A   1      44.406  32.205  28.459  1.00  0.00     0.023 A 
ATOM     68  C   UNL A   1      44.239  31.954  29.842  1.00  0.00     0.012 A 
ATOM     69  C   UNL A   1      44.106  33.518  28.019  1.00  0.00     0.148 A 
ATOM     70  C   UNL A   1      43.720  32.919  30.712  1.00  0.00     0.002 A 
ATOM     71  C   UNL A   1      43.652  34.495  28.898  1.00  0.00     0.091 A 
ATOM     72  F   UNL A   1      44.141  33.830  26.725  1.00  0.00    -0.205 F 
ATOM     73  C   UNL A   1      43.423  34.190  30.240  1.00  0.00     0.022 A 
BRANCH  71  74
ATOM     74  S   UNL A   1      43.282  36.168  28.346  1.00  0.00     0.127 S 
ATOM     75  O   UNL A   1      41.988  35.983  27.697  1.00  0.00    -0.237 OA
ATOM     76  O   UNL A   1      43.245  36.894  29.615  1.00  0.00    -0.237 OA
ATOM     77  O   UNL A   1      44.380  36.555  27.468  1.00  0.00    -0.744 OA
ENDBRANCH  71  74
ENDBRANCH  53  67
BRANCH  54  78
ATOM     78  C   UNL A   1      45.729  25.859  33.932  1.00  0.00     0.023 A 
ATOM     79  C   UNL A   1      46.874  25.466  34.658  1.00  0.00     0.012 A 
ATOM     80  C   UNL A   1      44.573  26.208  34.663  1.00  0.00     0.148 A 
ATOM     81  C   UNL A   1      46.882  25.468  36.058  1.00  0.00     0.002 A 
ATOM     82  C   UNL A   1      44.580  26.195  36.055  1.00  0.00     0.091 A 
ATOM     83  F   UNL A   1      43.495  26.648  34.001  1.00  0.00    -0.205 F 
ATOM     84  C   UNL A   1      45.738  25.841  36.757  1.00  0.00     0.022 A 
BRANCH  82  85
ATOM     85  S   UNL A   1      43.144  26.681  37.024  1.00  0.00     0.127 S 
ATOM     86  O   UNL A   1      42.139  25.711  36.586  1.00  0.00    -0.237 OA
ATOM     87  O   UNL A   1      43.623  26.493  38.390  1.00  0.00    -0.237 OA
ATOM     88  O   UNL A   1      42.853  28.057  36.638  1.00  0.00    -0.744 OA
ENDBRANCH  82  85
ENDBRANCH  54  78
BRANCH  66  89
ATOM     89  C   UNL A   1      48.823  27.040  28.588  1.00  0.00     0.023 A 
ATOM     90  C   UNL A   1      48.274  25.823  28.142  1.00  0.00     0.012 A 
ATOM     91  C   UNL A   1      50.202  27.265  28.443  1.00  0.00     0.148 A 
ATOM     92  C   UNL A   1      49.094  24.843  27.574  1.00  0.00     0.002 A 
ATOM     93  C   UNL A   1      51.002  26.318  27.824  1.00  0.00     0.091 A 
ATOM     94  F   UNL A   1      50.706  28.426  28.890  1.00  0.00    -0.205 F 
ATOM     95  C   UNL A   1      50.454  25.098  27.398  1.00  0.00     0.022 A 
BRANCH  93  96
ATOM     96  S   UNL A   1      52.720  26.662  27.449  1.00  0.00     0.127 S 
ATOM     97  O   UNL A   1      53.139  25.432  26.780  1.00  0.00    -0.237 OA
ATOM     98  O   UNL A   1      52.624  27.833  26.576  1.00  0.00    -0.237 OA
ATOM     99  O   UNL A   1      53.362  26.930  28.731  1.00  0.00    -0.744 OA
ENDBRANCH  93  96
ENDBRANCH  66  89
ENDBRANCH  40  41
ENDBRANCH  33  35
ENDBRANCH  32  33
ENDBRANCH  31  32
ENDBRANCH  30  31
ENDBRANCH  29  30
ENDBRANCH  28  29
ENDBRANCH  27  28
ENDBRANCH  26  27
ENDBRANCH   1  26
TORSDOF 28
ENDMDL
MODEL 3
REMARK VINA RESULT:      -7.3      5.227     10.637
REMARK SMILES Cc1ccc(OCCn2ccnc2)c(/C=C/C(=O)OCCOCCOCCOCCOC(=O)c2ccc(-c3c4nc(c(-c5cccc(S(=O)(=O)[O-])c5F)c5ccc([nH]5)c(-c5cccc(S(=O)(=O)[O-])c5F)c5nc(c(-c6cccc(S(=O)(=O)[O-])c6F)c6ccc3[nH]6)C=C5)C=C4)cc2)n1
REMARK SMILES IDX 24 1 23 2 22 3 21 4 20 5 19 6 17 7 18 8 16 9 15 10 14 11
REMARK SMILES IDX 1 12 2 13 3 14 97 15 4 16 5 17 6 18 7 19 8 20 9 21 10 22
REMARK SMILES IDX 13 23 11 24 12 25 25 26 26 27 27 28 28 29 29 30 30 31 31 32
REMARK SMILES IDX 32 33 33 34 34 35 35 36 96 37 36 38 95 39 37 40 38 41 39 42
REMARK SMILES IDX 89 43 40 44 94 45 88 46 90 47 41 48 93 49 87 50 86 51 42 53
REMARK SMILES IDX 74 54 54 55 73 56 55 57 58 58 72 59 91 60 56 61 57 62 71 64
REMARK SMILES IDX 92 65 59 66 43 67 44 68 52 69 45 70 47 71 53 72 46 73 48 74
REMARK SMILES IDX 49 75 50 76 51 77 75 78 76 79 84 80 77 81 79 82 85 83 78 84
REMARK SMILES IDX 80 85 81 86 82 87 83 88 60 89 61 90 69 91 62 92 64 93 70 94
REMARK SMILES IDX 63 95 65 96 66 97 67 98 68 99
REMARK H PARENT 90 52 58 63
REMARK Flexibility Score: inf
ROOT
ATOM      1  C   UNL A   1      33.768  23.334  25.721  1.00  0.00     0.188 C 
ENDROOT
BRANCH   1   2
ATOM      2  C   UNL A   1      32.893  24.523  26.175  1.00  0.00     0.188 C 
BRANCH   2   3
ATOM      3  O   UNL A   1      32.361  25.461  25.247  1.00  0.00    -0.376 OA
BRANCH   3   4
ATOM      4  C   UNL A   1      31.661  26.621  25.663  1.00  0.00     0.202 C 
BRANCH   4   5
ATOM      5  C   UNL A   1      31.859  28.005  25.024  1.00  0.00     0.261 C 
BRANCH   5   6
ATOM      6  O   UNL A   1      32.097  29.099  25.909  1.00  0.00    -0.460 OA
BRANCH   6   7
ATOM      7  C   UNL A   1      33.351  29.198  26.401  1.00  0.00     0.330 C 
ATOM      8  O   UNL A   1      34.331  28.574  26.026  1.00  0.00    -0.247 OA
BRANCH   7   9
ATOM      9  C   UNL A   1      33.439  30.298  27.382  1.00  0.00     0.096 C 
ATOM     10  C   UNL A   1      34.472  31.152  27.483  1.00  0.00     0.040 C 
BRANCH  10  11
ATOM     11  C   UNL A   1      34.581  32.151  28.564  1.00  0.00     0.105 A 
ATOM     12  C   UNL A   1      33.140  35.500  29.092  1.00  0.00     0.067 C 
ATOM     13  C   UNL A   1      33.880  34.224  29.355  1.00  0.00     0.038 A 
ATOM     14  C   UNL A   1      34.548  34.033  30.554  1.00  0.00     0.027 A 
ATOM     15  N   UNL A   1      33.850  33.284  28.383  1.00  0.00    -0.250 NA
ATOM     16  C   UNL A   1      35.296  32.872  30.729  1.00  0.00     0.050 A 
ATOM     17  C   UNL A   1      35.378  31.937  29.698  1.00  0.00     0.145 A 
BRANCH  17  18
ATOM     18  O   UNL A   1      36.221  30.858  29.712  1.00  0.00    -0.489 OA
BRANCH  18  19
ATOM     19  C   UNL A   1      37.617  31.104  29.482  1.00  0.00     0.251 C 
BRANCH  19  20
ATOM     20  C   UNL A   1      38.528  29.944  29.912  1.00  0.00     0.164 C 
BRANCH  20  21
ATOM     21  N   UNL A   1      39.154  30.111  31.210  1.00  0.00    -0.334 N 
ATOM     22  C   UNL A   1      38.991  31.174  32.055  1.00  0.00     0.107 A 
ATOM     23  C   UNL A   1      40.027  29.245  31.804  1.00  0.00     0.199 A 
ATOM     24  C   UNL A   1      39.708  30.845  33.182  1.00  0.00     0.130 A 
ATOM     25  N   UNL A   1      40.366  29.655  33.007  1.00  0.00    -0.245 NA
ENDBRANCH  20  21
ENDBRANCH  19  20
ENDBRANCH  18  19
ENDBRANCH  17  18
ENDBRANCH  10  11
ENDBRANCH   7   9
ENDBRANCH   6   7
ENDBRANCH   5   6
ENDBRANCH   4   5
ENDBRANCH   3   4
ENDBRANCH   2   3
ENDBRANCH   1   2
BRANCH   1  26
ATOM     26  O   UNL A   1      33.315  22.071  26.183  1.00  0.00    -0.377 OA
BRANCH  26  27
ATOM     27  C   UNL A   1      33.908  20.928  25.569  1.00  0.00     0.188 C 
BRANCH  27  28
ATOM     28  C   UNL A   1      35.250  21.109  24.816  1.00  0.00     0.188 C 
BRANCH  28  29
ATOM     29  O   UNL A   1      36.395  21.222  25.653  1.00  0.00    -0.376 OA
BRANCH  29  30
ATOM     30  C   UNL A   1      37.566  21.885  25.207  1.00  0.00     0.202 C 
BRANCH  30  31
ATOM     31  C   UNL A   1      38.867  21.560  25.927  1.00  0.00     0.261 C 
BRANCH  31  32
ATOM     32  O   UNL A   1      39.526  22.694  26.454  1.00  0.00    -0.460 OA
BRANCH  32  33
ATOM     33  C   UNL A   1      38.761  23.799  26.531  1.00  0.00     0.338 C 
ATOM     34  O   UNL A   1      37.589  23.919  26.232  1.00  0.00    -0.246 OA
BRANCH  33  35
ATOM     35  C   UNL A   1      39.635  24.910  26.880  1.00  0.00     0.060 A 
ATOM     36  C   UNL A   1      40.750  25.113  26.068  1.00  0.00     0.016 A 
ATOM     37  C   UNL A   1      39.508  25.463  28.163  1.00  0.00     0.016 A 
ATOM     38  C   UNL A   1      41.845  25.720  26.631  1.00  0.00     0.010 A 
ATOM     39  C   UNL A   1      40.612  26.030  28.734  1.00  0.00     0.010 A 
ATOM     40  C   UNL A   1      41.781  26.088  27.979  1.00  0.00    -0.014 A 
BRANCH  40  41
ATOM     41  C   UNL A   1      42.935  26.730  28.560  1.00  0.00     0.031 A 
ATOM     42  C   UNL A   1      43.007  28.151  28.150  1.00  0.00     0.074 A 
ATOM     43  C   UNL A   1      43.706  26.086  29.458  1.00  0.00     0.049 A 
ATOM     44  N   UNL A   1      43.918  28.720  27.437  1.00  0.00    -0.248 NA
ATOM     45  C   UNL A   1      41.803  28.984  28.351  1.00  0.00     0.031 C 
ATOM     46  C   UNL A   1      43.438  24.769  30.051  1.00  0.00     0.029 A 
ATOM     47  N   UNL A   1      44.789  26.525  30.156  1.00  0.00    -0.354 N 
ATOM     48  C   UNL A   1      43.529  30.057  27.376  1.00  0.00     0.074 A 
ATOM     49  C   UNL A   1      42.132  30.090  27.685  1.00  0.00     0.031 C 
ATOM     50  C   UNL A   1      44.163  24.641  31.184  1.00  0.00     0.029 A 
ATOM     51  C   UNL A   1      45.011  25.809  31.333  1.00  0.00     0.049 A 
ATOM     52  H   UNL A   1      45.357  27.273  29.862  1.00  0.00     0.167 HD
ATOM     53  C   UNL A   1      44.467  31.034  27.486  1.00  0.00     0.034 A 
ATOM     54  C   UNL A   1      45.755  26.209  32.393  1.00  0.00     0.034 A 
ATOM     55  C   UNL A   1      45.774  30.509  27.175  1.00  0.00     0.049 A 
ATOM     56  C   UNL A   1      46.631  27.304  31.924  1.00  0.00     0.074 A 
ATOM     57  C   UNL A   1      46.381  29.957  26.069  1.00  0.00     0.029 A 
ATOM     58  N   UNL A   1      46.510  30.151  28.273  1.00  0.00    -0.354 N 
ATOM     59  N   UNL A   1      47.614  27.139  31.085  1.00  0.00    -0.248 NA
ATOM     60  C   UNL A   1      46.196  28.682  32.117  1.00  0.00     0.031 C 
ATOM     61  C   UNL A   1      47.355  29.050  26.580  1.00  0.00     0.029 A 
ATOM     62  C   UNL A   1      47.349  29.118  27.975  1.00  0.00     0.049 A 
ATOM     63  H   UNL A   1      46.444  30.579  29.157  1.00  0.00     0.167 HD
ATOM     64  C   UNL A   1      47.595  28.293  30.318  1.00  0.00     0.074 A 
ATOM     65  C   UNL A   1      46.845  29.262  31.106  1.00  0.00     0.031 C 
ATOM     66  C   UNL A   1      47.899  28.243  28.990  1.00  0.00     0.034 A 
BRANCH  53  67
ATOM     67  C   UNL A   1      44.319  32.262  28.381  1.00  0.00     0.023 A 
ATOM     68  C   UNL A   1      44.208  32.010  29.769  1.00  0.00     0.012 A 
ATOM     69  C   UNL A   1      43.972  33.567  27.950  1.00  0.00     0.148 A 
ATOM     70  C   UNL A   1      43.696  32.964  30.655  1.00  0.00     0.002 A 
ATOM     71  C   UNL A   1      43.526  34.534  28.843  1.00  0.00     0.091 A 
ATOM     72  F   UNL A   1      43.953  33.876  26.654  1.00  0.00    -0.205 F 
ATOM     73  C   UNL A   1      43.352  34.227  30.192  1.00  0.00     0.022 A 
BRANCH  71  74
ATOM     74  S   UNL A   1      43.097  36.197  28.302  1.00  0.00     0.127 S 
ATOM     75  O   UNL A   1      41.761  35.989  27.750  1.00  0.00    -0.237 OA
ATOM     76  O   UNL A   1      43.142  36.937  29.563  1.00  0.00    -0.237 OA
ATOM     77  O   UNL A   1      44.123  36.586  27.342  1.00  0.00    -0.744 OA
ENDBRANCH  71  74
ENDBRANCH  53  67
BRANCH  54  78
ATOM     78  C   UNL A   1      45.622  25.899  33.839  1.00  0.00     0.023 A 
ATOM     79  C   UNL A   1      46.764  25.496  34.564  1.00  0.00     0.012 A 
ATOM     80  C   UNL A   1      44.468  26.254  34.571  1.00  0.00     0.148 A 
ATOM     81  C   UNL A   1      46.773  25.494  35.964  1.00  0.00     0.002 A 
ATOM     82  C   UNL A   1      44.476  26.237  35.963  1.00  0.00     0.091 A 
ATOM     83  F   UNL A   1      43.394  26.703  33.911  1.00  0.00    -0.205 F 
ATOM     84  C   UNL A   1      45.631  25.872  36.664  1.00  0.00     0.022 A 
BRANCH  82  85
ATOM     85  S   UNL A   1      43.043  26.730  36.933  1.00  0.00     0.127 S 
ATOM     86  O   UNL A   1      43.026  28.180  36.737  1.00  0.00    -0.237 OA
ATOM     87  O   UNL A   1      41.963  26.009  36.265  1.00  0.00    -0.237 OA
ATOM     88  O   UNL A   1      43.330  26.316  38.301  1.00  0.00    -0.744 OA
ENDBRANCH  82  85
ENDBRANCH  54  78
BRANCH  66  89
ATOM     89  C   UNL A   1      48.724  27.086  28.500  1.00  0.00     0.023 A 
ATOM     90  C   UNL A   1      48.181  25.835  28.153  1.00  0.00     0.012 A 
ATOM     91  C   UNL A   1      50.082  27.339  28.247  1.00  0.00     0.148 A 
ATOM     92  C   UNL A   1      48.987  24.850  27.574  1.00  0.00     0.002 A 
ATOM     93  C   UNL A   1      50.864  26.384  27.619  1.00  0.00     0.091 A 
ATOM     94  F   UNL A   1      50.581  28.534  28.602  1.00  0.00    -0.205 F 
ATOM     95  C   UNL A   1      50.324  25.131  27.291  1.00  0.00     0.022 A 
BRANCH  93  96
ATOM     96  S   UNL A   1      52.541  26.753  27.107  1.00  0.00     0.127 S 
ATOM     97  O   UNL A   1      52.951  25.500  26.476  1.00  0.00    -0.237 OA
ATOM     98  O   UNL A   1      52.350  27.872  26.183  1.00  0.00    -0.237 OA
ATOM     99  O   UNL A   1      53.260  27.109  28.325  1.00  0.00    -0.744 OA
ENDBRANCH  93  96
ENDBRANCH  66  89
ENDBRANCH  40  41
ENDBRANCH  33  35
ENDBRANCH  32  33
ENDBRANCH  31  32
ENDBRANCH  30  31
ENDBRANCH  29  30
ENDBRANCH  28  29
ENDBRANCH  27  28
ENDBRANCH  26  27
ENDBRANCH   1  26
TORSDOF 28
ENDMDL
