MODEL 1
REMARK VINA RESULT:      -9.3      0.000      0.000
REMARK SMILES CC[C@@H]1CCCN1C(=O)N[C@H]1C=C[C@@H](C(=O)OCCOCCOCCOCCOC(=O)c2ccc(-c3c4nc(c(-c5cccc(S(=O)(=O)[O-])c5F)c5ccc([nH]5)c(-c5cccc(S(=O)(=O)[O-])c5F)c5nc(c(-c6cccc(S(=O)(=O)[O-])c6F)c6ccc3[nH]6)C=C5)C=C4)cc2)C1
REMARK SMILES IDX 23 1 22 2 21 3 20 4 19 5 18 6 17 7 15 8 16 9 14 10 11 11
REMARK SMILES IDX 12 12 95 13 13 14 10 15 8 16 9 17 7 19 3 20 4 21 5 22 6 23
REMARK SMILES IDX 2 24 1 25 24 26 25 27 26 28 27 29 28 30 29 31 30 32 31 33
REMARK SMILES IDX 32 34 33 35 94 36 34 37 93 38 35 39 36 40 37 41 87 42 38 43
REMARK SMILES IDX 92 44 86 45 88 46 39 47 91 48 85 49 84 50 40 52 72 53 52 54
REMARK SMILES IDX 71 55 53 56 56 57 70 58 89 59 54 60 55 61 69 63 90 64 57 65
REMARK SMILES IDX 41 66 42 67 50 68 43 69 45 70 51 71 44 72 46 73 47 74 48 75
REMARK SMILES IDX 49 76 73 77 74 78 82 79 75 80 77 81 83 82 76 83 78 84 79 85
REMARK SMILES IDX 80 86 81 87 58 88 59 89 67 90 60 91 62 92 68 93 61 94 63 95
REMARK SMILES IDX 64 96 65 97 66 98
REMARK H PARENT 10 18 88 51 56 62
REMARK Flexibility Score: inf
ROOT
ATOM      1  O   UNL A   1      39.603  23.028  27.274  1.00  0.00    -0.377 OA
ENDROOT
BRANCH   1   2
ATOM      2  C   UNL A   1      38.783  23.788  26.415  1.00  0.00     0.188 C 
BRANCH   2   3
ATOM      3  C   UNL A   1      37.500  23.086  25.941  1.00  0.00     0.188 C 
BRANCH   3   4
ATOM      4  O   UNL A   1      37.534  21.733  25.504  1.00  0.00    -0.376 OA
BRANCH   4   5
ATOM      5  C   UNL A   1      36.558  21.260  24.578  1.00  0.00     0.202 C 
BRANCH   5   6
ATOM      6  C   UNL A   1      35.223  20.682  25.093  1.00  0.00     0.261 C 
BRANCH   6   7
ATOM      7  O   UNL A   1      34.122  21.605  25.003  1.00  0.00    -0.463 OA
BRANCH   7   8
ATOM      8  C   UNL A   1      32.927  21.148  24.539  1.00  0.00     0.312 C 
ATOM      9  O   UNL A   1      32.233  20.317  25.111  1.00  0.00    -0.252 OA
BRANCH   8  10
ATOM     10  C   UNL A   1      32.454  21.982  23.330  1.00  0.00     0.124 C 
ATOM     11  C   UNL A   1      31.721  24.362  23.165  1.00  0.00     0.107 C 
ATOM     12  C   UNL A   1      33.109  24.151  22.673  1.00  0.00    -0.006 C 
ATOM     13  C   UNL A   1      31.293  22.951  23.599  1.00  0.00     0.048 C 
ATOM     14  C   UNL A   1      33.512  22.878  22.771  1.00  0.00    -0.014 C 
BRANCH  11  15
ATOM     15  N   UNL A   1      31.626  25.209  24.338  1.00  0.00    -0.332 N 
ATOM     16  C   UNL A   1      30.603  25.967  24.779  1.00  0.00     0.318 C 
ATOM     17  O   UNL A   1      29.824  25.448  25.581  1.00  0.00    -0.249 OA
ATOM     18  H   UNL A   1      32.436  25.235  24.898  1.00  0.00     0.165 HD
BRANCH  16  19
ATOM     19  N   UNL A   1      30.692  27.318  24.601  1.00  0.00    -0.322 N 
ATOM     20  C   UNL A   1      31.574  28.319  25.210  1.00  0.00     0.086 C 
ATOM     21  C   UNL A   1      31.124  29.655  24.590  1.00  0.00     0.027 C 
ATOM     22  C   UNL A   1      30.404  29.273  23.311  1.00  0.00     0.024 C 
ATOM     23  C   UNL A   1      29.784  27.937  23.650  1.00  0.00     0.122 C 
BRANCH  20  24
ATOM     24  C   UNL A   1      31.611  28.476  26.736  1.00  0.00     0.022 C 
ATOM     25  C   UNL A   1      32.575  29.510  27.293  1.00  0.00     0.006 C 
ENDBRANCH  20  24
ENDBRANCH  16  19
ENDBRANCH  11  15
ENDBRANCH   8  10
ENDBRANCH   7   8
ENDBRANCH   6   7
ENDBRANCH   5   6
ENDBRANCH   4   5
ENDBRANCH   3   4
ENDBRANCH   2   3
ENDBRANCH   1   2
BRANCH   1  26
ATOM     26  C   UNL A   1      40.768  22.439  26.712  1.00  0.00     0.188 C 
BRANCH  26  27
ATOM     27  C   UNL A   1      41.051  20.958  27.019  1.00  0.00     0.188 C 
BRANCH  27  28
ATOM     28  O   UNL A   1      41.558  20.212  25.914  1.00  0.00    -0.376 OA
BRANCH  28  29
ATOM     29  C   UNL A   1      42.088  18.914  26.169  1.00  0.00     0.202 C 
BRANCH  29  30
ATOM     30  C   UNL A   1      43.465  18.597  25.558  1.00  0.00     0.261 C 
BRANCH  30  31
ATOM     31  O   UNL A   1      43.828  19.362  24.398  1.00  0.00    -0.460 OA
BRANCH  31  32
ATOM     32  C   UNL A   1      45.006  20.024  24.423  1.00  0.00     0.338 C 
ATOM     33  O   UNL A   1      46.038  19.705  23.870  1.00  0.00    -0.246 OA
BRANCH  32  34
ATOM     34  C   UNL A   1      44.770  21.335  25.062  1.00  0.00     0.060 A 
ATOM     35  C   UNL A   1      44.379  22.403  24.246  1.00  0.00     0.016 A 
ATOM     36  C   UNL A   1      44.947  21.516  26.436  1.00  0.00     0.016 A 
ATOM     37  C   UNL A   1      44.219  23.673  24.794  1.00  0.00     0.010 A 
ATOM     38  C   UNL A   1      44.808  22.795  26.981  1.00  0.00     0.010 A 
ATOM     39  C   UNL A   1      44.491  23.884  26.152  1.00  0.00    -0.014 A 
BRANCH  39  40
ATOM     40  C   UNL A   1      44.679  25.272  26.630  1.00  0.00     0.031 A 
ATOM     41  C   UNL A   1      46.054  25.874  26.527  1.00  0.00     0.074 A 
ATOM     42  C   UNL A   1      43.651  25.997  27.106  1.00  0.00     0.049 A 
ATOM     43  N   UNL A   1      46.456  27.081  26.820  1.00  0.00    -0.248 NA
ATOM     44  C   UNL A   1      47.120  24.994  26.017  1.00  0.00     0.031 C 
ATOM     45  C   UNL A   1      42.276  25.524  27.250  1.00  0.00     0.029 A 
ATOM     46  N   UNL A   1      43.616  27.288  27.567  1.00  0.00    -0.354 N 
ATOM     47  C   UNL A   1      47.817  27.104  26.546  1.00  0.00     0.074 A 
ATOM     48  C   UNL A   1      48.180  25.784  26.079  1.00  0.00     0.031 C 
ATOM     49  C   UNL A   1      41.533  26.508  27.789  1.00  0.00     0.029 A 
ATOM     50  C   UNL A   1      42.383  27.673  28.034  1.00  0.00     0.049 A 
ATOM     51  H   UNL A   1      44.402  27.883  27.564  1.00  0.00     0.167 HD
ATOM     52  C   UNL A   1      48.687  28.135  26.651  1.00  0.00     0.034 A 
ATOM     53  C   UNL A   1      41.993  28.832  28.602  1.00  0.00     0.034 A 
ATOM     54  C   UNL A   1      48.325  29.447  27.108  1.00  0.00     0.049 A 
ATOM     55  C   UNL A   1      42.988  29.957  28.735  1.00  0.00     0.074 A 
ATOM     56  C   UNL A   1      49.125  30.570  27.221  1.00  0.00     0.029 A 
ATOM     57  N   UNL A   1      47.060  29.808  27.546  1.00  0.00    -0.354 N 
ATOM     58  N   UNL A   1      44.241  30.005  28.348  1.00  0.00    -0.248 NA
ATOM     59  C   UNL A   1      42.504  31.203  29.348  1.00  0.00     0.031 C 
ATOM     60  C   UNL A   1      48.347  31.606  27.750  1.00  0.00     0.029 A 
ATOM     61  C   UNL A   1      47.058  31.135  27.941  1.00  0.00     0.049 A 
ATOM     62  H   UNL A   1      46.280  29.210  27.572  1.00  0.00     0.167 HD
ATOM     63  C   UNL A   1      44.683  31.292  28.637  1.00  0.00     0.074 A 
ATOM     64  C   UNL A   1      43.556  31.999  29.211  1.00  0.00     0.031 C 
ATOM     65  C   UNL A   1      45.913  31.838  28.461  1.00  0.00     0.034 A 
BRANCH  52  66
ATOM     66  C   UNL A   1      50.112  27.884  26.237  1.00  0.00     0.023 A 
ATOM     67  C   UNL A   1      51.073  27.561  27.217  1.00  0.00     0.012 A 
ATOM     68  C   UNL A   1      50.491  27.929  24.883  1.00  0.00     0.148 A 
ATOM     69  C   UNL A   1      52.399  27.318  26.857  1.00  0.00     0.002 A 
ATOM     70  C   UNL A   1      51.803  27.644  24.528  1.00  0.00     0.091 A 
ATOM     71  F   UNL A   1      49.568  28.268  23.972  1.00  0.00    -0.205 F 
ATOM     72  C   UNL A   1      52.760  27.349  25.513  1.00  0.00     0.022 A 
BRANCH  70  73
ATOM     73  S   UNL A   1      52.352  27.590  22.819  1.00  0.00     0.127 S 
ATOM     74  O   UNL A   1      51.240  26.893  22.174  1.00  0.00    -0.237 OA
ATOM     75  O   UNL A   1      52.457  29.010  22.484  1.00  0.00    -0.237 OA
ATOM     76  O   UNL A   1      53.619  26.873  22.827  1.00  0.00    -0.744 OA
ENDBRANCH  70  73
ENDBRANCH  52  66
BRANCH  53  77
ATOM     77  C   UNL A   1      40.582  29.007  29.050  1.00  0.00     0.023 A 
ATOM     78  C   UNL A   1      39.596  29.381  28.115  1.00  0.00     0.012 A 
ATOM     79  C   UNL A   1      40.211  28.801  30.393  1.00  0.00     0.148 A 
ATOM     80  C   UNL A   1      38.274  29.577  28.516  1.00  0.00     0.002 A 
ATOM     81  C   UNL A   1      38.882  28.946  30.774  1.00  0.00     0.091 A 
ATOM     82  F   UNL A   1      41.167  28.465  31.270  1.00  0.00    -0.205 F 
ATOM     83  C   UNL A   1      37.915  29.350  29.842  1.00  0.00     0.022 A 
BRANCH  81  84
ATOM     84  S   UNL A   1      38.309  28.557  32.432  1.00  0.00     0.127 S 
ATOM     85  O   UNL A   1      36.924  29.016  32.385  1.00  0.00    -0.237 OA
ATOM     86  O   UNL A   1      38.476  27.103  32.474  1.00  0.00    -0.237 OA
ATOM     87  O   UNL A   1      39.189  29.288  33.333  1.00  0.00    -0.744 OA
ENDBRANCH  81  84
ENDBRANCH  53  77
BRANCH  65  88
ATOM     88  C   UNL A   1      46.104  33.278  28.861  1.00  0.00     0.023 A 
ATOM     89  C   UNL A   1      46.623  33.589  30.133  1.00  0.00     0.012 A 
ATOM     90  C   UNL A   1      45.835  34.320  27.952  1.00  0.00     0.148 A 
ATOM     91  C   UNL A   1      46.837  34.915  30.508  1.00  0.00     0.002 A 
ATOM     92  C   UNL A   1      46.097  35.637  28.314  1.00  0.00     0.091 A 
ATOM     93  F   UNL A   1      45.324  34.008  26.752  1.00  0.00    -0.205 F 
ATOM     94  C   UNL A   1      46.586  35.936  29.595  1.00  0.00     0.022 A 
BRANCH  92  95
ATOM     95  S   UNL A   1      45.895  37.004  27.166  1.00  0.00     0.127 S 
ATOM     96  O   UNL A   1      44.443  37.041  27.000  1.00  0.00    -0.237 OA
ATOM     97  O   UNL A   1      46.452  38.130  27.917  1.00  0.00    -0.237 OA
ATOM     98  O   UNL A   1      46.655  36.640  25.977  1.00  0.00    -0.744 OA
ENDBRANCH  92  95
ENDBRANCH  65  88
ENDBRANCH  39  40
ENDBRANCH  32  34
ENDBRANCH  31  32
ENDBRANCH  30  31
ENDBRANCH  29  30
ENDBRANCH  28  29
ENDBRANCH  27  28
ENDBRANCH  26  27
ENDBRANCH   1  26
TORSDOF 26
ENDMDL
MODEL 2
REMARK VINA RESULT:      -8.4      4.292      7.741
REMARK SMILES CC[C@@H]1CCCN1C(=O)N[C@H]1C=C[C@@H](C(=O)OCCOCCOCCOCCOC(=O)c2ccc(-c3c4nc(c(-c5cccc(S(=O)(=O)[O-])c5F)c5ccc([nH]5)c(-c5cccc(S(=O)(=O)[O-])c5F)c5nc(c(-c6cccc(S(=O)(=O)[O-])c6F)c6ccc3[nH]6)C=C5)C=C4)cc2)C1
REMARK SMILES IDX 23 1 22 2 21 3 20 4 19 5 18 6 17 7 15 8 16 9 14 10 11 11
REMARK SMILES IDX 12 12 95 13 13 14 10 15 8 16 9 17 7 19 3 20 4 21 5 22 6 23
REMARK SMILES IDX 2 24 1 25 24 26 25 27 26 28 27 29 28 30 29 31 30 32 31 33
REMARK SMILES IDX 32 34 33 35 94 36 34 37 93 38 35 39 36 40 37 41 87 42 38 43
REMARK SMILES IDX 92 44 86 45 88 46 39 47 91 48 85 49 84 50 40 52 72 53 52 54
REMARK SMILES IDX 71 55 53 56 56 57 70 58 89 59 54 60 55 61 69 63 90 64 57 65
REMARK SMILES IDX 41 66 42 67 50 68 43 69 45 70 51 71 44 72 46 73 47 74 48 75
REMARK SMILES IDX 49 76 73 77 74 78 82 79 75 80 77 81 83 82 76 83 78 84 79 85
REMARK SMILES IDX 80 86 81 87 58 88 59 89 67 90 60 91 62 92 68 93 61 94 63 95
REMARK SMILES IDX 64 96 65 97 66 98
REMARK H PARENT 10 18 88 51 56 62
REMARK Flexibility Score: inf
ROOT
ATOM      1  O   UNL A   1      40.188  24.648  28.313  1.00  0.00    -0.377 OA
ENDROOT
BRANCH   1   2
ATOM      2  C   UNL A   1      39.424  25.229  27.281  1.00  0.00     0.188 C 
BRANCH   2   3
ATOM      3  C   UNL A   1      38.187  24.424  26.848  1.00  0.00     0.188 C 
BRANCH   3   4
ATOM      4  O   UNL A   1      38.317  23.078  26.407  1.00  0.00    -0.376 OA
BRANCH   4   5
ATOM      5  C   UNL A   1      37.727  22.674  25.173  1.00  0.00     0.202 C 
BRANCH   5   6
ATOM      6  C   UNL A   1      36.495  21.747  25.174  1.00  0.00     0.261 C 
BRANCH   6   7
ATOM      7  O   UNL A   1      35.287  22.393  24.732  1.00  0.00    -0.463 OA
BRANCH   7   8
ATOM      8  C   UNL A   1      34.339  22.702  25.658  1.00  0.00     0.312 C 
ATOM      9  O   UNL A   1      34.541  23.383  26.656  1.00  0.00    -0.252 OA
BRANCH   8  10
ATOM     10  C   UNL A   1      32.937  22.285  25.167  1.00  0.00     0.124 C 
ATOM     11  C   UNL A   1      31.493  23.209  23.353  1.00  0.00     0.107 C 
ATOM     12  C   UNL A   1      32.175  21.947  22.961  1.00  0.00    -0.006 C 
ATOM     13  C   UNL A   1      31.992  23.435  24.790  1.00  0.00     0.048 C 
ATOM     14  C   UNL A   1      32.961  21.454  23.926  1.00  0.00    -0.014 C 
BRANCH  11  15
ATOM     15  N   UNL A   1      31.894  24.369  22.582  1.00  0.00    -0.332 N 
ATOM     16  C   UNL A   1      32.909  25.234  22.780  1.00  0.00     0.318 C 
ATOM     17  O   UNL A   1      33.977  24.984  22.216  1.00  0.00    -0.249 OA
ATOM     18  H   UNL A   1      31.338  24.554  21.791  1.00  0.00     0.165 HD
BRANCH  16  19
ATOM     19  N   UNL A   1      32.603  26.468  23.276  1.00  0.00    -0.322 N 
ATOM     20  C   UNL A   1      31.433  26.951  24.017  1.00  0.00     0.086 C 
ATOM     21  C   UNL A   1      31.713  28.450  24.241  1.00  0.00     0.027 C 
ATOM     22  C   UNL A   1      33.215  28.597  24.091  1.00  0.00     0.024 C 
ATOM     23  C   UNL A   1      33.565  27.538  23.071  1.00  0.00     0.122 C 
BRANCH  20  24
ATOM     24  C   UNL A   1      30.032  26.800  23.414  1.00  0.00     0.022 C 
ATOM     25  C   UNL A   1      29.269  28.083  23.130  1.00  0.00     0.006 C 
ENDBRANCH  20  24
ENDBRANCH  16  19
ENDBRANCH  11  15
ENDBRANCH   8  10
ENDBRANCH   7   8
ENDBRANCH   6   7
ENDBRANCH   5   6
ENDBRANCH   4   5
ENDBRANCH   3   4
ENDBRANCH   2   3
ENDBRANCH   1   2
BRANCH   1  26
ATOM     26  C   UNL A   1      41.551  24.360  28.034  1.00  0.00     0.188 C 
BRANCH  26  27
ATOM     27  C   UNL A   1      41.950  22.889  27.819  1.00  0.00     0.188 C 
BRANCH  27  28
ATOM     28  O   UNL A   1      41.709  22.398  26.501  1.00  0.00    -0.376 OA
BRANCH  28  29
ATOM     29  C   UNL A   1      42.739  21.644  25.869  1.00  0.00     0.202 C 
BRANCH  29  30
ATOM     30  C   UNL A   1      44.013  22.412  25.473  1.00  0.00     0.261 C 
BRANCH  30  31
ATOM     31  O   UNL A   1      43.828  23.788  25.104  1.00  0.00    -0.460 OA
BRANCH  31  32
ATOM     32  C   UNL A   1      44.929  24.561  24.980  1.00  0.00     0.338 C 
ATOM     33  O   UNL A   1      45.869  24.383  24.233  1.00  0.00    -0.246 OA
BRANCH  32  34
ATOM     34  C   UNL A   1      44.699  25.798  25.754  1.00  0.00     0.060 A 
ATOM     35  C   UNL A   1      45.785  26.358  26.437  1.00  0.00     0.016 A 
ATOM     36  C   UNL A   1      43.435  26.388  25.821  1.00  0.00     0.016 A 
ATOM     37  C   UNL A   1      45.597  27.481  27.238  1.00  0.00     0.010 A 
ATOM     38  C   UNL A   1      43.242  27.502  26.643  1.00  0.00     0.010 A 
ATOM     39  C   UNL A   1      44.313  28.020  27.389  1.00  0.00    -0.014 A 
BRANCH  39  40
ATOM     40  C   UNL A   1      44.065  28.957  28.509  1.00  0.00     0.031 A 
ATOM     41  C   UNL A   1      43.856  28.376  29.881  1.00  0.00     0.074 A 
ATOM     42  C   UNL A   1      44.064  30.288  28.324  1.00  0.00     0.049 A 
ATOM     43  N   UNL A   1      43.683  28.986  31.023  1.00  0.00    -0.248 NA
ATOM     44  C   UNL A   1      43.849  26.906  29.979  1.00  0.00     0.031 C 
ATOM     45  C   UNL A   1      44.258  30.967  27.045  1.00  0.00     0.029 A 
ATOM     46  N   UNL A   1      43.881  31.307  29.224  1.00  0.00    -0.354 N 
ATOM     47  C   UNL A   1      43.532  27.981  31.970  1.00  0.00     0.074 A 
ATOM     48  C   UNL A   1      43.615  26.719  31.268  1.00  0.00     0.031 C 
ATOM     49  C   UNL A   1      44.160  32.294  27.238  1.00  0.00     0.029 A 
ATOM     50  C   UNL A   1      43.888  32.556  28.652  1.00  0.00     0.049 A 
ATOM     51  H   UNL A   1      43.756  31.158  30.190  1.00  0.00     0.167 HD
ATOM     52  C   UNL A   1      43.360  28.093  33.307  1.00  0.00     0.034 A 
ATOM     53  C   UNL A   1      43.689  33.768  29.209  1.00  0.00     0.034 A 
ATOM     54  C   UNL A   1      43.284  29.346  34.003  1.00  0.00     0.049 A 
ATOM     55  C   UNL A   1      43.471  33.865  30.698  1.00  0.00     0.074 A 
ATOM     56  C   UNL A   1      43.143  29.568  35.361  1.00  0.00     0.029 A 
ATOM     57  N   UNL A   1      43.323  30.591  33.394  1.00  0.00    -0.354 N 
ATOM     58  N   UNL A   1      43.462  32.911  31.598  1.00  0.00    -0.248 NA
ATOM     59  C   UNL A   1      43.273  35.212  31.253  1.00  0.00     0.031 C 
ATOM     60  C   UNL A   1      43.075  30.950  35.571  1.00  0.00     0.029 A 
ATOM     61  C   UNL A   1      43.199  31.587  34.347  1.00  0.00     0.049 A 
ATOM     62  H   UNL A   1      43.425  30.743  32.427  1.00  0.00     0.167 HD
ATOM     63  C   UNL A   1      43.295  33.543  32.825  1.00  0.00     0.074 A 
ATOM     64  C   UNL A   1      43.230  34.965  32.555  1.00  0.00     0.031 C 
ATOM     65  C   UNL A   1      43.189  33.000  34.065  1.00  0.00     0.034 A 
BRANCH  52  66
ATOM     66  C   UNL A   1      43.270  26.819  34.103  1.00  0.00     0.023 A 
ATOM     67  C   UNL A   1      42.010  26.358  34.536  1.00  0.00     0.012 A 
ATOM     68  C   UNL A   1      44.421  26.062  34.389  1.00  0.00     0.148 A 
ATOM     69  C   UNL A   1      41.900  25.177  35.269  1.00  0.00     0.002 A 
ATOM     70  C   UNL A   1      44.299  24.865  35.084  1.00  0.00     0.091 A 
ATOM     71  F   UNL A   1      45.611  26.534  33.995  1.00  0.00    -0.205 F 
ATOM     72  C   UNL A   1      43.042  24.426  35.533  1.00  0.00     0.022 A 
BRANCH  70  73
ATOM     73  S   UNL A   1      45.701  23.792  35.413  1.00  0.00     0.127 S 
ATOM     74  O   UNL A   1      46.175  23.503  34.060  1.00  0.00    -0.237 OA
ATOM     75  O   UNL A   1      46.579  24.663  36.193  1.00  0.00    -0.237 OA
ATOM     76  O   UNL A   1      45.170  22.652  36.147  1.00  0.00    -0.744 OA
ENDBRANCH  70  73
ENDBRANCH  52  66
BRANCH  53  77
ATOM     77  C   UNL A   1      43.729  34.994  28.363  1.00  0.00     0.023 A 
ATOM     78  C   UNL A   1      42.537  35.493  27.802  1.00  0.00     0.012 A 
ATOM     79  C   UNL A   1      44.939  35.672  28.116  1.00  0.00     0.148 A 
ATOM     80  C   UNL A   1      42.554  36.624  26.985  1.00  0.00     0.002 A 
ATOM     81  C   UNL A   1      44.940  36.829  27.345  1.00  0.00     0.091 A 
ATOM     82  F   UNL A   1      46.066  35.171  28.643  1.00  0.00    -0.205 F 
ATOM     83  C   UNL A   1      43.752  37.297  26.765  1.00  0.00     0.022 A 
BRANCH  81  84
ATOM     84  S   UNL A   1      46.415  37.827  27.109  1.00  0.00     0.127 S 
ATOM     85  O   UNL A   1      45.879  38.992  26.412  1.00  0.00    -0.237 OA
ATOM     86  O   UNL A   1      46.834  38.074  28.490  1.00  0.00    -0.237 OA
ATOM     87  O   UNL A   1      47.334  36.996  26.344  1.00  0.00    -0.744 OA
ENDBRANCH  81  84
ENDBRANCH  53  77
BRANCH  65  88
ATOM     88  C   UNL A   1      43.023  33.941  35.230  1.00  0.00     0.023 A 
ATOM     89  C   UNL A   1      44.160  34.433  35.901  1.00  0.00     0.012 A 
ATOM     90  C   UNL A   1      41.745  34.392  35.616  1.00  0.00     0.148 A 
ATOM     91  C   UNL A   1      44.027  35.330  36.959  1.00  0.00     0.002 A 
ATOM     92  C   UNL A   1      41.623  35.324  36.640  1.00  0.00     0.091 A 
ATOM     93  F   UNL A   1      40.673  33.900  34.979  1.00  0.00    -0.205 F 
ATOM     94  C   UNL A   1      42.761  35.785  37.321  1.00  0.00     0.022 A 
BRANCH  92  95
ATOM     95  S   UNL A   1      40.039  36.035  37.102  1.00  0.00     0.127 S 
ATOM     96  O   UNL A   1      39.522  36.480  35.809  1.00  0.00    -0.237 OA
ATOM     97  O   UNL A   1      39.336  34.887  37.677  1.00  0.00    -0.237 OA
ATOM     98  O   UNL A   1      40.342  37.093  38.057  1.00  0.00    -0.744 OA
ENDBRANCH  92  95
ENDBRANCH  65  88
ENDBRANCH  39  40
ENDBRANCH  32  34
ENDBRANCH  31  32
ENDBRANCH  30  31
ENDBRANCH  29  30
ENDBRANCH  28  29
ENDBRANCH  27  28
ENDBRANCH  26  27
ENDBRANCH   1  26
TORSDOF 26
ENDMDL
MODEL 3
REMARK VINA RESULT:      -8.4      2.499      3.284
REMARK SMILES CC[C@@H]1CCCN1C(=O)N[C@H]1C=C[C@@H](C(=O)OCCOCCOCCOCCOC(=O)c2ccc(-c3c4nc(c(-c5cccc(S(=O)(=O)[O-])c5F)c5ccc([nH]5)c(-c5cccc(S(=O)(=O)[O-])c5F)c5nc(c(-c6cccc(S(=O)(=O)[O-])c6F)c6ccc3[nH]6)C=C5)C=C4)cc2)C1
REMARK SMILES IDX 23 1 22 2 21 3 20 4 19 5 18 6 17 7 15 8 16 9 14 10 11 11
REMARK SMILES IDX 12 12 95 13 13 14 10 15 8 16 9 17 7 19 3 20 4 21 5 22 6 23
REMARK SMILES IDX 2 24 1 25 24 26 25 27 26 28 27 29 28 30 29 31 30 32 31 33
REMARK SMILES IDX 32 34 33 35 94 36 34 37 93 38 35 39 36 40 37 41 87 42 38 43
REMARK SMILES IDX 92 44 86 45 88 46 39 47 91 48 85 49 84 50 40 52 72 53 52 54
REMARK SMILES IDX 71 55 53 56 56 57 70 58 89 59 54 60 55 61 69 63 90 64 57 65
REMARK SMILES IDX 41 66 42 67 50 68 43 69 45 70 51 71 44 72 46 73 47 74 48 75
REMARK SMILES IDX 49 76 73 77 74 78 82 79 75 80 77 81 83 82 76 83 78 84 79 85
REMARK SMILES IDX 80 86 81 87 58 88 59 89 67 90 60 91 62 92 68 93 61 94 63 95
REMARK SMILES IDX 64 96 65 97 66 98
REMARK H PARENT 10 18 88 51 56 62
REMARK Flexibility Score: inf
ROOT
ATOM      1  O   UNL A   1      40.097  24.402  27.924  1.00  0.00    -0.377 OA
ENDROOT
BRANCH   1   2
ATOM      2  C   UNL A   1      39.297  24.928  26.891  1.00  0.00     0.188 C 
BRANCH   2   3
ATOM      3  C   UNL A   1      38.098  24.056  26.480  1.00  0.00     0.188 C 
BRANCH   3   4
ATOM      4  O   UNL A   1      38.277  22.678  26.174  1.00  0.00    -0.376 OA
BRANCH   4   5
ATOM      5  C   UNL A   1      37.692  22.132  24.993  1.00  0.00     0.202 C 
BRANCH   5   6
ATOM      6  C   UNL A   1      36.465  21.203  25.099  1.00  0.00     0.261 C 
BRANCH   6   7
ATOM      7  O   UNL A   1      35.239  21.816  24.658  1.00  0.00    -0.463 OA
BRANCH   7   8
ATOM      8  C   UNL A   1      34.299  22.131  25.590  1.00  0.00     0.312 C 
ATOM      9  O   UNL A   1      34.530  22.733  26.632  1.00  0.00    -0.252 OA
BRANCH   8  10
ATOM     10  C   UNL A   1      32.880  21.845  25.056  1.00  0.00     0.124 C 
ATOM     11  C   UNL A   1      31.595  22.875  23.181  1.00  0.00     0.107 C 
ATOM     12  C   UNL A   1      32.163  21.546  22.829  1.00  0.00    -0.006 C 
ATOM     13  C   UNL A   1      32.065  23.074  24.631  1.00  0.00     0.048 C 
ATOM     14  C   UNL A   1      32.865  20.995  23.827  1.00  0.00    -0.014 C 
BRANCH  11  15
ATOM     15  N   UNL A   1      32.132  23.977  22.409  1.00  0.00    -0.332 N 
ATOM     16  C   UNL A   1      33.033  24.919  22.754  1.00  0.00     0.318 C 
ATOM     17  O   UNL A   1      34.216  24.685  22.499  1.00  0.00    -0.249 OA
ATOM     18  H   UNL A   1      31.785  24.050  21.491  1.00  0.00     0.165 HD
BRANCH  16  19
ATOM     19  N   UNL A   1      32.567  26.174  23.022  1.00  0.00    -0.322 N 
ATOM     20  C   UNL A   1      33.216  27.337  23.636  1.00  0.00     0.086 C 
ATOM     21  C   UNL A   1      32.118  28.417  23.668  1.00  0.00     0.027 C 
ATOM     22  C   UNL A   1      31.114  27.989  22.615  1.00  0.00     0.024 C 
ATOM     23  C   UNL A   1      31.195  26.479  22.654  1.00  0.00     0.122 C 
BRANCH  20  24
ATOM     24  C   UNL A   1      33.825  27.218  25.039  1.00  0.00     0.022 C 
ATOM     25  C   UNL A   1      33.015  26.455  26.073  1.00  0.00     0.006 C 
ENDBRANCH  20  24
ENDBRANCH  16  19
ENDBRANCH  11  15
ENDBRANCH   8  10
ENDBRANCH   7   8
ENDBRANCH   6   7
ENDBRANCH   5   6
ENDBRANCH   4   5
ENDBRANCH   3   4
ENDBRANCH   2   3
ENDBRANCH   1   2
BRANCH   1  26
ATOM     26  C   UNL A   1      41.233  23.637  27.545  1.00  0.00     0.188 C 
BRANCH  26  27
ATOM     27  C   UNL A   1      41.382  22.222  28.133  1.00  0.00     0.188 C 
BRANCH  27  28
ATOM     28  O   UNL A   1      40.714  21.202  27.392  1.00  0.00    -0.376 OA
BRANCH  28  29
ATOM     29  C   UNL A   1      41.363  19.941  27.256  1.00  0.00     0.202 C 
BRANCH  29  30
ATOM     30  C   UNL A   1      42.606  19.897  26.350  1.00  0.00     0.261 C 
BRANCH  30  31
ATOM     31  O   UNL A   1      42.730  20.969  25.402  1.00  0.00    -0.460 OA
BRANCH  31  32
ATOM     32  C   UNL A   1      43.971  21.301  24.985  1.00  0.00     0.338 C 
ATOM     33  O   UNL A   1      44.617  20.768  24.106  1.00  0.00    -0.246 OA
BRANCH  32  34
ATOM     34  C   UNL A   1      44.335  22.580  25.630  1.00  0.00     0.060 A 
ATOM     35  C   UNL A   1      44.033  23.767  24.953  1.00  0.00     0.016 A 
ATOM     36  C   UNL A   1      44.977  22.610  26.871  1.00  0.00     0.016 A 
ATOM     37  C   UNL A   1      44.425  24.991  25.490  1.00  0.00     0.010 A 
ATOM     38  C   UNL A   1      45.390  23.837  27.397  1.00  0.00     0.010 A 
ATOM     39  C   UNL A   1      45.156  25.024  26.684  1.00  0.00    -0.014 A 
BRANCH  39  40
ATOM     40  C   UNL A   1      45.875  26.269  27.040  1.00  0.00     0.031 A 
ATOM     41  C   UNL A   1      47.233  26.497  26.433  1.00  0.00     0.074 A 
ATOM     42  C   UNL A   1      45.325  27.192  27.848  1.00  0.00     0.049 A 
ATOM     43  N   UNL A   1      48.028  27.528  26.542  1.00  0.00    -0.248 NA
ATOM     44  C   UNL A   1      47.763  25.417  25.582  1.00  0.00     0.031 C 
ATOM     45  C   UNL A   1      44.017  27.083  28.491  1.00  0.00     0.029 A 
ATOM     46  N   UNL A   1      45.812  28.402  28.270  1.00  0.00    -0.354 N 
ATOM     47  C   UNL A   1      49.154  27.218  25.789  1.00  0.00     0.074 A 
ATOM     48  C   UNL A   1      48.950  25.895  25.242  1.00  0.00     0.031 C 
ATOM     49  C   UNL A   1      43.815  28.176  29.249  1.00  0.00     0.029 A 
ATOM     50  C   UNL A   1      44.981  29.053  29.150  1.00  0.00     0.049 A 
ATOM     51  H   UNL A   1      46.676  28.770  27.972  1.00  0.00     0.167 HD
ATOM     52  C   UNL A   1      50.251  27.973  25.555  1.00  0.00     0.034 A 
ATOM     53  C   UNL A   1      45.152  30.220  29.804  1.00  0.00     0.034 A 
ATOM     54  C   UNL A   1      50.451  29.289  26.093  1.00  0.00     0.049 A 
ATOM     55  C   UNL A   1      46.399  31.031  29.548  1.00  0.00     0.074 A 
ATOM     56  C   UNL A   1      51.514  30.150  25.890  1.00  0.00     0.029 A 
ATOM     57  N   UNL A   1      49.575  29.928  26.957  1.00  0.00    -0.354 N 
ATOM     58  N   UNL A   1      47.394  30.783  28.730  1.00  0.00    -0.248 NA
ATOM     59  C   UNL A   1      46.526  32.301  30.277  1.00  0.00     0.031 C 
ATOM     60  C   UNL A   1      51.291  31.303  26.650  1.00  0.00     0.029 A 
ATOM     61  C   UNL A   1      50.077  31.170  27.306  1.00  0.00     0.049 A 
ATOM     62  H   UNL A   1      48.722  29.554  27.275  1.00  0.00     0.167 HD
ATOM     63  C   UNL A   1      48.245  31.879  28.819  1.00  0.00     0.074 A 
ATOM     64  C   UNL A   1      47.636  32.804  29.753  1.00  0.00     0.031 C 
ATOM     65  C   UNL A   1      49.432  32.099  28.197  1.00  0.00     0.034 A 
BRANCH  52  66
ATOM     66  C   UNL A   1      51.309  27.395  24.653  1.00  0.00     0.023 A 
ATOM     67  C   UNL A   1      52.375  26.662  25.213  1.00  0.00     0.012 A 
ATOM     68  C   UNL A   1      51.229  27.545  23.256  1.00  0.00     0.148 A 
ATOM     69  C   UNL A   1      53.364  26.112  24.398  1.00  0.00     0.002 A 
ATOM     70  C   UNL A   1      52.195  26.959  22.447  1.00  0.00     0.091 A 
ATOM     71  F   UNL A   1      50.225  28.272  22.747  1.00  0.00    -0.205 F 
ATOM     72  C   UNL A   1      53.267  26.251  23.016  1.00  0.00     0.022 A 
BRANCH  70  73
ATOM     73  S   UNL A   1      52.121  27.021  20.654  1.00  0.00     0.127 S 
ATOM     74  O   UNL A   1      53.442  26.513  20.286  1.00  0.00    -0.237 OA
ATOM     75  O   UNL A   1      51.014  26.111  20.360  1.00  0.00    -0.237 OA
ATOM     76  O   UNL A   1      51.868  28.413  20.312  1.00  0.00    -0.744 OA
ENDBRANCH  70  73
ENDBRANCH  52  66
BRANCH  53  77
ATOM     77  C   UNL A   1      44.099  30.718  30.733  1.00  0.00     0.023 A 
ATOM     78  C   UNL A   1      44.121  30.325  32.086  1.00  0.00     0.012 A 
ATOM     79  C   UNL A   1      43.078  31.580  30.286  1.00  0.00     0.148 A 
ATOM     80  C   UNL A   1      43.130  30.756  32.968  1.00  0.00     0.002 A 
ATOM     81  C   UNL A   1      42.125  32.048  31.183  1.00  0.00     0.091 A 
ATOM     82  F   UNL A   1      43.062  31.926  28.991  1.00  0.00    -0.205 F 
ATOM     83  C   UNL A   1      42.139  31.624  32.520  1.00  0.00     0.022 A 
BRANCH  81  84
ATOM     84  S   UNL A   1      40.884  33.263  30.721  1.00  0.00     0.127 S 
ATOM     85  O   UNL A   1      39.923  32.445  29.987  1.00  0.00    -0.237 OA
ATOM     86  O   UNL A   1      40.423  33.732  32.029  1.00  0.00    -0.237 OA
ATOM     87  O   UNL A   1      41.590  34.267  29.939  1.00  0.00    -0.744 OA
ENDBRANCH  81  84
ENDBRANCH  53  77
BRANCH  65  88
ATOM     88  C   UNL A   1      50.140  33.399  28.479  1.00  0.00     0.023 A 
ATOM     89  C   UNL A   1      51.073  33.475  29.532  1.00  0.00     0.012 A 
ATOM     90  C   UNL A   1      49.933  34.525  27.657  1.00  0.00     0.148 A 
ATOM     91  C   UNL A   1      51.762  34.660  29.786  1.00  0.00     0.002 A 
ATOM     92  C   UNL A   1      50.660  35.688  27.886  1.00  0.00     0.091 A 
ATOM     93  F   UNL A   1      49.029  34.441  26.671  1.00  0.00    -0.205 F 
ATOM     94  C   UNL A   1      51.564  35.762  28.957  1.00  0.00     0.022 A 
BRANCH  92  95
ATOM     95  S   UNL A   1      50.539  37.119  26.807  1.00  0.00     0.127 S 
ATOM     96  O   UNL A   1      50.914  36.551  25.513  1.00  0.00    -0.237 OA
ATOM     97  O   UNL A   1      49.126  37.484  26.926  1.00  0.00    -0.237 OA
ATOM     98  O   UNL A   1      51.461  38.107  27.351  1.00  0.00    -0.744 OA
ENDBRANCH  92  95
ENDBRANCH  65  88
ENDBRANCH  39  40
ENDBRANCH  32  34
ENDBRANCH  31  32
ENDBRANCH  30  31
ENDBRANCH  29  30
ENDBRANCH  28  29
ENDBRANCH  27  28
ENDBRANCH  26  27
ENDBRANCH   1  26
TORSDOF 26
ENDMDL
