MODEL 1
REMARK VINA RESULT:      -9.8      0.000      0.000
REMARK SMILES COc1ccc(OC)c([C@H](C(=O)OCCOCCOCCOCCOC(=O)c2ccc(-c3c4nc(c(-c5cccc(S(=O)(=O)[O-])c5F)c5ccc([nH]5)c(-c5cccc(S(=O)(=O)[O-])c5F)c5nc(c(-c6cccc(S(=O)(=O)[O-])c6F)c6ccc3[nH]6)C=C5)C=C4)cc2)[NH+]2CC[NH+](Cc3nccn3C)CC2)c1
REMARK SMILES IDX 19 1 18 2 17 3 16 4 15 5 14 6 13 7 11 8 12 9 10 10 9 11 3 12
REMARK SMILES IDX 4 13 104 14 5 15 6 16 2 17 1 18 7 19 8 20 91 21 92 22 103 23
REMARK SMILES IDX 93 25 102 26 94 27 95 29 96 30 97 31 100 32 98 33 99 34
REMARK SMILES IDX 101 35 20 36 21 37 22 38 23 39 24 40 25 41 26 42 27 43 28 44
REMARK SMILES IDX 29 45 90 46 30 47 89 48 31 49 32 50 33 51 83 52 34 53 88 54
REMARK SMILES IDX 82 55 84 56 35 57 87 58 81 59 80 60 36 62 68 63 48 64 67 65
REMARK SMILES IDX 49 66 52 67 66 68 85 69 50 70 51 71 65 73 86 74 53 75 37 76
REMARK SMILES IDX 38 77 46 78 39 79 41 80 47 81 40 82 42 83 43 84 44 85 45 86
REMARK SMILES IDX 69 87 70 88 78 89 71 90 73 91 79 92 72 93 74 94 75 95 76 96
REMARK SMILES IDX 77 97 54 98 55 99 63 100 56 101 58 102 64 103 57 104 59 105
REMARK SMILES IDX 60 106 61 107 62 108
REMARK H PARENT 91 24 94 28 84 61 52 72
REMARK Flexibility Score: inf
ROOT
ATOM      1  O   UNL A   1      33.902  21.339  26.353  1.00  0.00    -0.377 OA
ENDROOT
BRANCH   1   2
ATOM      2  C   UNL A   1      32.931  22.327  26.604  1.00  0.00     0.188 C 
BRANCH   2   3
ATOM      3  C   UNL A   1      31.627  22.127  25.820  1.00  0.00     0.188 C 
BRANCH   3   4
ATOM      4  O   UNL A   1      30.650  23.151  25.985  1.00  0.00    -0.376 OA
BRANCH   4   5
ATOM      5  C   UNL A   1      30.978  24.463  25.531  1.00  0.00     0.202 C 
BRANCH   5   6
ATOM      6  C   UNL A   1      30.456  25.638  26.371  1.00  0.00     0.261 C 
BRANCH   6   7
ATOM      7  O   UNL A   1      30.906  26.906  25.876  1.00  0.00    -0.459 OA
BRANCH   7   8
ATOM      8  C   UNL A   1      31.926  27.474  26.571  1.00  0.00     0.370 C 
ATOM      9  O   UNL A   1      31.837  27.788  27.751  1.00  0.00    -0.245 OA
BRANCH   8  10
ATOM     10  C   UNL A   1      33.146  27.700  25.646  1.00  0.00     0.330 C 
BRANCH  10  11
ATOM     11  C   UNL A   1      32.922  27.085  24.260  1.00  0.00     0.067 A 
ATOM     12  C   UNL A   1      33.644  25.302  22.718  1.00  0.00     0.119 A 
ATOM     13  C   UNL A   1      33.021  25.954  21.667  1.00  0.00     0.050 A 
ATOM     14  C   UNL A   1      33.525  25.827  24.001  1.00  0.00     0.060 A 
ATOM     15  C   UNL A   1      32.359  27.162  21.896  1.00  0.00     0.051 A 
ATOM     16  C   UNL A   1      32.323  27.749  23.173  1.00  0.00     0.128 A 
BRANCH  12  17
ATOM     17  O   UNL A   1      34.355  24.175  22.414  1.00  0.00    -0.497 OA
ATOM     18  C   UNL A   1      33.571  23.046  22.015  1.00  0.00     0.278 C 
ENDBRANCH  12  17
BRANCH  16  19
ATOM     19  O   UNL A   1      31.831  29.027  23.148  1.00  0.00    -0.496 OA
ATOM     20  C   UNL A   1      30.436  29.192  23.342  1.00  0.00     0.278 C 
ENDBRANCH  16  19
ENDBRANCH  10  11
BRANCH  10  21
ATOM     21  N   UNL A   1      33.612  29.108  25.650  1.00  0.00    -0.310 N 
ATOM     22  C   UNL A   1      32.620  30.153  25.915  1.00  0.00     0.325 C 
ATOM     23  C   UNL A   1      34.879  29.358  26.343  1.00  0.00     0.325 C 
ATOM     24  H   UNL A   1      33.808  29.208  24.654  1.00  0.00     0.349 HD
ATOM     25  C   UNL A   1      32.600  30.811  27.327  1.00  0.00     0.324 C 
ATOM     26  C   UNL A   1      34.779  29.846  27.807  1.00  0.00     0.324 C 
ATOM     27  N   UNL A   1      33.868  30.956  28.059  1.00  0.00    -0.319 N 
ATOM     28  H   UNL A   1      33.640  30.884  29.049  1.00  0.00     0.348 HD
BRANCH  27  29
ATOM     29  C   UNL A   1      34.459  32.294  27.987  1.00  0.00     0.339 C 
BRANCH  29  30
ATOM     30  C   UNL A   1      34.871  32.874  29.303  1.00  0.00     0.164 A 
ATOM     31  N   UNL A   1      34.061  33.061  30.330  1.00  0.00    -0.236 NA
ATOM     32  N   UNL A   1      36.130  33.344  29.602  1.00  0.00    -0.333 N 
ATOM     33  C   UNL A   1      34.770  33.784  31.246  1.00  0.00     0.131 A 
ATOM     34  C   UNL A   1      36.060  33.972  30.818  1.00  0.00     0.107 A 
ATOM     35  C   UNL A   1      37.331  33.268  28.807  1.00  0.00     0.151 C 
ENDBRANCH  29  30
ENDBRANCH  27  29
ENDBRANCH  10  21
ENDBRANCH   8  10
ENDBRANCH   7   8
ENDBRANCH   6   7
ENDBRANCH   5   6
ENDBRANCH   4   5
ENDBRANCH   3   4
ENDBRANCH   2   3
ENDBRANCH   1   2
BRANCH   1  36
ATOM     36  C   UNL A   1      34.421  21.217  25.036  1.00  0.00     0.188 C 
BRANCH  36  37
ATOM     37  C   UNL A   1      35.819  21.745  24.628  1.00  0.00     0.188 C 
BRANCH  37  38
ATOM     38  O   UNL A   1      36.910  21.240  25.392  1.00  0.00    -0.376 OA
BRANCH  38  39
ATOM     39  C   UNL A   1      37.496  20.027  24.944  1.00  0.00     0.202 C 
BRANCH  39  40
ATOM     40  C   UNL A   1      38.898  19.757  25.503  1.00  0.00     0.261 C 
BRANCH  40  41
ATOM     41  O   UNL A   1      39.686  20.926  25.769  1.00  0.00    -0.460 OA
BRANCH  41  42
ATOM     42  C   UNL A   1      40.612  20.847  26.751  1.00  0.00     0.338 C 
ATOM     43  O   UNL A   1      41.300  19.880  27.033  1.00  0.00    -0.246 OA
BRANCH  42  44
ATOM     44  C   UNL A   1      40.824  22.213  27.278  1.00  0.00     0.060 A 
ATOM     45  C   UNL A   1      40.003  23.249  26.808  1.00  0.00     0.016 A 
ATOM     46  C   UNL A   1      41.768  22.454  28.279  1.00  0.00     0.016 A 
ATOM     47  C   UNL A   1      40.163  24.542  27.304  1.00  0.00     0.010 A 
ATOM     48  C   UNL A   1      41.945  23.754  28.758  1.00  0.00     0.010 A 
ATOM     49  C   UNL A   1      41.176  24.808  28.236  1.00  0.00    -0.014 A 
BRANCH  49  50
ATOM     50  C   UNL A   1      41.626  26.205  28.426  1.00  0.00     0.031 A 
ATOM     51  C   UNL A   1      42.879  26.625  27.704  1.00  0.00     0.074 A 
ATOM     52  C   UNL A   1      40.958  27.077  29.201  1.00  0.00     0.049 A 
ATOM     53  N   UNL A   1      43.477  27.786  27.682  1.00  0.00    -0.248 NA
ATOM     54  C   UNL A   1      43.551  25.588  26.898  1.00  0.00     0.031 C 
ATOM     55  C   UNL A   1      39.740  26.786  29.953  1.00  0.00     0.029 A 
ATOM     56  N   UNL A   1      41.234  28.389  29.495  1.00  0.00    -0.354 N 
ATOM     57  C   UNL A   1      44.596  27.615  26.878  1.00  0.00     0.074 A 
ATOM     58  C   UNL A   1      44.610  26.237  26.446  1.00  0.00     0.031 C 
ATOM     59  C   UNL A   1      39.387  27.885  30.647  1.00  0.00     0.029 A 
ATOM     60  C   UNL A   1      40.359  28.948  30.395  1.00  0.00     0.049 A 
ATOM     61  H   UNL A   1      41.986  28.883  29.097  1.00  0.00     0.167 HD
ATOM     62  C   UNL A   1      45.526  28.528  26.514  1.00  0.00     0.034 A 
ATOM     63  C   UNL A   1      40.357  30.175  30.954  1.00  0.00     0.034 A 
ATOM     64  C   UNL A   1      45.511  29.897  26.940  1.00  0.00     0.049 A 
ATOM     65  C   UNL A   1      41.417  31.171  30.549  1.00  0.00     0.074 A 
ATOM     66  C   UNL A   1      46.386  30.913  26.601  1.00  0.00     0.029 A 
ATOM     67  N   UNL A   1      44.584  30.439  27.816  1.00  0.00    -0.354 N 
ATOM     68  N   UNL A   1      42.392  31.035  29.682  1.00  0.00    -0.248 NA
ATOM     69  C   UNL A   1      41.353  32.502  31.172  1.00  0.00     0.031 C 
ATOM     70  C   UNL A   1      45.999  32.066  27.290  1.00  0.00     0.029 A 
ATOM     71  C   UNL A   1      44.867  31.775  28.035  1.00  0.00     0.049 A 
ATOM     72  H   UNL A   1      43.833  29.946  28.221  1.00  0.00     0.167 HD
ATOM     73  C   UNL A   1      43.028  32.272  29.624  1.00  0.00     0.074 A 
ATOM     74  C   UNL A   1      42.318  33.148  30.532  1.00  0.00     0.031 C 
ATOM     75  C   UNL A   1      44.109  32.648  28.895  1.00  0.00     0.034 A 
BRANCH  62  76
ATOM     76  C   UNL A   1      46.619  28.070  25.589  1.00  0.00     0.023 A 
ATOM     77  C   UNL A   1      46.407  28.097  24.195  1.00  0.00     0.012 A 
ATOM     78  C   UNL A   1      47.860  27.640  26.094  1.00  0.00     0.148 A 
ATOM     79  C   UNL A   1      47.405  27.675  23.318  1.00  0.00     0.002 A 
ATOM     80  C   UNL A   1      48.865  27.263  25.212  1.00  0.00     0.091 A 
ATOM     81  F   UNL A   1      48.027  27.591  27.423  1.00  0.00    -0.205 F 
ATOM     82  C   UNL A   1      48.636  27.268  23.826  1.00  0.00     0.022 A 
BRANCH  80  83
ATOM     83  S   UNL A   1      50.507  26.793  25.764  1.00  0.00     0.127 S 
ATOM     84  O   UNL A   1      50.275  25.440  26.266  1.00  0.00    -0.237 OA
ATOM     85  O   UNL A   1      51.280  26.858  24.522  1.00  0.00    -0.237 OA
ATOM     86  O   UNL A   1      50.890  27.775  26.768  1.00  0.00    -0.744 OA
ENDBRANCH  80  83
ENDBRANCH  62  76
BRANCH  63  87
ATOM     87  C   UNL A   1      39.292  30.555  31.926  1.00  0.00     0.023 A 
ATOM     88  C   UNL A   1      37.972  30.748  31.473  1.00  0.00     0.012 A 
ATOM     89  C   UNL A   1      39.578  30.728  33.294  1.00  0.00     0.148 A 
ATOM     90  C   UNL A   1      36.964  31.136  32.357  1.00  0.00     0.002 A 
ATOM     91  C   UNL A   1      38.559  31.063  34.178  1.00  0.00     0.091 A 
ATOM     92  F   UNL A   1      40.843  30.560  33.703  1.00  0.00    -0.205 F 
ATOM     93  C   UNL A   1      37.255  31.285  33.710  1.00  0.00     0.022 A 
BRANCH  91  94
ATOM     94  S   UNL A   1      38.813  31.155  35.954  1.00  0.00     0.127 S 
ATOM     95  O   UNL A   1      39.291  29.808  36.257  1.00  0.00    -0.237 OA
ATOM     96  O   UNL A   1      39.824  32.207  36.056  1.00  0.00    -0.237 OA
ATOM     97  O   UNL A   1      37.517  31.509  36.518  1.00  0.00    -0.744 OA
ENDBRANCH  91  94
ENDBRANCH  63  87
BRANCH  75  98
ATOM     98  C   UNL A   1      44.570  34.077  29.003  1.00  0.00     0.023 A 
ATOM     99  C   UNL A   1      45.792  34.377  29.635  1.00  0.00     0.012 A 
ATOM    100  C   UNL A   1      43.833  35.114  28.396  1.00  0.00     0.148 A 
ATOM    101  C   UNL A   1      46.257  35.691  29.691  1.00  0.00     0.002 A 
ATOM    102  C   UNL A   1      44.327  36.413  28.412  1.00  0.00     0.091 A 
ATOM    103  F   UNL A   1      42.664  34.812  27.813  1.00  0.00    -0.205 F 
ATOM    104  C   UNL A   1      45.533  36.705  29.069  1.00  0.00     0.022 A 
BRANCH 102 105
ATOM    105  S   UNL A   1      43.510  37.759  27.548  1.00  0.00     0.127 S 
ATOM    106  O   UNL A   1      42.611  38.273  28.580  1.00  0.00    -0.237 OA
ATOM    107  O   UNL A   1      44.629  38.644  27.219  1.00  0.00    -0.237 OA
ATOM    108  O   UNL A   1      42.860  37.157  26.392  1.00  0.00    -0.744 OA
ENDBRANCH 102 105
ENDBRANCH  75  98
ENDBRANCH  49  50
ENDBRANCH  42  44
ENDBRANCH  41  42
ENDBRANCH  40  41
ENDBRANCH  39  40
ENDBRANCH  38  39
ENDBRANCH  37  38
ENDBRANCH  36  37
ENDBRANCH   1  36
TORSDOF 29
ENDMDL
MODEL 2
REMARK VINA RESULT:      -8.9      1.868      2.176
REMARK SMILES COc1ccc(OC)c([C@H](C(=O)OCCOCCOCCOCCOC(=O)c2ccc(-c3c4nc(c(-c5cccc(S(=O)(=O)[O-])c5F)c5ccc([nH]5)c(-c5cccc(S(=O)(=O)[O-])c5F)c5nc(c(-c6cccc(S(=O)(=O)[O-])c6F)c6ccc3[nH]6)C=C5)C=C4)cc2)[NH+]2CC[NH+](Cc3nccn3C)CC2)c1
REMARK SMILES IDX 19 1 18 2 17 3 16 4 15 5 14 6 13 7 11 8 12 9 10 10 9 11 3 12
REMARK SMILES IDX 4 13 104 14 5 15 6 16 2 17 1 18 7 19 8 20 91 21 92 22 103 23
REMARK SMILES IDX 93 25 102 26 94 27 95 29 96 30 97 31 100 32 98 33 99 34
REMARK SMILES IDX 101 35 20 36 21 37 22 38 23 39 24 40 25 41 26 42 27 43 28 44
REMARK SMILES IDX 29 45 90 46 30 47 89 48 31 49 32 50 33 51 83 52 34 53 88 54
REMARK SMILES IDX 82 55 84 56 35 57 87 58 81 59 80 60 36 62 68 63 48 64 67 65
REMARK SMILES IDX 49 66 52 67 66 68 85 69 50 70 51 71 65 73 86 74 53 75 37 76
REMARK SMILES IDX 38 77 46 78 39 79 41 80 47 81 40 82 42 83 43 84 44 85 45 86
REMARK SMILES IDX 69 87 70 88 78 89 71 90 73 91 79 92 72 93 74 94 75 95 76 96
REMARK SMILES IDX 77 97 54 98 55 99 63 100 56 101 58 102 64 103 57 104 59 105
REMARK SMILES IDX 60 106 61 107 62 108
REMARK H PARENT 91 24 94 28 84 61 52 72
REMARK Flexibility Score: inf
ROOT
ATOM      1  O   UNL A   1      34.401  21.048  26.134  1.00  0.00    -0.377 OA
ENDROOT
BRANCH   1   2
ATOM      2  C   UNL A   1      33.218  21.761  26.403  1.00  0.00     0.188 C 
BRANCH   2   3
ATOM      3  C   UNL A   1      32.002  21.262  25.611  1.00  0.00     0.188 C 
BRANCH   3   4
ATOM      4  O   UNL A   1      30.880  22.140  25.594  1.00  0.00    -0.376 OA
BRANCH   4   5
ATOM      5  C   UNL A   1      31.114  23.512  25.280  1.00  0.00     0.202 C 
BRANCH   5   6
ATOM      6  C   UNL A   1      30.365  24.555  26.123  1.00  0.00     0.261 C 
BRANCH   6   7
ATOM      7  O   UNL A   1      30.433  25.869  25.554  1.00  0.00    -0.459 OA
BRANCH   7   8
ATOM      8  C   UNL A   1      31.244  26.744  26.206  1.00  0.00     0.370 C 
ATOM      9  O   UNL A   1      31.078  27.062  27.377  1.00  0.00    -0.245 OA
BRANCH   8  10
ATOM     10  C   UNL A   1      32.327  27.289  25.245  1.00  0.00     0.330 C 
BRANCH  10  11
ATOM     11  C   UNL A   1      32.177  26.703  23.837  1.00  0.00     0.067 A 
ATOM     12  C   UNL A   1      33.031  24.998  22.275  1.00  0.00     0.119 A 
ATOM     13  C   UNL A   1      32.412  25.649  21.221  1.00  0.00     0.050 A 
ATOM     14  C   UNL A   1      32.846  25.481  23.566  1.00  0.00     0.060 A 
ATOM     15  C   UNL A   1      31.688  26.819  21.459  1.00  0.00     0.051 A 
ATOM     16  C   UNL A   1      31.583  27.368  22.748  1.00  0.00     0.128 A 
BRANCH  12  17
ATOM     17  O   UNL A   1      33.803  23.913  21.966  1.00  0.00    -0.497 OA
ATOM     18  C   UNL A   1      33.153  22.644  22.087  1.00  0.00     0.278 C 
ENDBRANCH  12  17
BRANCH  16  19
ATOM     19  O   UNL A   1      31.034  28.623  22.740  1.00  0.00    -0.496 OA
ATOM     20  C   UNL A   1      29.651  28.730  23.036  1.00  0.00     0.278 C 
ENDBRANCH  16  19
ENDBRANCH  10  11
BRANCH  10  21
ATOM     21  N   UNL A   1      32.456  28.766  25.310  1.00  0.00    -0.310 N 
ATOM     22  C   UNL A   1      31.606  29.482  26.265  1.00  0.00     0.325 C 
ATOM     23  C   UNL A   1      33.825  29.288  25.287  1.00  0.00     0.325 C 
ATOM     24  H   UNL A   1      32.048  28.995  24.404  1.00  0.00     0.349 HD
ATOM     25  C   UNL A   1      32.250  29.993  27.588  1.00  0.00     0.324 C 
ATOM     26  C   UNL A   1      34.463  29.610  26.658  1.00  0.00     0.324 C 
ATOM     27  N   UNL A   1      33.661  30.412  27.573  1.00  0.00    -0.319 N 
ATOM     28  H   UNL A   1      34.034  30.200  28.498  1.00  0.00     0.348 HD
BRANCH  27  29
ATOM     29  C   UNL A   1      33.861  31.860  27.496  1.00  0.00     0.339 C 
BRANCH  29  30
ATOM     30  C   UNL A   1      34.188  32.523  28.796  1.00  0.00     0.164 A 
ATOM     31  N   UNL A   1      34.707  31.909  29.845  1.00  0.00    -0.236 NA
ATOM     32  N   UNL A   1      33.941  33.843  29.097  1.00  0.00    -0.333 N 
ATOM     33  C   UNL A   1      34.664  32.807  30.873  1.00  0.00     0.131 A 
ATOM     34  C   UNL A   1      34.192  34.018  30.433  1.00  0.00     0.107 A 
ATOM     35  C   UNL A   1      33.458  34.889  28.228  1.00  0.00     0.151 C 
ENDBRANCH  29  30
ENDBRANCH  27  29
ENDBRANCH  10  21
ENDBRANCH   8  10
ENDBRANCH   7   8
ENDBRANCH   6   7
ENDBRANCH   5   6
ENDBRANCH   4   5
ENDBRANCH   3   4
ENDBRANCH   2   3
ENDBRANCH   1   2
BRANCH   1  36
ATOM     36  C   UNL A   1      34.935  21.088  24.817  1.00  0.00     0.188 C 
BRANCH  36  37
ATOM     37  C   UNL A   1      36.297  21.744  24.479  1.00  0.00     0.188 C 
BRANCH  37  38
ATOM     38  O   UNL A   1      37.387  21.349  25.307  1.00  0.00    -0.376 OA
BRANCH  38  39
ATOM     39  C   UNL A   1      37.990  20.097  25.014  1.00  0.00     0.202 C 
BRANCH  39  40
ATOM     40  C   UNL A   1      39.312  19.844  25.750  1.00  0.00     0.261 C 
BRANCH  40  41
ATOM     41  O   UNL A   1      40.125  21.007  25.965  1.00  0.00    -0.460 OA
BRANCH  41  42
ATOM     42  C   UNL A   1      41.066  20.944  26.933  1.00  0.00     0.338 C 
ATOM     43  O   UNL A   1      41.716  19.964  27.259  1.00  0.00    -0.246 OA
BRANCH  42  44
ATOM     44  C   UNL A   1      41.349  22.326  27.374  1.00  0.00     0.060 A 
ATOM     45  C   UNL A   1      40.658  23.382  26.762  1.00  0.00     0.016 A 
ATOM     46  C   UNL A   1      42.227  22.574  28.433  1.00  0.00     0.016 A 
ATOM     47  C   UNL A   1      40.885  24.694  27.173  1.00  0.00     0.010 A 
ATOM     48  C   UNL A   1      42.473  23.890  28.829  1.00  0.00     0.010 A 
ATOM     49  C   UNL A   1      41.839  24.954  28.166  1.00  0.00    -0.014 A 
BRANCH  49  50
ATOM     50  C   UNL A   1      42.388  26.324  28.292  1.00  0.00     0.031 A 
ATOM     51  C   UNL A   1      43.766  26.563  27.734  1.00  0.00     0.074 A 
ATOM     52  C   UNL A   1      41.701  27.324  28.870  1.00  0.00     0.049 A 
ATOM     53  N   UNL A   1      44.468  27.663  27.695  1.00  0.00    -0.248 NA
ATOM     54  C   UNL A   1      44.445  25.395  27.141  1.00  0.00     0.031 C 
ATOM     55  C   UNL A   1      40.366  27.213  29.451  1.00  0.00     0.029 A 
ATOM     56  N   UNL A   1      42.055  28.633  29.079  1.00  0.00    -0.354 N 
ATOM     57  C   UNL A   1      45.671  27.318  27.091  1.00  0.00     0.074 A 
ATOM     58  C   UNL A   1      45.616  25.905  26.797  1.00  0.00     0.031 C 
ATOM     59  C   UNL A   1      40.023  28.404  29.977  1.00  0.00     0.029 A 
ATOM     60  C   UNL A   1      41.117  29.354  29.778  1.00  0.00     0.049 A 
ATOM     61  H   UNL A   1      42.901  29.020  28.757  1.00  0.00     0.167 HD
ATOM     62  C   UNL A   1      46.726  28.109  26.790  1.00  0.00     0.034 A 
ATOM     63  C   UNL A   1      41.151  30.629  30.214  1.00  0.00     0.034 A 
ATOM     64  C   UNL A   1      46.780  29.513  27.079  1.00  0.00     0.049 A 
ATOM     65  C   UNL A   1      42.348  31.489  29.884  1.00  0.00     0.074 A 
ATOM     66  C   UNL A   1      47.787  30.413  26.783  1.00  0.00     0.029 A 
ATOM     67  N   UNL A   1      45.792  30.218  27.748  1.00  0.00    -0.354 N 
ATOM     68  N   UNL A   1      43.421  31.183  29.193  1.00  0.00    -0.248 NA
ATOM     69  C   UNL A   1      42.323  32.879  30.363  1.00  0.00     0.031 C 
ATOM     70  C   UNL A   1      47.416  31.661  27.295  1.00  0.00     0.029 A 
ATOM     71  C   UNL A   1      46.166  31.542  27.882  1.00  0.00     0.049 A 
ATOM     72  H   UNL A   1      44.948  29.833  28.078  1.00  0.00     0.167 HD
ATOM     73  C   UNL A   1      44.174  32.352  29.118  1.00  0.00     0.074 A 
ATOM     74  C   UNL A   1      43.426  33.374  29.820  1.00  0.00     0.031 C 
ATOM     75  C   UNL A   1      45.379  32.560  28.530  1.00  0.00     0.034 A 
BRANCH  62  76
ATOM     76  C   UNL A   1      47.892  27.469  26.089  1.00  0.00     0.023 A 
ATOM     77  C   UNL A   1      48.795  26.675  26.824  1.00  0.00     0.012 A 
ATOM     78  C   UNL A   1      48.078  27.630  24.703  1.00  0.00     0.148 A 
ATOM     79  C   UNL A   1      49.884  26.074  26.197  1.00  0.00     0.002 A 
ATOM     80  C   UNL A   1      49.141  26.992  24.076  1.00  0.00     0.091 A 
ATOM     81  F   UNL A   1      47.227  28.417  24.031  1.00  0.00    -0.205 F 
ATOM     82  C   UNL A   1      50.051  26.223  24.822  1.00  0.00     0.022 A 
BRANCH  80  83
ATOM     83  S   UNL A   1      49.399  27.064  22.302  1.00  0.00     0.127 S 
ATOM     84  O   UNL A   1      50.803  26.670  22.190  1.00  0.00    -0.237 OA
ATOM     85  O   UNL A   1      48.446  26.068  21.811  1.00  0.00    -0.237 OA
ATOM     86  O   UNL A   1      49.102  28.434  21.908  1.00  0.00    -0.744 OA
ENDBRANCH  80  83
ENDBRANCH  62  76
BRANCH  63  87
ATOM     87  C   UNL A   1      39.998  31.195  30.971  1.00  0.00     0.023 A 
ATOM     88  C   UNL A   1      38.988  31.894  30.282  1.00  0.00     0.012 A 
ATOM     89  C   UNL A   1      39.898  31.046  32.368  1.00  0.00     0.148 A 
ATOM     90  C   UNL A   1      37.916  32.462  30.973  1.00  0.00     0.002 A 
ATOM     91  C   UNL A   1      38.800  31.568  33.043  1.00  0.00     0.091 A 
ATOM     92  F   UNL A   1      40.879  30.395  33.009  1.00  0.00    -0.205 F 
ATOM     93  C   UNL A   1      37.817  32.291  32.351  1.00  0.00     0.022 A 
BRANCH  91  94
ATOM     94  S   UNL A   1      38.524  31.292  34.797  1.00  0.00     0.127 S 
ATOM     95  O   UNL A   1      38.198  29.868  34.827  1.00  0.00    -0.237 OA
ATOM     96  O   UNL A   1      39.828  31.639  35.361  1.00  0.00    -0.237 OA
ATOM     97  O   UNL A   1      37.446  32.197  35.171  1.00  0.00    -0.744 OA
ENDBRANCH  91  94
ENDBRANCH  63  87
BRANCH  75  98
ATOM     98  C   UNL A   1      45.954  33.951  28.573  1.00  0.00     0.023 A 
ATOM     99  C   UNL A   1      45.601  34.889  27.584  1.00  0.00     0.012 A 
ATOM    100  C   UNL A   1      46.774  34.353  29.646  1.00  0.00     0.148 A 
ATOM    101  C   UNL A   1      46.082  36.197  27.643  1.00  0.00     0.002 A 
ATOM    102  C   UNL A   1      47.209  35.671  29.726  1.00  0.00     0.091 A 
ATOM    103  F   UNL A   1      47.113  33.442  30.569  1.00  0.00    -0.205 F 
ATOM    104  C   UNL A   1      46.874  36.591  28.720  1.00  0.00     0.022 A 
BRANCH 102 105
ATOM    105  S   UNL A   1      48.147  36.286  31.129  1.00  0.00     0.127 S 
ATOM    106  O   UNL A   1      48.236  37.713  30.825  1.00  0.00    -0.237 OA
ATOM    107  O   UNL A   1      47.273  35.957  32.257  1.00  0.00    -0.237 OA
ATOM    108  O   UNL A   1      49.410  35.561  31.116  1.00  0.00    -0.744 OA
ENDBRANCH 102 105
ENDBRANCH  75  98
ENDBRANCH  49  50
ENDBRANCH  42  44
ENDBRANCH  41  42
ENDBRANCH  40  41
ENDBRANCH  39  40
ENDBRANCH  38  39
ENDBRANCH  37  38
ENDBRANCH  36  37
ENDBRANCH   1  36
TORSDOF 29
ENDMDL
MODEL 3
REMARK VINA RESULT:      -8.6      1.315      2.099
REMARK SMILES COc1ccc(OC)c([C@H](C(=O)OCCOCCOCCOCCOC(=O)c2ccc(-c3c4nc(c(-c5cccc(S(=O)(=O)[O-])c5F)c5ccc([nH]5)c(-c5cccc(S(=O)(=O)[O-])c5F)c5nc(c(-c6cccc(S(=O)(=O)[O-])c6F)c6ccc3[nH]6)C=C5)C=C4)cc2)[NH+]2CC[NH+](Cc3nccn3C)CC2)c1
REMARK SMILES IDX 19 1 18 2 17 3 16 4 15 5 14 6 13 7 11 8 12 9 10 10 9 11 3 12
REMARK SMILES IDX 4 13 104 14 5 15 6 16 2 17 1 18 7 19 8 20 91 21 92 22 103 23
REMARK SMILES IDX 93 25 102 26 94 27 95 29 96 30 97 31 100 32 98 33 99 34
REMARK SMILES IDX 101 35 20 36 21 37 22 38 23 39 24 40 25 41 26 42 27 43 28 44
REMARK SMILES IDX 29 45 90 46 30 47 89 48 31 49 32 50 33 51 83 52 34 53 88 54
REMARK SMILES IDX 82 55 84 56 35 57 87 58 81 59 80 60 36 62 68 63 48 64 67 65
REMARK SMILES IDX 49 66 52 67 66 68 85 69 50 70 51 71 65 73 86 74 53 75 37 76
REMARK SMILES IDX 38 77 46 78 39 79 41 80 47 81 40 82 42 83 43 84 44 85 45 86
REMARK SMILES IDX 69 87 70 88 78 89 71 90 73 91 79 92 72 93 74 94 75 95 76 96
REMARK SMILES IDX 77 97 54 98 55 99 63 100 56 101 58 102 64 103 57 104 59 105
REMARK SMILES IDX 60 106 61 107 62 108
REMARK H PARENT 91 24 94 28 84 61 52 72
REMARK Flexibility Score: inf
ROOT
ATOM      1  O   UNL A   1      34.385  21.893  26.119  1.00  0.00    -0.377 OA
ENDROOT
BRANCH   1   2
ATOM      2  C   UNL A   1      33.410  22.796  26.584  1.00  0.00     0.188 C 
BRANCH   2   3
ATOM      3  C   UNL A   1      31.989  22.474  26.103  1.00  0.00     0.188 C 
BRANCH   3   4
ATOM      4  O   UNL A   1      31.006  23.462  26.397  1.00  0.00    -0.376 OA
BRANCH   4   5
ATOM      5  C   UNL A   1      31.299  24.816  26.056  1.00  0.00     0.202 C 
BRANCH   5   6
ATOM      6  C   UNL A   1      30.624  25.907  26.901  1.00  0.00     0.261 C 
BRANCH   6   7
ATOM      7  O   UNL A   1      30.777  27.213  26.331  1.00  0.00    -0.459 OA
BRANCH   7   8
ATOM      8  C   UNL A   1      31.878  27.900  26.736  1.00  0.00     0.370 C 
ATOM      9  O   UNL A   1      32.076  28.217  27.901  1.00  0.00    -0.245 OA
BRANCH   8  10
ATOM     10  C   UNL A   1      32.770  28.247  25.520  1.00  0.00     0.330 C 
BRANCH  10  11
ATOM     11  C   UNL A   1      31.967  28.247  24.214  1.00  0.00     0.067 A 
ATOM     12  C   UNL A   1      29.931  29.094  23.114  1.00  0.00     0.119 A 
ATOM     13  C   UNL A   1      30.080  28.156  22.107  1.00  0.00     0.050 A 
ATOM     14  C   UNL A   1      30.905  29.180  24.103  1.00  0.00     0.060 A 
ATOM     15  C   UNL A   1      31.153  27.263  22.146  1.00  0.00     0.051 A 
ATOM     16  C   UNL A   1      32.084  27.279  23.199  1.00  0.00     0.128 A 
BRANCH  12  17
ATOM     17  O   UNL A   1      28.810  29.876  23.071  1.00  0.00    -0.497 OA
ATOM     18  C   UNL A   1      29.029  31.238  22.690  1.00  0.00     0.278 C 
ENDBRANCH  12  17
BRANCH  16  19
ATOM     19  O   UNL A   1      32.918  26.192  23.178  1.00  0.00    -0.496 OA
ATOM     20  C   UNL A   1      33.028  25.480  21.957  1.00  0.00     0.278 C 
ENDBRANCH  16  19
ENDBRANCH  10  11
BRANCH  10  21
ATOM     21  N   UNL A   1      33.608  29.449  25.752  1.00  0.00    -0.310 N 
ATOM     22  C   UNL A   1      32.928  30.690  26.133  1.00  0.00     0.325 C 
ATOM     23  C   UNL A   1      34.836  29.233  26.521  1.00  0.00     0.325 C 
ATOM     24  H   UNL A   1      33.901  29.621  24.790  1.00  0.00     0.349 HD
ATOM     25  C   UNL A   1      32.981  31.132  27.626  1.00  0.00     0.324 C 
ATOM     26  C   UNL A   1      34.762  29.529  28.037  1.00  0.00     0.324 C 
ATOM     27  N   UNL A   1      34.179  30.810  28.418  1.00  0.00    -0.319 N 
ATOM     28  H   UNL A   1      33.863  30.675  29.377  1.00  0.00     0.348 HD
BRANCH  27  29
ATOM     29  C   UNL A   1      35.121  31.919  28.569  1.00  0.00     0.339 C 
BRANCH  29  30
ATOM     30  C   UNL A   1      34.768  32.909  29.634  1.00  0.00     0.164 A 
ATOM     31  N   UNL A   1      34.595  32.612  30.910  1.00  0.00    -0.236 NA
ATOM     32  N   UNL A   1      34.518  34.246  29.422  1.00  0.00    -0.333 N 
ATOM     33  C   UNL A   1      34.095  33.738  31.498  1.00  0.00     0.131 A 
ATOM     34  C   UNL A   1      34.039  34.769  30.594  1.00  0.00     0.107 A 
ATOM     35  C   UNL A   1      34.665  35.007  28.205  1.00  0.00     0.151 C 
ENDBRANCH  29  30
ENDBRANCH  27  29
ENDBRANCH  10  21
ENDBRANCH   8  10
ENDBRANCH   7   8
ENDBRANCH   6   7
ENDBRANCH   5   6
ENDBRANCH   4   5
ENDBRANCH   3   4
ENDBRANCH   2   3
ENDBRANCH   1   2
BRANCH   1  36
ATOM     36  C   UNL A   1      34.634  21.823  24.721  1.00  0.00     0.188 C 
BRANCH  36  37
ATOM     37  C   UNL A   1      35.988  22.225  24.085  1.00  0.00     0.188 C 
BRANCH  37  38
ATOM     38  O   UNL A   1      37.139  21.966  24.884  1.00  0.00    -0.376 OA
BRANCH  38  39
ATOM     39  C   UNL A   1      37.644  20.639  24.864  1.00  0.00     0.202 C 
BRANCH  39  40
ATOM     40  C   UNL A   1      38.853  20.409  25.780  1.00  0.00     0.261 C 
BRANCH  40  41
ATOM     41  O   UNL A   1      39.770  21.509  25.871  1.00  0.00    -0.460 OA
BRANCH  41  42
ATOM     42  C   UNL A   1      40.771  21.417  26.774  1.00  0.00     0.338 C 
ATOM     43  O   UNL A   1      41.451  20.433  27.016  1.00  0.00    -0.246 OA
BRANCH  42  44
ATOM     44  C   UNL A   1      41.067  22.783  27.255  1.00  0.00     0.060 A 
ATOM     45  C   UNL A   1      40.582  23.875  26.520  1.00  0.00     0.016 A 
ATOM     46  C   UNL A   1      41.749  22.986  28.459  1.00  0.00     0.016 A 
ATOM     47  C   UNL A   1      40.824  25.175  26.963  1.00  0.00     0.010 A 
ATOM     48  C   UNL A   1      42.013  24.287  28.889  1.00  0.00     0.010 A 
ATOM     49  C   UNL A   1      41.593  25.383  28.115  1.00  0.00    -0.014 A 
BRANCH  49  50
ATOM     50  C   UNL A   1      42.208  26.712  28.336  1.00  0.00     0.031 A 
ATOM     51  C   UNL A   1      43.595  26.923  27.792  1.00  0.00     0.074 A 
ATOM     52  C   UNL A   1      41.570  27.700  28.988  1.00  0.00     0.049 A 
ATOM     53  N   UNL A   1      44.350  27.989  27.829  1.00  0.00    -0.248 NA
ATOM     54  C   UNL A   1      44.216  25.770  27.114  1.00  0.00     0.031 C 
ATOM     55  C   UNL A   1      40.231  27.612  29.565  1.00  0.00     0.029 A 
ATOM     56  N   UNL A   1      41.987  28.972  29.288  1.00  0.00    -0.354 N 
ATOM     57  C   UNL A   1      45.534  27.630  27.197  1.00  0.00     0.074 A 
ATOM     58  C   UNL A   1      45.410  26.246  26.803  1.00  0.00     0.031 C 
ATOM     59  C   UNL A   1      39.946  28.778  30.176  1.00  0.00     0.029 A 
ATOM     60  C   UNL A   1      41.086  29.685  30.041  1.00  0.00     0.049 A 
ATOM     61  H   UNL A   1      42.850  29.340  28.991  1.00  0.00     0.167 HD
ATOM     62  C   UNL A   1      46.626  28.389  26.949  1.00  0.00     0.034 A 
ATOM     63  C   UNL A   1      41.181  30.923  30.567  1.00  0.00     0.034 A 
ATOM     64  C   UNL A   1      46.748  29.764  27.338  1.00  0.00     0.049 A 
ATOM     65  C   UNL A   1      42.419  31.745  30.295  1.00  0.00     0.074 A 
ATOM     66  C   UNL A   1      47.797  30.634  27.104  1.00  0.00     0.029 A 
ATOM     67  N   UNL A   1      45.795  30.466  28.060  1.00  0.00    -0.354 N 
ATOM     68  N   UNL A   1      43.475  31.439  29.579  1.00  0.00    -0.248 NA
ATOM     69  C   UNL A   1      42.461  33.097  30.872  1.00  0.00     0.031 C 
ATOM     70  C   UNL A   1      47.487  31.858  27.704  1.00  0.00     0.029 A 
ATOM     71  C   UNL A   1      46.233  31.758  28.286  1.00  0.00     0.049 A 
ATOM     72  H   UNL A   1      44.934  30.099  28.364  1.00  0.00     0.167 HD
ATOM     73  C   UNL A   1      44.283  32.572  29.585  1.00  0.00     0.074 A 
ATOM     74  C   UNL A   1      43.586  33.576  30.362  1.00  0.00     0.031 C 
ATOM     75  C   UNL A   1      45.497  32.763  29.009  1.00  0.00     0.034 A 
BRANCH  62  76
ATOM     76  C   UNL A   1      47.759  27.745  26.200  1.00  0.00     0.023 A 
ATOM     77  C   UNL A   1      47.713  27.677  24.793  1.00  0.00     0.012 A 
ATOM     78  C   UNL A   1      48.879  27.234  26.884  1.00  0.00     0.148 A 
ATOM     79  C   UNL A   1      48.751  27.083  24.077  1.00  0.00     0.002 A 
ATOM     80  C   UNL A   1      49.930  26.683  26.161  1.00  0.00     0.091 A 
ATOM     81  F   UNL A   1      48.886  27.280  28.223  1.00  0.00    -0.205 F 
ATOM     82  C   UNL A   1      49.863  26.596  24.760  1.00  0.00     0.022 A 
BRANCH  80  83
ATOM     83  S   UNL A   1      51.435  26.096  26.942  1.00  0.00     0.127 S 
ATOM     84  O   UNL A   1      52.445  26.945  26.315  1.00  0.00    -0.237 OA
ATOM     85  O   UNL A   1      51.183  26.389  28.354  1.00  0.00    -0.237 OA
ATOM     86  O   UNL A   1      51.525  24.678  26.625  1.00  0.00    -0.744 OA
ENDBRANCH  80  83
ENDBRANCH  62  76
BRANCH  63  87
ATOM     87  C   UNL A   1      40.057  31.488  31.368  1.00  0.00     0.023 A 
ATOM     88  C   UNL A   1      39.090  32.294  30.737  1.00  0.00     0.012 A 
ATOM     89  C   UNL A   1      39.943  31.233  32.748  1.00  0.00     0.148 A 
ATOM     90  C   UNL A   1      38.047  32.862  31.471  1.00  0.00     0.002 A 
ATOM     91  C   UNL A   1      38.872  31.758  33.463  1.00  0.00     0.091 A 
ATOM     92  F   UNL A   1      40.884  30.480  33.334  1.00  0.00    -0.205 F 
ATOM     93  C   UNL A   1      37.933  32.587  32.831  1.00  0.00     0.022 A 
BRANCH  91  94
ATOM     94  S   UNL A   1      38.574  31.357  35.188  1.00  0.00     0.127 S 
ATOM     95  O   UNL A   1      38.517  29.898  35.150  1.00  0.00    -0.237 OA
ATOM     96  O   UNL A   1      39.765  31.912  35.833  1.00  0.00    -0.237 OA
ATOM     97  O   UNL A   1      37.331  32.030  35.538  1.00  0.00    -0.744 OA
ENDBRANCH  91  94
ENDBRANCH  63  87
BRANCH  75  98
ATOM     98  C   UNL A   1      46.138  34.119  29.149  1.00  0.00     0.023 A 
ATOM     99  C   UNL A   1      46.945  34.403  30.267  1.00  0.00     0.012 A 
ATOM    100  C   UNL A   1      46.012  35.078  28.125  1.00  0.00     0.148 A 
ATOM    101  C   UNL A   1      47.590  35.635  30.380  1.00  0.00     0.002 A 
ATOM    102  C   UNL A   1      46.698  36.283  28.220  1.00  0.00     0.091 A 
ATOM    103  F   UNL A   1      45.226  34.796  27.076  1.00  0.00    -0.205 F 
ATOM    104  C   UNL A   1      47.478  36.569  29.351  1.00  0.00     0.022 A 
BRANCH 102 105
ATOM    105  S   UNL A   1      46.689  37.497  26.896  1.00  0.00     0.127 S 
ATOM    106  O   UNL A   1      45.470  38.249  27.188  1.00  0.00    -0.237 OA
ATOM    107  O   UNL A   1      47.931  38.233  27.139  1.00  0.00    -0.237 OA
ATOM    108  O   UNL A   1      46.676  36.736  25.654  1.00  0.00    -0.744 OA
ENDBRANCH 102 105
ENDBRANCH  75  98
ENDBRANCH  49  50
ENDBRANCH  42  44
ENDBRANCH  41  42
ENDBRANCH  40  41
ENDBRANCH  39  40
ENDBRANCH  38  39
ENDBRANCH  37  38
ENDBRANCH  36  37
ENDBRANCH   1  36
TORSDOF 29
ENDMDL
