MODEL 1
REMARK VINA RESULT:     -11.5      0.000      0.000
REMARK SMILES Cc1ccc(-c2nc(NC(=O)[C@H]3[C@@H](C(=O)OCCOCCOCCOCCOC(=O)c4ccc(-c5c6nc(c(-c7cccc(S(=O)(=O)[O-])c7F)c7ccc([nH]7)c(-c7cccc(S(=O)(=O)[O-])c7F)c7nc(c(-c8cccc(S(=O)(=O)[O-])c8F)c8ccc5[nH]8)C=C7)C=C6)cc4)[C@@H]4CC[C@H]3O4)sc2C)cc1
REMARK SMILES IDX 22 1 21 2 20 3 19 4 18 5 17 6 16 7 14 8 15 9 13 10 12 11
REMARK SMILES IDX 97 12 94 13 96 14 98 15 95 16 10 17 9 18 11 20 8 21 6 22
REMARK SMILES IDX 7 23 100 24 99 25 101 26 5 27 1 28 2 29 3 30 103 31 4 32
REMARK SMILES IDX 102 33 23 34 24 35 25 36 26 37 27 38 28 39 29 40 30 41 31 42
REMARK SMILES IDX 32 43 93 44 33 45 92 46 34 47 35 48 36 49 86 50 37 51 91 52
REMARK SMILES IDX 85 53 87 54 38 55 90 56 84 57 83 58 39 60 71 61 51 62 70 63
REMARK SMILES IDX 52 64 55 65 69 66 88 67 53 68 54 69 68 71 89 72 56 73 40 74
REMARK SMILES IDX 41 75 49 76 42 77 44 78 50 79 43 80 45 81 46 82 47 83 48 84
REMARK SMILES IDX 72 85 73 86 81 87 74 88 76 89 82 90 75 91 77 92 78 93 79 94
REMARK SMILES IDX 80 95 57 96 58 97 66 98 59 99 61 100 67 101 60 102 62 103
REMARK SMILES IDX 63 104 64 105 65 106
REMARK H PARENT 9 19 87 59 55 70
REMARK Flexibility Score: inf
ROOT
ATOM      1  O   UNL A   1      34.001  31.671  27.922  1.00  0.00    -0.377 OA
ENDROOT
BRANCH   1   2
ATOM      2  C   UNL A   1      34.407  30.375  27.454  1.00  0.00     0.188 C 
BRANCH   2   3
ATOM      3  C   UNL A   1      33.497  29.115  27.315  1.00  0.00     0.188 C 
BRANCH   3   4
ATOM      4  O   UNL A   1      32.269  29.171  26.606  1.00  0.00    -0.376 OA
BRANCH   4   5
ATOM      5  C   UNL A   1      31.387  28.127  26.854  1.00  0.00     0.202 C 
BRANCH   5   6
ATOM      6  C   UNL A   1      31.948  26.794  27.175  1.00  0.00     0.261 C 
BRANCH   6   7
ATOM      7  O   UNL A   1      31.690  25.841  26.161  1.00  0.00    -0.463 OA
BRANCH   7   8
ATOM      8  C   UNL A   1      31.866  24.527  26.306  1.00  0.00     0.312 C 
ATOM      9  O   UNL A   1      31.120  23.894  27.057  1.00  0.00    -0.252 OA
BRANCH   8  10
ATOM     10  C   UNL A   1      33.081  23.825  25.733  1.00  0.00     0.143 C 
ATOM     11  C   UNL A   1      33.118  22.883  24.526  1.00  0.00     0.124 C 
ATOM     12  C   UNL A   1      33.140  21.482  25.279  1.00  0.00     0.132 C 
ATOM     13  C   UNL A   1      33.555  22.899  26.864  1.00  0.00     0.133 C 
ATOM     14  C   UNL A   1      34.563  21.099  25.677  1.00  0.00     0.035 C 
ATOM     15  O   UNL A   1      32.674  21.786  26.618  1.00  0.00    -0.373 OA
ATOM     16  C   UNL A   1      34.932  22.281  26.578  1.00  0.00     0.036 C 
BRANCH  11  17
ATOM     17  C   UNL A   1      32.210  22.855  23.285  1.00  0.00     0.232 C 
ATOM     18  N   UNL A   1      31.844  23.844  22.419  1.00  0.00    -0.302 N 
ATOM     19  H   UNL A   1      31.403  23.487  21.613  1.00  0.00     0.172 HD
ATOM     20  O   UNL A   1      31.770  21.728  22.989  1.00  0.00    -0.274 OA
BRANCH  18  21
ATOM     21  C   UNL A   1      31.938  25.219  22.390  1.00  0.00     0.190 A 
ATOM     22  C   UNL A   1      31.248  27.389  22.926  1.00  0.00     0.086 A 
ATOM     23  N   UNL A   1      30.926  26.072  22.468  1.00  0.00    -0.220 NA
ATOM     24  C   UNL A   1      32.795  27.240  23.171  1.00  0.00     0.031 A 
ATOM     25  S   UNL A   1      33.417  25.914  22.178  1.00  0.00    -0.101 S 
ATOM     26  C   UNL A   1      34.044  27.886  23.872  1.00  0.00     0.059 C 
BRANCH  22  27
ATOM     27  C   UNL A   1      30.006  28.817  23.080  1.00  0.00     0.001 A 
ATOM     28  C   UNL A   1      28.339  32.966  22.341  1.00  0.00     0.044 C 
ATOM     29  C   UNL A   1      28.656  31.568  22.745  1.00  0.00    -0.051 A 
ATOM     30  C   UNL A   1      29.382  31.240  23.855  1.00  0.00     0.004 A 
ATOM     31  C   UNL A   1      28.318  30.504  21.965  1.00  0.00     0.004 A 
ATOM     32  C   UNL A   1      29.986  29.939  23.987  1.00  0.00     0.010 A 
ATOM     33  C   UNL A   1      28.916  29.222  22.167  1.00  0.00     0.010 A 
ENDBRANCH  22  27
ENDBRANCH  18  21
ENDBRANCH  11  17
ENDBRANCH   8  10
ENDBRANCH   7   8
ENDBRANCH   6   7
ENDBRANCH   5   6
ENDBRANCH   4   5
ENDBRANCH   3   4
ENDBRANCH   2   3
ENDBRANCH   1   2
BRANCH   1  34
ATOM     34  C   UNL A   1      34.774  32.467  28.830  1.00  0.00     0.188 C 
BRANCH  34  35
ATOM     35  C   UNL A   1      35.172  33.823  28.242  1.00  0.00     0.188 C 
BRANCH  35  36
ATOM     36  O   UNL A   1      34.009  34.612  28.033  1.00  0.00    -0.376 OA
BRANCH  36  37
ATOM     37  C   UNL A   1      34.107  35.947  28.505  1.00  0.00     0.202 C 
BRANCH  37  38
ATOM     38  C   UNL A   1      32.909  36.208  29.407  1.00  0.00     0.261 C 
BRANCH  38  39
ATOM     39  O   UNL A   1      32.932  35.196  30.449  1.00  0.00    -0.460 OA
BRANCH  39  40
ATOM     40  C   UNL A   1      33.046  35.674  31.727  1.00  0.00     0.338 C 
ATOM     41  O   UNL A   1      32.586  36.749  32.082  1.00  0.00    -0.246 OA
BRANCH  40  42
ATOM     42  C   UNL A   1      33.959  34.819  32.571  1.00  0.00     0.060 A 
ATOM     43  C   UNL A   1      35.064  35.390  33.212  1.00  0.00     0.016 A 
ATOM     44  C   UNL A   1      33.882  33.427  32.526  1.00  0.00     0.016 A 
ATOM     45  C   UNL A   1      36.146  34.583  33.627  1.00  0.00     0.010 A 
ATOM     46  C   UNL A   1      34.973  32.639  32.912  1.00  0.00     0.010 A 
ATOM     47  C   UNL A   1      36.175  33.203  33.353  1.00  0.00    -0.014 A 
BRANCH  47  48
ATOM     48  C   UNL A   1      37.450  32.389  33.390  1.00  0.00     0.031 A 
ATOM     49  C   UNL A   1      38.098  31.807  31.879  1.00  0.00     0.074 A 
ATOM     50  C   UNL A   1      38.180  32.291  34.576  1.00  0.00     0.049 A 
ATOM     51  N   UNL A   1      39.352  31.694  31.478  1.00  0.00    -0.248 NA
ATOM     52  C   UNL A   1      37.274  31.226  30.808  1.00  0.00     0.031 C 
ATOM     53  C   UNL A   1      38.775  31.057  34.926  1.00  0.00     0.029 A 
ATOM     54  N   UNL A   1      38.530  33.012  35.778  1.00  0.00    -0.354 N 
ATOM     55  C   UNL A   1      39.572  30.631  30.478  1.00  0.00     0.074 A 
ATOM     56  C   UNL A   1      38.182  30.701  29.939  1.00  0.00     0.031 C 
ATOM     57  C   UNL A   1      39.679  31.159  35.856  1.00  0.00     0.029 A 
ATOM     58  C   UNL A   1      39.657  32.414  36.464  1.00  0.00     0.049 A 
ATOM     59  H   UNL A   1      38.056  33.815  36.095  1.00  0.00     0.167 HD
ATOM     60  C   UNL A   1      40.740  29.621  30.309  1.00  0.00     0.034 A 
ATOM     61  C   UNL A   1      40.588  32.579  37.470  1.00  0.00     0.034 A 
ATOM     62  C   UNL A   1      42.256  29.421  31.292  1.00  0.00     0.049 A 
ATOM     63  C   UNL A   1      41.932  31.579  37.332  1.00  0.00     0.074 A 
ATOM     64  C   UNL A   1      43.670  29.448  31.100  1.00  0.00     0.029 A 
ATOM     65  N   UNL A   1      42.441  29.238  32.823  1.00  0.00    -0.354 N 
ATOM     66  N   UNL A   1      41.989  30.406  36.695  1.00  0.00    -0.248 NA
ATOM     67  C   UNL A   1      43.319  31.877  37.735  1.00  0.00     0.031 C 
ATOM     68  C   UNL A   1      44.461  29.503  32.415  1.00  0.00     0.029 A 
ATOM     69  C   UNL A   1      43.619  29.477  33.521  1.00  0.00     0.049 A 
ATOM     70  H   UNL A   1      41.663  28.926  33.339  1.00  0.00     0.167 HD
ATOM     71  C   UNL A   1      43.206  30.270  36.005  1.00  0.00     0.074 A 
ATOM     72  C   UNL A   1      44.041  31.020  36.956  1.00  0.00     0.031 C 
ATOM     73  C   UNL A   1      43.566  29.244  35.102  1.00  0.00     0.034 A 
BRANCH  60  74
ATOM     74  C   UNL A   1      40.636  28.673  29.011  1.00  0.00     0.023 A 
ATOM     75  C   UNL A   1      39.604  27.716  28.991  1.00  0.00     0.012 A 
ATOM     76  C   UNL A   1      41.466  28.630  27.844  1.00  0.00     0.148 A 
ATOM     77  C   UNL A   1      39.480  26.724  27.999  1.00  0.00     0.002 A 
ATOM     78  C   UNL A   1      41.412  27.583  26.901  1.00  0.00     0.091 A 
ATOM     79  F   UNL A   1      42.194  29.690  27.497  1.00  0.00    -0.205 F 
ATOM     80  C   UNL A   1      40.414  26.621  26.982  1.00  0.00     0.022 A 
BRANCH  78  81
ATOM     81  S   UNL A   1      42.595  27.397  25.538  1.00  0.00     0.127 S 
ATOM     82  O   UNL A   1      42.235  26.085  24.995  1.00  0.00    -0.237 OA
ATOM     83  O   UNL A   1      42.256  28.520  24.665  1.00  0.00    -0.237 OA
ATOM     84  O   UNL A   1      43.924  27.454  26.133  1.00  0.00    -0.744 OA
ENDBRANCH  78  81
ENDBRANCH  60  74
BRANCH  61  85
ATOM     85  C   UNL A   1      40.272  33.809  38.304  1.00  0.00     0.023 A 
ATOM     86  C   UNL A   1      39.798  33.735  39.624  1.00  0.00     0.012 A 
ATOM     87  C   UNL A   1      41.107  34.915  37.997  1.00  0.00     0.148 A 
ATOM     88  C   UNL A   1      40.362  34.542  40.641  1.00  0.00     0.002 A 
ATOM     89  C   UNL A   1      41.774  35.600  39.015  1.00  0.00     0.091 A 
ATOM     90  F   UNL A   1      41.415  35.141  36.710  1.00  0.00    -0.205 F 
ATOM     91  C   UNL A   1      41.413  35.407  40.350  1.00  0.00     0.022 A 
BRANCH  89  92
ATOM     92  S   UNL A   1      43.407  36.313  38.664  1.00  0.00     0.127 S 
ATOM     93  O   UNL A   1      43.903  36.679  39.923  1.00  0.00    -0.237 OA
ATOM     94  O   UNL A   1      44.084  35.182  37.981  1.00  0.00    -0.237 OA
ATOM     95  O   UNL A   1      43.087  37.399  37.705  1.00  0.00    -0.744 OA
ENDBRANCH  89  92
ENDBRANCH  61  85
BRANCH  73  96
ATOM     96  C   UNL A   1      43.182  27.781  35.532  1.00  0.00     0.023 A 
ATOM     97  C   UNL A   1      42.073  27.492  36.361  1.00  0.00     0.012 A 
ATOM     98  C   UNL A   1      43.985  26.660  35.180  1.00  0.00     0.148 A 
ATOM     99  C   UNL A   1      41.782  26.183  36.798  1.00  0.00     0.002 A 
ATOM    100  C   UNL A   1      43.652  25.357  35.552  1.00  0.00     0.091 A 
ATOM    101  F   UNL A   1      45.141  26.841  34.534  1.00  0.00    -0.205 F 
ATOM    102  C   UNL A   1      42.562  25.112  36.381  1.00  0.00     0.022 A 
BRANCH 100 103
ATOM    103  S   UNL A   1      44.600  23.957  34.931  1.00  0.00     0.127 S 
ATOM    104  O   UNL A   1      44.230  23.948  33.517  1.00  0.00    -0.237 OA
ATOM    105  O   UNL A   1      45.980  24.360  35.199  1.00  0.00    -0.237 OA
ATOM    106  O   UNL A   1      44.147  22.816  35.717  1.00  0.00    -0.744 OA
ENDBRANCH 100 103
ENDBRANCH  73  96
ENDBRANCH  47  48
ENDBRANCH  40  42
ENDBRANCH  39  40
ENDBRANCH  38  39
ENDBRANCH  37  38
ENDBRANCH  36  37
ENDBRANCH  35  36
ENDBRANCH  34  35
ENDBRANCH   1  34
TORSDOF 26
ENDMDL
MODEL 2
REMARK VINA RESULT:     -11.1      3.134      5.805
REMARK SMILES Cc1ccc(-c2nc(NC(=O)[C@H]3[C@@H](C(=O)OCCOCCOCCOCCOC(=O)c4ccc(-c5c6nc(c(-c7cccc(S(=O)(=O)[O-])c7F)c7ccc([nH]7)c(-c7cccc(S(=O)(=O)[O-])c7F)c7nc(c(-c8cccc(S(=O)(=O)[O-])c8F)c8ccc5[nH]8)C=C7)C=C6)cc4)[C@@H]4CC[C@H]3O4)sc2C)cc1
REMARK SMILES IDX 22 1 21 2 20 3 19 4 18 5 17 6 16 7 14 8 15 9 13 10 12 11
REMARK SMILES IDX 97 12 94 13 96 14 98 15 95 16 10 17 9 18 11 20 8 21 6 22
REMARK SMILES IDX 7 23 100 24 99 25 101 26 5 27 1 28 2 29 3 30 103 31 4 32
REMARK SMILES IDX 102 33 23 34 24 35 25 36 26 37 27 38 28 39 29 40 30 41 31 42
REMARK SMILES IDX 32 43 93 44 33 45 92 46 34 47 35 48 36 49 86 50 37 51 91 52
REMARK SMILES IDX 85 53 87 54 38 55 90 56 84 57 83 58 39 60 71 61 51 62 70 63
REMARK SMILES IDX 52 64 55 65 69 66 88 67 53 68 54 69 68 71 89 72 56 73 40 74
REMARK SMILES IDX 41 75 49 76 42 77 44 78 50 79 43 80 45 81 46 82 47 83 48 84
REMARK SMILES IDX 72 85 73 86 81 87 74 88 76 89 82 90 75 91 77 92 78 93 79 94
REMARK SMILES IDX 80 95 57 96 58 97 66 98 59 99 61 100 67 101 60 102 62 103
REMARK SMILES IDX 63 104 64 105 65 106
REMARK H PARENT 9 19 87 59 55 70
REMARK Flexibility Score: inf
ROOT
ATOM      1  O   UNL A   1      33.723  30.792  27.371  1.00  0.00    -0.377 OA
ENDROOT
BRANCH   1   2
ATOM      2  C   UNL A   1      33.605  29.367  27.224  1.00  0.00     0.188 C 
BRANCH   2   3
ATOM      3  C   UNL A   1      32.280  28.543  27.236  1.00  0.00     0.188 C 
BRANCH   3   4
ATOM      4  O   UNL A   1      32.279  27.150  26.970  1.00  0.00    -0.376 OA
BRANCH   4   5
ATOM      5  C   UNL A   1      31.026  26.556  26.894  1.00  0.00     0.202 C 
BRANCH   5   6
ATOM      6  C   UNL A   1      30.820  25.473  25.904  1.00  0.00     0.261 C 
BRANCH   6   7
ATOM      7  O   UNL A   1      30.213  25.937  24.713  1.00  0.00    -0.463 OA
BRANCH   7   8
ATOM      8  C   UNL A   1      30.636  25.628  23.486  1.00  0.00     0.312 C 
ATOM      9  O   UNL A   1      30.651  24.447  23.129  1.00  0.00    -0.252 OA
BRANCH   8  10
ATOM     10  C   UNL A   1      31.291  26.663  22.593  1.00  0.00     0.143 C 
ATOM     11  C   UNL A   1      32.474  26.446  21.645  1.00  0.00     0.124 C 
ATOM     12  C   UNL A   1      33.648  27.036  22.542  1.00  0.00     0.132 C 
ATOM     13  C   UNL A   1      31.862  27.702  23.570  1.00  0.00     0.133 C 
ATOM     14  C   UNL A   1      33.745  28.551  22.387  1.00  0.00     0.035 C 
ATOM     15  O   UNL A   1      33.104  27.045  23.887  1.00  0.00    -0.373 OA
ATOM     16  C   UNL A   1      32.350  28.972  22.857  1.00  0.00     0.036 C 
BRANCH  11  17
ATOM     17  C   UNL A   1      32.904  25.171  20.900  1.00  0.00     0.232 C 
ATOM     18  N   UNL A   1      33.255  23.937  21.363  1.00  0.00    -0.302 N 
ATOM     19  H   UNL A   1      33.301  23.269  20.640  1.00  0.00     0.172 HD
ATOM     20  O   UNL A   1      32.883  25.264  19.658  1.00  0.00    -0.274 OA
BRANCH  18  21
ATOM     21  C   UNL A   1      33.560  23.391  22.592  1.00  0.00     0.190 A 
ATOM     22  C   UNL A   1      34.143  21.645  24.036  1.00  0.00     0.086 A 
ATOM     23  N   UNL A   1      33.325  22.143  22.972  1.00  0.00    -0.220 NA
ATOM     24  C   UNL A   1      35.054  22.899  24.311  1.00  0.00     0.031 A 
ATOM     25  S   UNL A   1      34.222  24.357  23.752  1.00  0.00    -0.101 S 
ATOM     26  C   UNL A   1      36.380  23.386  24.999  1.00  0.00     0.059 C 
BRANCH  22  27
ATOM     27  C   UNL A   1      33.984  19.919  24.808  1.00  0.00     0.001 A 
ATOM     28  C   UNL A   1      32.776  15.554  25.005  1.00  0.00     0.044 C 
ATOM     29  C   UNL A   1      33.274  16.945  25.201  1.00  0.00    -0.051 A 
ATOM     30  C   UNL A   1      32.531  17.952  25.749  1.00  0.00     0.004 A 
ATOM     31  C   UNL A   1      34.498  17.335  24.750  1.00  0.00     0.004 A 
ATOM     32  C   UNL A   1      32.900  19.331  25.559  1.00  0.00     0.010 A 
ATOM     33  C   UNL A   1      34.829  18.720  24.622  1.00  0.00     0.010 A 
ENDBRANCH  22  27
ENDBRANCH  18  21
ENDBRANCH  11  17
ENDBRANCH   8  10
ENDBRANCH   7   8
ENDBRANCH   6   7
ENDBRANCH   5   6
ENDBRANCH   4   5
ENDBRANCH   3   4
ENDBRANCH   2   3
ENDBRANCH   1   2
BRANCH   1  34
ATOM     34  C   UNL A   1      34.919  31.449  27.811  1.00  0.00     0.188 C 
BRANCH  34  35
ATOM     35  C   UNL A   1      34.761  32.969  27.908  1.00  0.00     0.188 C 
BRANCH  35  36
ATOM     36  O   UNL A   1      33.797  33.286  28.902  1.00  0.00    -0.376 OA
BRANCH  36  37
ATOM     37  C   UNL A   1      33.830  34.631  29.351  1.00  0.00     0.202 C 
BRANCH  37  38
ATOM     38  C   UNL A   1      34.129  34.613  30.843  1.00  0.00     0.261 C 
BRANCH  38  39
ATOM     39  O   UNL A   1      35.427  33.983  31.010  1.00  0.00    -0.460 OA
BRANCH  39  40
ATOM     40  C   UNL A   1      35.425  32.819  31.732  1.00  0.00     0.338 C 
ATOM     41  O   UNL A   1      34.877  32.707  32.819  1.00  0.00    -0.246 OA
BRANCH  40  42
ATOM     42  C   UNL A   1      36.327  31.774  31.123  1.00  0.00     0.060 A 
ATOM     43  C   UNL A   1      36.133  30.420  31.417  1.00  0.00     0.016 A 
ATOM     44  C   UNL A   1      37.510  32.136  30.478  1.00  0.00     0.016 A 
ATOM     45  C   UNL A   1      37.180  29.490  31.233  1.00  0.00     0.010 A 
ATOM     46  C   UNL A   1      38.552  31.212  30.329  1.00  0.00     0.010 A 
ATOM     47  C   UNL A   1      38.459  29.905  30.816  1.00  0.00    -0.014 A 
BRANCH  47  48
ATOM     48  C   UNL A   1      39.696  29.053  31.004  1.00  0.00     0.031 A 
ATOM     49  C   UNL A   1      40.217  28.057  29.672  1.00  0.00     0.074 A 
ATOM     50  C   UNL A   1      40.495  29.225  32.135  1.00  0.00     0.049 A 
ATOM     51  N   UNL A   1      41.437  27.767  29.252  1.00  0.00    -0.248 NA
ATOM     52  C   UNL A   1      39.301  27.266  28.836  1.00  0.00     0.031 C 
ATOM     53  C   UNL A   1      41.054  28.093  32.770  1.00  0.00     0.029 A 
ATOM     54  N   UNL A   1      40.954  30.214  33.084  1.00  0.00    -0.354 N 
ATOM     55  C   UNL A   1      41.544  26.466  28.561  1.00  0.00     0.074 A 
ATOM     56  C   UNL A   1      40.126  26.478  28.093  1.00  0.00     0.031 C 
ATOM     57  C   UNL A   1      42.021  28.381  33.594  1.00  0.00     0.029 A 
ATOM     58  C   UNL A   1      42.095  29.750  33.846  1.00  0.00     0.049 A 
ATOM     59  H   UNL A   1      40.538  31.099  33.199  1.00  0.00     0.167 HD
ATOM     60  C   UNL A   1      42.651  25.379  28.608  1.00  0.00     0.034 A 
ATOM     61  C   UNL A   1      43.094  30.117  34.725  1.00  0.00     0.034 A 
ATOM     62  C   UNL A   1      44.217  25.353  29.532  1.00  0.00     0.049 A 
ATOM     63  C   UNL A   1      44.381  29.036  34.789  1.00  0.00     0.074 A 
ATOM     64  C   UNL A   1      45.615  25.242  29.268  1.00  0.00     0.029 A 
ATOM     65  N   UNL A   1      44.492  25.567  31.045  1.00  0.00    -0.354 N 
ATOM     66  N   UNL A   1      44.344  27.736  34.485  1.00  0.00    -0.248 NA
ATOM     67  C   UNL A   1      45.802  29.345  35.029  1.00  0.00     0.031 C 
ATOM     68  C   UNL A   1      46.491  25.592  30.480  1.00  0.00     0.029 A 
ATOM     69  C   UNL A   1      45.722  25.909  31.594  1.00  0.00     0.049 A 
ATOM     70  H   UNL A   1      43.735  25.449  31.664  1.00  0.00     0.167 HD
ATOM     71  C   UNL A   1      45.506  27.350  33.796  1.00  0.00     0.074 A 
ATOM     72  C   UNL A   1      46.433  28.271  34.471  1.00  0.00     0.031 C 
ATOM     73  C   UNL A   1      45.760  26.103  33.181  1.00  0.00     0.034 A 
BRANCH  60  74
ATOM     74  C   UNL A   1      42.422  24.131  27.615  1.00  0.00     0.023 A 
ATOM     75  C   UNL A   1      41.219  23.413  27.750  1.00  0.00     0.012 A 
ATOM     76  C   UNL A   1      43.282  23.605  26.598  1.00  0.00     0.148 A 
ATOM     77  C   UNL A   1      40.946  22.216  27.059  1.00  0.00     0.002 A 
ATOM     78  C   UNL A   1      43.064  22.358  25.977  1.00  0.00     0.091 A 
ATOM     79  F   UNL A   1      44.226  24.370  26.053  1.00  0.00    -0.205 F 
ATOM     80  C   UNL A   1      41.889  21.656  26.213  1.00  0.00     0.022 A 
BRANCH  78  81
ATOM     81  S   UNL A   1      44.249  21.576  24.848  1.00  0.00     0.127 S 
ATOM     82  O   UNL A   1      44.165  22.440  23.668  1.00  0.00    -0.237 OA
ATOM     83  O   UNL A   1      45.509  21.684  25.582  1.00  0.00    -0.237 OA
ATOM     84  O   UNL A   1      43.774  20.215  24.628  1.00  0.00    -0.744 OA
ENDBRANCH  78  81
ENDBRANCH  60  74
BRANCH  61  85
ATOM     85  C   UNL A   1      42.889  31.540  35.216  1.00  0.00     0.023 A 
ATOM     86  C   UNL A   1      43.216  32.668  34.445  1.00  0.00     0.012 A 
ATOM     87  C   UNL A   1      41.771  31.671  36.080  1.00  0.00     0.148 A 
ATOM     88  C   UNL A   1      42.308  33.748  34.324  1.00  0.00     0.002 A 
ATOM     89  C   UNL A   1      40.808  32.654  35.844  1.00  0.00     0.091 A 
ATOM     90  F   UNL A   1      41.546  30.701  36.980  1.00  0.00    -0.205 F 
ATOM     91  C   UNL A   1      41.066  33.696  34.951  1.00  0.00     0.022 A 
BRANCH  89  92
ATOM     92  S   UNL A   1      39.078  32.305  36.275  1.00  0.00     0.127 S 
ATOM     93  O   UNL A   1      38.365  33.391  35.751  1.00  0.00    -0.237 OA
ATOM     94  O   UNL A   1      38.870  30.988  35.619  1.00  0.00    -0.237 OA
ATOM     95  O   UNL A   1      39.135  32.160  37.751  1.00  0.00    -0.744 OA
ENDBRANCH  89  92
ENDBRANCH  61  85
BRANCH  73  96
ATOM     96  C   UNL A   1      45.339  24.829  34.002  1.00  0.00     0.023 A 
ATOM     97  C   UNL A   1      44.274  23.984  33.611  1.00  0.00     0.012 A 
ATOM     98  C   UNL A   1      45.952  24.500  35.244  1.00  0.00     0.148 A 
ATOM     99  C   UNL A   1      43.860  22.886  34.394  1.00  0.00     0.002 A 
ATOM    100  C   UNL A   1      45.589  23.370  35.979  1.00  0.00     0.091 A 
ATOM    101  F   UNL A   1      46.858  25.321  35.782  1.00  0.00    -0.205 F 
ATOM    102  C   UNL A   1      44.527  22.569  35.571  1.00  0.00     0.022 A 
BRANCH 100 103
ATOM    103  S   UNL A   1      46.516  22.898  37.448  1.00  0.00     0.127 S 
ATOM    104  O   UNL A   1      47.735  23.689  37.302  1.00  0.00    -0.237 OA
ATOM    105  O   UNL A   1      45.635  23.327  38.534  1.00  0.00    -0.237 OA
ATOM    106  O   UNL A   1      46.675  21.452  37.345  1.00  0.00    -0.744 OA
ENDBRANCH 100 103
ENDBRANCH  73  96
ENDBRANCH  47  48
ENDBRANCH  40  42
ENDBRANCH  39  40
ENDBRANCH  38  39
ENDBRANCH  37  38
ENDBRANCH  36  37
ENDBRANCH  35  36
ENDBRANCH  34  35
ENDBRANCH   1  34
TORSDOF 26
ENDMDL
MODEL 3
REMARK VINA RESULT:     -10.0      3.112      5.536
REMARK SMILES Cc1ccc(-c2nc(NC(=O)[C@H]3[C@@H](C(=O)OCCOCCOCCOCCOC(=O)c4ccc(-c5c6nc(c(-c7cccc(S(=O)(=O)[O-])c7F)c7ccc([nH]7)c(-c7cccc(S(=O)(=O)[O-])c7F)c7nc(c(-c8cccc(S(=O)(=O)[O-])c8F)c8ccc5[nH]8)C=C7)C=C6)cc4)[C@@H]4CC[C@H]3O4)sc2C)cc1
REMARK SMILES IDX 22 1 21 2 20 3 19 4 18 5 17 6 16 7 14 8 15 9 13 10 12 11
REMARK SMILES IDX 97 12 94 13 96 14 98 15 95 16 10 17 9 18 11 20 8 21 6 22
REMARK SMILES IDX 7 23 100 24 99 25 101 26 5 27 1 28 2 29 3 30 103 31 4 32
REMARK SMILES IDX 102 33 23 34 24 35 25 36 26 37 27 38 28 39 29 40 30 41 31 42
REMARK SMILES IDX 32 43 93 44 33 45 92 46 34 47 35 48 36 49 86 50 37 51 91 52
REMARK SMILES IDX 85 53 87 54 38 55 90 56 84 57 83 58 39 60 71 61 51 62 70 63
REMARK SMILES IDX 52 64 55 65 69 66 88 67 53 68 54 69 68 71 89 72 56 73 40 74
REMARK SMILES IDX 41 75 49 76 42 77 44 78 50 79 43 80 45 81 46 82 47 83 48 84
REMARK SMILES IDX 72 85 73 86 81 87 74 88 76 89 82 90 75 91 77 92 78 93 79 94
REMARK SMILES IDX 80 95 57 96 58 97 66 98 59 99 61 100 67 101 60 102 62 103
REMARK SMILES IDX 63 104 64 105 65 106
REMARK H PARENT 9 19 87 59 55 70
REMARK Flexibility Score: inf
ROOT
ATOM      1  O   UNL A   1      33.919  30.156  27.836  1.00  0.00    -0.377 OA
ENDROOT
BRANCH   1   2
ATOM      2  C   UNL A   1      33.379  29.121  26.999  1.00  0.00     0.188 C 
BRANCH   2   3
ATOM      3  C   UNL A   1      32.415  27.979  27.446  1.00  0.00     0.188 C 
BRANCH   3   4
ATOM      4  O   UNL A   1      32.047  26.937  26.556  1.00  0.00    -0.376 OA
BRANCH   4   5
ATOM      5  C   UNL A   1      30.801  26.367  26.785  1.00  0.00     0.202 C 
BRANCH   5   6
ATOM      6  C   UNL A   1      30.110  25.709  25.652  1.00  0.00     0.261 C 
BRANCH   6   7
ATOM      7  O   UNL A   1      30.120  26.501  24.479  1.00  0.00    -0.463 OA
BRANCH   7   8
ATOM      8  C   UNL A   1      30.646  26.112  23.316  1.00  0.00     0.312 C 
ATOM      9  O   UNL A   1      30.536  24.935  22.964  1.00  0.00    -0.252 OA
BRANCH   8  10
ATOM     10  C   UNL A   1      31.548  27.027  22.512  1.00  0.00     0.143 C 
ATOM     11  C   UNL A   1      32.622  26.609  21.504  1.00  0.00     0.124 C 
ATOM     12  C   UNL A   1      33.918  26.762  22.414  1.00  0.00     0.132 C 
ATOM     13  C   UNL A   1      32.385  27.762  23.571  1.00  0.00     0.133 C 
ATOM     14  C   UNL A   1      34.417  28.203  22.414  1.00  0.00     0.035 C 
ATOM     15  O   UNL A   1      33.407  26.767  23.771  1.00  0.00    -0.373 OA
ATOM     16  C   UNL A   1      33.191  28.927  22.976  1.00  0.00     0.036 C 
BRANCH  11  17
ATOM     17  C   UNL A   1      32.688  25.356  20.615  1.00  0.00     0.232 C 
ATOM     18  N   UNL A   1      32.844  24.038  20.932  1.00  0.00    -0.302 N 
ATOM     19  H   UNL A   1      32.661  23.447  20.165  1.00  0.00     0.172 HD
ATOM     20  O   UNL A   1      32.522  25.572  19.399  1.00  0.00    -0.274 OA
BRANCH  18  21
ATOM     21  C   UNL A   1      33.195  23.326  22.060  1.00  0.00     0.190 A 
ATOM     22  C   UNL A   1      34.332  23.005  24.079  1.00  0.00     0.086 A 
ATOM     23  N   UNL A   1      34.350  23.407  22.705  1.00  0.00    -0.220 NA
ATOM     24  C   UNL A   1      32.816  22.618  24.247  1.00  0.00     0.031 A 
ATOM     25  S   UNL A   1      32.139  22.215  22.663  1.00  0.00    -0.101 S 
ATOM     26  C   UNL A   1      31.680  22.335  25.295  1.00  0.00     0.059 C 
BRANCH  22  27
ATOM     27  C   UNL A   1      35.850  22.968  25.217  1.00  0.00     0.001 A 
ATOM     28  C   UNL A   1      40.167  23.678  26.405  1.00  0.00     0.044 C 
ATOM     29  C   UNL A   1      38.724  23.330  26.273  1.00  0.00    -0.051 A 
ATOM     30  C   UNL A   1      38.267  22.136  25.792  1.00  0.00     0.004 A 
ATOM     31  C   UNL A   1      37.743  24.237  26.539  1.00  0.00     0.004 A 
ATOM     32  C   UNL A   1      36.913  21.997  25.322  1.00  0.00     0.010 A 
ATOM     33  C   UNL A   1      36.404  24.029  26.086  1.00  0.00     0.010 A 
ENDBRANCH  22  27
ENDBRANCH  18  21
ENDBRANCH  11  17
ENDBRANCH   8  10
ENDBRANCH   7   8
ENDBRANCH   6   7
ENDBRANCH   5   6
ENDBRANCH   4   5
ENDBRANCH   3   4
ENDBRANCH   2   3
ENDBRANCH   1   2
BRANCH   1  34
ATOM     34  C   UNL A   1      35.298  30.552  27.822  1.00  0.00     0.188 C 
BRANCH  34  35
ATOM     35  C   UNL A   1      35.484  32.065  27.962  1.00  0.00     0.188 C 
BRANCH  35  36
ATOM     36  O   UNL A   1      34.732  32.537  29.071  1.00  0.00    -0.376 OA
BRANCH  36  37
ATOM     37  C   UNL A   1      34.887  33.920  29.345  1.00  0.00     0.202 C 
BRANCH  37  38
ATOM     38  C   UNL A   1      34.724  34.115  30.846  1.00  0.00     0.261 C 
BRANCH  38  39
ATOM     39  O   UNL A   1      35.987  33.750  31.464  1.00  0.00    -0.460 OA
BRANCH  39  40
ATOM     40  C   UNL A   1      35.974  32.582  32.178  1.00  0.00     0.338 C 
ATOM     41  O   UNL A   1      35.390  32.457  33.245  1.00  0.00    -0.246 OA
BRANCH  40  42
ATOM     42  C   UNL A   1      36.910  31.553  31.595  1.00  0.00     0.060 A 
ATOM     43  C   UNL A   1      36.806  30.210  31.977  1.00  0.00     0.016 A 
ATOM     44  C   UNL A   1      38.044  31.938  30.879  1.00  0.00     0.016 A 
ATOM     45  C   UNL A   1      37.897  29.330  31.805  1.00  0.00     0.010 A 
ATOM     46  C   UNL A   1      39.131  31.065  30.742  1.00  0.00     0.010 A 
ATOM     47  C   UNL A   1      39.132  29.787  31.310  1.00  0.00    -0.014 A 
BRANCH  47  48
ATOM     48  C   UNL A   1      40.422  29.018  31.496  1.00  0.00     0.031 A 
ATOM     49  C   UNL A   1      40.958  27.987  30.196  1.00  0.00     0.074 A 
ATOM     50  C   UNL A   1      41.246  29.293  32.588  1.00  0.00     0.049 A 
ATOM     51  N   UNL A   1      42.178  27.745  29.749  1.00  0.00    -0.248 NA
ATOM     52  C   UNL A   1      40.063  27.104  29.433  1.00  0.00     0.031 C 
ATOM     53  C   UNL A   1      41.891  28.228  33.258  1.00  0.00     0.029 A 
ATOM     54  N   UNL A   1      41.676  30.353  33.471  1.00  0.00    -0.354 N 
ATOM     55  C   UNL A   1      42.339  26.420  29.119  1.00  0.00     0.074 A 
ATOM     56  C   UNL A   1      40.909  26.326  28.701  1.00  0.00     0.031 C 
ATOM     57  C   UNL A   1      42.865  28.612  34.032  1.00  0.00     0.029 A 
ATOM     58  C   UNL A   1      42.867  29.995  34.214  1.00  0.00     0.049 A 
ATOM     59  H   UNL A   1      41.213  31.218  33.557  1.00  0.00     0.167 HD
ATOM     60  C   UNL A   1      43.509  25.401  29.180  1.00  0.00     0.034 A 
ATOM     61  C   UNL A   1      43.871  30.462  35.038  1.00  0.00     0.034 A 
ATOM     62  C   UNL A   1      45.103  25.511  30.048  1.00  0.00     0.049 A 
ATOM     63  C   UNL A   1      45.220  29.461  35.110  1.00  0.00     0.074 A 
ATOM     64  C   UNL A   1      46.496  25.467  29.742  1.00  0.00     0.029 A 
ATOM     65  N   UNL A   1      45.413  25.817  31.539  1.00  0.00    -0.354 N 
ATOM     66  N   UNL A   1      45.249  28.147  34.872  1.00  0.00    -0.248 NA
ATOM     67  C   UNL A   1      46.628  29.862  35.284  1.00  0.00     0.031 C 
ATOM     68  C   UNL A   1      47.389  25.928  30.903  1.00  0.00     0.029 A 
ATOM     69  C   UNL A   1      46.638  26.256  32.027  1.00  0.00     0.049 A 
ATOM     70  H   UNL A   1      44.685  25.689  32.189  1.00  0.00     0.167 HD
ATOM     71  C   UNL A   1      46.409  27.793  34.161  1.00  0.00     0.074 A 
ATOM     72  C   UNL A   1      47.302  28.798  34.758  1.00  0.00     0.031 C 
ATOM     73  C   UNL A   1      46.716  26.533  33.600  1.00  0.00     0.034 A 
BRANCH  60  74
ATOM     74  C   UNL A   1      43.321  24.093  28.258  1.00  0.00     0.023 A 
ATOM     75  C   UNL A   1      42.499  23.066  28.757  1.00  0.00     0.012 A 
ATOM     76  C   UNL A   1      43.892  23.789  26.980  1.00  0.00     0.148 A 
ATOM     77  C   UNL A   1      42.361  21.809  28.136  1.00  0.00     0.002 A 
ATOM     78  C   UNL A   1      43.841  22.503  26.404  1.00  0.00     0.091 A 
ATOM     79  F   UNL A   1      44.328  24.766  26.188  1.00  0.00    -0.205 F 
ATOM     80  C   UNL A   1      43.074  21.505  26.989  1.00  0.00     0.022 A 
BRANCH  78  81
ATOM     81  S   UNL A   1      44.737  22.043  24.894  1.00  0.00     0.127 S 
ATOM     82  O   UNL A   1      46.131  22.072  25.344  1.00  0.00    -0.237 OA
ATOM     83  O   UNL A   1      44.225  20.703  24.614  1.00  0.00    -0.237 OA
ATOM     84  O   UNL A   1      44.410  23.053  23.895  1.00  0.00    -0.744 OA
ENDBRANCH  78  81
ENDBRANCH  60  74
BRANCH  61  85
ATOM     85  C   UNL A   1      43.599  31.894  35.466  1.00  0.00     0.023 A 
ATOM     86  C   UNL A   1      42.553  32.664  34.931  1.00  0.00     0.012 A 
ATOM     87  C   UNL A   1      43.926  32.137  36.826  1.00  0.00     0.148 A 
ATOM     88  C   UNL A   1      41.697  33.410  35.778  1.00  0.00     0.002 A 
ATOM     89  C   UNL A   1      42.999  32.739  37.679  1.00  0.00     0.091 A 
ATOM     90  F   UNL A   1      45.043  31.579  37.320  1.00  0.00    -0.205 F 
ATOM     91  C   UNL A   1      41.868  33.371  37.159  1.00  0.00     0.022 A 
BRANCH  89  92
ATOM     92  S   UNL A   1      42.985  32.261  39.431  1.00  0.00     0.127 S 
ATOM     93  O   UNL A   1      43.601  33.335  40.088  1.00  0.00    -0.237 OA
ATOM     94  O   UNL A   1      41.531  32.073  39.674  1.00  0.00    -0.237 OA
ATOM     95  O   UNL A   1      43.694  30.958  39.417  1.00  0.00    -0.744 OA
ENDBRANCH  89  92
ENDBRANCH  61  85
BRANCH  73  96
ATOM     96  C   UNL A   1      46.397  25.281  34.497  1.00  0.00     0.023 A 
ATOM     97  C   UNL A   1      45.150  25.097  35.139  1.00  0.00     0.012 A 
ATOM     98  C   UNL A   1      47.382  24.296  34.790  1.00  0.00     0.148 A 
ATOM     99  C   UNL A   1      44.900  24.007  35.998  1.00  0.00     0.002 A 
ATOM    100  C   UNL A   1      47.108  23.180  35.581  1.00  0.00     0.091 A 
ATOM    101  F   UNL A   1      48.638  24.458  34.365  1.00  0.00    -0.205 F 
ATOM    102  C   UNL A   1      45.874  23.038  36.208  1.00  0.00     0.022 A 
BRANCH 100 103
ATOM    103  S   UNL A   1      48.332  21.872  35.772  1.00  0.00     0.127 S 
ATOM    104  O   UNL A   1      49.168  22.397  36.849  1.00  0.00    -0.237 OA
ATOM    105  O   UNL A   1      47.511  20.718  36.143  1.00  0.00    -0.237 OA
ATOM    106  O   UNL A   1      48.969  21.757  34.466  1.00  0.00    -0.744 OA
ENDBRANCH 100 103
ENDBRANCH  73  96
ENDBRANCH  47  48
ENDBRANCH  40  42
ENDBRANCH  39  40
ENDBRANCH  38  39
ENDBRANCH  37  38
ENDBRANCH  36  37
ENDBRANCH  35  36
ENDBRANCH  34  35
ENDBRANCH   1  34
TORSDOF 26
ENDMDL
