MODEL 1
REMARK VINA RESULT:     -10.2      0.000      0.000
REMARK SMILES CC[C@H]1CCC[C@H]([N@H+]2[C@@H](C(=O)OCCOCCOCCOCCOC(=O)c3ccc(-c4c5nc(c(-c6cccc(S(=O)(=O)[O-])c6F)c6ccc([nH]6)c(-c6cccc(S(=O)(=O)[O-])c6F)c6nc(c(-c7cccc(S(=O)(=O)[O-])c7F)c7ccc4[nH]7)C=C6)C=C5)cc3)CC[C@@H]3CCCC[C@H]32)C1
REMARK SMILES IDX 19 1 18 2 17 3 16 4 15 5 14 6 13 7 12 8 10 9 11 10 9 11 8 12
REMARK SMILES IDX 97 13 90 15 92 16 96 17 91 18 93 19 95 20 94 21 7 22 3 23
REMARK SMILES IDX 4 24 98 25 5 26 6 27 2 28 1 29 20 30 21 31 22 32 23 33 24 34
REMARK SMILES IDX 25 35 26 36 27 37 28 38 89 39 29 40 88 41 30 42 31 43 32 44
REMARK SMILES IDX 82 45 33 46 87 47 81 48 83 49 34 50 86 51 80 52 79 53 35 55
REMARK SMILES IDX 67 56 47 57 66 58 48 59 51 60 65 61 84 62 49 63 50 64 64 66
REMARK SMILES IDX 85 67 52 68 36 69 37 70 45 71 38 72 40 73 46 74 39 75 41 76
REMARK SMILES IDX 42 77 43 78 44 79 68 80 69 81 77 82 70 83 72 84 78 85 71 86
REMARK SMILES IDX 73 87 74 88 75 89 76 90 53 91 54 92 62 93 55 94 57 95 63 96
REMARK SMILES IDX 56 97 58 98 59 99 60 100 61 101
REMARK H PARENT 8 14 83 54 51 65
REMARK Flexibility Score: inf
ROOT
ATOM      1  C   UNL A   1      30.732  29.277  23.675  1.00  0.00     0.188 C 
ENDROOT
BRANCH   1   2
ATOM      2  O   UNL A   1      31.489  28.112  23.341  1.00  0.00    -0.377 OA
BRANCH   2   3
ATOM      3  C   UNL A   1      32.907  28.111  23.387  1.00  0.00     0.188 C 
BRANCH   3   4
ATOM      4  C   UNL A   1      33.565  27.534  24.638  1.00  0.00     0.188 C 
BRANCH   4   5
ATOM      5  O   UNL A   1      32.763  26.996  25.671  1.00  0.00    -0.376 OA
BRANCH   5   6
ATOM      6  C   UNL A   1      32.710  25.584  25.790  1.00  0.00     0.202 C 
BRANCH   6   7
ATOM      7  C   UNL A   1      31.436  24.895  26.341  1.00  0.00     0.261 C 
BRANCH   7   8
ATOM      8  O   UNL A   1      31.197  23.487  26.057  1.00  0.00    -0.459 OA
BRANCH   8   9
ATOM      9  C   UNL A   1      31.985  22.599  26.712  1.00  0.00     0.365 C 
ATOM     10  O   UNL A   1      32.255  22.715  27.914  1.00  0.00    -0.245 OA
BRANCH   9  11
ATOM     11  C   UNL A   1      32.774  21.590  25.866  1.00  0.00     0.295 C 
ATOM     12  N   UNL A   1      33.872  20.690  26.382  1.00  0.00    -0.318 N 
ATOM     13  C   UNL A   1      33.459  19.364  25.663  1.00  0.00     0.188 C 
ATOM     14  H   UNL A   1      33.927  20.629  27.398  1.00  0.00     0.349 HD
ATOM     15  C   UNL A   1      32.890  21.752  24.317  1.00  0.00     0.078 C 
ATOM     16  C   UNL A   1      34.034  19.241  24.269  1.00  0.00     0.048 C 
ATOM     17  C   UNL A   1      32.640  18.208  26.297  1.00  0.00     0.065 C 
ATOM     18  C   UNL A   1      33.344  20.436  23.465  1.00  0.00     0.016 C 
ATOM     19  C   UNL A   1      33.957  17.863  23.588  1.00  0.00     0.010 C 
ATOM     20  C   UNL A   1      32.026  17.369  25.135  1.00  0.00     0.006 C 
ATOM     21  C   UNL A   1      33.152  16.786  24.308  1.00  0.00     0.001 C 
BRANCH  12  22
ATOM     22  C   UNL A   1      35.387  21.188  26.141  1.00  0.00     0.185 C 
ATOM     23  C   UNL A   1      36.575  23.509  25.249  1.00  0.00    -0.006 C 
ATOM     24  C   UNL A   1      36.559  22.788  23.919  1.00  0.00     0.004 C 
ATOM     25  C   UNL A   1      35.784  22.711  26.373  1.00  0.00     0.068 C 
ATOM     26  C   UNL A   1      37.212  21.458  24.148  1.00  0.00     0.006 C 
ATOM     27  C   UNL A   1      36.320  20.601  25.019  1.00  0.00     0.065 C 
BRANCH  23  28
ATOM     28  C   UNL A   1      38.035  23.961  25.582  1.00  0.00     0.000 C 
ATOM     29  C   UNL A   1      38.190  24.571  26.994  1.00  0.00     0.004 C 
ENDBRANCH  23  28
ENDBRANCH  12  22
ENDBRANCH   9  11
ENDBRANCH   8   9
ENDBRANCH   7   8
ENDBRANCH   6   7
ENDBRANCH   5   6
ENDBRANCH   4   5
ENDBRANCH   3   4
ENDBRANCH   2   3
ENDBRANCH   1   2
BRANCH   1  30
ATOM     30  C   UNL A   1      31.148  30.050  24.920  1.00  0.00     0.188 C 
BRANCH  30  31
ATOM     31  O   UNL A   1      30.503  31.291  25.207  1.00  0.00    -0.376 OA
BRANCH  31  32
ATOM     32  C   UNL A   1      31.090  32.175  26.154  1.00  0.00     0.202 C 
BRANCH  32  33
ATOM     33  C   UNL A   1      31.976  31.452  27.174  1.00  0.00     0.261 C 
BRANCH  33  34
ATOM     34  O   UNL A   1      33.335  31.735  26.934  1.00  0.00    -0.460 OA
BRANCH  34  35
ATOM     35  C   UNL A   1      33.876  32.555  27.855  1.00  0.00     0.338 C 
ATOM     36  O   UNL A   1      33.353  33.487  28.449  1.00  0.00    -0.246 OA
BRANCH  35  37
ATOM     37  C   UNL A   1      35.135  31.903  28.190  1.00  0.00     0.060 A 
ATOM     38  C   UNL A   1      35.171  30.506  28.200  1.00  0.00     0.016 A 
ATOM     39  C   UNL A   1      36.286  32.685  28.368  1.00  0.00     0.016 A 
ATOM     40  C   UNL A   1      36.373  29.874  28.440  1.00  0.00     0.010 A 
ATOM     41  C   UNL A   1      37.487  32.060  28.608  1.00  0.00     0.010 A 
ATOM     42  C   UNL A   1      37.498  30.663  28.713  1.00  0.00    -0.014 A 
BRANCH  42  43
ATOM     43  C   UNL A   1      38.579  30.062  29.486  1.00  0.00     0.031 A 
ATOM     44  C   UNL A   1      38.735  30.570  30.888  1.00  0.00     0.074 A 
ATOM     45  C   UNL A   1      39.359  29.135  28.918  1.00  0.00     0.049 A 
ATOM     46  N   UNL A   1      39.646  30.284  31.770  1.00  0.00    -0.248 NA
ATOM     47  C   UNL A   1      37.737  31.558  31.355  1.00  0.00     0.031 C 
ATOM     48  C   UNL A   1      39.231  28.645  27.545  1.00  0.00     0.029 A 
ATOM     49  N   UNL A   1      40.435  28.471  29.422  1.00  0.00    -0.354 N 
ATOM     50  C   UNL A   1      39.340  31.063  32.879  1.00  0.00     0.074 A 
ATOM     51  C   UNL A   1      38.190  31.866  32.557  1.00  0.00     0.031 C 
ATOM     52  C   UNL A   1      40.228  27.777  27.302  1.00  0.00     0.029 A 
ATOM     53  C   UNL A   1      41.065  27.685  28.493  1.00  0.00     0.049 A 
ATOM     54  H   UNL A   1      40.731  28.549  30.358  1.00  0.00     0.167 HD
ATOM     55  C   UNL A   1      39.963  31.075  34.075  1.00  0.00     0.034 A 
ATOM     56  C   UNL A   1      42.219  27.006  28.612  1.00  0.00     0.034 A 
ATOM     57  C   UNL A   1      41.108  30.256  34.339  1.00  0.00     0.049 A 
ATOM     58  C   UNL A   1      42.905  27.049  29.951  1.00  0.00     0.074 A 
ATOM     59  C   UNL A   1      41.842  30.144  35.500  1.00  0.00     0.029 A 
ATOM     60  N   UNL A   1      41.686  29.408  33.403  1.00  0.00    -0.354 N 
ATOM     61  N   UNL A   1      42.564  27.718  31.031  1.00  0.00    -0.248 NA
ATOM     62  C   UNL A   1      44.103  26.221  30.108  1.00  0.00     0.031 C 
ATOM     63  C   UNL A   1      42.886  29.245  35.255  1.00  0.00     0.029 A 
ATOM     64  C   UNL A   1      42.770  28.765  33.957  1.00  0.00     0.049 A 
ATOM     65  H   UNL A   1      41.368  29.285  32.479  1.00  0.00     0.167 HD
ATOM     66  C   UNL A   1      43.482  27.363  32.008  1.00  0.00     0.074 A 
ATOM     67  C   UNL A   1      44.380  26.402  31.392  1.00  0.00     0.031 C 
ATOM     68  C   UNL A   1      43.595  27.786  33.292  1.00  0.00     0.034 A 
BRANCH  55  69
ATOM     69  C   UNL A   1      39.408  31.970  35.148  1.00  0.00     0.023 A 
ATOM     70  C   UNL A   1      38.384  31.498  35.996  1.00  0.00     0.012 A 
ATOM     71  C   UNL A   1      39.909  33.272  35.332  1.00  0.00     0.148 A 
ATOM     72  C   UNL A   1      37.851  32.314  36.992  1.00  0.00     0.002 A 
ATOM     73  C   UNL A   1      39.408  34.063  36.359  1.00  0.00     0.091 A 
ATOM     74  F   UNL A   1      40.855  33.716  34.492  1.00  0.00    -0.205 F 
ATOM     75  C   UNL A   1      38.371  33.591  37.182  1.00  0.00     0.022 A 
BRANCH  73  76
ATOM     76  S   UNL A   1      40.057  35.695  36.731  1.00  0.00     0.127 S 
ATOM     77  O   UNL A   1      41.495  35.435  36.791  1.00  0.00    -0.237 OA
ATOM     78  O   UNL A   1      39.625  36.465  35.565  1.00  0.00    -0.237 OA
ATOM     79  O   UNL A   1      39.450  36.095  37.992  1.00  0.00    -0.744 OA
ENDBRANCH  73  76
ENDBRANCH  55  69
BRANCH  56  80
ATOM     80  C   UNL A   1      42.763  26.240  27.460  1.00  0.00     0.023 A 
ATOM     81  C   UNL A   1      43.697  26.838  26.594  1.00  0.00     0.012 A 
ATOM     82  C   UNL A   1      42.378  24.903  27.236  1.00  0.00     0.148 A 
ATOM     83  C   UNL A   1      44.203  26.135  25.499  1.00  0.00     0.002 A 
ATOM     84  C   UNL A   1      42.928  24.190  26.178  1.00  0.00     0.091 A 
ATOM     85  F   UNL A   1      41.485  24.351  28.070  1.00  0.00    -0.205 F 
ATOM     86  C   UNL A   1      43.826  24.810  25.296  1.00  0.00     0.022 A 
BRANCH  84  87
ATOM     87  S   UNL A   1      42.595  22.443  25.925  1.00  0.00     0.127 S 
ATOM     88  O   UNL A   1      43.373  22.162  24.721  1.00  0.00    -0.237 OA
ATOM     89  O   UNL A   1      43.126  21.852  27.155  1.00  0.00    -0.237 OA
ATOM     90  O   UNL A   1      41.149  22.336  25.788  1.00  0.00    -0.744 OA
ENDBRANCH  84  87
ENDBRANCH  56  80
BRANCH  68  91
ATOM     91  C   UNL A   1      44.688  27.169  34.113  1.00  0.00     0.023 A 
ATOM     92  C   UNL A   1      45.981  27.725  34.097  1.00  0.00     0.012 A 
ATOM     93  C   UNL A   1      44.400  26.083  34.961  1.00  0.00     0.148 A 
ATOM     94  C   UNL A   1      46.988  27.178  34.887  1.00  0.00     0.002 A 
ATOM     95  C   UNL A   1      45.391  25.584  35.790  1.00  0.00     0.091 A 
ATOM     96  F   UNL A   1      43.161  25.569  34.945  1.00  0.00    -0.205 F 
ATOM     97  C   UNL A   1      46.689  26.118  35.742  1.00  0.00     0.022 A 
BRANCH  95  98
ATOM     98  S   UNL A   1      45.069  24.302  37.002  1.00  0.00     0.127 S 
ATOM     99  O   UNL A   1      43.898  24.839  37.695  1.00  0.00    -0.237 OA
ATOM    100  O   UNL A   1      44.799  23.141  36.154  1.00  0.00    -0.237 OA
ATOM    101  O   UNL A   1      46.276  24.195  37.810  1.00  0.00    -0.744 OA
ENDBRANCH  95  98
ENDBRANCH  68  91
ENDBRANCH  42  43
ENDBRANCH  35  37
ENDBRANCH  34  35
ENDBRANCH  33  34
ENDBRANCH  32  33
ENDBRANCH  31  32
ENDBRANCH  30  31
ENDBRANCH   1  30
TORSDOF 25
ENDMDL
MODEL 2
REMARK VINA RESULT:     -10.2      4.894     10.770
REMARK SMILES CC[C@H]1CCC[C@H]([N@H+]2[C@@H](C(=O)OCCOCCOCCOCCOC(=O)c3ccc(-c4c5nc(c(-c6cccc(S(=O)(=O)[O-])c6F)c6ccc([nH]6)c(-c6cccc(S(=O)(=O)[O-])c6F)c6nc(c(-c7cccc(S(=O)(=O)[O-])c7F)c7ccc4[nH]7)C=C6)C=C5)cc3)CC[C@@H]3CCCC[C@H]32)C1
REMARK SMILES IDX 19 1 18 2 17 3 16 4 15 5 14 6 13 7 12 8 10 9 11 10 9 11 8 12
REMARK SMILES IDX 97 13 90 15 92 16 96 17 91 18 93 19 95 20 94 21 7 22 3 23
REMARK SMILES IDX 4 24 98 25 5 26 6 27 2 28 1 29 20 30 21 31 22 32 23 33 24 34
REMARK SMILES IDX 25 35 26 36 27 37 28 38 89 39 29 40 88 41 30 42 31 43 32 44
REMARK SMILES IDX 82 45 33 46 87 47 81 48 83 49 34 50 86 51 80 52 79 53 35 55
REMARK SMILES IDX 67 56 47 57 66 58 48 59 51 60 65 61 84 62 49 63 50 64 64 66
REMARK SMILES IDX 85 67 52 68 36 69 37 70 45 71 38 72 40 73 46 74 39 75 41 76
REMARK SMILES IDX 42 77 43 78 44 79 68 80 69 81 77 82 70 83 72 84 78 85 71 86
REMARK SMILES IDX 73 87 74 88 75 89 76 90 53 91 54 92 62 93 55 94 57 95 63 96
REMARK SMILES IDX 56 97 58 98 59 99 60 100 61 101
REMARK H PARENT 8 14 83 54 51 65
REMARK Flexibility Score: inf
ROOT
ATOM      1  C   UNL A   1      36.416  21.764  25.748  1.00  0.00     0.188 C 
ENDROOT
BRANCH   1   2
ATOM      2  O   UNL A   1      35.262  21.297  25.046  1.00  0.00    -0.377 OA
BRANCH   2   3
ATOM      3  C   UNL A   1      34.010  21.147  25.697  1.00  0.00     0.188 C 
BRANCH   3   4
ATOM      4  C   UNL A   1      33.962  21.439  27.195  1.00  0.00     0.188 C 
BRANCH   4   5
ATOM      5  O   UNL A   1      33.427  22.663  27.657  1.00  0.00    -0.376 OA
BRANCH   5   6
ATOM      6  C   UNL A   1      32.103  22.988  27.266  1.00  0.00     0.202 C 
BRANCH   6   7
ATOM      7  C   UNL A   1      31.833  24.236  26.389  1.00  0.00     0.261 C 
BRANCH   7   8
ATOM      8  O   UNL A   1      31.239  25.423  26.986  1.00  0.00    -0.459 OA
BRANCH   8   9
ATOM      9  C   UNL A   1      30.098  25.880  26.412  1.00  0.00     0.365 C 
ATOM     10  O   UNL A   1      28.978  25.513  26.786  1.00  0.00    -0.245 OA
BRANCH   9  11
ATOM     11  C   UNL A   1      30.227  26.655  25.094  1.00  0.00     0.295 C 
ATOM     12  N   UNL A   1      29.603  26.249  23.780  1.00  0.00    -0.318 N 
ATOM     13  C   UNL A   1      29.072  27.645  23.319  1.00  0.00     0.188 C 
ATOM     14  H   UNL A   1      28.892  25.521  23.855  1.00  0.00     0.349 HD
ATOM     15  C   UNL A   1      31.417  27.636  24.847  1.00  0.00     0.078 C 
ATOM     16  C   UNL A   1      30.102  28.453  22.562  1.00  0.00     0.048 C 
ATOM     17  C   UNL A   1      27.619  28.162  23.493  1.00  0.00     0.065 C 
ATOM     18  C   UNL A   1      31.243  28.728  23.647  1.00  0.00     0.016 C 
ATOM     19  C   UNL A   1      29.611  29.696  21.799  1.00  0.00     0.010 C 
ATOM     20  C   UNL A   1      27.653  29.718  23.390  1.00  0.00     0.006 C 
ATOM     21  C   UNL A   1      28.157  30.103  22.016  1.00  0.00     0.001 C 
BRANCH  12  22
ATOM     22  C   UNL A   1      30.557  25.471  22.737  1.00  0.00     0.185 C 
ATOM     23  C   UNL A   1      32.701  23.751  22.939  1.00  0.00    -0.006 C 
ATOM     24  C   UNL A   1      33.502  25.025  22.784  1.00  0.00     0.004 C 
ATOM     25  C   UNL A   1      31.146  24.036  23.092  1.00  0.00     0.068 C 
ATOM     26  C   UNL A   1      32.989  25.703  21.548  1.00  0.00     0.006 C 
ATOM     27  C   UNL A   1      31.583  26.204  21.795  1.00  0.00     0.065 C 
BRANCH  23  28
ATOM     28  C   UNL A   1      33.137  22.721  21.845  1.00  0.00     0.000 C 
ATOM     29  C   UNL A   1      32.361  21.385  21.905  1.00  0.00     0.004 C 
ENDBRANCH  23  28
ENDBRANCH  12  22
ENDBRANCH   9  11
ENDBRANCH   8   9
ENDBRANCH   7   8
ENDBRANCH   6   7
ENDBRANCH   5   6
ENDBRANCH   4   5
ENDBRANCH   3   4
ENDBRANCH   2   3
ENDBRANCH   1   2
BRANCH   1  30
ATOM     30  C   UNL A   1      37.755  21.682  25.026  1.00  0.00     0.188 C 
BRANCH  30  31
ATOM     31  O   UNL A   1      38.867  21.094  25.702  1.00  0.00    -0.376 OA
BRANCH  31  32
ATOM     32  C   UNL A   1      39.108  19.700  25.559  1.00  0.00     0.202 C 
BRANCH  32  33
ATOM     33  C   UNL A   1      40.447  19.263  26.161  1.00  0.00     0.261 C 
BRANCH  33  34
ATOM     34  O   UNL A   1      41.518  19.755  25.389  1.00  0.00    -0.460 OA
BRANCH  34  35
ATOM     35  C   UNL A   1      42.630  19.986  26.111  1.00  0.00     0.338 C 
ATOM     36  O   UNL A   1      43.621  19.279  26.237  1.00  0.00    -0.246 OA
BRANCH  35  37
ATOM     37  C   UNL A   1      42.509  21.391  26.479  1.00  0.00     0.060 A 
ATOM     38  C   UNL A   1      42.222  22.313  25.468  1.00  0.00     0.016 A 
ATOM     39  C   UNL A   1      42.559  21.753  27.833  1.00  0.00     0.016 A 
ATOM     40  C   UNL A   1      42.028  23.635  25.810  1.00  0.00     0.010 A 
ATOM     41  C   UNL A   1      42.367  23.069  28.179  1.00  0.00     0.010 A 
ATOM     42  C   UNL A   1      42.176  24.004  27.154  1.00  0.00    -0.014 A 
BRANCH  42  43
ATOM     43  C   UNL A   1      42.523  25.390  27.444  1.00  0.00     0.031 A 
ATOM     44  C   UNL A   1      43.905  25.811  27.043  1.00  0.00     0.074 A 
ATOM     45  C   UNL A   1      41.630  26.181  28.048  1.00  0.00     0.049 A 
ATOM     46  N   UNL A   1      44.512  26.943  27.246  1.00  0.00    -0.248 NA
ATOM     47  C   UNL A   1      44.729  24.808  26.333  1.00  0.00     0.031 C 
ATOM     48  C   UNL A   1      40.285  25.778  28.464  1.00  0.00     0.029 A 
ATOM     49  N   UNL A   1      41.739  27.478  28.447  1.00  0.00    -0.354 N 
ATOM     50  C   UNL A   1      45.782  26.780  26.706  1.00  0.00     0.074 A 
ATOM     51  C   UNL A   1      45.885  25.435  26.205  1.00  0.00     0.031 C 
ATOM     52  C   UNL A   1      39.703  26.808  29.102  1.00  0.00     0.029 A 
ATOM     53  C   UNL A   1      40.650  27.916  29.156  1.00  0.00     0.049 A 
ATOM     54  H   UNL A   1      42.520  28.043  28.248  1.00  0.00     0.167 HD
ATOM     55  C   UNL A   1      46.765  27.699  26.620  1.00  0.00     0.034 A 
ATOM     56  C   UNL A   1      40.484  29.083  29.802  1.00  0.00     0.034 A 
ATOM     57  C   UNL A   1      46.609  29.024  27.142  1.00  0.00     0.049 A 
ATOM     58  C   UNL A   1      41.602  30.085  29.706  1.00  0.00     0.074 A 
ATOM     59  C   UNL A   1      47.503  30.073  27.122  1.00  0.00     0.029 A 
ATOM     60  N   UNL A   1      45.466  29.471  27.792  1.00  0.00    -0.354 N 
ATOM     61  N   UNL A   1      42.772  29.962  29.117  1.00  0.00    -0.248 NA
ATOM     62  C   UNL A   1      41.372  31.394  30.321  1.00  0.00     0.031 C 
ATOM     63  C   UNL A   1      46.908  31.149  27.788  1.00  0.00     0.029 A 
ATOM     64  C   UNL A   1      45.626  30.782  28.180  1.00  0.00     0.049 A 
ATOM     65  H   UNL A   1      44.659  28.929  27.953  1.00  0.00     0.167 HD
ATOM     66  C   UNL A   1      43.402  31.189  29.257  1.00  0.00     0.074 A 
ATOM     67  C   UNL A   1      42.471  32.046  29.968  1.00  0.00     0.031 C 
ATOM     68  C   UNL A   1      44.635  31.586  28.850  1.00  0.00     0.034 A 
BRANCH  55  69
ATOM     69  C   UNL A   1      48.043  27.300  25.937  1.00  0.00     0.023 A 
ATOM     70  C   UNL A   1      49.081  26.702  26.684  1.00  0.00     0.012 A 
ATOM     71  C   UNL A   1      48.216  27.498  24.555  1.00  0.00     0.148 A 
ATOM     72  C   UNL A   1      50.277  26.331  26.072  1.00  0.00     0.002 A 
ATOM     73  C   UNL A   1      49.390  27.080  23.942  1.00  0.00     0.091 A 
ATOM     74  F   UNL A   1      47.234  28.102  23.871  1.00  0.00    -0.205 F 
ATOM     75  C   UNL A   1      50.426  26.508  24.700  1.00  0.00     0.022 A 
BRANCH  73  76
ATOM     76  S   UNL A   1      49.655  27.198  22.170  1.00  0.00     0.127 S 
ATOM     77  O   UNL A   1      49.358  28.608  21.919  1.00  0.00    -0.237 OA
ATOM     78  O   UNL A   1      51.069  26.843  22.052  1.00  0.00    -0.237 OA
ATOM     79  O   UNL A   1      48.731  26.255  21.558  1.00  0.00    -0.744 OA
ENDBRANCH  73  76
ENDBRANCH  55  69
BRANCH  56  80
ATOM     80  C   UNL A   1      39.233  29.351  30.559  1.00  0.00     0.023 A 
ATOM     81  C   UNL A   1      39.001  28.710  31.790  1.00  0.00     0.012 A 
ATOM     82  C   UNL A   1      38.280  30.269  30.073  1.00  0.00     0.148 A 
ATOM     83  C   UNL A   1      37.823  28.942  32.501  1.00  0.00     0.002 A 
ATOM     84  C   UNL A   1      37.136  30.539  30.814  1.00  0.00     0.091 A 
ATOM     85  F   UNL A   1      38.516  30.869  28.898  1.00  0.00    -0.205 F 
ATOM     86  C   UNL A   1      36.895  29.861  32.019  1.00  0.00     0.022 A 
BRANCH  84  87
ATOM     87  S   UNL A   1      35.956  31.803  30.328  1.00  0.00     0.127 S 
ATOM     88  O   UNL A   1      36.824  32.960  30.125  1.00  0.00    -0.237 OA
ATOM     89  O   UNL A   1      35.389  31.234  29.104  1.00  0.00    -0.237 OA
ATOM     90  O   UNL A   1      35.012  31.903  31.433  1.00  0.00    -0.744 OA
ENDBRANCH  84  87
ENDBRANCH  56  80
BRANCH  68  91
ATOM     91  C   UNL A   1      45.008  33.014  29.122  1.00  0.00     0.023 A 
ATOM     92  C   UNL A   1      45.715  33.347  30.293  1.00  0.00     0.012 A 
ATOM     93  C   UNL A   1      44.721  34.006  28.167  1.00  0.00     0.148 A 
ATOM     94  C   UNL A   1      46.096  34.665  30.528  1.00  0.00     0.002 A 
ATOM     95  C   UNL A   1      45.159  35.304  28.380  1.00  0.00     0.091 A 
ATOM     96  F   UNL A   1      44.036  33.659  27.067  1.00  0.00    -0.205 F 
ATOM     97  C   UNL A   1      45.830  35.638  29.567  1.00  0.00     0.022 A 
BRANCH  95  98
ATOM     98  S   UNL A   1      44.963  36.593  27.148  1.00  0.00     0.127 S 
ATOM     99  O   UNL A   1      43.631  36.299  26.622  1.00  0.00    -0.237 OA
ATOM    100  O   UNL A   1      45.045  37.807  27.961  1.00  0.00    -0.237 OA
ATOM    101  O   UNL A   1      46.058  36.422  26.204  1.00  0.00    -0.744 OA
ENDBRANCH  95  98
ENDBRANCH  68  91
ENDBRANCH  42  43
ENDBRANCH  35  37
ENDBRANCH  34  35
ENDBRANCH  33  34
ENDBRANCH  32  33
ENDBRANCH  31  32
ENDBRANCH  30  31
ENDBRANCH   1  30
TORSDOF 25
ENDMDL
MODEL 3
REMARK VINA RESULT:     -10.1      2.381      8.035
REMARK SMILES CC[C@H]1CCC[C@H]([N@H+]2[C@@H](C(=O)OCCOCCOCCOCCOC(=O)c3ccc(-c4c5nc(c(-c6cccc(S(=O)(=O)[O-])c6F)c6ccc([nH]6)c(-c6cccc(S(=O)(=O)[O-])c6F)c6nc(c(-c7cccc(S(=O)(=O)[O-])c7F)c7ccc4[nH]7)C=C6)C=C5)cc3)CC[C@@H]3CCCC[C@H]32)C1
REMARK SMILES IDX 19 1 18 2 17 3 16 4 15 5 14 6 13 7 12 8 10 9 11 10 9 11 8 12
REMARK SMILES IDX 97 13 90 15 92 16 96 17 91 18 93 19 95 20 94 21 7 22 3 23
REMARK SMILES IDX 4 24 98 25 5 26 6 27 2 28 1 29 20 30 21 31 22 32 23 33 24 34
REMARK SMILES IDX 25 35 26 36 27 37 28 38 89 39 29 40 88 41 30 42 31 43 32 44
REMARK SMILES IDX 82 45 33 46 87 47 81 48 83 49 34 50 86 51 80 52 79 53 35 55
REMARK SMILES IDX 67 56 47 57 66 58 48 59 51 60 65 61 84 62 49 63 50 64 64 66
REMARK SMILES IDX 85 67 52 68 36 69 37 70 45 71 38 72 40 73 46 74 39 75 41 76
REMARK SMILES IDX 42 77 43 78 44 79 68 80 69 81 77 82 70 83 72 84 78 85 71 86
REMARK SMILES IDX 73 87 74 88 75 89 76 90 53 91 54 92 62 93 55 94 57 95 63 96
REMARK SMILES IDX 56 97 58 98 59 99 60 100 61 101
REMARK H PARENT 8 14 83 54 51 65
REMARK Flexibility Score: inf
ROOT
ATOM      1  C   UNL A   1      31.410  28.781  25.594  1.00  0.00     0.188 C 
ENDROOT
BRANCH   1   2
ATOM      2  O   UNL A   1      32.099  29.453  24.538  1.00  0.00    -0.377 OA
BRANCH   2   3
ATOM      3  C   UNL A   1      32.336  28.823  23.289  1.00  0.00     0.188 C 
BRANCH   3   4
ATOM      4  C   UNL A   1      32.375  27.296  23.274  1.00  0.00     0.188 C 
BRANCH   4   5
ATOM      5  O   UNL A   1      31.366  26.572  22.598  1.00  0.00    -0.376 OA
BRANCH   5   6
ATOM      6  C   UNL A   1      31.137  25.233  23.005  1.00  0.00     0.202 C 
BRANCH   6   7
ATOM      7  C   UNL A   1      30.568  24.933  24.415  1.00  0.00     0.261 C 
BRANCH   7   8
ATOM      8  O   UNL A   1      31.465  24.892  25.561  1.00  0.00    -0.459 OA
BRANCH   8   9
ATOM      9  C   UNL A   1      31.497  23.728  26.258  1.00  0.00     0.365 C 
ATOM     10  O   UNL A   1      30.809  23.543  27.268  1.00  0.00    -0.245 OA
BRANCH   9  11
ATOM     11  C   UNL A   1      32.621  22.735  25.929  1.00  0.00     0.295 C 
ATOM     12  N   UNL A   1      32.848  22.093  24.581  1.00  0.00    -0.318 N 
ATOM     13  C   UNL A   1      34.402  22.245  24.498  1.00  0.00     0.188 C 
ATOM     14  H   UNL A   1      32.333  22.524  23.814  1.00  0.00     0.349 HD
ATOM     15  C   UNL A   1      33.310  21.896  27.051  1.00  0.00     0.078 C 
ATOM     16  C   UNL A   1      35.147  21.102  25.151  1.00  0.00     0.048 C 
ATOM     17  C   UNL A   1      35.162  23.369  23.744  1.00  0.00     0.065 C 
ATOM     18  C   UNL A   1      34.753  21.223  26.695  1.00  0.00     0.016 C 
ATOM     19  C   UNL A   1      36.654  20.980  24.867  1.00  0.00     0.010 C 
ATOM     20  C   UNL A   1      36.603  23.447  24.335  1.00  0.00     0.006 C 
ATOM     21  C   UNL A   1      37.301  22.125  24.093  1.00  0.00     0.001 C 
BRANCH  12  22
ATOM     22  C   UNL A   1      32.268  20.601  24.384  1.00  0.00     0.185 C 
ATOM     23  C   UNL A   1      33.150  18.056  24.966  1.00  0.00    -0.006 C 
ATOM     24  C   UNL A   1      33.639  18.096  23.535  1.00  0.00     0.004 C 
ATOM     25  C   UNL A   1      32.587  19.461  25.447  1.00  0.00     0.068 C 
ATOM     26  C   UNL A   1      32.461  18.484  22.693  1.00  0.00     0.006 C 
ATOM     27  C   UNL A   1      32.090  19.923  22.975  1.00  0.00     0.065 C 
BRANCH  23  28
ATOM     28  C   UNL A   1      32.229  16.807  25.169  1.00  0.00     0.000 C 
ATOM     29  C   UNL A   1      32.900  15.663  25.964  1.00  0.00     0.004 C 
ENDBRANCH  23  28
ENDBRANCH  12  22
ENDBRANCH   9  11
ENDBRANCH   8   9
ENDBRANCH   7   8
ENDBRANCH   6   7
ENDBRANCH   5   6
ENDBRANCH   4   5
ENDBRANCH   3   4
ENDBRANCH   2   3
ENDBRANCH   1   2
BRANCH   1  30
ATOM     30  C   UNL A   1      32.210  28.437  26.845  1.00  0.00     0.188 C 
BRANCH  30  31
ATOM     31  O   UNL A   1      33.276  29.300  27.240  1.00  0.00    -0.376 OA
BRANCH  31  32
ATOM     32  C   UNL A   1      33.100  30.708  27.147  1.00  0.00     0.202 C 
BRANCH  32  33
ATOM     33  C   UNL A   1      34.359  31.492  27.531  1.00  0.00     0.261 C 
BRANCH  33  34
ATOM     34  O   UNL A   1      34.200  32.859  27.227  1.00  0.00    -0.460 OA
BRANCH  34  35
ATOM     35  C   UNL A   1      33.777  33.588  28.277  1.00  0.00     0.338 C 
ATOM     36  O   UNL A   1      32.678  34.092  28.463  1.00  0.00    -0.246 OA
BRANCH  35  37
ATOM     37  C   UNL A   1      34.829  33.400  29.266  1.00  0.00     0.060 A 
ATOM     38  C   UNL A   1      36.057  34.032  29.050  1.00  0.00     0.016 A 
ATOM     39  C   UNL A   1      34.542  32.704  30.450  1.00  0.00     0.016 A 
ATOM     40  C   UNL A   1      37.037  33.927  30.014  1.00  0.00     0.010 A 
ATOM     41  C   UNL A   1      35.516  32.596  31.414  1.00  0.00     0.010 A 
ATOM     42  C   UNL A   1      36.776  33.149  31.149  1.00  0.00    -0.014 A 
BRANCH  42  43
ATOM     43  C   UNL A   1      37.914  32.584  31.863  1.00  0.00     0.031 A 
ATOM     44  C   UNL A   1      38.613  31.449  31.177  1.00  0.00     0.074 A 
ATOM     45  C   UNL A   1      38.253  33.077  33.059  1.00  0.00     0.049 A 
ATOM     46  N   UNL A   1      39.591  30.706  31.603  1.00  0.00    -0.248 NA
ATOM     47  C   UNL A   1      38.125  31.082  29.829  1.00  0.00     0.031 C 
ATOM     48  C   UNL A   1      37.568  34.170  33.751  1.00  0.00     0.029 A 
ATOM     49  N   UNL A   1      39.238  32.692  33.916  1.00  0.00    -0.354 N 
ATOM     50  C   UNL A   1      39.821  29.784  30.589  1.00  0.00     0.074 A 
ATOM     51  C   UNL A   1      38.861  30.022  29.544  1.00  0.00     0.031 C 
ATOM     52  C   UNL A   1      38.137  34.343  34.956  1.00  0.00     0.029 A 
ATOM     53  C   UNL A   1      39.197  33.354  35.116  1.00  0.00     0.049 A 
ATOM     54  H   UNL A   1      39.911  32.008  33.697  1.00  0.00     0.167 HD
ATOM     55  C   UNL A   1      40.780  28.837  30.538  1.00  0.00     0.034 A 
ATOM     56  C   UNL A   1      39.927  33.133  36.222  1.00  0.00     0.034 A 
ATOM     57  C   UNL A   1      41.707  28.641  31.612  1.00  0.00     0.049 A 
ATOM     58  C   UNL A   1      40.978  32.058  36.146  1.00  0.00     0.074 A 
ATOM     59  C   UNL A   1      42.742  27.736  31.707  1.00  0.00     0.029 A 
ATOM     60  N   UNL A   1      41.693  29.376  32.790  1.00  0.00    -0.354 N 
ATOM     61  N   UNL A   1      41.254  31.244  35.151  1.00  0.00    -0.248 NA
ATOM     62  C   UNL A   1      41.842  31.894  37.317  1.00  0.00     0.031 C 
ATOM     63  C   UNL A   1      43.338  27.906  32.961  1.00  0.00     0.029 A 
ATOM     64  C   UNL A   1      42.702  28.948  33.624  1.00  0.00     0.049 A 
ATOM     65  H   UNL A   1      41.056  30.097  32.999  1.00  0.00     0.167 HD
ATOM     66  C   UNL A   1      42.349  30.497  35.560  1.00  0.00     0.074 A 
ATOM     67  C   UNL A   1      42.695  30.975  36.887  1.00  0.00     0.031 C 
ATOM     68  C   UNL A   1      43.013  29.502  34.918  1.00  0.00     0.034 A 
BRANCH  55  69
ATOM     69  C   UNL A   1      40.865  27.989  29.300  1.00  0.00     0.023 A 
ATOM     70  C   UNL A   1      40.014  26.872  29.155  1.00  0.00     0.012 A 
ATOM     71  C   UNL A   1      41.771  28.302  28.271  1.00  0.00     0.148 A 
ATOM     72  C   UNL A   1      40.081  26.067  28.018  1.00  0.00     0.002 A 
ATOM     73  C   UNL A   1      41.798  27.526  27.118  1.00  0.00     0.091 A 
ATOM     74  F   UNL A   1      42.596  29.344  28.443  1.00  0.00    -0.205 F 
ATOM     75  C   UNL A   1      40.963  26.402  26.995  1.00  0.00     0.022 A 
BRANCH  73  76
ATOM     76  S   UNL A   1      42.847  27.911  25.713  1.00  0.00     0.127 S 
ATOM     77  O   UNL A   1      43.083  26.584  25.146  1.00  0.00    -0.237 OA
ATOM     78  O   UNL A   1      41.974  28.769  24.912  1.00  0.00    -0.237 OA
ATOM     79  O   UNL A   1      44.026  28.569  26.256  1.00  0.00    -0.744 OA
ENDBRANCH  73  76
ENDBRANCH  55  69
BRANCH  56  80
ATOM     80  C   UNL A   1      39.696  33.939  37.450  1.00  0.00     0.023 A 
ATOM     81  C   UNL A   1      40.207  35.246  37.543  1.00  0.00     0.012 A 
ATOM     82  C   UNL A   1      38.939  33.420  38.520  1.00  0.00     0.148 A 
ATOM     83  C   UNL A   1      40.010  36.006  38.697  1.00  0.00     0.002 A 
ATOM     84  C   UNL A   1      38.698  34.202  39.643  1.00  0.00     0.091 A 
ATOM     85  F   UNL A   1      38.462  32.172  38.416  1.00  0.00    -0.205 F 
ATOM     86  C   UNL A   1      39.250  35.488  39.742  1.00  0.00     0.022 A 
BRANCH  84  87
ATOM     87  S   UNL A   1      37.622  33.660  40.975  1.00  0.00     0.127 S 
ATOM     88  O   UNL A   1      36.449  33.193  40.240  1.00  0.00    -0.237 OA
ATOM     89  O   UNL A   1      38.421  32.604  41.599  1.00  0.00    -0.237 OA
ATOM     90  O   UNL A   1      37.421  34.832  41.817  1.00  0.00    -0.744 OA
ENDBRANCH  84  87
ENDBRANCH  56  80
BRANCH  68  91
ATOM     91  C   UNL A   1      44.199  28.916  35.626  1.00  0.00     0.023 A 
ATOM     92  C   UNL A   1      45.471  29.499  35.471  1.00  0.00     0.012 A 
ATOM     93  C   UNL A   1      44.024  27.832  36.507  1.00  0.00     0.148 A 
ATOM     94  C   UNL A   1      46.566  28.980  36.156  1.00  0.00     0.002 A 
ATOM     95  C   UNL A   1      45.106  27.363  37.233  1.00  0.00     0.091 A 
ATOM     96  F   UNL A   1      42.802  27.293  36.624  1.00  0.00    -0.205 F 
ATOM     97  C   UNL A   1      46.380  27.923  37.046  1.00  0.00     0.022 A 
BRANCH  95  98
ATOM     98  S   UNL A   1      44.939  26.087  38.483  1.00  0.00     0.127 S 
ATOM     99  O   UNL A   1      46.277  26.076  39.074  1.00  0.00    -0.237 OA
ATOM    100  O   UNL A   1      43.893  26.637  39.344  1.00  0.00    -0.237 OA
ATOM    101  O   UNL A   1      44.562  24.872  37.773  1.00  0.00    -0.744 OA
ENDBRANCH  95  98
ENDBRANCH  68  91
ENDBRANCH  42  43
ENDBRANCH  35  37
ENDBRANCH  34  35
ENDBRANCH  33  34
ENDBRANCH  32  33
ENDBRANCH  31  32
ENDBRANCH  30  31
ENDBRANCH   1  30
TORSDOF 25
ENDMDL
