MODEL 1
REMARK VINA RESULT:      -7.9      0.000      0.000
REMARK SMILES O=C(OCCOCCOCCOCCOC(=O)c1ccc(-c2c3nc(c(-c4cccc(S(=O)(=O)[O-])c4F)c4ccc([nH]4)c(-c4cccc(S(=O)(=O)[O-])c4F)c4nc(c(-c5cccc(S(=O)(=O)[O-])c5F)c5ccc2[nH]5)C=C4)C=C3)cc1)c1ccc(NS(=O)(=O)Cc2c(Cl)cccc2Cl)cc1
REMARK SMILES IDX 8 1 7 2 6 3 5 4 4 5 3 6 2 7 1 8 81 9 82 10 99 11 83 12 98 13
REMARK SMILES IDX 84 14 85 15 86 17 87 18 88 19 89 20 90 21 91 22 96 23 92 24
REMARK SMILES IDX 93 25 95 26 97 27 94 28 9 29 10 30 11 31 12 32 13 33 14 34
REMARK SMILES IDX 15 35 16 36 17 37 18 38 19 39 80 40 20 41 79 42 21 43 22 44
REMARK SMILES IDX 23 45 73 46 24 47 78 48 72 49 74 50 25 51 77 52 71 53 70 54
REMARK SMILES IDX 26 56 58 57 38 58 57 59 39 60 42 61 56 62 75 63 40 64 41 65
REMARK SMILES IDX 55 67 76 68 43 69 27 70 28 71 36 72 29 73 31 74 37 75 30 76
REMARK SMILES IDX 32 77 33 78 34 79 35 80 59 81 60 82 68 83 61 84 63 85 69 86
REMARK SMILES IDX 62 87 64 88 65 89 66 90 67 91 44 92 45 93 53 94 46 95 48 96
REMARK SMILES IDX 54 97 47 98 49 99 50 100 51 101 52 102
REMARK H PARENT 85 16 74 55 42 66
REMARK Flexibility Score: inf
ROOT
ATOM      1  C   UNL A   1      44.161  22.091  25.774  1.00  0.00     0.188 C 
ENDROOT
BRANCH   1   2
ATOM      2  C   UNL A   1      44.738  23.500  25.602  1.00  0.00     0.188 C 
BRANCH   2   3
ATOM      3  O   UNL A   1      46.157  23.415  25.696  1.00  0.00    -0.376 OA
BRANCH   3   4
ATOM      4  C   UNL A   1      46.784  23.937  26.850  1.00  0.00     0.202 C 
BRANCH   4   5
ATOM      5  C   UNL A   1      48.039  24.760  26.601  1.00  0.00     0.261 C 
BRANCH   5   6
ATOM      6  O   UNL A   1      49.215  24.319  27.308  1.00  0.00    -0.460 OA
BRANCH   6   7
ATOM      7  C   UNL A   1      49.941  25.015  28.213  1.00  0.00     0.338 C 
ATOM      8  O   UNL A   1      51.064  25.430  27.947  1.00  0.00    -0.246 OA
BRANCH   7   9
ATOM      9  C   UNL A   1      49.333  25.415  29.493  1.00  0.00     0.060 A 
ATOM     10  C   UNL A   1      48.010  25.853  29.587  1.00  0.00     0.018 A 
ATOM     11  C   UNL A   1      50.059  25.173  30.657  1.00  0.00     0.018 A 
ATOM     12  C   UNL A   1      47.467  26.217  30.819  1.00  0.00     0.027 A 
ATOM     13  C   UNL A   1      49.500  25.493  31.895  1.00  0.00     0.027 A 
ATOM     14  C   UNL A   1      48.227  26.072  31.974  1.00  0.00     0.049 A 
BRANCH  14  15
ATOM     15  N   UNL A   1      47.828  26.545  33.244  1.00  0.00    -0.283 N 
ATOM     16  H   UNL A   1      48.262  27.371  33.558  1.00  0.00     0.180 HD
BRANCH  15  17
ATOM     17  S   UNL A   1      46.719  25.874  34.260  1.00  0.00     0.237 S 
ATOM     18  O   UNL A   1      47.165  24.533  34.583  1.00  0.00    -0.206 OA
ATOM     19  O   UNL A   1      46.585  26.845  35.332  1.00  0.00    -0.206 OA
BRANCH  17  20
ATOM     20  C   UNL A   1      45.110  25.763  33.450  1.00  0.00     0.198 C 
BRANCH  20  21
ATOM     21  C   UNL A   1      43.884  25.343  34.238  1.00  0.00     0.006 A 
ATOM     22  C   UNL A   1      42.929  26.332  34.596  1.00  0.00     0.046 A 
ATOM     23  C   UNL A   1      43.514  24.012  34.501  1.00  0.00     0.046 A 
ATOM     24  Cl  UNL A   1      43.095  27.999  34.146  1.00  0.00    -0.084 Cl
ATOM     25  C   UNL A   1      41.742  26.013  35.274  1.00  0.00     0.021 A 
ATOM     26  C   UNL A   1      42.354  23.702  35.235  1.00  0.00     0.021 A 
ATOM     27  Cl  UNL A   1      44.356  22.653  33.842  1.00  0.00    -0.084 Cl
ATOM     28  C   UNL A   1      41.472  24.701  35.629  1.00  0.00     0.003 A 
ENDBRANCH  20  21
ENDBRANCH  17  20
ENDBRANCH  15  17
ENDBRANCH  14  15
ENDBRANCH   7   9
ENDBRANCH   6   7
ENDBRANCH   5   6
ENDBRANCH   4   5
ENDBRANCH   3   4
ENDBRANCH   2   3
ENDBRANCH   1   2
BRANCH   1  29
ATOM     29  O   UNL A   1      43.785  21.434  24.560  1.00  0.00    -0.377 OA
BRANCH  29  30
ATOM     30  C   UNL A   1      44.213  20.084  24.407  1.00  0.00     0.188 C 
BRANCH  30  31
ATOM     31  C   UNL A   1      44.177  19.177  25.657  1.00  0.00     0.188 C 
BRANCH  31  32
ATOM     32  O   UNL A   1      43.030  19.366  26.472  1.00  0.00    -0.376 OA
BRANCH  32  33
ATOM     33  C   UNL A   1      41.806  18.845  25.968  1.00  0.00     0.202 C 
BRANCH  33  34
ATOM     34  C   UNL A   1      40.568  19.762  25.900  1.00  0.00     0.261 C 
BRANCH  34  35
ATOM     35  O   UNL A   1      40.718  21.086  26.433  1.00  0.00    -0.460 OA
BRANCH  35  36
ATOM     36  C   UNL A   1      39.660  21.922  26.381  1.00  0.00     0.338 C 
ATOM     37  O   UNL A   1      38.499  21.615  26.164  1.00  0.00    -0.246 OA
BRANCH  36  38
ATOM     38  C   UNL A   1      40.110  23.243  26.894  1.00  0.00     0.060 A 
ATOM     39  C   UNL A   1      39.769  24.389  26.162  1.00  0.00     0.016 A 
ATOM     40  C   UNL A   1      40.755  23.370  28.131  1.00  0.00     0.016 A 
ATOM     41  C   UNL A   1      40.105  25.658  26.644  1.00  0.00     0.010 A 
ATOM     42  C   UNL A   1      41.105  24.640  28.606  1.00  0.00     0.010 A 
ATOM     43  C   UNL A   1      40.817  25.787  27.844  1.00  0.00    -0.014 A 
BRANCH  43  44
ATOM     44  C   UNL A   1      41.491  27.074  28.152  1.00  0.00     0.031 A 
ATOM     45  C   UNL A   1      40.661  28.149  28.807  1.00  0.00     0.074 A 
ATOM     46  C   UNL A   1      42.793  27.296  27.891  1.00  0.00     0.049 A 
ATOM     47  N   UNL A   1      41.006  29.347  29.194  1.00  0.00    -0.248 NA
ATOM     48  C   UNL A   1      39.247  27.818  29.057  1.00  0.00     0.031 C 
ATOM     49  C   UNL A   1      43.710  26.345  27.268  1.00  0.00     0.029 A 
ATOM     50  N   UNL A   1      43.562  28.414  28.108  1.00  0.00    -0.354 N 
ATOM     51  C   UNL A   1      39.850  29.922  29.710  1.00  0.00     0.074 A 
ATOM     52  C   UNL A   1      38.790  28.948  29.569  1.00  0.00     0.031 C 
ATOM     53  C   UNL A   1      44.917  26.928  27.134  1.00  0.00     0.029 A 
ATOM     54  C   UNL A   1      44.852  28.298  27.644  1.00  0.00     0.049 A 
ATOM     55  H   UNL A   1      43.223  29.223  28.556  1.00  0.00     0.167 HD
ATOM     56  C   UNL A   1      39.680  31.142  30.267  1.00  0.00     0.034 A 
ATOM     57  C   UNL A   1      45.856  29.201  27.620  1.00  0.00     0.034 A 
ATOM     58  C   UNL A   1      40.729  32.111  30.415  1.00  0.00     0.049 A 
ATOM     59  C   UNL A   1      45.633  30.573  28.213  1.00  0.00     0.074 A 
ATOM     60  C   UNL A   1      40.667  33.362  31.001  1.00  0.00     0.029 A 
ATOM     61  N   UNL A   1      42.026  31.947  29.955  1.00  0.00    -0.354 N 
ATOM     62  N   UNL A   1      44.569  31.055  28.810  1.00  0.00    -0.248 NA
ATOM     63  C   UNL A   1      46.764  31.512  28.162  1.00  0.00     0.031 C 
ATOM     64  C   UNL A   1      41.920  33.969  30.865  1.00  0.00     0.029 A 
ATOM     65  C   UNL A   1      42.772  33.079  30.231  1.00  0.00     0.049 A 
ATOM     66  H   UNL A   1      42.366  31.143  29.498  1.00  0.00     0.167 HD
ATOM     67  C   UNL A   1      44.916  32.332  29.240  1.00  0.00     0.074 A 
ATOM     68  C   UNL A   1      46.295  32.543  28.852  1.00  0.00     0.031 C 
ATOM     69  C   UNL A   1      44.160  33.253  29.890  1.00  0.00     0.034 A 
BRANCH  56  70
ATOM     70  C   UNL A   1      38.304  31.488  30.769  1.00  0.00     0.023 A 
ATOM     71  C   UNL A   1      37.981  31.285  32.126  1.00  0.00     0.012 A 
ATOM     72  C   UNL A   1      37.342  32.040  29.902  1.00  0.00     0.148 A 
ATOM     73  C   UNL A   1      36.708  31.590  32.605  1.00  0.00     0.002 A 
ATOM     74  C   UNL A   1      36.092  32.387  30.398  1.00  0.00     0.091 A 
ATOM     75  F   UNL A   1      37.660  32.198  28.610  1.00  0.00    -0.205 F 
ATOM     76  C   UNL A   1      35.768  32.151  31.744  1.00  0.00     0.022 A 
BRANCH  74  77
ATOM     77  S   UNL A   1      34.842  33.189  29.389  1.00  0.00     0.127 S 
ATOM     78  O   UNL A   1      33.881  33.626  30.402  1.00  0.00    -0.237 OA
ATOM     79  O   UNL A   1      35.602  34.273  28.763  1.00  0.00    -0.237 OA
ATOM     80  O   UNL A   1      34.358  32.174  28.466  1.00  0.00    -0.744 OA
ENDBRANCH  74  77
ENDBRANCH  56  70
BRANCH  57  81
ATOM     81  C   UNL A   1      47.184  28.839  27.044  1.00  0.00     0.023 A 
ATOM     82  C   UNL A   1      48.319  28.802  27.879  1.00  0.00     0.012 A 
ATOM     83  C   UNL A   1      47.333  28.545  25.675  1.00  0.00     0.148 A 
ATOM     84  C   UNL A   1      49.581  28.516  27.355  1.00  0.00     0.002 A 
ATOM     85  C   UNL A   1      48.583  28.204  25.170  1.00  0.00     0.091 A 
ATOM     86  F   UNL A   1      46.247  28.604  24.892  1.00  0.00    -0.205 F 
ATOM     87  C   UNL A   1      49.713  28.209  26.004  1.00  0.00     0.022 A 
BRANCH  85  88
ATOM     88  S   UNL A   1      48.828  27.669  23.473  1.00  0.00     0.127 S 
ATOM     89  O   UNL A   1      50.164  28.184  23.186  1.00  0.00    -0.237 OA
ATOM     90  O   UNL A   1      48.741  26.214  23.606  1.00  0.00    -0.237 OA
ATOM     91  O   UNL A   1      47.742  28.269  22.711  1.00  0.00    -0.744 OA
ENDBRANCH  85  88
ENDBRANCH  57  81
BRANCH  69  92
ATOM     92  C   UNL A   1      44.812  34.557  30.279  1.00  0.00     0.023 A 
ATOM     93  C   UNL A   1      45.480  34.675  31.514  1.00  0.00     0.012 A 
ATOM     94  C   UNL A   1      44.830  35.642  29.379  1.00  0.00     0.148 A 
ATOM     95  C   UNL A   1      46.121  35.864  31.863  1.00  0.00     0.002 A 
ATOM     96  C   UNL A   1      45.515  36.805  29.711  1.00  0.00     0.091 A 
ATOM     97  F   UNL A   1      44.177  35.518  28.214  1.00  0.00    -0.205 F 
ATOM     98  C   UNL A   1      46.148  36.922  30.959  1.00  0.00     0.022 A 
BRANCH  96  99
ATOM     99  S   UNL A   1      45.688  38.180  28.568  1.00  0.00     0.127 S 
ATOM    100  O   UNL A   1      47.139  38.262  28.418  1.00  0.00    -0.237 OA
ATOM    101  O   UNL A   1      44.980  37.690  27.385  1.00  0.00    -0.237 OA
ATOM    102  O   UNL A   1      45.060  39.323  29.217  1.00  0.00    -0.744 OA
ENDBRANCH  96  99
ENDBRANCH  69  92
ENDBRANCH  43  44
ENDBRANCH  36  38
ENDBRANCH  35  36
ENDBRANCH  34  35
ENDBRANCH  33  34
ENDBRANCH  32  33
ENDBRANCH  31  32
ENDBRANCH  30  31
ENDBRANCH  29  30
ENDBRANCH   1  29
TORSDOF 27
ENDMDL
MODEL 2
REMARK VINA RESULT:      -7.7      7.165     15.956
REMARK SMILES O=C(OCCOCCOCCOCCOC(=O)c1ccc(-c2c3nc(c(-c4cccc(S(=O)(=O)[O-])c4F)c4ccc([nH]4)c(-c4cccc(S(=O)(=O)[O-])c4F)c4nc(c(-c5cccc(S(=O)(=O)[O-])c5F)c5ccc2[nH]5)C=C4)C=C3)cc1)c1ccc(NS(=O)(=O)Cc2c(Cl)cccc2Cl)cc1
REMARK SMILES IDX 8 1 7 2 6 3 5 4 4 5 3 6 2 7 1 8 81 9 82 10 99 11 83 12 98 13
REMARK SMILES IDX 84 14 85 15 86 17 87 18 88 19 89 20 90 21 91 22 96 23 92 24
REMARK SMILES IDX 93 25 95 26 97 27 94 28 9 29 10 30 11 31 12 32 13 33 14 34
REMARK SMILES IDX 15 35 16 36 17 37 18 38 19 39 80 40 20 41 79 42 21 43 22 44
REMARK SMILES IDX 23 45 73 46 24 47 78 48 72 49 74 50 25 51 77 52 71 53 70 54
REMARK SMILES IDX 26 56 58 57 38 58 57 59 39 60 42 61 56 62 75 63 40 64 41 65
REMARK SMILES IDX 55 67 76 68 43 69 27 70 28 71 36 72 29 73 31 74 37 75 30 76
REMARK SMILES IDX 32 77 33 78 34 79 35 80 59 81 60 82 68 83 61 84 63 85 69 86
REMARK SMILES IDX 62 87 64 88 65 89 66 90 67 91 44 92 45 93 53 94 46 95 48 96
REMARK SMILES IDX 54 97 47 98 49 99 50 100 51 101 52 102
REMARK H PARENT 85 16 74 55 42 66
REMARK Flexibility Score: inf
ROOT
ATOM      1  C   UNL A   1      52.280  41.095  29.274  1.00  0.00     0.188 C 
ENDROOT
BRANCH   1   2
ATOM      2  C   UNL A   1      50.768  40.914  29.099  1.00  0.00     0.188 C 
BRANCH   2   3
ATOM      3  O   UNL A   1      50.279  41.993  28.308  1.00  0.00    -0.376 OA
BRANCH   3   4
ATOM      4  C   UNL A   1      48.957  42.441  28.530  1.00  0.00     0.202 C 
BRANCH   4   5
ATOM      5  C   UNL A   1      48.257  43.048  27.324  1.00  0.00     0.261 C 
BRANCH   5   6
ATOM      6  O   UNL A   1      47.147  42.286  26.809  1.00  0.00    -0.460 OA
BRANCH   6   7
ATOM      7  C   UNL A   1      45.830  42.481  27.054  1.00  0.00     0.338 C 
ATOM      8  O   UNL A   1      45.398  42.551  28.200  1.00  0.00    -0.246 OA
BRANCH   7   9
ATOM      9  C   UNL A   1      44.908  42.758  25.941  1.00  0.00     0.060 A 
ATOM     10  C   UNL A   1      43.827  41.924  25.641  1.00  0.00     0.018 A 
ATOM     11  C   UNL A   1      45.028  43.984  25.291  1.00  0.00     0.018 A 
ATOM     12  C   UNL A   1      42.971  42.225  24.582  1.00  0.00     0.027 A 
ATOM     13  C   UNL A   1      44.144  44.307  24.262  1.00  0.00     0.027 A 
ATOM     14  C   UNL A   1      43.152  43.402  23.865  1.00  0.00     0.049 A 
BRANCH  14  15
ATOM     15  N   UNL A   1      42.437  43.726  22.690  1.00  0.00    -0.283 N 
ATOM     16  H   UNL A   1      41.772  44.447  22.769  1.00  0.00     0.180 HD
BRANCH  15  17
ATOM     17  S   UNL A   1      42.591  43.037  21.201  1.00  0.00     0.237 S 
ATOM     18  O   UNL A   1      42.654  41.600  21.381  1.00  0.00    -0.206 OA
ATOM     19  O   UNL A   1      41.494  43.601  20.434  1.00  0.00    -0.206 OA
BRANCH  17  20
ATOM     20  C   UNL A   1      44.119  43.585  20.410  1.00  0.00     0.198 C 
BRANCH  20  21
ATOM     21  C   UNL A   1      44.137  44.854  19.581  1.00  0.00     0.006 A 
ATOM     22  C   UNL A   1      44.876  45.970  20.055  1.00  0.00     0.046 A 
ATOM     23  C   UNL A   1      43.624  44.970  18.277  1.00  0.00     0.046 A 
ATOM     24  Cl  UNL A   1      45.780  45.933  21.536  1.00  0.00    -0.084 Cl
ATOM     25  C   UNL A   1      44.990  47.159  19.318  1.00  0.00     0.021 A 
ATOM     26  C   UNL A   1      43.686  46.184  17.567  1.00  0.00     0.021 A 
ATOM     27  Cl  UNL A   1      43.004  43.625  17.385  1.00  0.00    -0.084 Cl
ATOM     28  C   UNL A   1      44.362  47.280  18.088  1.00  0.00     0.003 A 
ENDBRANCH  20  21
ENDBRANCH  17  20
ENDBRANCH  15  17
ENDBRANCH  14  15
ENDBRANCH   7   9
ENDBRANCH   6   7
ENDBRANCH   5   6
ENDBRANCH   4   5
ENDBRANCH   3   4
ENDBRANCH   2   3
ENDBRANCH   1   2
BRANCH   1  29
ATOM     29  O   UNL A   1      53.037  41.095  28.059  1.00  0.00    -0.377 OA
BRANCH  29  30
ATOM     30  C   UNL A   1      53.974  40.034  27.893  1.00  0.00     0.188 C 
BRANCH  30  31
ATOM     31  C   UNL A   1      54.748  39.966  26.559  1.00  0.00     0.188 C 
BRANCH  31  32
ATOM     32  O   UNL A   1      54.005  39.393  25.492  1.00  0.00    -0.376 OA
BRANCH  32  33
ATOM     33  C   UNL A   1      54.744  39.030  24.333  1.00  0.00     0.202 C 
BRANCH  33  34
ATOM     34  C   UNL A   1      54.315  37.790  23.523  1.00  0.00     0.261 C 
BRANCH  34  35
ATOM     35  O   UNL A   1      53.065  37.187  23.885  1.00  0.00    -0.460 OA
BRANCH  35  36
ATOM     36  C   UNL A   1      53.088  36.051  24.615  1.00  0.00     0.338 C 
ATOM     37  O   UNL A   1      54.076  35.409  24.933  1.00  0.00    -0.246 OA
BRANCH  36  38
ATOM     38  C   UNL A   1      51.730  35.862  25.188  1.00  0.00     0.060 A 
ATOM     39  C   UNL A   1      51.602  35.797  26.583  1.00  0.00     0.016 A 
ATOM     40  C   UNL A   1      50.584  35.864  24.382  1.00  0.00     0.016 A 
ATOM     41  C   UNL A   1      50.337  35.696  27.171  1.00  0.00     0.010 A 
ATOM     42  C   UNL A   1      49.319  35.748  24.970  1.00  0.00     0.010 A 
ATOM     43  C   UNL A   1      49.193  35.622  26.365  1.00  0.00    -0.014 A 
BRANCH  43  44
ATOM     44  C   UNL A   1      47.919  35.140  26.958  1.00  0.00     0.031 A 
ATOM     45  C   UNL A   1      47.756  33.651  27.123  1.00  0.00     0.074 A 
ATOM     46  C   UNL A   1      46.942  35.973  27.362  1.00  0.00     0.049 A 
ATOM     47  N   UNL A   1      46.758  32.973  27.625  1.00  0.00    -0.248 NA
ATOM     48  C   UNL A   1      48.876  32.816  26.655  1.00  0.00     0.031 C 
ATOM     49  C   UNL A   1      46.971  37.430  27.267  1.00  0.00     0.029 A 
ATOM     50  N   UNL A   1      45.718  35.696  27.922  1.00  0.00    -0.354 N 
ATOM     51  C   UNL A   1      47.119  31.635  27.512  1.00  0.00     0.074 A 
ATOM     52  C   UNL A   1      48.417  31.596  26.877  1.00  0.00     0.031 C 
ATOM     53  C   UNL A   1      45.808  37.921  27.735  1.00  0.00     0.029 A 
ATOM     54  C   UNL A   1      44.944  36.812  28.144  1.00  0.00     0.049 A 
ATOM     55  H   UNL A   1      45.421  34.784  28.146  1.00  0.00     0.167 HD
ATOM     56  C   UNL A   1      46.444  30.534  27.912  1.00  0.00     0.034 A 
ATOM     57  C   UNL A   1      43.681  36.921  28.608  1.00  0.00     0.034 A 
ATOM     58  C   UNL A   1      45.158  30.567  28.548  1.00  0.00     0.049 A 
ATOM     59  C   UNL A   1      42.930  35.674  29.014  1.00  0.00     0.074 A 
ATOM     60  C   UNL A   1      44.408  29.507  29.026  1.00  0.00     0.029 A 
ATOM     61  N   UNL A   1      44.419  31.717  28.777  1.00  0.00    -0.354 N 
ATOM     62  N   UNL A   1      43.336  34.427  29.016  1.00  0.00    -0.248 NA
ATOM     63  C   UNL A   1      41.560  35.855  29.516  1.00  0.00     0.031 C 
ATOM     64  C   UNL A   1      43.199  30.015  29.514  1.00  0.00     0.029 A 
ATOM     65  C   UNL A   1      43.215  31.393  29.377  1.00  0.00     0.049 A 
ATOM     66  H   UNL A   1      44.709  32.629  28.546  1.00  0.00     0.167 HD
ATOM     67  C   UNL A   1      42.290  33.684  29.557  1.00  0.00     0.074 A 
ATOM     68  C   UNL A   1      41.239  34.623  29.887  1.00  0.00     0.031 C 
ATOM     69  C   UNL A   1      42.201  32.344  29.754  1.00  0.00     0.034 A 
BRANCH  56  70
ATOM     70  C   UNL A   1      47.099  29.199  27.680  1.00  0.00     0.023 A 
ATOM     71  C   UNL A   1      48.044  28.711  28.606  1.00  0.00     0.012 A 
ATOM     72  C   UNL A   1      46.759  28.417  26.560  1.00  0.00     0.148 A 
ATOM     73  C   UNL A   1      48.669  27.482  28.401  1.00  0.00     0.002 A 
ATOM     74  C   UNL A   1      47.349  27.171  26.389  1.00  0.00     0.091 A 
ATOM     75  F   UNL A   1      45.880  28.912  25.678  1.00  0.00    -0.205 F 
ATOM     76  C   UNL A   1      48.313  26.708  27.300  1.00  0.00     0.022 A 
BRANCH  74  77
ATOM     77  S   UNL A   1      46.898  26.066  25.048  1.00  0.00     0.127 S 
ATOM     78  O   UNL A   1      47.572  26.692  23.911  1.00  0.00    -0.237 OA
ATOM     79  O   UNL A   1      47.487  24.799  25.484  1.00  0.00    -0.237 OA
ATOM     80  O   UNL A   1      45.444  26.073  24.992  1.00  0.00    -0.744 OA
ENDBRANCH  74  77
ENDBRANCH  56  70
BRANCH  57  81
ATOM     81  C   UNL A   1      43.042  38.262  28.752  1.00  0.00     0.023 A 
ATOM     82  C   UNL A   1      42.167  38.729  27.752  1.00  0.00     0.012 A 
ATOM     83  C   UNL A   1      43.308  39.083  29.866  1.00  0.00     0.148 A 
ATOM     84  C   UNL A   1      41.596  40.000  27.839  1.00  0.00     0.002 A 
ATOM     85  C   UNL A   1      42.692  40.325  29.975  1.00  0.00     0.091 A 
ATOM     86  F   UNL A   1      44.159  38.632  30.798  1.00  0.00    -0.205 F 
ATOM     87  C   UNL A   1      41.851  40.794  28.953  1.00  0.00     0.022 A 
BRANCH  85  88
ATOM     88  S   UNL A   1      42.858  41.362  31.432  1.00  0.00     0.127 S 
ATOM     89  O   UNL A   1      42.524  40.428  32.504  1.00  0.00    -0.237 OA
ATOM     90  O   UNL A   1      44.268  41.747  31.363  1.00  0.00    -0.237 OA
ATOM     91  O   UNL A   1      41.923  42.463  31.240  1.00  0.00    -0.744 OA
ENDBRANCH  85  88
ENDBRANCH  57  81
BRANCH  69  92
ATOM     92  C   UNL A   1      40.952  31.806  30.406  1.00  0.00     0.023 A 
ATOM     93  C   UNL A   1      39.900  31.304  29.615  1.00  0.00     0.012 A 
ATOM     94  C   UNL A   1      40.858  31.726  31.810  1.00  0.00     0.148 A 
ATOM     95  C   UNL A   1      38.759  30.767  30.211  1.00  0.00     0.002 A 
ATOM     96  C   UNL A   1      39.742  31.141  32.397  1.00  0.00     0.091 A 
ATOM     97  F   UNL A   1      41.863  32.221  32.548  1.00  0.00    -0.205 F 
ATOM     98  C   UNL A   1      38.685  30.675  31.599  1.00  0.00     0.022 A 
BRANCH  96  99
ATOM     99  S   UNL A   1      39.607  30.889  34.170  1.00  0.00     0.127 S 
ATOM    100  O   UNL A   1      39.238  32.225  34.634  1.00  0.00    -0.237 OA
ATOM    101  O   UNL A   1      38.538  29.895  34.261  1.00  0.00    -0.237 OA
ATOM    102  O   UNL A   1      40.912  30.413  34.609  1.00  0.00    -0.744 OA
ENDBRANCH  96  99
ENDBRANCH  69  92
ENDBRANCH  43  44
ENDBRANCH  36  38
ENDBRANCH  35  36
ENDBRANCH  34  35
ENDBRANCH  33  34
ENDBRANCH  32  33
ENDBRANCH  31  32
ENDBRANCH  30  31
ENDBRANCH  29  30
ENDBRANCH   1  29
TORSDOF 27
ENDMDL
MODEL 3
REMARK VINA RESULT:      -7.5      5.072     11.698
REMARK SMILES O=C(OCCOCCOCCOCCOC(=O)c1ccc(-c2c3nc(c(-c4cccc(S(=O)(=O)[O-])c4F)c4ccc([nH]4)c(-c4cccc(S(=O)(=O)[O-])c4F)c4nc(c(-c5cccc(S(=O)(=O)[O-])c5F)c5ccc2[nH]5)C=C4)C=C3)cc1)c1ccc(NS(=O)(=O)Cc2c(Cl)cccc2Cl)cc1
REMARK SMILES IDX 8 1 7 2 6 3 5 4 4 5 3 6 2 7 1 8 81 9 82 10 99 11 83 12 98 13
REMARK SMILES IDX 84 14 85 15 86 17 87 18 88 19 89 20 90 21 91 22 96 23 92 24
REMARK SMILES IDX 93 25 95 26 97 27 94 28 9 29 10 30 11 31 12 32 13 33 14 34
REMARK SMILES IDX 15 35 16 36 17 37 18 38 19 39 80 40 20 41 79 42 21 43 22 44
REMARK SMILES IDX 23 45 73 46 24 47 78 48 72 49 74 50 25 51 77 52 71 53 70 54
REMARK SMILES IDX 26 56 58 57 38 58 57 59 39 60 42 61 56 62 75 63 40 64 41 65
REMARK SMILES IDX 55 67 76 68 43 69 27 70 28 71 36 72 29 73 31 74 37 75 30 76
REMARK SMILES IDX 32 77 33 78 34 79 35 80 59 81 60 82 68 83 61 84 63 85 69 86
REMARK SMILES IDX 62 87 64 88 65 89 66 90 67 91 44 92 45 93 53 94 46 95 48 96
REMARK SMILES IDX 54 97 47 98 49 99 50 100 51 101 52 102
REMARK H PARENT 85 16 74 55 42 66
REMARK Flexibility Score: inf
ROOT
ATOM      1  C   UNL A   1      40.852  27.138  27.535  1.00  0.00     0.188 C 
ENDROOT
BRANCH   1   2
ATOM      2  C   UNL A   1      40.382  28.401  28.265  1.00  0.00     0.188 C 
BRANCH   2   3
ATOM      3  O   UNL A   1      40.389  28.136  29.665  1.00  0.00    -0.376 OA
BRANCH   3   4
ATOM      4  C   UNL A   1      40.561  29.222  30.552  1.00  0.00     0.202 C 
BRANCH   4   5
ATOM      5  C   UNL A   1      39.720  30.454  30.254  1.00  0.00     0.261 C 
BRANCH   5   6
ATOM      6  O   UNL A   1      38.348  30.383  30.689  1.00  0.00    -0.460 OA
BRANCH   6   7
ATOM      7  C   UNL A   1      37.349  31.252  30.409  1.00  0.00     0.338 C 
ATOM      8  O   UNL A   1      37.292  32.353  30.946  1.00  0.00    -0.246 OA
BRANCH   7   9
ATOM      9  C   UNL A   1      36.386  30.945  29.338  1.00  0.00     0.060 A 
ATOM     10  C   UNL A   1      35.252  31.727  29.107  1.00  0.00     0.018 A 
ATOM     11  C   UNL A   1      36.727  29.946  28.428  1.00  0.00     0.018 A 
ATOM     12  C   UNL A   1      34.367  31.408  28.077  1.00  0.00     0.027 A 
ATOM     13  C   UNL A   1      35.865  29.656  27.370  1.00  0.00     0.027 A 
ATOM     14  C   UNL A   1      34.654  30.346  27.228  1.00  0.00     0.049 A 
BRANCH  14  15
ATOM     15  N   UNL A   1      33.758  29.851  26.254  1.00  0.00    -0.283 N 
ATOM     16  H   UNL A   1      34.158  29.555  25.405  1.00  0.00     0.180 HD
BRANCH  15  17
ATOM     17  S   UNL A   1      32.122  29.711  26.377  1.00  0.00     0.237 S 
ATOM     18  O   UNL A   1      31.827  29.011  27.612  1.00  0.00    -0.206 OA
ATOM     19  O   UNL A   1      31.635  31.069  26.208  1.00  0.00    -0.206 OA
BRANCH  17  20
ATOM     20  C   UNL A   1      31.468  28.744  25.000  1.00  0.00     0.198 C 
BRANCH  20  21
ATOM     21  C   UNL A   1      32.163  27.469  24.563  1.00  0.00     0.006 A 
ATOM     22  C   UNL A   1      31.629  26.221  24.981  1.00  0.00     0.046 A 
ATOM     23  C   UNL A   1      33.205  27.403  23.621  1.00  0.00     0.046 A 
ATOM     24  Cl  UNL A   1      30.197  26.095  25.953  1.00  0.00    -0.084 Cl
ATOM     25  C   UNL A   1      32.180  24.998  24.571  1.00  0.00     0.021 A 
ATOM     26  C   UNL A   1      33.795  26.177  23.261  1.00  0.00     0.021 A 
ATOM     27  Cl  UNL A   1      33.756  28.778  22.729  1.00  0.00    -0.084 Cl
ATOM     28  C   UNL A   1      33.289  24.975  23.740  1.00  0.00     0.003 A 
ENDBRANCH  20  21
ENDBRANCH  17  20
ENDBRANCH  15  17
ENDBRANCH  14  15
ENDBRANCH   7   9
ENDBRANCH   6   7
ENDBRANCH   5   6
ENDBRANCH   4   5
ENDBRANCH   3   4
ENDBRANCH   2   3
ENDBRANCH   1   2
BRANCH   1  29
ATOM     29  O   UNL A   1      39.809  26.242  27.137  1.00  0.00    -0.377 OA
BRANCH  29  30
ATOM     30  C   UNL A   1      39.821  24.947  27.731  1.00  0.00     0.188 C 
BRANCH  30  31
ATOM     31  C   UNL A   1      39.920  23.729  26.788  1.00  0.00     0.188 C 
BRANCH  31  32
ATOM     32  O   UNL A   1      40.263  22.518  27.447  1.00  0.00    -0.376 OA
BRANCH  32  33
ATOM     33  C   UNL A   1      41.351  22.584  28.360  1.00  0.00     0.202 C 
BRANCH  33  34
ATOM     34  C   UNL A   1      42.739  22.080  27.915  1.00  0.00     0.261 C 
BRANCH  34  35
ATOM     35  O   UNL A   1      43.200  22.517  26.629  1.00  0.00    -0.460 OA
BRANCH  35  36
ATOM     36  C   UNL A   1      44.525  22.478  26.374  1.00  0.00     0.338 C 
ATOM     37  O   UNL A   1      45.151  21.538  25.912  1.00  0.00    -0.246 OA
BRANCH  36  38
ATOM     38  C   UNL A   1      45.045  23.864  26.507  1.00  0.00     0.060 A 
ATOM     39  C   UNL A   1      45.430  24.542  25.341  1.00  0.00     0.016 A 
ATOM     40  C   UNL A   1      45.049  24.534  27.737  1.00  0.00     0.016 A 
ATOM     41  C   UNL A   1      45.854  25.873  25.407  1.00  0.00     0.010 A 
ATOM     42  C   UNL A   1      45.489  25.862  27.806  1.00  0.00     0.010 A 
ATOM     43  C   UNL A   1      45.931  26.524  26.646  1.00  0.00    -0.014 A 
BRANCH  43  44
ATOM     44  C   UNL A   1      46.725  27.774  26.759  1.00  0.00     0.031 A 
ATOM     45  C   UNL A   1      48.212  27.631  26.963  1.00  0.00     0.074 A 
ATOM     46  C   UNL A   1      46.174  28.999  26.665  1.00  0.00     0.049 A 
ATOM     47  N   UNL A   1      49.129  28.554  27.074  1.00  0.00    -0.248 NA
ATOM     48  C   UNL A   1      48.728  26.254  27.052  1.00  0.00     0.031 C 
ATOM     49  C   UNL A   1      44.755  29.281  26.463  1.00  0.00     0.029 A 
ATOM     50  N   UNL A   1      46.756  30.241  26.747  1.00  0.00    -0.354 N 
ATOM     51  C   UNL A   1      50.325  27.872  27.270  1.00  0.00     0.074 A 
ATOM     52  C   UNL A   1      50.014  26.460  27.281  1.00  0.00     0.031 C 
ATOM     53  C   UNL A   1      44.572  30.615  26.458  1.00  0.00     0.029 A 
ATOM     54  C   UNL A   1      45.857  31.280  26.674  1.00  0.00     0.049 A 
ATOM     55  H   UNL A   1      47.725  30.376  26.848  1.00  0.00     0.167 HD
ATOM     56  C   UNL A   1      51.574  28.368  27.412  1.00  0.00     0.034 A 
ATOM     57  C   UNL A   1      46.051  32.612  26.786  1.00  0.00     0.034 A 
ATOM     58  C   UNL A   1      51.891  29.768  27.396  1.00  0.00     0.049 A 
ATOM     59  C   UNL A   1      47.452  33.143  26.983  1.00  0.00     0.074 A 
ATOM     60  C   UNL A   1      53.132  30.370  27.495  1.00  0.00     0.029 A 
ATOM     61  N   UNL A   1      50.957  30.787  27.296  1.00  0.00    -0.354 N 
ATOM     62  N   UNL A   1      48.586  32.487  27.041  1.00  0.00    -0.248 NA
ATOM     63  C   UNL A   1      47.602  34.602  27.094  1.00  0.00     0.031 C 
ATOM     64  C   UNL A   1      52.945  31.757  27.487  1.00  0.00     0.029 A 
ATOM     65  C   UNL A   1      51.592  32.016  27.342  1.00  0.00     0.049 A 
ATOM     66  H   UNL A   1      49.985  30.656  27.204  1.00  0.00     0.167 HD
ATOM     67  C   UNL A   1      49.583  33.452  27.151  1.00  0.00     0.074 A 
ATOM     68  C   UNL A   1      48.920  34.739  27.134  1.00  0.00     0.031 C 
ATOM     69  C   UNL A   1      50.925  33.290  27.266  1.00  0.00     0.034 A 
BRANCH  56  70
ATOM     70  C   UNL A   1      52.695  27.379  27.587  1.00  0.00     0.023 A 
ATOM     71  C   UNL A   1      53.219  27.132  28.873  1.00  0.00     0.012 A 
ATOM     72  C   UNL A   1      53.211  26.675  26.482  1.00  0.00     0.148 A 
ATOM     73  C   UNL A   1      54.264  26.227  29.052  1.00  0.00     0.002 A 
ATOM     74  C   UNL A   1      54.219  25.739  26.675  1.00  0.00     0.091 A 
ATOM     75  F   UNL A   1      52.720  26.946  25.265  1.00  0.00    -0.205 F 
ATOM     76  C   UNL A   1      54.756  25.524  27.955  1.00  0.00     0.022 A 
BRANCH  74  77
ATOM     77  S   UNL A   1      54.863  24.725  25.341  1.00  0.00     0.127 S 
ATOM     78  O   UNL A   1      55.472  25.732  24.473  1.00  0.00    -0.237 OA
ATOM     79  O   UNL A   1      55.819  23.866  26.042  1.00  0.00    -0.237 OA
ATOM     80  O   UNL A   1      53.717  24.026  24.778  1.00  0.00    -0.744 OA
ENDBRANCH  74  77
ENDBRANCH  56  70
BRANCH  57  81
ATOM     81  C   UNL A   1      44.899  33.555  26.681  1.00  0.00     0.023 A 
ATOM     82  C   UNL A   1      44.415  33.926  25.411  1.00  0.00     0.012 A 
ATOM     83  C   UNL A   1      44.291  34.097  27.830  1.00  0.00     0.148 A 
ATOM     84  C   UNL A   1      43.371  34.845  25.286  1.00  0.00     0.002 A 
ATOM     85  C   UNL A   1      43.214  34.968  27.699  1.00  0.00     0.091 A 
ATOM     86  F   UNL A   1      44.777  33.749  29.030  1.00  0.00    -0.205 F 
ATOM     87  C   UNL A   1      42.766  35.359  26.428  1.00  0.00     0.022 A 
BRANCH  85  88
ATOM     88  S   UNL A   1      42.289  35.580  29.112  1.00  0.00     0.127 S 
ATOM     89  O   UNL A   1      43.349  36.149  29.940  1.00  0.00    -0.237 OA
ATOM     90  O   UNL A   1      41.402  36.560  28.483  1.00  0.00    -0.237 OA
ATOM     91  O   UNL A   1      41.606  34.420  29.668  1.00  0.00    -0.744 OA
ENDBRANCH  85  88
ENDBRANCH  57  81
BRANCH  69  92
ATOM     92  C   UNL A   1      51.785  34.528  27.327  1.00  0.00     0.023 A 
ATOM     93  C   UNL A   1      52.118  35.100  28.571  1.00  0.00     0.012 A 
ATOM     94  C   UNL A   1      52.329  35.078  26.148  1.00  0.00     0.148 A 
ATOM     95  C   UNL A   1      52.946  36.220  28.638  1.00  0.00     0.002 A 
ATOM     96  C   UNL A   1      53.195  36.162  26.226  1.00  0.00     0.091 A 
ATOM     97  F   UNL A   1      51.990  34.531  24.971  1.00  0.00    -0.205 F 
ATOM     98  C   UNL A   1      53.493  36.743  27.468  1.00  0.00     0.022 A 
BRANCH  96  99
ATOM     99  S   UNL A   1      54.025  36.836  24.782  1.00  0.00     0.127 S 
ATOM    100  O   UNL A   1      53.006  37.738  24.248  1.00  0.00    -0.237 OA
ATOM    101  O   UNL A   1      55.182  37.507  25.375  1.00  0.00    -0.237 OA
ATOM    102  O   UNL A   1      54.355  35.696  23.939  1.00  0.00    -0.744 OA
ENDBRANCH  96  99
ENDBRANCH  69  92
ENDBRANCH  43  44
ENDBRANCH  36  38
ENDBRANCH  35  36
ENDBRANCH  34  35
ENDBRANCH  33  34
ENDBRANCH  32  33
ENDBRANCH  31  32
ENDBRANCH  30  31
ENDBRANCH  29  30
ENDBRANCH   1  29
TORSDOF 27
ENDMDL
