MODEL 1
REMARK VINA RESULT:     -11.0      0.000      0.000
REMARK SMILES Cc1ccc(C2=NN(C(=O)CCC(=O)OCCOCCOCCOCCOC(=O)c3ccc(-c4c5nc(c(-c6cccc(S(=O)(=O)[O-])c6F)c6ccc([nH]6)c(-c6cccc(S(=O)(=O)[O-])c6F)c6nc(c(-c7cccc(S(=O)(=O)[O-])c7F)c7ccc4[nH]7)C=C6)C=C5)cc3)[C@H](C[C@H]3C=c4cccc(C)c4=NC3=O)C2)cc1
REMARK SMILES IDX 20 1 19 2 18 3 17 4 16 5 15 6 13 7 14 8 12 9 11 10 9 11
REMARK SMILES IDX 10 12 8 13 6 14 7 15 107 16 93 17 5 18 1 19 2 20 3 21 109 22
REMARK SMILES IDX 4 23 108 24 94 25 95 26 96 27 105 28 97 29 104 30 106 31
REMARK SMILES IDX 98 32 103 33 99 34 101 35 100 36 102 37 21 38 22 39 23 40
REMARK SMILES IDX 24 41 25 42 26 43 27 44 28 45 29 46 30 47 31 48 92 49 32 50
REMARK SMILES IDX 91 51 33 52 34 53 35 54 85 55 36 56 90 57 84 58 86 59 37 60
REMARK SMILES IDX 89 61 83 62 82 63 38 65 70 66 50 67 69 68 51 69 54 70 68 71
REMARK SMILES IDX 87 72 52 73 53 74 67 76 88 77 55 78 39 79 40 80 48 81 41 82
REMARK SMILES IDX 43 83 49 84 42 85 44 86 45 87 46 88 47 89 71 90 72 91 80 92
REMARK SMILES IDX 73 93 75 94 81 95 74 96 76 97 77 98 78 99 79 100 56 101
REMARK SMILES IDX 57 102 65 103 58 104 60 105 66 106 59 107 61 108 62 109
REMARK SMILES IDX 63 110 64 111
REMARK H PARENT 86 64 54 75
REMARK Flexibility Score: inf
ROOT
ATOM      1  C   UNL A   1      31.664  28.042  27.618  1.00  0.00     0.188 C 
ENDROOT
BRANCH   1   2
ATOM      2  C   UNL A   1      31.352  26.515  26.972  1.00  0.00     0.188 C 
BRANCH   2   3
ATOM      3  O   UNL A   1      30.188  26.154  26.216  1.00  0.00    -0.376 OA
BRANCH   3   4
ATOM      4  C   UNL A   1      29.681  24.839  26.381  1.00  0.00     0.202 C 
BRANCH   4   5
ATOM      5  C   UNL A   1      30.581  23.701  26.002  1.00  0.00     0.261 C 
BRANCH   5   6
ATOM      6  O   UNL A   1      31.199  23.270  27.240  1.00  0.00    -0.463 OA
BRANCH   6   7
ATOM      7  C   UNL A   1      32.361  22.638  27.345  1.00  0.00     0.306 C 
ATOM      8  O   UNL A   1      33.018  22.625  28.381  1.00  0.00    -0.252 OA
BRANCH   7   9
ATOM      9  C   UNL A   1      32.737  21.755  26.100  1.00  0.00     0.132 C 
BRANCH   9  10
ATOM     10  C   UNL A   1      33.964  20.831  25.468  1.00  0.00     0.114 C 
BRANCH  10  11
ATOM     11  C   UNL A   1      35.647  20.337  25.193  1.00  0.00     0.243 C 
ATOM     12  O   UNL A   1      35.656  19.148  24.778  1.00  0.00    -0.273 OA
BRANCH  11  13
ATOM     13  N   UNL A   1      37.027  21.136  25.399  1.00  0.00    -0.230 N 
ATOM     14  C   UNL A   1      40.060  21.315  25.820  1.00  0.00     0.070 C 
ATOM     15  N   UNL A   1      38.932  20.436  25.069  1.00  0.00    -0.174 NA
ATOM     16  C   UNL A   1      39.150  22.893  26.759  1.00  0.00     0.086 C 
ATOM     17  C   UNL A   1      37.184  22.883  26.295  1.00  0.00     0.118 C 
BRANCH  14  18
ATOM     18  C   UNL A   1      41.420  20.833  25.863  1.00  0.00    -0.002 A 
ATOM     19  C   UNL A   1      45.171  18.996  25.426  1.00  0.00     0.044 C 
ATOM     20  C   UNL A   1      43.882  19.664  25.768  1.00  0.00    -0.051 A 
ATOM     21  C   UNL A   1      42.747  18.859  25.886  1.00  0.00     0.004 A 
ATOM     22  C   UNL A   1      43.777  21.066  25.840  1.00  0.00     0.004 A 
ATOM     23  C   UNL A   1      41.514  19.452  25.992  1.00  0.00     0.010 A 
ATOM     24  C   UNL A   1      42.524  21.668  25.874  1.00  0.00     0.010 A 
ENDBRANCH  14  18
BRANCH  17  25
ATOM     25  C   UNL A   1      35.705  24.206  26.304  1.00  0.00     0.045 C 
BRANCH  25  26
ATOM     26  C   UNL A   1      34.409  24.748  24.852  1.00  0.00     0.106 C 
ATOM     27  C   UNL A   1      33.984  26.368  24.557  1.00  0.00    -0.003 C 
ATOM     28  C   UNL A   1      34.112  24.215  23.375  1.00  0.00     0.253 C 
ATOM     29  C   UNL A   1      33.436  26.985  23.526  1.00  0.00    -0.003 A 
ATOM     30  N   UNL A   1      32.882  24.687  22.838  1.00  0.00    -0.212 NA
ATOM     31  O   UNL A   1      34.773  23.369  22.788  1.00  0.00    -0.272 OA
ATOM     32  C   UNL A   1      33.069  28.379  23.744  1.00  0.00     0.010 A 
ATOM     33  C   UNL A   1      32.558  25.942  23.005  1.00  0.00     0.077 A 
ATOM     34  C   UNL A   1      31.775  28.705  23.743  1.00  0.00     0.001 A 
ATOM     35  C   UNL A   1      31.128  26.452  22.962  1.00  0.00    -0.025 A 
ATOM     36  C   UNL A   1      30.804  27.709  23.352  1.00  0.00     0.005 A 
ATOM     37  C   UNL A   1      30.109  25.405  22.718  1.00  0.00     0.047 C 
ENDBRANCH  25  26
ENDBRANCH  17  25
ENDBRANCH  11  13
ENDBRANCH  10  11
ENDBRANCH   9  10
ENDBRANCH   7   9
ENDBRANCH   6   7
ENDBRANCH   5   6
ENDBRANCH   4   5
ENDBRANCH   3   4
ENDBRANCH   2   3
ENDBRANCH   1   2
BRANCH   1  38
ATOM     38  O   UNL A   1      31.705  29.729  27.187  1.00  0.00    -0.377 OA
BRANCH  38  39
ATOM     39  C   UNL A   1      32.796  31.045  26.945  1.00  0.00     0.188 C 
BRANCH  39  40
ATOM     40  C   UNL A   1      34.214  31.456  27.746  1.00  0.00     0.188 C 
BRANCH  40  41
ATOM     41  O   UNL A   1      35.381  30.609  27.585  1.00  0.00    -0.376 OA
BRANCH  41  42
ATOM     42  C   UNL A   1      36.673  30.804  28.050  1.00  0.00     0.202 C 
BRANCH  42  43
ATOM     43  C   UNL A   1      36.713  30.242  29.404  1.00  0.00     0.261 C 
BRANCH  43  44
ATOM     44  O   UNL A   1      37.040  31.300  30.391  1.00  0.00    -0.460 OA
BRANCH  44  45
ATOM     45  C   UNL A   1      36.446  32.048  31.394  1.00  0.00     0.338 C 
ATOM     46  O   UNL A   1      35.261  32.325  31.173  1.00  0.00    -0.246 OA
BRANCH  45  47
ATOM     47  C   UNL A   1      36.965  32.503  32.808  1.00  0.00     0.060 A 
ATOM     48  C   UNL A   1      36.886  33.852  33.215  1.00  0.00     0.016 A 
ATOM     49  C   UNL A   1      37.469  31.726  33.839  1.00  0.00     0.016 A 
ATOM     50  C   UNL A   1      37.615  34.409  34.372  1.00  0.00     0.010 A 
ATOM     51  C   UNL A   1      38.275  32.318  34.918  1.00  0.00     0.010 A 
ATOM     52  C   UNL A   1      38.628  33.698  35.042  1.00  0.00    -0.014 A 
BRANCH  52  53
ATOM     53  C   UNL A   1      39.844  34.271  36.164  1.00  0.00     0.031 A 
ATOM     54  C   UNL A   1      41.024  34.438  35.234  1.00  0.00     0.074 A 
ATOM     55  C   UNL A   1      39.949  34.832  37.571  1.00  0.00     0.049 A 
ATOM     56  N   UNL A   1      42.098  35.034  35.563  1.00  0.00    -0.248 NA
ATOM     57  C   UNL A   1      41.003  34.190  33.780  1.00  0.00     0.031 C 
ATOM     58  C   UNL A   1      40.942  35.704  38.294  1.00  0.00     0.029 A 
ATOM     59  N   UNL A   1      39.144  34.961  38.743  1.00  0.00    -0.354 N 
ATOM     60  C   UNL A   1      42.528  35.727  34.446  1.00  0.00     0.074 A 
ATOM     61  C   UNL A   1      41.899  35.077  33.335  1.00  0.00     0.031 C 
ATOM     62  C   UNL A   1      40.792  35.913  39.644  1.00  0.00     0.029 A 
ATOM     63  C   UNL A   1      39.713  35.090  40.018  1.00  0.00     0.049 A 
ATOM     64  H   UNL A   1      38.164  34.960  38.653  1.00  0.00     0.167 HD
ATOM     65  C   UNL A   1      43.214  36.883  34.674  1.00  0.00     0.034 A 
ATOM     66  C   UNL A   1      39.688  34.057  40.917  1.00  0.00     0.034 A 
ATOM     67  C   UNL A   1      43.514  37.017  36.151  1.00  0.00     0.049 A 
ATOM     68  C   UNL A   1      41.105  33.426  40.579  1.00  0.00     0.074 A 
ATOM     69  C   UNL A   1      43.380  38.001  37.121  1.00  0.00     0.029 A 
ATOM     70  N   UNL A   1      43.819  35.849  36.890  1.00  0.00    -0.354 N 
ATOM     71  N   UNL A   1      41.754  33.657  39.447  1.00  0.00    -0.248 NA
ATOM     72  C   UNL A   1      42.019  32.788  41.522  1.00  0.00     0.031 C 
ATOM     73  C   UNL A   1      43.506  37.371  38.425  1.00  0.00     0.029 A 
ATOM     74  C   UNL A   1      43.661  35.979  38.271  1.00  0.00     0.049 A 
ATOM     75  H   UNL A   1      44.116  35.013  36.463  1.00  0.00     0.167 HD
ATOM     76  C   UNL A   1      43.088  33.851  39.711  1.00  0.00     0.074 A 
ATOM     77  C   UNL A   1      43.194  32.938  40.863  1.00  0.00     0.031 C 
ATOM     78  C   UNL A   1      43.966  34.815  39.167  1.00  0.00     0.034 A 
BRANCH  65  79
ATOM     79  C   UNL A   1      43.516  37.975  33.626  1.00  0.00     0.023 A 
ATOM     80  C   UNL A   1      43.324  39.298  34.076  1.00  0.00     0.012 A 
ATOM     81  C   UNL A   1      43.958  37.858  32.269  1.00  0.00     0.148 A 
ATOM     82  C   UNL A   1      43.562  40.428  33.284  1.00  0.00     0.002 A 
ATOM     83  C   UNL A   1      44.266  38.999  31.494  1.00  0.00     0.091 A 
ATOM     84  F   UNL A   1      44.038  36.657  31.686  1.00  0.00    -0.205 F 
ATOM     85  C   UNL A   1      44.057  40.282  32.003  1.00  0.00     0.022 A 
BRANCH  83  86
ATOM     86  S   UNL A   1      45.009  38.957  29.839  1.00  0.00     0.127 S 
ATOM     87  O   UNL A   1      45.271  40.373  29.576  1.00  0.00    -0.237 OA
ATOM     88  O   UNL A   1      46.216  38.158  30.064  1.00  0.00    -0.237 OA
ATOM     89  O   UNL A   1      44.023  38.341  28.963  1.00  0.00    -0.744 OA
ENDBRANCH  83  86
ENDBRANCH  65  79
BRANCH  66  90
ATOM     90  C   UNL A   1      38.285  33.456  40.794  1.00  0.00     0.023 A 
ATOM     91  C   UNL A   1      37.555  32.318  39.690  1.00  0.00     0.012 A 
ATOM     92  C   UNL A   1      37.431  33.657  42.306  1.00  0.00     0.148 A 
ATOM     93  C   UNL A   1      36.071  31.408  40.017  1.00  0.00     0.002 A 
ATOM     94  C   UNL A   1      35.690  32.619  42.615  1.00  0.00     0.091 A 
ATOM     95  F   UNL A   1      37.788  34.927  42.704  1.00  0.00    -0.205 F 
ATOM     96  C   UNL A   1      35.162  31.519  41.409  1.00  0.00     0.022 A 
BRANCH  94  97
ATOM     97  S   UNL A   1      33.758  33.304  43.392  1.00  0.00     0.127 S 
ATOM     98  O   UNL A   1      32.881  33.087  42.251  1.00  0.00    -0.237 OA
ATOM     99  O   UNL A   1      33.580  32.376  44.497  1.00  0.00    -0.237 OA
ATOM    100  O   UNL A   1      33.889  34.709  43.786  1.00  0.00    -0.744 OA
ENDBRANCH  94  97
ENDBRANCH  66  90
BRANCH  78 101
ATOM    101  C   UNL A   1      45.450  34.707  39.370  1.00  0.00     0.023 A 
ATOM    102  C   UNL A   1      46.177  35.688  40.021  1.00  0.00     0.012 A 
ATOM    103  C   UNL A   1      46.152  33.536  38.975  1.00  0.00     0.148 A 
ATOM    104  C   UNL A   1      47.407  35.381  40.580  1.00  0.00     0.002 A 
ATOM    105  C   UNL A   1      47.380  33.234  39.495  1.00  0.00     0.091 A 
ATOM    106  F   UNL A   1      45.695  32.728  38.017  1.00  0.00    -0.205 F 
ATOM    107  C   UNL A   1      47.982  34.131  40.366  1.00  0.00     0.022 A 
BRANCH 105 108
ATOM    108  S   UNL A   1      48.221  31.721  39.040  1.00  0.00     0.127 S 
ATOM    109  O   UNL A   1      49.387  31.781  39.920  1.00  0.00    -0.237 OA
ATOM    110  O   UNL A   1      47.221  30.715  39.393  1.00  0.00    -0.237 OA
ATOM    111  O   UNL A   1      48.516  31.804  37.615  1.00  0.00    -0.744 OA
ENDBRANCH 105 108
ENDBRANCH  78 101
ENDBRANCH  52  53
ENDBRANCH  45  47
ENDBRANCH  44  45
ENDBRANCH  43  44
ENDBRANCH  42  43
ENDBRANCH  41  42
ENDBRANCH  40  41
ENDBRANCH  39  40
ENDBRANCH  38  39
ENDBRANCH   1  38
TORSDOF 29
ENDMDL
MODEL 2
REMARK VINA RESULT:     -11.0      5.928      8.331
REMARK SMILES Cc1ccc(C2=NN(C(=O)CCC(=O)OCCOCCOCCOCCOC(=O)c3ccc(-c4c5nc(c(-c6cccc(S(=O)(=O)[O-])c6F)c6ccc([nH]6)c(-c6cccc(S(=O)(=O)[O-])c6F)c6nc(c(-c7cccc(S(=O)(=O)[O-])c7F)c7ccc4[nH]7)C=C6)C=C5)cc3)[C@H](C[C@H]3C=c4cccc(C)c4=NC3=O)C2)cc1
REMARK SMILES IDX 20 1 19 2 18 3 17 4 16 5 15 6 13 7 14 8 12 9 11 10 9 11
REMARK SMILES IDX 10 12 8 13 6 14 7 15 107 16 93 17 5 18 1 19 2 20 3 21 109 22
REMARK SMILES IDX 4 23 108 24 94 25 95 26 96 27 105 28 97 29 104 30 106 31
REMARK SMILES IDX 98 32 103 33 99 34 101 35 100 36 102 37 21 38 22 39 23 40
REMARK SMILES IDX 24 41 25 42 26 43 27 44 28 45 29 46 30 47 31 48 92 49 32 50
REMARK SMILES IDX 91 51 33 52 34 53 35 54 85 55 36 56 90 57 84 58 86 59 37 60
REMARK SMILES IDX 89 61 83 62 82 63 38 65 70 66 50 67 69 68 51 69 54 70 68 71
REMARK SMILES IDX 87 72 52 73 53 74 67 76 88 77 55 78 39 79 40 80 48 81 41 82
REMARK SMILES IDX 43 83 49 84 42 85 44 86 45 87 46 88 47 89 71 90 72 91 80 92
REMARK SMILES IDX 73 93 75 94 81 95 74 96 76 97 77 98 78 99 79 100 56 101
REMARK SMILES IDX 57 102 65 103 58 104 60 105 66 106 59 107 61 108 62 109
REMARK SMILES IDX 63 110 64 111
REMARK H PARENT 86 64 54 75
REMARK Flexibility Score: inf
ROOT
ATOM      1  C   UNL A   1      31.813  26.747  26.845  1.00  0.00     0.188 C 
ENDROOT
BRANCH   1   2
ATOM      2  C   UNL A   1      31.200  25.243  26.390  1.00  0.00     0.188 C 
BRANCH   2   3
ATOM      3  O   UNL A   1      31.214  24.060  27.201  1.00  0.00    -0.376 OA
BRANCH   3   4
ATOM      4  C   UNL A   1      30.695  22.868  26.631  1.00  0.00     0.202 C 
BRANCH   4   5
ATOM      5  C   UNL A   1      31.066  22.566  25.210  1.00  0.00     0.261 C 
BRANCH   5   6
ATOM      6  O   UNL A   1      31.655  21.242  25.240  1.00  0.00    -0.463 OA
BRANCH   6   7
ATOM      7  C   UNL A   1      32.627  20.810  24.447  1.00  0.00     0.306 C 
ATOM      8  O   UNL A   1      32.556  20.861  23.223  1.00  0.00    -0.252 OA
BRANCH   7   9
ATOM      9  C   UNL A   1      33.947  20.402  25.196  1.00  0.00     0.132 C 
BRANCH   9  10
ATOM     10  C   UNL A   1      35.576  20.179  24.960  1.00  0.00     0.114 C 
BRANCH  10  11
ATOM     11  C   UNL A   1      37.305  20.555  25.115  1.00  0.00     0.243 C 
ATOM     12  O   UNL A   1      37.970  19.577  24.681  1.00  0.00    -0.273 OA
BRANCH  11  13
ATOM     13  N   UNL A   1      38.053  21.855  25.696  1.00  0.00    -0.230 N 
ATOM     14  C   UNL A   1      40.459  23.330  26.897  1.00  0.00     0.070 C 
ATOM     15  N   UNL A   1      40.081  22.156  25.855  1.00  0.00    -0.174 NA
ATOM     16  C   UNL A   1      38.726  24.163  27.609  1.00  0.00     0.086 C 
ATOM     17  C   UNL A   1      37.158  23.327  26.648  1.00  0.00     0.118 C 
BRANCH  14  18
ATOM     18  C   UNL A   1      41.837  23.520  27.281  1.00  0.00    -0.002 A 
ATOM     19  C   UNL A   1      45.948  24.271  27.691  1.00  0.00     0.044 C 
ATOM     20  C   UNL A   1      44.511  23.871  27.683  1.00  0.00    -0.051 A 
ATOM     21  C   UNL A   1      44.079  23.033  26.652  1.00  0.00     0.004 A 
ATOM     22  C   UNL A   1      43.590  24.418  28.596  1.00  0.00     0.004 A 
ATOM     23  C   UNL A   1      42.734  22.812  26.489  1.00  0.00     0.010 A 
ATOM     24  C   UNL A   1      42.225  24.255  28.388  1.00  0.00     0.010 A 
ENDBRANCH  14  18
BRANCH  17  25
ATOM     25  C   UNL A   1      35.264  23.815  26.306  1.00  0.00     0.045 C 
BRANCH  25  26
ATOM     26  C   UNL A   1      34.387  24.650  24.689  1.00  0.00     0.106 C 
ATOM     27  C   UNL A   1      34.295  26.332  24.460  1.00  0.00    -0.003 C 
ATOM     28  C   UNL A   1      34.308  24.255  23.143  1.00  0.00     0.253 C 
ATOM     29  C   UNL A   1      34.068  27.088  23.401  1.00  0.00    -0.003 A 
ATOM     30  N   UNL A   1      33.301  24.961  22.428  1.00  0.00    -0.212 NA
ATOM     31  O   UNL A   1      34.928  23.339  22.619  1.00  0.00    -0.272 OA
ATOM     32  C   UNL A   1      33.893  28.511  23.665  1.00  0.00     0.010 A 
ATOM     33  C   UNL A   1      33.155  26.242  22.637  1.00  0.00     0.077 A 
ATOM     34  C   UNL A   1      32.695  29.057  23.450  1.00  0.00     0.001 A 
ATOM     35  C   UNL A   1      31.863  26.995  22.372  1.00  0.00    -0.025 A 
ATOM     36  C   UNL A   1      31.674  28.266  22.800  1.00  0.00     0.005 A 
ATOM     37  C   UNL A   1      30.759  26.155  21.853  1.00  0.00     0.047 C 
ENDBRANCH  25  26
ENDBRANCH  17  25
ENDBRANCH  11  13
ENDBRANCH  10  11
ENDBRANCH   9  10
ENDBRANCH   7   9
ENDBRANCH   6   7
ENDBRANCH   5   6
ENDBRANCH   4   5
ENDBRANCH   3   4
ENDBRANCH   2   3
ENDBRANCH   1   2
BRANCH   1  38
ATOM     38  O   UNL A   1      31.325  28.391  27.147  1.00  0.00    -0.377 OA
BRANCH  38  39
ATOM     39  C   UNL A   1      31.851  30.024  26.950  1.00  0.00     0.188 C 
BRANCH  39  40
ATOM     40  C   UNL A   1      33.384  30.659  26.690  1.00  0.00     0.188 C 
BRANCH  40  41
ATOM     41  O   UNL A   1      34.541  29.892  27.111  1.00  0.00    -0.376 OA
BRANCH  41  42
ATOM     42  C   UNL A   1      35.638  30.303  27.854  1.00  0.00     0.202 C 
BRANCH  42  43
ATOM     43  C   UNL A   1      35.160  31.369  28.740  1.00  0.00     0.261 C 
BRANCH  43  44
ATOM     44  O   UNL A   1      36.294  31.969  29.484  1.00  0.00    -0.460 OA
BRANCH  44  45
ATOM     45  C   UNL A   1      37.095  31.730  30.588  1.00  0.00     0.338 C 
ATOM     46  O   UNL A   1      36.459  31.480  31.619  1.00  0.00    -0.246 OA
BRANCH  45  47
ATOM     47  C   UNL A   1      38.656  31.601  30.742  1.00  0.00     0.060 A 
ATOM     48  C   UNL A   1      39.349  32.298  31.754  1.00  0.00     0.016 A 
ATOM     49  C   UNL A   1      39.534  30.797  30.034  1.00  0.00     0.016 A 
ATOM     50  C   UNL A   1      40.815  32.476  31.777  1.00  0.00     0.010 A 
ATOM     51  C   UNL A   1      40.978  31.077  30.010  1.00  0.00     0.010 A 
ATOM     52  C   UNL A   1      41.634  32.159  30.677  1.00  0.00    -0.014 A 
BRANCH  52  53
ATOM     53  C   UNL A   1      43.292  32.614  30.347  1.00  0.00     0.031 A 
ATOM     54  C   UNL A   1      43.079  33.847  29.500  1.00  0.00     0.074 A 
ATOM     55  C   UNL A   1      44.696  32.310  30.839  1.00  0.00     0.049 A 
ATOM     56  N   UNL A   1      44.011  34.652  29.185  1.00  0.00    -0.248 NA
ATOM     57  C   UNL A   1      41.766  34.427  29.157  1.00  0.00     0.031 C 
ATOM     58  C   UNL A   1      46.009  33.049  30.822  1.00  0.00     0.029 A 
ATOM     59  N   UNL A   1      45.369  31.350  31.653  1.00  0.00    -0.354 N 
ATOM     60  C   UNL A   1      43.466  35.923  29.211  1.00  0.00     0.074 A 
ATOM     61  C   UNL A   1      42.054  35.730  29.071  1.00  0.00     0.031 C 
ATOM     62  C   UNL A   1      47.145  32.404  31.247  1.00  0.00     0.029 A 
ATOM     63  C   UNL A   1      46.736  31.081  31.499  1.00  0.00     0.049 A 
ATOM     64  H   UNL A   1      44.860  30.864  32.341  1.00  0.00     0.167 HD
ATOM     65  C   UNL A   1      44.311  36.940  29.546  1.00  0.00     0.034 A 
ATOM     66  C   UNL A   1      47.173  29.919  30.922  1.00  0.00     0.034 A 
ATOM     67  C   UNL A   1      45.732  36.424  29.614  1.00  0.00     0.049 A 
ATOM     68  C   UNL A   1      47.325  30.446  29.433  1.00  0.00     0.074 A 
ATOM     69  C   UNL A   1      46.787  36.497  30.510  1.00  0.00     0.029 A 
ATOM     70  N   UNL A   1      46.138  35.434  28.687  1.00  0.00    -0.354 N 
ATOM     71  N   UNL A   1      46.725  31.540  28.982  1.00  0.00    -0.248 NA
ATOM     72  C   UNL A   1      48.333  30.032  28.462  1.00  0.00     0.031 C 
ATOM     73  C   UNL A   1      47.755  35.473  30.155  1.00  0.00     0.029 A 
ATOM     74  C   UNL A   1      47.275  34.717  29.066  1.00  0.00     0.049 A 
ATOM     75  H   UNL A   1      45.657  35.265  27.845  1.00  0.00     0.167 HD
ATOM     76  C   UNL A   1      47.596  32.254  28.196  1.00  0.00     0.074 A 
ATOM     77  C   UNL A   1      48.341  31.110  27.640  1.00  0.00     0.031 C 
ATOM     78  C   UNL A   1      47.816  33.649  28.163  1.00  0.00     0.034 A 
BRANCH  65  79
ATOM     79  C   UNL A   1      43.888  38.370  29.947  1.00  0.00     0.023 A 
ATOM     80  C   UNL A   1      43.175  39.077  28.955  1.00  0.00     0.012 A 
ATOM     81  C   UNL A   1      44.105  39.092  31.164  1.00  0.00     0.148 A 
ATOM     82  C   UNL A   1      42.688  40.378  29.131  1.00  0.00     0.002 A 
ATOM     83  C   UNL A   1      43.552  40.376  31.367  1.00  0.00     0.091 A 
ATOM     84  F   UNL A   1      44.888  38.581  32.121  1.00  0.00    -0.205 F 
ATOM     85  C   UNL A   1      42.852  41.019  30.343  1.00  0.00     0.022 A 
BRANCH  83  86
ATOM     86  S   UNL A   1      43.607  41.292  32.932  1.00  0.00     0.127 S 
ATOM     87  O   UNL A   1      42.915  40.387  33.851  1.00  0.00    -0.237 OA
ATOM     88  O   UNL A   1      45.048  41.402  33.173  1.00  0.00    -0.237 OA
ATOM     89  O   UNL A   1      42.930  42.558  32.690  1.00  0.00    -0.744 OA
ENDBRANCH  83  86
ENDBRANCH  65  79
BRANCH  66  90
ATOM     90  C   UNL A   1      46.268  28.825  31.495  1.00  0.00     0.023 A 
ATOM     91  C   UNL A   1      44.685  28.226  31.068  1.00  0.00     0.012 A 
ATOM     92  C   UNL A   1      47.221  27.736  32.476  1.00  0.00     0.148 A 
ATOM     93  C   UNL A   1      44.038  26.651  31.558  1.00  0.00     0.002 A 
ATOM     94  C   UNL A   1      46.407  25.947  33.060  1.00  0.00     0.091 A 
ATOM     95  F   UNL A   1      48.074  28.583  33.150  1.00  0.00    -0.205 F 
ATOM     96  C   UNL A   1      44.839  25.534  32.499  1.00  0.00     0.022 A 
BRANCH  94  97
ATOM     97  S   UNL A   1      46.384  24.982  35.028  1.00  0.00     0.127 S 
ATOM     98  O   UNL A   1      46.597  23.585  34.680  1.00  0.00    -0.237 OA
ATOM     99  O   UNL A   1      47.517  25.646  35.654  1.00  0.00    -0.237 OA
ATOM    100  O   UNL A   1      45.090  25.250  35.661  1.00  0.00    -0.744 OA
ENDBRANCH  94  97
ENDBRANCH  66  90
BRANCH  78 101
ATOM    101  C   UNL A   1      48.611  34.277  27.055  1.00  0.00     0.023 A 
ATOM    102  C   UNL A   1      48.065  34.529  25.808  1.00  0.00     0.012 A 
ATOM    103  C   UNL A   1      49.941  34.723  27.280  1.00  0.00     0.148 A 
ATOM    104  C   UNL A   1      48.639  35.480  24.981  1.00  0.00     0.002 A 
ATOM    105  C   UNL A   1      50.533  35.638  26.455  1.00  0.00     0.091 A 
ATOM    106  F   UNL A   1      50.705  34.207  28.244  1.00  0.00    -0.205 F 
ATOM    107  C   UNL A   1      49.846  36.079  25.333  1.00  0.00     0.022 A 
BRANCH 105 108
ATOM    108  S   UNL A   1      52.184  36.242  26.791  1.00  0.00     0.127 S 
ATOM    109  O   UNL A   1      52.397  37.114  25.637  1.00  0.00    -0.237 OA
ATOM    110  O   UNL A   1      51.989  36.928  28.067  1.00  0.00    -0.237 OA
ATOM    111  O   UNL A   1      53.062  35.081  26.860  1.00  0.00    -0.744 OA
ENDBRANCH 105 108
ENDBRANCH  78 101
ENDBRANCH  52  53
ENDBRANCH  45  47
ENDBRANCH  44  45
ENDBRANCH  43  44
ENDBRANCH  42  43
ENDBRANCH  41  42
ENDBRANCH  40  41
ENDBRANCH  39  40
ENDBRANCH  38  39
ENDBRANCH   1  38
TORSDOF 29
ENDMDL
MODEL 3
REMARK VINA RESULT:     -11.0      2.753      6.450
REMARK SMILES Cc1ccc(C2=NN(C(=O)CCC(=O)OCCOCCOCCOCCOC(=O)c3ccc(-c4c5nc(c(-c6cccc(S(=O)(=O)[O-])c6F)c6ccc([nH]6)c(-c6cccc(S(=O)(=O)[O-])c6F)c6nc(c(-c7cccc(S(=O)(=O)[O-])c7F)c7ccc4[nH]7)C=C6)C=C5)cc3)[C@H](C[C@H]3C=c4cccc(C)c4=NC3=O)C2)cc1
REMARK SMILES IDX 20 1 19 2 18 3 17 4 16 5 15 6 13 7 14 8 12 9 11 10 9 11
REMARK SMILES IDX 10 12 8 13 6 14 7 15 107 16 93 17 5 18 1 19 2 20 3 21 109 22
REMARK SMILES IDX 4 23 108 24 94 25 95 26 96 27 105 28 97 29 104 30 106 31
REMARK SMILES IDX 98 32 103 33 99 34 101 35 100 36 102 37 21 38 22 39 23 40
REMARK SMILES IDX 24 41 25 42 26 43 27 44 28 45 29 46 30 47 31 48 92 49 32 50
REMARK SMILES IDX 91 51 33 52 34 53 35 54 85 55 36 56 90 57 84 58 86 59 37 60
REMARK SMILES IDX 89 61 83 62 82 63 38 65 70 66 50 67 69 68 51 69 54 70 68 71
REMARK SMILES IDX 87 72 52 73 53 74 67 76 88 77 55 78 39 79 40 80 48 81 41 82
REMARK SMILES IDX 43 83 49 84 42 85 44 86 45 87 46 88 47 89 71 90 72 91 80 92
REMARK SMILES IDX 73 93 75 94 81 95 74 96 76 97 77 98 78 99 79 100 56 101
REMARK SMILES IDX 57 102 65 103 58 104 60 105 66 106 59 107 61 108 62 109
REMARK SMILES IDX 63 110 64 111
REMARK H PARENT 86 64 54 75
REMARK Flexibility Score: inf
ROOT
ATOM      1  C   UNL A   1      32.798  24.961  26.105  1.00  0.00     0.188 C 
ENDROOT
BRANCH   1   2
ATOM      2  C   UNL A   1      33.425  23.542  25.443  1.00  0.00     0.188 C 
BRANCH   2   3
ATOM      3  O   UNL A   1      34.073  23.435  24.168  1.00  0.00    -0.376 OA
BRANCH   3   4
ATOM      4  C   UNL A   1      35.488  23.329  24.158  1.00  0.00     0.202 C 
BRANCH   4   5
ATOM      5  C   UNL A   1      36.216  23.705  25.414  1.00  0.00     0.261 C 
BRANCH   5   6
ATOM      6  O   UNL A   1      37.371  22.832  25.465  1.00  0.00    -0.463 OA
BRANCH   6   7
ATOM      7  C   UNL A   1      38.465  23.037  26.187  1.00  0.00     0.306 C 
ATOM      8  O   UNL A   1      39.361  22.205  26.288  1.00  0.00    -0.252 OA
BRANCH   7   9
ATOM      9  C   UNL A   1      38.609  24.498  26.750  1.00  0.00     0.132 C 
BRANCH   9  10
ATOM     10  C   UNL A   1      39.656  25.493  27.571  1.00  0.00     0.114 C 
BRANCH  10  11
ATOM     11  C   UNL A   1      40.260  27.031  28.220  1.00  0.00     0.243 C 
ATOM     12  O   UNL A   1      39.522  27.962  27.804  1.00  0.00    -0.273 OA
BRANCH  11  13
ATOM     13  N   UNL A   1      41.517  27.353  29.170  1.00  0.00    -0.230 N 
ATOM     14  C   UNL A   1      43.439  29.241  30.635  1.00  0.00     0.070 C 
ATOM     15  N   UNL A   1      41.894  29.100  30.186  1.00  0.00    -0.174 NA
ATOM     16  C   UNL A   1      44.442  27.537  30.096  1.00  0.00     0.086 C 
ATOM     17  C   UNL A   1      43.119  26.217  29.327  1.00  0.00     0.118 C 
BRANCH  14  18
ATOM     18  C   UNL A   1      43.910  30.498  31.167  1.00  0.00    -0.002 A 
ATOM     19  C   UNL A   1      45.822  33.750  33.012  1.00  0.00     0.044 C 
ATOM     20  C   UNL A   1      44.979  32.693  32.382  1.00  0.00    -0.051 A 
ATOM     21  C   UNL A   1      44.668  31.569  33.151  1.00  0.00     0.004 A 
ATOM     22  C   UNL A   1      44.617  32.754  31.023  1.00  0.00     0.004 A 
ATOM     23  C   UNL A   1      44.077  30.488  32.547  1.00  0.00     0.010 A 
ATOM     24  C   UNL A   1      44.085  31.634  30.394  1.00  0.00     0.010 A 
ENDBRANCH  14  18
BRANCH  17  25
ATOM     25  C   UNL A   1      43.060  24.255  29.037  1.00  0.00     0.045 C 
BRANCH  25  26
ATOM     26  C   UNL A   1      43.543  23.144  27.420  1.00  0.00     0.106 C 
ATOM     27  C   UNL A   1      42.783  21.666  27.061  1.00  0.00    -0.003 C 
ATOM     28  C   UNL A   1      43.967  23.495  25.920  1.00  0.00     0.253 C 
ATOM     29  C   UNL A   1      42.696  20.939  25.961  1.00  0.00    -0.003 A 
ATOM     30  N   UNL A   1      44.537  22.395  25.220  1.00  0.00    -0.212 NA
ATOM     31  O   UNL A   1      43.960  24.617  25.433  1.00  0.00    -0.272 OA
ATOM     32  C   UNL A   1      42.090  19.623  26.119  1.00  0.00     0.010 A 
ATOM     33  C   UNL A   1      43.984  21.217  25.333  1.00  0.00     0.077 A 
ATOM     34  C   UNL A   1      42.855  18.544  25.941  1.00  0.00     0.001 A 
ATOM     35  C   UNL A   1      44.728  19.915  25.095  1.00  0.00    -0.025 A 
ATOM     36  C   UNL A   1      44.195  18.714  25.429  1.00  0.00     0.005 A 
ATOM     37  C   UNL A   1      46.152  20.080  24.722  1.00  0.00     0.047 C 
ENDBRANCH  25  26
ENDBRANCH  17  25
ENDBRANCH  11  13
ENDBRANCH  10  11
ENDBRANCH   9  10
ENDBRANCH   7   9
ENDBRANCH   6   7
ENDBRANCH   5   6
ENDBRANCH   4   5
ENDBRANCH   3   4
ENDBRANCH   2   3
ENDBRANCH   1   2
BRANCH   1  38
ATOM     38  O   UNL A   1      32.807  26.690  25.897  1.00  0.00    -0.377 OA
BRANCH  38  39
ATOM     39  C   UNL A   1      33.128  28.161  26.744  1.00  0.00     0.188 C 
BRANCH  39  40
ATOM     40  C   UNL A   1      33.086  29.757  26.225  1.00  0.00     0.188 C 
BRANCH  40  41
ATOM     41  O   UNL A   1      33.719  30.776  27.041  1.00  0.00    -0.376 OA
BRANCH  41  42
ATOM     42  C   UNL A   1      34.661  30.628  28.049  1.00  0.00     0.202 C 
BRANCH  42  43
ATOM     43  C   UNL A   1      34.579  31.840  28.871  1.00  0.00     0.261 C 
BRANCH  43  44
ATOM     44  O   UNL A   1      35.754  31.932  29.771  1.00  0.00    -0.460 OA
BRANCH  44  45
ATOM     45  C   UNL A   1      36.247  31.387  30.946  1.00  0.00     0.338 C 
ATOM     46  O   UNL A   1      36.362  30.156  30.913  1.00  0.00    -0.246 OA
BRANCH  45  47
ATOM     47  C   UNL A   1      36.796  32.055  32.260  1.00  0.00     0.060 A 
ATOM     48  C   UNL A   1      36.997  33.449  32.342  1.00  0.00     0.016 A 
ATOM     49  C   UNL A   1      37.077  31.464  33.481  1.00  0.00     0.016 A 
ATOM     50  C   UNL A   1      37.783  34.109  33.403  1.00  0.00     0.010 A 
ATOM     51  C   UNL A   1      37.949  32.123  34.467  1.00  0.00     0.010 A 
ATOM     52  C   UNL A   1      38.589  33.390  34.306  1.00  0.00    -0.014 A 
BRANCH  52  53
ATOM     53  C   UNL A   1      39.855  33.959  35.373  1.00  0.00     0.031 A 
ATOM     54  C   UNL A   1      41.016  34.042  34.409  1.00  0.00     0.074 A 
ATOM     55  C   UNL A   1      40.018  34.571  36.753  1.00  0.00     0.049 A 
ATOM     56  N   UNL A   1      42.121  34.606  34.688  1.00  0.00    -0.248 NA
ATOM     57  C   UNL A   1      40.948  33.737  32.967  1.00  0.00     0.031 C 
ATOM     58  C   UNL A   1      41.063  35.430  37.416  1.00  0.00     0.029 A 
ATOM     59  N   UNL A   1      39.250  34.778  37.938  1.00  0.00    -0.354 N 
ATOM     60  C   UNL A   1      42.548  35.237  33.533  1.00  0.00     0.074 A 
ATOM     61  C   UNL A   1      41.866  34.569  32.465  1.00  0.00     0.031 C 
ATOM     62  C   UNL A   1      40.956  35.698  38.760  1.00  0.00     0.029 A 
ATOM     63  C   UNL A   1      39.856  34.934  39.193  1.00  0.00     0.049 A 
ATOM     64  H   UNL A   1      38.268  34.812  37.873  1.00  0.00     0.167 HD
ATOM     65  C   UNL A   1      43.285  36.373  33.697  1.00  0.00     0.034 A 
ATOM     66  C   UNL A   1      39.814  33.939  40.133  1.00  0.00     0.034 A 
ATOM     67  C   UNL A   1      43.627  36.554  35.160  1.00  0.00     0.049 A 
ATOM     68  C   UNL A   1      41.197  33.240  39.787  1.00  0.00     0.074 A 
ATOM     69  C   UNL A   1      43.557  37.579  36.091  1.00  0.00     0.029 A 
ATOM     70  N   UNL A   1      43.906  35.404  35.938  1.00  0.00    -0.354 N 
ATOM     71  N   UNL A   1      41.825  33.400  38.631  1.00  0.00    -0.248 NA
ATOM     72  C   UNL A   1      42.110  32.604  40.733  1.00  0.00     0.031 C 
ATOM     73  C   UNL A   1      43.693  36.998  37.416  1.00  0.00     0.029 A 
ATOM     74  C   UNL A   1      43.789  35.595  37.316  1.00  0.00     0.049 A 
ATOM     75  H   UNL A   1      44.159  34.541  35.538  1.00  0.00     0.167 HD
ATOM     76  C   UNL A   1      43.172  33.550  38.854  1.00  0.00     0.074 A 
ATOM     77  C   UNL A   1      43.272  32.680  40.039  1.00  0.00     0.031 C 
ATOM     78  C   UNL A   1      44.072  34.456  38.251  1.00  0.00     0.034 A 
BRANCH  65  79
ATOM     79  C   UNL A   1      43.601  37.410  32.598  1.00  0.00     0.023 A 
ATOM     80  C   UNL A   1      44.225  36.882  31.448  1.00  0.00     0.012 A 
ATOM     81  C   UNL A   1      43.365  38.822  32.562  1.00  0.00     0.148 A 
ATOM     82  C   UNL A   1      44.575  37.655  30.334  1.00  0.00     0.002 A 
ATOM     83  C   UNL A   1      43.653  39.587  31.409  1.00  0.00     0.091 A 
ATOM     84  F   UNL A   1      42.911  39.458  33.648  1.00  0.00    -0.205 F 
ATOM     85  C   UNL A   1      44.267  39.001  30.301  1.00  0.00     0.022 A 
BRANCH  83  86
ATOM     86  S   UNL A   1      43.219  41.336  31.193  1.00  0.00     0.127 S 
ATOM     87  O   UNL A   1      41.819  41.368  31.621  1.00  0.00    -0.237 OA
ATOM     88  O   UNL A   1      44.142  41.998  32.117  1.00  0.00    -0.237 OA
ATOM     89  O   UNL A   1      43.439  41.641  29.786  1.00  0.00    -0.744 OA
ENDBRANCH  83  86
ENDBRANCH  65  79
BRANCH  66  90
ATOM     90  C   UNL A   1      38.387  33.391  40.069  1.00  0.00     0.023 A 
ATOM     91  C   UNL A   1      37.604  32.184  39.081  1.00  0.00     0.012 A 
ATOM     92  C   UNL A   1      37.549  33.773  41.556  1.00  0.00     0.148 A 
ATOM     93  C   UNL A   1      36.083  31.375  39.494  1.00  0.00     0.002 A 
ATOM     94  C   UNL A   1      35.766  32.846  41.963  1.00  0.00     0.091 A 
ATOM     95  F   UNL A   1      37.961  35.059  41.829  1.00  0.00    -0.205 F 
ATOM     96  C   UNL A   1      35.186  31.659  40.869  1.00  0.00     0.022 A 
BRANCH  94  97
ATOM     97  S   UNL A   1      33.868  33.685  42.671  1.00  0.00     0.127 S 
ATOM     98  O   UNL A   1      33.307  34.235  41.446  1.00  0.00    -0.237 OA
ATOM     99  O   UNL A   1      33.221  32.480  43.164  1.00  0.00    -0.237 OA
ATOM    100  O   UNL A   1      34.160  34.689  43.698  1.00  0.00    -0.744 OA
ENDBRANCH  94  97
ENDBRANCH  66  90
BRANCH  78 101
ATOM    101  C   UNL A   1      45.555  34.297  38.422  1.00  0.00     0.023 A 
ATOM    102  C   UNL A   1      46.273  35.032  39.349  1.00  0.00     0.012 A 
ATOM    103  C   UNL A   1      46.267  33.308  37.690  1.00  0.00     0.148 A 
ATOM    104  C   UNL A   1      47.501  34.573  39.795  1.00  0.00     0.002 A 
ATOM    105  C   UNL A   1      47.493  32.866  38.100  1.00  0.00     0.091 A 
ATOM    106  F   UNL A   1      45.820  32.834  36.526  1.00  0.00    -0.205 F 
ATOM    107  C   UNL A   1      48.085  33.452  39.210  1.00  0.00     0.022 A 
BRANCH 105 108
ATOM    108  S   UNL A   1      48.347  31.571  37.207  1.00  0.00     0.127 S 
ATOM    109  O   UNL A   1      48.536  32.213  35.907  1.00  0.00    -0.237 OA
ATOM    110  O   UNL A   1      49.559  31.415  38.010  1.00  0.00    -0.237 OA
ATOM    111  O   UNL A   1      47.475  30.404  37.200  1.00  0.00    -0.744 OA
ENDBRANCH 105 108
ENDBRANCH  78 101
ENDBRANCH  52  53
ENDBRANCH  45  47
ENDBRANCH  44  45
ENDBRANCH  43  44
ENDBRANCH  42  43
ENDBRANCH  41  42
ENDBRANCH  40  41
ENDBRANCH  39  40
ENDBRANCH  38  39
ENDBRANCH   1  38
TORSDOF 29
ENDMDL
