MODEL 1
REMARK VINA RESULT:      -6.9      0.000      0.000
REMARK SMILES CCOCCCC(=O)N[C@@H]1[C@@H]2CC[C@@H](C2)[C@@H]1C(=O)OCCOCCOCCOCCOC(=O)c1ccc(-c2c3nc(c(-c4cccc(S(=O)(=O)[O-])c4F)c4ccc([nH]4)c(-c4cccc(S(=O)(=O)[O-])c4F)c4nc(c(-c5cccc(S(=O)(=O)[O-])c5F)c5ccc2[nH]5)C=C4)C=C3)cc1
REMARK SMILES IDX 23 1 22 2 21 3 20 4 19 5 17 6 18 7 16 8 10 9 11 10 12 11
REMARK SMILES IDX 15 12 14 13 13 14 9 15 7 16 8 17 6 19 5 20 4 21 3 22 2 23
REMARK SMILES IDX 1 24 24 25 25 26 26 27 27 28 28 29 29 30 30 31 31 32 32 33
REMARK SMILES IDX 33 34 34 35 35 36 96 37 36 38 95 39 37 40 38 41 39 42 89 43
REMARK SMILES IDX 40 44 94 45 88 46 90 47 41 48 93 49 87 50 86 51 42 53 74 54
REMARK SMILES IDX 54 55 73 56 55 57 58 58 72 59 91 60 56 61 57 62 71 64 92 65
REMARK SMILES IDX 59 66 43 67 44 68 52 69 45 70 47 71 53 72 46 73 48 74 49 75
REMARK SMILES IDX 50 76 51 77 75 78 76 79 84 80 77 81 79 82 85 83 78 84 80 85
REMARK SMILES IDX 81 86 82 87 83 88 60 89 61 90 69 91 62 92 64 93 70 94 63 95
REMARK SMILES IDX 65 96 66 97 67 98 68 99
REMARK H PARENT 9 18 90 52 58 63
REMARK Flexibility Score: inf
ROOT
ATOM      1  C   UNL A   1      49.431  24.813  27.371  1.00  0.00     0.188 C 
ENDROOT
BRANCH   1   2
ATOM      2  O   UNL A   1      50.823  25.003  27.522  1.00  0.00    -0.376 OA
BRANCH   2   3
ATOM      3  C   UNL A   1      51.404  25.744  28.599  1.00  0.00     0.202 C 
BRANCH   3   4
ATOM      4  C   UNL A   1      50.684  26.011  29.982  1.00  0.00     0.261 C 
BRANCH   4   5
ATOM      5  O   UNL A   1      49.968  24.916  30.680  1.00  0.00    -0.463 OA
BRANCH   5   6
ATOM      6  C   UNL A   1      50.375  24.484  31.926  1.00  0.00     0.311 C 
ATOM      7  O   UNL A   1      51.205  23.581  32.047  1.00  0.00    -0.252 OA
BRANCH   6   8
ATOM      8  C   UNL A   1      49.920  25.384  33.307  1.00  0.00     0.125 C 
ATOM      9  C   UNL A   1      50.746  25.793  34.974  1.00  0.00     0.099 C 
ATOM     10  C   UNL A   1      49.882  25.062  35.974  1.00  0.00     0.013 C 
ATOM     11  C   UNL A   1      49.512  22.972  36.202  1.00  0.00     0.006 C 
ATOM     12  C   UNL A   1      48.403  25.901  35.045  1.00  0.00     0.010 C 
ATOM     13  C   UNL A   1      48.225  24.697  33.844  1.00  0.00     0.006 C 
ATOM     14  C   UNL A   1      48.060  22.828  34.690  1.00  0.00     0.005 C 
BRANCH   9  15
ATOM     15  N   UNL A   1      52.036  25.645  35.793  1.00  0.00    -0.352 N 
ATOM     16  C   UNL A   1      53.342  25.231  35.414  1.00  0.00     0.220 C 
ATOM     17  O   UNL A   1      54.130  25.019  36.350  1.00  0.00    -0.275 OA
ATOM     18  H   UNL A   1      51.943  25.877  36.745  1.00  0.00     0.163 HD
BRANCH  16  19
ATOM     19  C   UNL A   1      54.006  25.199  33.926  1.00  0.00     0.102 C 
BRANCH  19  20
ATOM     20  C   UNL A   1      54.999  24.166  33.187  1.00  0.00     0.038 C 
BRANCH  20  21
ATOM     21  C   UNL A   1      54.613  22.710  32.436  1.00  0.00     0.160 C 
BRANCH  21  22
ATOM     22  O   UNL A   1      54.070  21.302  33.355  1.00  0.00    -0.382 OA
BRANCH  22  23
ATOM     23  C   UNL A   1      52.239  20.871  34.152  1.00  0.00     0.156 C 
ATOM     24  C   UNL A   1      50.808  20.507  33.601  1.00  0.00     0.035 C 
ENDBRANCH  22  23
ENDBRANCH  21  22
ENDBRANCH  20  21
ENDBRANCH  19  20
ENDBRANCH  16  19
ENDBRANCH   9  15
ENDBRANCH   6   8
ENDBRANCH   5   6
ENDBRANCH   4   5
ENDBRANCH   3   4
ENDBRANCH   2   3
ENDBRANCH   1   2
BRANCH   1  25
ATOM     25  C   UNL A   1      48.577  25.741  26.530  1.00  0.00     0.188 C 
BRANCH  25  26
ATOM     26  O   UNL A   1      48.019  25.218  25.356  1.00  0.00    -0.377 OA
BRANCH  26  27
ATOM     27  C   UNL A   1      46.651  24.856  25.434  1.00  0.00     0.188 C 
BRANCH  27  28
ATOM     28  C   UNL A   1      46.141  24.233  26.755  1.00  0.00     0.188 C 
BRANCH  28  29
ATOM     29  O   UNL A   1      45.470  22.983  26.819  1.00  0.00    -0.376 OA
BRANCH  29  30
ATOM     30  C   UNL A   1      45.275  22.066  25.746  1.00  0.00     0.202 C 
BRANCH  30  31
ATOM     31  C   UNL A   1      43.940  21.448  25.300  1.00  0.00     0.261 C 
BRANCH  31  32
ATOM     32  O   UNL A   1      42.749  22.191  25.520  1.00  0.00    -0.460 OA
BRANCH  32  33
ATOM     33  C   UNL A   1      42.198  22.127  26.748  1.00  0.00     0.338 C 
ATOM     34  O   UNL A   1      41.994  21.127  27.410  1.00  0.00    -0.246 OA
BRANCH  33  35
ATOM     35  C   UNL A   1      42.100  23.518  27.232  1.00  0.00     0.060 A 
ATOM     36  C   UNL A   1      41.744  24.527  26.325  1.00  0.00     0.016 A 
ATOM     37  C   UNL A   1      42.303  23.816  28.581  1.00  0.00     0.016 A 
ATOM     38  C   UNL A   1      41.575  25.831  26.756  1.00  0.00     0.010 A 
ATOM     39  C   UNL A   1      42.213  25.142  29.000  1.00  0.00     0.010 A 
ATOM     40  C   UNL A   1      41.875  26.150  28.080  1.00  0.00    -0.014 A 
BRANCH  40  41
ATOM     41  C   UNL A   1      42.073  27.569  28.414  1.00  0.00     0.031 A 
ATOM     42  C   UNL A   1      43.470  28.109  28.348  1.00  0.00     0.074 A 
ATOM     43  C   UNL A   1      41.029  28.358  28.708  1.00  0.00     0.049 A 
ATOM     44  N   UNL A   1      43.907  29.302  28.638  1.00  0.00    -0.248 NA
ATOM     45  C   UNL A   1      44.517  27.175  27.893  1.00  0.00     0.031 C 
ATOM     46  C   UNL A   1      39.630  27.935  28.731  1.00  0.00     0.029 A 
ATOM     47  N   UNL A   1      40.993  29.679  29.064  1.00  0.00    -0.354 N 
ATOM     48  C   UNL A   1      45.281  29.254  28.442  1.00  0.00     0.074 A 
ATOM     49  C   UNL A   1      45.608  27.913  28.013  1.00  0.00     0.031 C 
ATOM     50  C   UNL A   1      38.871  28.971  29.123  1.00  0.00     0.029 A 
ATOM     51  C   UNL A   1      39.738  30.111  29.416  1.00  0.00     0.049 A 
ATOM     52  H   UNL A   1      41.787  30.261  29.068  1.00  0.00     0.167 HD
ATOM     53  C   UNL A   1      46.185  30.244  28.610  1.00  0.00     0.034 A 
ATOM     54  C   UNL A   1      39.349  31.281  29.958  1.00  0.00     0.034 A 
ATOM     55  C   UNL A   1      45.838  31.566  29.047  1.00  0.00     0.049 A 
ATOM     56  C   UNL A   1      40.390  32.342  30.209  1.00  0.00     0.074 A 
ATOM     57  C   UNL A   1      46.669  32.656  29.229  1.00  0.00     0.029 A 
ATOM     58  N   UNL A   1      44.560  31.971  29.401  1.00  0.00    -0.354 N 
ATOM     59  N   UNL A   1      41.676  32.313  29.955  1.00  0.00    -0.248 NA
ATOM     60  C   UNL A   1      39.921  33.604  30.798  1.00  0.00     0.031 C 
ATOM     61  C   UNL A   1      45.904  33.700  29.755  1.00  0.00     0.029 A 
ATOM     62  C   UNL A   1      44.583  33.285  29.829  1.00  0.00     0.049 A 
ATOM     63  H   UNL A   1      43.755  31.405  29.355  1.00  0.00     0.167 HD
ATOM     64  C   UNL A   1      42.164  33.565  30.314  1.00  0.00     0.074 A 
ATOM     65  C   UNL A   1      41.030  34.332  30.787  1.00  0.00     0.031 C 
ATOM     66  C   UNL A   1      43.433  34.038  30.261  1.00  0.00     0.034 A 
BRANCH  53  67
ATOM     67  C   UNL A   1      47.632  29.920  28.353  1.00  0.00     0.023 A 
ATOM     68  C   UNL A   1      48.081  29.649  27.044  1.00  0.00     0.012 A 
ATOM     69  C   UNL A   1      48.556  29.922  29.416  1.00  0.00     0.148 A 
ATOM     70  C   UNL A   1      49.421  29.349  26.804  1.00  0.00     0.002 A 
ATOM     71  C   UNL A   1      49.897  29.674  29.160  1.00  0.00     0.091 A 
ATOM     72  F   UNL A   1      48.104  30.158  30.655  1.00  0.00    -0.205 F 
ATOM     73  C   UNL A   1      50.330  29.373  27.859  1.00  0.00     0.022 A 
BRANCH  71  74
ATOM     74  S   UNL A   1      51.157  29.760  30.437  1.00  0.00     0.127 S 
ATOM     75  O   UNL A   1      50.570  28.927  31.485  1.00  0.00    -0.237 OA
ATOM     76  O   UNL A   1      52.313  29.171  29.763  1.00  0.00    -0.237 OA
ATOM     77  O   UNL A   1      51.298  31.170  30.774  1.00  0.00    -0.744 OA
ENDBRANCH  71  74
ENDBRANCH  53  67
BRANCH  54  78
ATOM     78  C   UNL A   1      37.922  31.505  30.310  1.00  0.00     0.023 A 
ATOM     79  C   UNL A   1      37.477  31.261  31.623  1.00  0.00     0.012 A 
ATOM     80  C   UNL A   1      37.001  31.961  29.346  1.00  0.00     0.148 A 
ATOM     81  C   UNL A   1      36.134  31.427  31.960  1.00  0.00     0.002 A 
ATOM     82  C   UNL A   1      35.678  32.180  29.702  1.00  0.00     0.091 A 
ATOM     83  F   UNL A   1      37.445  32.181  28.100  1.00  0.00    -0.205 F 
ATOM     84  C   UNL A   1      35.236  31.895  31.002  1.00  0.00     0.022 A 
BRANCH  82  85
ATOM     85  S   UNL A   1      34.479  32.890  28.568  1.00  0.00     0.127 S 
ATOM     86  O   UNL A   1      33.829  31.695  28.034  1.00  0.00    -0.237 OA
ATOM     87  O   UNL A   1      33.654  33.691  29.471  1.00  0.00    -0.237 OA
ATOM     88  O   UNL A   1      35.250  33.666  27.607  1.00  0.00    -0.744 OA
ENDBRANCH  82  85
ENDBRANCH  54  78
BRANCH  66  89
ATOM     89  C   UNL A   1      43.665  35.470  30.669  1.00  0.00     0.023 A 
ATOM     90  C   UNL A   1      43.717  36.490  29.699  1.00  0.00     0.012 A 
ATOM     91  C   UNL A   1      43.748  35.807  32.035  1.00  0.00     0.148 A 
ATOM     92  C   UNL A   1      43.883  37.820  30.082  1.00  0.00     0.002 A 
ATOM     93  C   UNL A   1      43.854  37.139  32.411  1.00  0.00     0.091 A 
ATOM     94  F   UNL A   1      43.705  34.818  32.940  1.00  0.00    -0.205 F 
ATOM     95  C   UNL A   1      43.938  38.145  31.436  1.00  0.00     0.022 A 
BRANCH  93  96
ATOM     96  S   UNL A   1      43.831  37.661  34.128  1.00  0.00     0.127 S 
ATOM     97  O   UNL A   1      43.503  36.411  34.813  1.00  0.00    -0.237 OA
ATOM     98  O   UNL A   1      45.205  38.122  34.326  1.00  0.00    -0.237 OA
ATOM     99  O   UNL A   1      42.818  38.703  34.225  1.00  0.00    -0.744 OA
ENDBRANCH  93  96
ENDBRANCH  66  89
ENDBRANCH  40  41
ENDBRANCH  33  35
ENDBRANCH  32  33
ENDBRANCH  31  32
ENDBRANCH  30  31
ENDBRANCH  29  30
ENDBRANCH  28  29
ENDBRANCH  27  28
ENDBRANCH  26  27
ENDBRANCH  25  26
ENDBRANCH   1  25
TORSDOF 29
ENDMDL
MODEL 2
REMARK VINA RESULT:      -6.9      4.709      7.948
REMARK SMILES CCOCCCC(=O)N[C@@H]1[C@@H]2CC[C@@H](C2)[C@@H]1C(=O)OCCOCCOCCOCCOC(=O)c1ccc(-c2c3nc(c(-c4cccc(S(=O)(=O)[O-])c4F)c4ccc([nH]4)c(-c4cccc(S(=O)(=O)[O-])c4F)c4nc(c(-c5cccc(S(=O)(=O)[O-])c5F)c5ccc2[nH]5)C=C4)C=C3)cc1
REMARK SMILES IDX 23 1 22 2 21 3 20 4 19 5 17 6 18 7 16 8 10 9 11 10 12 11
REMARK SMILES IDX 15 12 14 13 13 14 9 15 7 16 8 17 6 19 5 20 4 21 3 22 2 23
REMARK SMILES IDX 1 24 24 25 25 26 26 27 27 28 28 29 29 30 30 31 31 32 32 33
REMARK SMILES IDX 33 34 34 35 35 36 96 37 36 38 95 39 37 40 38 41 39 42 89 43
REMARK SMILES IDX 40 44 94 45 88 46 90 47 41 48 93 49 87 50 86 51 42 53 74 54
REMARK SMILES IDX 54 55 73 56 55 57 58 58 72 59 91 60 56 61 57 62 71 64 92 65
REMARK SMILES IDX 59 66 43 67 44 68 52 69 45 70 47 71 53 72 46 73 48 74 49 75
REMARK SMILES IDX 50 76 51 77 75 78 76 79 84 80 77 81 79 82 85 83 78 84 80 85
REMARK SMILES IDX 81 86 82 87 83 88 60 89 61 90 69 91 62 92 64 93 70 94 63 95
REMARK SMILES IDX 65 96 66 97 67 98 68 99
REMARK H PARENT 9 18 90 52 58 63
REMARK Flexibility Score: inf
ROOT
ATOM      1  C   UNL A   1      40.233  30.565  31.990  1.00  0.00     0.188 C 
ENDROOT
BRANCH   1   2
ATOM      2  O   UNL A   1      41.266  30.245  32.899  1.00  0.00    -0.376 OA
BRANCH   2   3
ATOM      3  C   UNL A   1      41.565  28.909  33.313  1.00  0.00     0.202 C 
BRANCH   3   4
ATOM      4  C   UNL A   1      41.703  28.459  34.824  1.00  0.00     0.261 C 
BRANCH   4   5
ATOM      5  O   UNL A   1      41.991  27.045  35.163  1.00  0.00    -0.463 OA
BRANCH   5   6
ATOM      6  C   UNL A   1      43.291  26.595  35.275  1.00  0.00     0.311 C 
ATOM      7  O   UNL A   1      44.178  27.317  35.735  1.00  0.00    -0.252 OA
BRANCH   6   8
ATOM      8  C   UNL A   1      43.622  24.936  35.015  1.00  0.00     0.125 C 
ATOM      9  C   UNL A   1      44.662  23.619  35.913  1.00  0.00     0.099 C 
ATOM     10  C   UNL A   1      45.765  23.320  34.927  1.00  0.00     0.013 C 
ATOM     11  C   UNL A   1      47.296  24.590  34.151  1.00  0.00     0.006 C 
ATOM     12  C   UNL A   1      44.328  23.149  33.640  1.00  0.00     0.010 C 
ATOM     13  C   UNL A   1      44.249  24.804  33.219  1.00  0.00     0.006 C 
ATOM     14  C   UNL A   1      46.104  25.521  32.691  1.00  0.00     0.005 C 
BRANCH   9  15
ATOM     15  N   UNL A   1      45.527  23.349  37.153  1.00  0.00    -0.352 N 
ATOM     16  C   UNL A   1      45.914  22.131  37.775  1.00  0.00     0.220 C 
ATOM     17  O   UNL A   1      46.454  22.244  38.888  1.00  0.00    -0.275 OA
ATOM     18  H   UNL A   1      45.874  24.158  37.593  1.00  0.00     0.163 HD
BRANCH  16  19
ATOM     19  C   UNL A   1      45.938  20.629  37.142  1.00  0.00     0.102 C 
BRANCH  19  20
ATOM     20  C   UNL A   1      46.675  19.262  37.580  1.00  0.00     0.038 C 
BRANCH  20  21
ATOM     21  C   UNL A   1      46.987  18.702  39.135  1.00  0.00     0.160 C 
BRANCH  21  22
ATOM     22  O   UNL A   1      47.903  19.658  40.304  1.00  0.00    -0.382 OA
BRANCH  22  23
ATOM     23  C   UNL A   1      49.666  20.669  40.093  1.00  0.00     0.156 C 
ATOM     24  C   UNL A   1      50.474  21.326  38.911  1.00  0.00     0.035 C 
ENDBRANCH  22  23
ENDBRANCH  21  22
ENDBRANCH  20  21
ENDBRANCH  19  20
ENDBRANCH  16  19
ENDBRANCH   9  15
ENDBRANCH   6   8
ENDBRANCH   5   6
ENDBRANCH   4   5
ENDBRANCH   3   4
ENDBRANCH   2   3
ENDBRANCH   1   2
BRANCH   1  25
ATOM     25  C   UNL A   1      39.773  29.597  30.919  1.00  0.00     0.188 C 
BRANCH  25  26
ATOM     26  O   UNL A   1      39.358  30.137  29.694  1.00  0.00    -0.377 OA
BRANCH  26  27
ATOM     27  C   UNL A   1      38.848  29.208  28.754  1.00  0.00     0.188 C 
BRANCH  27  28
ATOM     28  C   UNL A   1      39.229  27.719  28.926  1.00  0.00     0.188 C 
BRANCH  28  29
ATOM     29  O   UNL A   1      39.513  26.856  27.834  1.00  0.00    -0.376 OA
BRANCH  29  30
ATOM     30  C   UNL A   1      40.673  26.047  27.668  1.00  0.00     0.202 C 
BRANCH  30  31
ATOM     31  C   UNL A   1      40.730  24.511  27.685  1.00  0.00     0.261 C 
BRANCH  31  32
ATOM     32  O   UNL A   1      42.005  23.885  27.670  1.00  0.00    -0.460 OA
BRANCH  32  33
ATOM     33  C   UNL A   1      42.759  23.993  28.781  1.00  0.00     0.338 C 
ATOM     34  O   UNL A   1      42.684  23.315  29.788  1.00  0.00    -0.246 OA
BRANCH  33  35
ATOM     35  C   UNL A   1      43.846  24.938  28.455  1.00  0.00     0.060 A 
ATOM     36  C   UNL A   1      44.299  25.817  29.450  1.00  0.00     0.016 A 
ATOM     37  C   UNL A   1      44.449  24.918  27.197  1.00  0.00     0.016 A 
ATOM     38  C   UNL A   1      45.361  26.670  29.201  1.00  0.00     0.010 A 
ATOM     39  C   UNL A   1      45.465  25.831  26.920  1.00  0.00     0.010 A 
ATOM     40  C   UNL A   1      45.899  26.723  27.917  1.00  0.00    -0.014 A 
BRANCH  40  41
ATOM     41  C   UNL A   1      46.734  27.885  27.572  1.00  0.00     0.031 A 
ATOM     42  C   UNL A   1      48.221  27.696  27.570  1.00  0.00     0.074 A 
ATOM     43  C   UNL A   1      46.175  29.051  27.216  1.00  0.00     0.049 A 
ATOM     44  N   UNL A   1      49.163  28.569  27.349  1.00  0.00    -0.248 NA
ATOM     45  C   UNL A   1      48.712  26.335  27.859  1.00  0.00     0.031 C 
ATOM     46  C   UNL A   1      44.738  29.307  27.126  1.00  0.00     0.029 A 
ATOM     47  N   UNL A   1      46.757  30.245  26.886  1.00  0.00    -0.354 N 
ATOM     48  C   UNL A   1      50.356  27.879  27.511  1.00  0.00     0.074 A 
ATOM     49  C   UNL A   1      50.023  26.515  27.853  1.00  0.00     0.031 C 
ATOM     50  C   UNL A   1      44.548  30.596  26.800  1.00  0.00     0.029 A 
ATOM     51  C   UNL A   1      45.847  31.258  26.702  1.00  0.00     0.049 A 
ATOM     52  H   UNL A   1      47.729  30.366  26.790  1.00  0.00     0.167 HD
ATOM     53  C   UNL A   1      51.618  28.347  27.385  1.00  0.00     0.034 A 
ATOM     54  C   UNL A   1      46.051  32.577  26.523  1.00  0.00     0.034 A 
ATOM     55  C   UNL A   1      51.926  29.709  27.053  1.00  0.00     0.049 A 
ATOM     56  C   UNL A   1      47.467  33.088  26.465  1.00  0.00     0.074 A 
ATOM     57  C   UNL A   1      53.168  30.290  26.877  1.00  0.00     0.029 A 
ATOM     58  N   UNL A   1      50.984  30.712  26.879  1.00  0.00    -0.354 N 
ATOM     59  N   UNL A   1      48.591  32.417  26.548  1.00  0.00    -0.248 NA
ATOM     60  C   UNL A   1      47.643  34.533  26.264  1.00  0.00     0.031 C 
ATOM     61  C   UNL A   1      52.979  31.657  26.660  1.00  0.00     0.029 A 
ATOM     62  C   UNL A   1      51.617  31.915  26.625  1.00  0.00     0.049 A 
ATOM     63  H   UNL A   1      50.009  30.586  26.929  1.00  0.00     0.167 HD
ATOM     64  C   UNL A   1      49.607  33.350  26.368  1.00  0.00     0.074 A 
ATOM     65  C   UNL A   1      48.961  34.629  26.156  1.00  0.00     0.031 C 
ATOM     66  C   UNL A   1      50.950  33.168  26.381  1.00  0.00     0.034 A 
BRANCH  53  67
ATOM     67  C   UNL A   1      52.749  27.389  27.641  1.00  0.00     0.023 A 
ATOM     68  C   UNL A   1      53.356  27.326  28.912  1.00  0.00     0.012 A 
ATOM     69  C   UNL A   1      53.186  26.521  26.621  1.00  0.00     0.148 A 
ATOM     70  C   UNL A   1      54.405  26.439  29.152  1.00  0.00     0.002 A 
ATOM     71  C   UNL A   1      54.194  25.605  26.884  1.00  0.00     0.091 A 
ATOM     72  F   UNL A   1      52.611  26.614  25.414  1.00  0.00    -0.205 F 
ATOM     73  C   UNL A   1      54.815  25.572  28.143  1.00  0.00     0.022 A 
BRANCH  71  74
ATOM     74  S   UNL A   1      54.738  24.393  25.677  1.00  0.00     0.127 S 
ATOM     75  O   UNL A   1      55.644  23.569  26.475  1.00  0.00    -0.237 OA
ATOM     76  O   UNL A   1      53.480  23.741  25.312  1.00  0.00    -0.237 OA
ATOM     77  O   UNL A   1      55.371  25.145  24.603  1.00  0.00    -0.744 OA
ENDBRANCH  71  74
ENDBRANCH  53  67
BRANCH  54  78
ATOM     78  C   UNL A   1      44.894  33.503  26.399  1.00  0.00     0.023 A 
ATOM     79  C   UNL A   1      44.247  33.655  25.158  1.00  0.00     0.012 A 
ATOM     80  C   UNL A   1      44.432  34.236  27.510  1.00  0.00     0.148 A 
ATOM     81  C   UNL A   1      43.186  34.549  25.016  1.00  0.00     0.002 A 
ATOM     82  C   UNL A   1      43.339  35.081  27.376  1.00  0.00     0.091 A 
ATOM     83  F   UNL A   1      45.067  34.082  28.681  1.00  0.00    -0.205 F 
ATOM     84  C   UNL A   1      42.727  35.256  26.126  1.00  0.00     0.022 A 
BRANCH  82  85
ATOM     85  S   UNL A   1      42.607  35.941  28.772  1.00  0.00     0.127 S 
ATOM     86  O   UNL A   1      41.534  36.696  28.129  1.00  0.00    -0.237 OA
ATOM     87  O   UNL A   1      42.162  34.826  29.608  1.00  0.00    -0.237 OA
ATOM     88  O   UNL A   1      43.676  36.741  29.353  1.00  0.00    -0.744 OA
ENDBRANCH  82  85
ENDBRANCH  54  78
BRANCH  66  89
ATOM     89  C   UNL A   1      51.822  34.365  26.101  1.00  0.00     0.023 A 
ATOM     90  C   UNL A   1      52.159  34.710  24.778  1.00  0.00     0.012 A 
ATOM     91  C   UNL A   1      52.236  35.196  27.162  1.00  0.00     0.148 A 
ATOM     92  C   UNL A   1      52.926  35.846  24.518  1.00  0.00     0.002 A 
ATOM     93  C   UNL A   1      52.949  36.356  26.891  1.00  0.00     0.091 A 
ATOM     94  F   UNL A   1      51.912  34.843  28.414  1.00  0.00    -0.205 F 
ATOM     95  C   UNL A   1      53.308  36.674  25.572  1.00  0.00     0.022 A 
BRANCH  93  96
ATOM     96  S   UNL A   1      53.398  37.533  28.169  1.00  0.00     0.127 S 
ATOM     97  O   UNL A   1      54.145  38.531  27.404  1.00  0.00    -0.237 OA
ATOM     98  O   UNL A   1      52.091  37.982  28.645  1.00  0.00    -0.237 OA
ATOM     99  O   UNL A   1      54.182  36.792  29.148  1.00  0.00    -0.744 OA
ENDBRANCH  93  96
ENDBRANCH  66  89
ENDBRANCH  40  41
ENDBRANCH  33  35
ENDBRANCH  32  33
ENDBRANCH  31  32
ENDBRANCH  30  31
ENDBRANCH  29  30
ENDBRANCH  28  29
ENDBRANCH  27  28
ENDBRANCH  26  27
ENDBRANCH  25  26
ENDBRANCH   1  25
TORSDOF 29
ENDMDL
MODEL 3
REMARK VINA RESULT:      -6.7     13.625     18.149
REMARK SMILES CCOCCCC(=O)N[C@@H]1[C@@H]2CC[C@@H](C2)[C@@H]1C(=O)OCCOCCOCCOCCOC(=O)c1ccc(-c2c3nc(c(-c4cccc(S(=O)(=O)[O-])c4F)c4ccc([nH]4)c(-c4cccc(S(=O)(=O)[O-])c4F)c4nc(c(-c5cccc(S(=O)(=O)[O-])c5F)c5ccc2[nH]5)C=C4)C=C3)cc1
REMARK SMILES IDX 23 1 22 2 21 3 20 4 19 5 17 6 18 7 16 8 10 9 11 10 12 11
REMARK SMILES IDX 15 12 14 13 13 14 9 15 7 16 8 17 6 19 5 20 4 21 3 22 2 23
REMARK SMILES IDX 1 24 24 25 25 26 26 27 27 28 28 29 29 30 30 31 31 32 32 33
REMARK SMILES IDX 33 34 34 35 35 36 96 37 36 38 95 39 37 40 38 41 39 42 89 43
REMARK SMILES IDX 40 44 94 45 88 46 90 47 41 48 93 49 87 50 86 51 42 53 74 54
REMARK SMILES IDX 54 55 73 56 55 57 58 58 72 59 91 60 56 61 57 62 71 64 92 65
REMARK SMILES IDX 59 66 43 67 44 68 52 69 45 70 47 71 53 72 46 73 48 74 49 75
REMARK SMILES IDX 50 76 51 77 75 78 76 79 84 80 77 81 79 82 85 83 78 84 80 85
REMARK SMILES IDX 81 86 82 87 83 88 60 89 61 90 69 91 62 92 64 93 70 94 63 95
REMARK SMILES IDX 65 96 66 97 67 98 68 99
REMARK H PARENT 9 18 90 52 58 63
REMARK Flexibility Score: inf
ROOT
ATOM      1  C   UNL A   1      46.103  44.221  20.175  1.00  0.00     0.188 C 
ENDROOT
BRANCH   1   2
ATOM      2  O   UNL A   1      46.525  42.939  20.592  1.00  0.00    -0.376 OA
BRANCH   2   3
ATOM      3  C   UNL A   1      47.899  42.554  20.686  1.00  0.00     0.202 C 
BRANCH   3   4
ATOM      4  C   UNL A   1      49.088  43.329  19.985  1.00  0.00     0.261 C 
BRANCH   4   5
ATOM      5  O   UNL A   1      50.384  42.653  19.740  1.00  0.00    -0.463 OA
BRANCH   5   6
ATOM      6  C   UNL A   1      51.578  43.298  19.991  1.00  0.00     0.311 C 
ATOM      7  O   UNL A   1      51.627  44.279  20.736  1.00  0.00    -0.252 OA
BRANCH   6   8
ATOM      8  C   UNL A   1      53.039  42.575  19.473  1.00  0.00     0.125 C 
ATOM      9  C   UNL A   1      54.705  42.174  20.302  1.00  0.00     0.099 C 
ATOM     10  C   UNL A   1      55.672  43.090  19.592  1.00  0.00     0.013 C 
ATOM     11  C   UNL A   1      55.749  45.223  19.530  1.00  0.00     0.006 C 
ATOM     12  C   UNL A   1      54.858  42.408  17.972  1.00  0.00     0.010 C 
ATOM     13  C   UNL A   1      53.573  43.534  17.914  1.00  0.00     0.006 C 
ATOM     14  C   UNL A   1      54.276  45.463  18.050  1.00  0.00     0.005 C 
BRANCH   9  15
ATOM     15  N   UNL A   1      55.470  42.193  21.633  1.00  0.00    -0.352 N 
ATOM     16  C   UNL A   1      55.266  41.469  22.839  1.00  0.00     0.220 C 
ATOM     17  O   UNL A   1      55.931  41.854  23.815  1.00  0.00    -0.275 OA
ATOM     18  H   UNL A   1      56.233  42.815  21.655  1.00  0.00     0.163 HD
BRANCH  16  19
ATOM     19  C   UNL A   1      54.443  40.081  23.064  1.00  0.00     0.102 C 
BRANCH  19  20
ATOM     20  C   UNL A   1      54.863  38.634  23.642  1.00  0.00     0.038 C 
BRANCH  20  21
ATOM     21  C   UNL A   1      56.062  38.272  24.766  1.00  0.00     0.160 C 
BRANCH  21  22
ATOM     22  O   UNL A   1      56.046  38.949  26.397  1.00  0.00    -0.382 OA
BRANCH  22  23
ATOM     23  C   UNL A   1      54.777  38.599  27.961  1.00  0.00     0.156 C 
ATOM     24  C   UNL A   1      54.164  39.437  29.146  1.00  0.00     0.035 C 
ENDBRANCH  22  23
ENDBRANCH  21  22
ENDBRANCH  20  21
ENDBRANCH  19  20
ENDBRANCH  16  19
ENDBRANCH   9  15
ENDBRANCH   6   8
ENDBRANCH   5   6
ENDBRANCH   4   5
ENDBRANCH   3   4
ENDBRANCH   2   3
ENDBRANCH   1   2
BRANCH   1  25
ATOM     25  C   UNL A   1      45.433  44.455  18.837  1.00  0.00     0.188 C 
BRANCH  25  26
ATOM     26  O   UNL A   1      44.613  45.583  18.712  1.00  0.00    -0.377 OA
BRANCH  26  27
ATOM     27  C   UNL A   1      44.120  45.845  17.409  1.00  0.00     0.188 C 
BRANCH  27  28
ATOM     28  C   UNL A   1      42.594  46.018  17.233  1.00  0.00     0.188 C 
BRANCH  28  29
ATOM     29  O   UNL A   1      41.656  45.771  18.272  1.00  0.00    -0.376 OA
BRANCH  29  30
ATOM     30  C   UNL A   1      41.100  44.511  18.634  1.00  0.00     0.202 C 
BRANCH  30  31
ATOM     31  C   UNL A   1      41.798  43.395  19.428  1.00  0.00     0.261 C 
BRANCH  31  32
ATOM     32  O   UNL A   1      42.629  43.766  20.519  1.00  0.00    -0.460 OA
BRANCH  32  33
ATOM     33  C   UNL A   1      42.198  43.458  21.758  1.00  0.00     0.338 C 
ATOM     34  O   UNL A   1      41.133  42.955  22.061  1.00  0.00    -0.246 OA
BRANCH  33  35
ATOM     35  C   UNL A   1      43.356  43.636  22.656  1.00  0.00     0.060 A 
ATOM     36  C   UNL A   1      44.097  42.508  23.036  1.00  0.00     0.016 A 
ATOM     37  C   UNL A   1      43.740  44.912  23.073  1.00  0.00     0.016 A 
ATOM     38  C   UNL A   1      45.230  42.644  23.821  1.00  0.00     0.010 A 
ATOM     39  C   UNL A   1      44.832  45.041  23.929  1.00  0.00     0.010 A 
ATOM     40  C   UNL A   1      45.558  43.903  24.322  1.00  0.00    -0.014 A 
BRANCH  40  41
ATOM     41  C   UNL A   1      46.503  43.966  25.448  1.00  0.00     0.031 A 
ATOM     42  C   UNL A   1      47.899  44.430  25.158  1.00  0.00     0.074 A 
ATOM     43  C   UNL A   1      46.105  43.675  26.696  1.00  0.00     0.049 A 
ATOM     44  N   UNL A   1      48.919  44.526  25.963  1.00  0.00    -0.248 NA
ATOM     45  C   UNL A   1      48.182  44.839  23.770  1.00  0.00     0.031 C 
ATOM     46  C   UNL A   1      44.751  43.280  27.081  1.00  0.00     0.029 A 
ATOM     47  N   UNL A   1      46.816  43.648  27.865  1.00  0.00    -0.354 N 
ATOM     48  C   UNL A   1      49.974  44.966  25.175  1.00  0.00     0.074 A 
ATOM     49  C   UNL A   1      49.474  45.114  23.828  1.00  0.00     0.031 C 
ATOM     50  C   UNL A   1      44.737  43.010  28.397  1.00  0.00     0.029 A 
ATOM     51  C   UNL A   1      46.088  43.174  28.930  1.00  0.00     0.049 A 
ATOM     52  H   UNL A   1      47.754  43.938  27.936  1.00  0.00     0.167 HD
ATOM     53  C   UNL A   1      51.248  45.221  25.550  1.00  0.00     0.034 A 
ATOM     54  C   UNL A   1      46.489  42.866  30.178  1.00  0.00     0.034 A 
ATOM     55  C   UNL A   1      51.726  45.057  26.893  1.00  0.00     0.049 A 
ATOM     56  C   UNL A   1      47.932  43.085  30.549  1.00  0.00     0.074 A 
ATOM     57  C   UNL A   1      52.990  45.307  27.391  1.00  0.00     0.029 A 
ATOM     58  N   UNL A   1      50.966  44.570  27.947  1.00  0.00    -0.354 N 
ATOM     59  N   UNL A   1      48.909  43.568  29.818  1.00  0.00    -0.248 NA
ATOM     60  C   UNL A   1      48.324  42.738  31.922  1.00  0.00     0.031 C 
ATOM     61  C   UNL A   1      53.014  44.911  28.731  1.00  0.00     0.029 A 
ATOM     62  C   UNL A   1      51.743  44.485  29.087  1.00  0.00     0.049 A 
ATOM     63  H   UNL A   1      50.015  44.322  27.891  1.00  0.00     0.167 HD
ATOM     64  C   UNL A   1      50.019  43.624  30.653  1.00  0.00     0.074 A 
ATOM     65  C   UNL A   1      49.588  43.139  31.948  1.00  0.00     0.031 C 
ATOM     66  C   UNL A   1      51.281  44.034  30.375  1.00  0.00     0.034 A 
BRANCH  53  67
ATOM     67  C   UNL A   1      52.214  45.667  24.485  1.00  0.00     0.023 A 
ATOM     68  C   UNL A   1      53.063  44.733  23.857  1.00  0.00     0.012 A 
ATOM     69  C   UNL A   1      52.251  47.016  24.084  1.00  0.00     0.148 A 
ATOM     70  C   UNL A   1      53.959  45.144  22.870  1.00  0.00     0.002 A 
ATOM     71  C   UNL A   1      53.107  47.407  23.065  1.00  0.00     0.091 A 
ATOM     72  F   UNL A   1      51.452  47.891  24.711  1.00  0.00    -0.205 F 
ATOM     73  C   UNL A   1      53.972  46.476  22.467  1.00  0.00     0.022 A 
BRANCH  71  74
ATOM     74  S   UNL A   1      53.143  49.082  22.420  1.00  0.00     0.127 S 
ATOM     75  O   UNL A   1      51.803  49.205  21.849  1.00  0.00    -0.237 OA
ATOM     76  O   UNL A   1      53.365  49.870  23.633  1.00  0.00    -0.237 OA
ATOM     77  O   UNL A   1      54.233  49.123  21.456  1.00  0.00    -0.744 OA
ENDBRANCH  71  74
ENDBRANCH  53  67
BRANCH  54  78
ATOM     78  C   UNL A   1      45.519  42.309  31.159  1.00  0.00     0.023 A 
ATOM     79  C   UNL A   1      45.442  40.917  31.355  1.00  0.00     0.012 A 
ATOM     80  C   UNL A   1      44.670  43.156  31.899  1.00  0.00     0.148 A 
ATOM     81  C   UNL A   1      44.510  40.376  32.241  1.00  0.00     0.002 A 
ATOM     82  C   UNL A   1      43.786  42.615  32.821  1.00  0.00     0.091 A 
ATOM     83  F   UNL A   1      44.756  44.478  31.692  1.00  0.00    -0.205 F 
ATOM     84  C   UNL A   1      43.688  41.225  32.980  1.00  0.00     0.022 A 
BRANCH  82  85
ATOM     85  S   UNL A   1      42.773  43.634  33.899  1.00  0.00     0.127 S 
ATOM     86  O   UNL A   1      42.070  42.626  34.690  1.00  0.00    -0.237 OA
ATOM     87  O   UNL A   1      43.787  44.395  34.628  1.00  0.00    -0.237 OA
ATOM     88  O   UNL A   1      41.934  44.435  33.018  1.00  0.00    -0.744 OA
ENDBRANCH  82  85
ENDBRANCH  54  78
BRANCH  66  89
ATOM     89  C   UNL A   1      52.281  44.036  31.502  1.00  0.00     0.023 A 
ATOM     90  C   UNL A   1      52.408  45.159  32.342  1.00  0.00     0.012 A 
ATOM     91  C   UNL A   1      53.038  42.877  31.772  1.00  0.00     0.148 A 
ATOM     92  C   UNL A   1      53.300  45.141  33.414  1.00  0.00     0.002 A 
ATOM     93  C   UNL A   1      53.880  42.846  32.876  1.00  0.00     0.091 A 
ATOM     94  F   UNL A   1      52.907  41.823  30.953  1.00  0.00    -0.205 F 
ATOM     95  C   UNL A   1      54.024  43.982  33.688  1.00  0.00     0.022 A 
BRANCH  93  96
ATOM     96  S   UNL A   1      54.775  41.369  33.364  1.00  0.00     0.127 S 
ATOM     97  O   UNL A   1      55.761  41.252  32.291  1.00  0.00    -0.237 OA
ATOM     98  O   UNL A   1      55.327  41.760  34.660  1.00  0.00    -0.237 OA
ATOM     99  O   UNL A   1      53.792  40.296  33.419  1.00  0.00    -0.744 OA
ENDBRANCH  93  96
ENDBRANCH  66  89
ENDBRANCH  40  41
ENDBRANCH  33  35
ENDBRANCH  32  33
ENDBRANCH  31  32
ENDBRANCH  30  31
ENDBRANCH  29  30
ENDBRANCH  28  29
ENDBRANCH  27  28
ENDBRANCH  26  27
ENDBRANCH  25  26
ENDBRANCH   1  25
TORSDOF 29
ENDMDL
