MODEL 1
REMARK VINA RESULT:      -9.7      0.000      0.000
REMARK SMILES C[C@@H](C(=O)OCCOCCOCCOCCOC(=O)c1ccc(-c2c3nc(c(-c4cccc(S(=O)(=O)[O-])c4F)c4ccc([nH]4)c(-c4cccc(S(=O)(=O)[O-])c4F)c4nc(c(-c5cccc(S(=O)(=O)[O-])c5F)c5ccc2[nH]5)C=C4)C=C3)cc1)c1ccc(Cc2ccsc2)cc1F
REMARK SMILES IDX 11 1 10 2 9 3 8 4 7 5 6 6 5 7 3 8 4 9 2 10 1 11 83 12 84 13
REMARK SMILES IDX 94 14 85 15 93 16 95 17 86 18 87 19 88 20 89 21 92 22 90 23
REMARK SMILES IDX 91 24 12 25 13 26 14 27 15 28 16 29 17 30 18 31 19 32 20 33
REMARK SMILES IDX 21 34 82 35 22 36 81 37 23 38 24 39 25 40 75 41 26 42 80 43
REMARK SMILES IDX 74 44 76 45 27 46 79 47 73 48 72 49 28 51 60 52 40 53 59 54
REMARK SMILES IDX 41 55 44 56 58 57 77 58 42 59 43 60 57 62 78 63 45 64 29 65
REMARK SMILES IDX 30 66 38 67 31 68 33 69 39 70 32 71 34 72 35 73 36 74 37 75
REMARK SMILES IDX 61 76 62 77 70 78 63 79 65 80 71 81 64 82 66 83 67 84 68 85
REMARK SMILES IDX 69 86 46 87 47 88 55 89 48 90 50 91 56 92 49 93 51 94 52 95
REMARK SMILES IDX 53 96 54 97
REMARK H PARENT 76 50 44 61
REMARK Flexibility Score: inf
ROOT
ATOM      1  O   UNL A   1      31.398  27.603  25.839  1.00  0.00    -0.377 OA
ENDROOT
BRANCH   1   2
ATOM      2  C   UNL A   1      31.069  26.584  26.762  1.00  0.00     0.188 C 
BRANCH   2   3
ATOM      3  C   UNL A   1      30.538  25.286  26.136  1.00  0.00     0.188 C 
BRANCH   3   4
ATOM      4  O   UNL A   1      31.434  24.394  25.499  1.00  0.00    -0.376 OA
BRANCH   4   5
ATOM      5  C   UNL A   1      31.009  23.109  25.063  1.00  0.00     0.202 C 
BRANCH   5   6
ATOM      6  C   UNL A   1      31.800  21.798  25.260  1.00  0.00     0.261 C 
BRANCH   6   7
ATOM      7  O   UNL A   1      32.890  21.570  24.360  1.00  0.00    -0.463 OA
BRANCH   7   8
ATOM      8  C   UNL A   1      34.079  22.140  24.660  1.00  0.00     0.313 C 
ATOM      9  O   UNL A   1      34.653  21.996  25.736  1.00  0.00    -0.252 OA
BRANCH   8  10
ATOM     10  C   UNL A   1      34.705  22.898  23.475  1.00  0.00     0.129 C 
ATOM     11  C   UNL A   1      36.235  22.768  23.434  1.00  0.00     0.025 C 
BRANCH  10  12
ATOM     12  C   UNL A   1      34.090  24.288  23.261  1.00  0.00     0.002 A 
ATOM     13  C   UNL A   1      33.375  24.540  22.077  1.00  0.00     0.008 A 
ATOM     14  C   UNL A   1      34.250  25.378  24.127  1.00  0.00     0.127 A 
ATOM     15  C   UNL A   1      32.849  25.799  21.779  1.00  0.00     0.004 A 
ATOM     16  C   UNL A   1      33.764  26.660  23.811  1.00  0.00     0.043 A 
ATOM     17  F   UNL A   1      34.884  25.237  25.299  1.00  0.00    -0.207 F 
ATOM     18  C   UNL A   1      33.080  26.897  22.612  1.00  0.00    -0.041 A 
BRANCH  18  19
ATOM     19  C   UNL A   1      32.580  28.272  22.231  1.00  0.00     0.072 C 
BRANCH  19  20
ATOM     20  C   UNL A   1      31.097  28.332  22.520  1.00  0.00    -0.033 A 
ATOM     21  C   UNL A   1      30.296  27.267  23.071  1.00  0.00     0.015 A 
ATOM     22  C   UNL A   1      30.315  29.465  22.361  1.00  0.00     0.068 A 
ATOM     23  C   UNL A   1      28.973  27.609  23.239  1.00  0.00     0.065 A 
ATOM     24  S   UNL A   1      28.679  29.231  22.805  1.00  0.00    -0.152 S 
ENDBRANCH  19  20
ENDBRANCH  18  19
ENDBRANCH  10  12
ENDBRANCH   8  10
ENDBRANCH   7   8
ENDBRANCH   6   7
ENDBRANCH   5   6
ENDBRANCH   4   5
ENDBRANCH   3   4
ENDBRANCH   2   3
ENDBRANCH   1   2
BRANCH   1  25
ATOM     25  C   UNL A   1      32.060  28.767  26.312  1.00  0.00     0.188 C 
BRANCH  25  26
ATOM     26  C   UNL A   1      31.685  30.155  25.753  1.00  0.00     0.188 C 
BRANCH  26  27
ATOM     27  O   UNL A   1      32.023  31.253  26.589  1.00  0.00    -0.376 OA
BRANCH  27  28
ATOM     28  C   UNL A   1      33.141  31.127  27.457  1.00  0.00     0.202 C 
BRANCH  28  29
ATOM     29  C   UNL A   1      33.909  32.407  27.829  1.00  0.00     0.261 C 
BRANCH  29  30
ATOM     30  O   UNL A   1      33.161  33.633  27.806  1.00  0.00    -0.460 OA
BRANCH  30  31
ATOM     31  C   UNL A   1      33.358  34.517  28.808  1.00  0.00     0.338 C 
ATOM     32  O   UNL A   1      32.636  35.440  29.124  1.00  0.00    -0.246 OA
BRANCH  31  33
ATOM     33  C   UNL A   1      34.515  34.043  29.601  1.00  0.00     0.060 A 
ATOM     34  C   UNL A   1      35.808  34.366  29.168  1.00  0.00     0.016 A 
ATOM     35  C   UNL A   1      34.325  33.288  30.761  1.00  0.00     0.016 A 
ATOM     36  C   UNL A   1      36.917  33.894  29.870  1.00  0.00     0.010 A 
ATOM     37  C   UNL A   1      35.438  32.798  31.449  1.00  0.00     0.010 A 
ATOM     38  C   UNL A   1      36.738  33.067  30.985  1.00  0.00    -0.014 A 
BRANCH  38  39
ATOM     39  C   UNL A   1      37.893  32.318  31.537  1.00  0.00     0.031 A 
ATOM     40  C   UNL A   1      38.508  32.800  32.824  1.00  0.00     0.074 A 
ATOM     41  C   UNL A   1      38.387  31.231  30.918  1.00  0.00     0.049 A 
ATOM     42  N   UNL A   1      39.546  32.343  33.471  1.00  0.00    -0.248 NA
ATOM     43  C   UNL A   1      37.860  33.958  33.464  1.00  0.00     0.031 C 
ATOM     44  C   UNL A   1      37.873  30.657  29.677  1.00  0.00     0.029 A 
ATOM     45  N   UNL A   1      39.457  30.433  31.244  1.00  0.00    -0.354 N 
ATOM     46  C   UNL A   1      39.699  33.173  34.576  1.00  0.00     0.074 A 
ATOM     47  C   UNL A   1      38.653  34.170  34.505  1.00  0.00     0.031 C 
ATOM     48  C   UNL A   1      38.651  29.617  29.325  1.00  0.00     0.029 A 
ATOM     49  C   UNL A   1      39.733  29.472  30.298  1.00  0.00     0.049 A 
ATOM     50  H   UNL A   1      39.976  30.538  32.073  1.00  0.00     0.167 HD
ATOM     51  C   UNL A   1      40.616  33.106  35.568  1.00  0.00     0.034 A 
ATOM     52  C   UNL A   1      40.758  28.602  30.214  1.00  0.00     0.034 A 
ATOM     53  C   UNL A   1      41.651  32.111  35.640  1.00  0.00     0.049 A 
ATOM     54  C   UNL A   1      41.794  28.571  31.311  1.00  0.00     0.074 A 
ATOM     55  C   UNL A   1      42.608  31.935  36.624  1.00  0.00     0.029 A 
ATOM     56  N   UNL A   1      41.877  31.133  34.684  1.00  0.00    -0.354 N 
ATOM     57  N   UNL A   1      41.865  29.294  32.402  1.00  0.00    -0.248 NA
ATOM     58  C   UNL A   1      42.873  27.580  31.180  1.00  0.00     0.031 C 
ATOM     59  C   UNL A   1      43.438  30.877  36.242  1.00  0.00     0.029 A 
ATOM     60  C   UNL A   1      42.967  30.362  35.045  1.00  0.00     0.049 A 
ATOM     61  H   UNL A   1      41.341  31.007  33.867  1.00  0.00     0.167 HD
ATOM     62  C   UNL A   1      42.969  28.822  33.104  1.00  0.00     0.074 A 
ATOM     63  C   UNL A   1      43.525  27.737  32.323  1.00  0.00     0.031 C 
ATOM     64  C   UNL A   1      43.482  29.251  34.284  1.00  0.00     0.034 A 
BRANCH  51  65
ATOM     65  C   UNL A   1      40.537  34.137  36.663  1.00  0.00     0.023 A 
ATOM     66  C   UNL A   1      41.058  35.430  36.450  1.00  0.00     0.012 A 
ATOM     67  C   UNL A   1      39.903  33.840  37.886  1.00  0.00     0.148 A 
ATOM     68  C   UNL A   1      40.984  36.399  37.449  1.00  0.00     0.002 A 
ATOM     69  C   UNL A   1      39.789  34.827  38.857  1.00  0.00     0.091 A 
ATOM     70  F   UNL A   1      39.433  32.600  38.077  1.00  0.00    -0.205 F 
ATOM     71  C   UNL A   1      40.340  36.101  38.648  1.00  0.00     0.022 A 
BRANCH  69  72
ATOM     72  S   UNL A   1      38.908  34.568  40.402  1.00  0.00     0.127 S 
ATOM     73  O   UNL A   1      39.934  33.922  41.221  1.00  0.00    -0.237 OA
ATOM     74  O   UNL A   1      38.582  35.937  40.800  1.00  0.00    -0.237 OA
ATOM     75  O   UNL A   1      37.758  33.737  40.076  1.00  0.00    -0.744 OA
ENDBRANCH  69  72
ENDBRANCH  51  65
BRANCH  52  76
ATOM     76  C   UNL A   1      40.857  27.674  29.051  1.00  0.00     0.023 A 
ATOM     77  C   UNL A   1      40.061  26.513  29.008  1.00  0.00     0.012 A 
ATOM     78  C   UNL A   1      41.740  27.940  27.986  1.00  0.00     0.148 A 
ATOM     79  C   UNL A   1      40.168  25.617  27.944  1.00  0.00     0.002 A 
ATOM     80  C   UNL A   1      41.799  27.074  26.901  1.00  0.00     0.091 A 
ATOM     81  F   UNL A   1      42.502  29.041  28.053  1.00  0.00    -0.205 F 
ATOM     82  C   UNL A   1      41.028  25.902  26.887  1.00  0.00     0.022 A 
BRANCH  80  83
ATOM     83  S   UNL A   1      42.783  27.422  25.440  1.00  0.00     0.127 S 
ATOM     84  O   UNL A   1      42.698  26.157  24.714  1.00  0.00    -0.237 OA
ATOM     85  O   UNL A   1      42.040  28.531  24.838  1.00  0.00    -0.237 OA
ATOM     86  O   UNL A   1      44.106  27.780  25.930  1.00  0.00    -0.744 OA
ENDBRANCH  80  83
ENDBRANCH  52  76
BRANCH  64  87
ATOM     87  C   UNL A   1      44.677  28.520  34.843  1.00  0.00     0.023 A 
ATOM     88  C   UNL A   1      45.981  28.977  34.567  1.00  0.00     0.012 A 
ATOM     89  C   UNL A   1      44.499  27.419  35.706  1.00  0.00     0.148 A 
ATOM     90  C   UNL A   1      47.090  28.328  35.112  1.00  0.00     0.002 A 
ATOM     91  C   UNL A   1      45.605  26.813  36.288  1.00  0.00     0.091 A 
ATOM     92  F   UNL A   1      43.251  26.991  35.944  1.00  0.00    -0.205 F 
ATOM     93  C   UNL A   1      46.901  27.255  35.981  1.00  0.00     0.022 A 
BRANCH  91  94
ATOM     94  S   UNL A   1      45.456  25.491  37.496  1.00  0.00     0.127 S 
ATOM     95  O   UNL A   1      45.085  24.357  36.651  1.00  0.00    -0.237 OA
ATOM     96  O   UNL A   1      46.809  25.424  38.048  1.00  0.00    -0.237 OA
ATOM     97  O   UNL A   1      44.437  25.922  38.442  1.00  0.00    -0.744 OA
ENDBRANCH  91  94
ENDBRANCH  64  87
ENDBRANCH  38  39
ENDBRANCH  31  33
ENDBRANCH  30  31
ENDBRANCH  29  30
ENDBRANCH  28  29
ENDBRANCH  27  28
ENDBRANCH  26  27
ENDBRANCH  25  26
ENDBRANCH   1  25
TORSDOF 26
ENDMDL
MODEL 2
REMARK VINA RESULT:      -9.5      0.903      7.570
REMARK SMILES C[C@@H](C(=O)OCCOCCOCCOCCOC(=O)c1ccc(-c2c3nc(c(-c4cccc(S(=O)(=O)[O-])c4F)c4ccc([nH]4)c(-c4cccc(S(=O)(=O)[O-])c4F)c4nc(c(-c5cccc(S(=O)(=O)[O-])c5F)c5ccc2[nH]5)C=C4)C=C3)cc1)c1ccc(Cc2ccsc2)cc1F
REMARK SMILES IDX 11 1 10 2 9 3 8 4 7 5 6 6 5 7 3 8 4 9 2 10 1 11 83 12 84 13
REMARK SMILES IDX 94 14 85 15 93 16 95 17 86 18 87 19 88 20 89 21 92 22 90 23
REMARK SMILES IDX 91 24 12 25 13 26 14 27 15 28 16 29 17 30 18 31 19 32 20 33
REMARK SMILES IDX 21 34 82 35 22 36 81 37 23 38 24 39 25 40 75 41 26 42 80 43
REMARK SMILES IDX 74 44 76 45 27 46 79 47 73 48 72 49 28 51 60 52 40 53 59 54
REMARK SMILES IDX 41 55 44 56 58 57 77 58 42 59 43 60 57 62 78 63 45 64 29 65
REMARK SMILES IDX 30 66 38 67 31 68 33 69 39 70 32 71 34 72 35 73 36 74 37 75
REMARK SMILES IDX 61 76 62 77 70 78 63 79 65 80 71 81 64 82 66 83 67 84 68 85
REMARK SMILES IDX 69 86 46 87 47 88 55 89 48 90 50 91 56 92 49 93 51 94 52 95
REMARK SMILES IDX 53 96 54 97
REMARK H PARENT 76 50 44 61
REMARK Flexibility Score: inf
ROOT
ATOM      1  O   UNL A   1      32.923  27.568  25.097  1.00  0.00    -0.377 OA
ENDROOT
BRANCH   1   2
ATOM      2  C   UNL A   1      33.314  27.100  26.371  1.00  0.00     0.188 C 
BRANCH   2   3
ATOM      3  C   UNL A   1      32.660  25.781  26.809  1.00  0.00     0.188 C 
BRANCH   3   4
ATOM      4  O   UNL A   1      31.806  25.089  25.916  1.00  0.00    -0.376 OA
BRANCH   4   5
ATOM      5  C   UNL A   1      31.356  23.770  26.200  1.00  0.00     0.202 C 
BRANCH   5   6
ATOM      6  C   UNL A   1      32.151  22.713  26.996  1.00  0.00     0.261 C 
BRANCH   6   7
ATOM      7  O   UNL A   1      32.777  21.677  26.230  1.00  0.00    -0.463 OA
BRANCH   7   8
ATOM      8  C   UNL A   1      34.127  21.674  26.169  1.00  0.00     0.313 C 
ATOM      9  O   UNL A   1      34.855  21.470  27.137  1.00  0.00    -0.252 OA
BRANCH   8  10
ATOM     10  C   UNL A   1      34.670  21.835  24.737  1.00  0.00     0.129 C 
ATOM     11  C   UNL A   1      36.202  21.731  24.671  1.00  0.00     0.025 C 
BRANCH  10  12
ATOM     12  C   UNL A   1      33.987  22.971  23.962  1.00  0.00     0.002 A 
ATOM     13  C   UNL A   1      32.905  22.664  23.118  1.00  0.00     0.008 A 
ATOM     14  C   UNL A   1      34.408  24.307  23.962  1.00  0.00     0.127 A 
ATOM     15  C   UNL A   1      32.281  23.631  22.328  1.00  0.00     0.004 A 
ATOM     16  C   UNL A   1      33.815  25.277  23.133  1.00  0.00     0.043 A 
ATOM     17  F   UNL A   1      35.407  24.713  24.757  1.00  0.00    -0.207 F 
ATOM     18  C   UNL A   1      32.757  24.944  22.277  1.00  0.00    -0.041 A 
BRANCH  18  19
ATOM     19  C   UNL A   1      32.126  25.957  21.349  1.00  0.00     0.072 C 
BRANCH  19  20
ATOM     20  C   UNL A   1      31.053  26.696  22.116  1.00  0.00    -0.033 A 
ATOM     21  C   UNL A   1      30.199  26.136  23.134  1.00  0.00     0.015 A 
ATOM     22  C   UNL A   1      30.799  28.052  21.992  1.00  0.00     0.068 A 
ATOM     23  C   UNL A   1      29.320  27.048  23.672  1.00  0.00     0.065 A 
ATOM     24  S   UNL A   1      29.546  28.607  23.020  1.00  0.00    -0.152 S 
ENDBRANCH  19  20
ENDBRANCH  18  19
ENDBRANCH  10  12
ENDBRANCH   8  10
ENDBRANCH   7   8
ENDBRANCH   6   7
ENDBRANCH   5   6
ENDBRANCH   4   5
ENDBRANCH   3   4
ENDBRANCH   2   3
ENDBRANCH   1   2
BRANCH   1  25
ATOM     25  C   UNL A   1      32.891  28.969  24.863  1.00  0.00     0.188 C 
BRANCH  25  26
ATOM     26  C   UNL A   1      31.707  29.815  25.376  1.00  0.00     0.188 C 
BRANCH  26  27
ATOM     27  O   UNL A   1      32.070  31.006  26.060  1.00  0.00    -0.376 OA
BRANCH  27  28
ATOM     28  C   UNL A   1      32.800  30.897  27.275  1.00  0.00     0.202 C 
BRANCH  28  29
ATOM     29  C   UNL A   1      33.932  31.908  27.526  1.00  0.00     0.261 C 
BRANCH  29  30
ATOM     30  O   UNL A   1      33.615  33.292  27.315  1.00  0.00    -0.460 OA
BRANCH  30  31
ATOM     31  C   UNL A   1      33.478  34.085  28.399  1.00  0.00     0.338 C 
ATOM     32  O   UNL A   1      32.539  34.805  28.667  1.00  0.00    -0.246 OA
BRANCH  31  33
ATOM     33  C   UNL A   1      34.592  33.774  29.324  1.00  0.00     0.060 A 
ATOM     34  C   UNL A   1      35.879  34.228  29.008  1.00  0.00     0.016 A 
ATOM     35  C   UNL A   1      34.366  33.041  30.492  1.00  0.00     0.016 A 
ATOM     36  C   UNL A   1      36.955  33.909  29.837  1.00  0.00     0.010 A 
ATOM     37  C   UNL A   1      35.449  32.706  31.309  1.00  0.00     0.010 A 
ATOM     38  C   UNL A   1      36.753  33.105  30.964  1.00  0.00    -0.014 A 
BRANCH  38  39
ATOM     39  C   UNL A   1      37.920  32.512  31.662  1.00  0.00     0.031 A 
ATOM     40  C   UNL A   1      38.628  31.354  31.011  1.00  0.00     0.074 A 
ATOM     41  C   UNL A   1      38.350  32.989  32.843  1.00  0.00     0.049 A 
ATOM     42  N   UNL A   1      39.634  30.644  31.447  1.00  0.00    -0.248 NA
ATOM     43  C   UNL A   1      38.128  30.942  29.688  1.00  0.00     0.031 C 
ATOM     44  C   UNL A   1      37.761  34.112  33.568  1.00  0.00     0.029 A 
ATOM     45  N   UNL A   1      39.373  32.562  33.654  1.00  0.00    -0.354 N 
ATOM     46  C   UNL A   1      39.869  29.682  30.470  1.00  0.00     0.074 A 
ATOM     47  C   UNL A   1      38.893  29.892  29.425  1.00  0.00     0.031 C 
ATOM     48  C   UNL A   1      38.410  34.264  34.736  1.00  0.00     0.029 A 
ATOM     49  C   UNL A   1      39.439  33.232  34.854  1.00  0.00     0.049 A 
ATOM     50  H   UNL A   1      39.999  31.845  33.402  1.00  0.00     0.167 HD
ATOM     51  C   UNL A   1      40.820  28.720  30.439  1.00  0.00     0.034 A 
ATOM     52  C   UNL A   1      40.218  33.014  35.932  1.00  0.00     0.034 A 
ATOM     53  C   UNL A   1      41.794  28.517  31.476  1.00  0.00     0.049 A 
ATOM     54  C   UNL A   1      41.244  31.908  35.891  1.00  0.00     0.074 A 
ATOM     55  C   UNL A   1      42.822  27.592  31.522  1.00  0.00     0.029 A 
ATOM     56  N   UNL A   1      41.852  29.238  32.659  1.00  0.00    -0.354 N 
ATOM     57  N   UNL A   1      41.524  31.074  34.919  1.00  0.00    -0.248 NA
ATOM     58  C   UNL A   1      42.086  31.736  37.086  1.00  0.00     0.031 C 
ATOM     59  C   UNL A   1      43.477  27.727  32.750  1.00  0.00     0.029 A 
ATOM     60  C   UNL A   1      42.887  28.768  33.448  1.00  0.00     0.049 A 
ATOM     61  H   UNL A   1      41.245  29.975  32.902  1.00  0.00     0.167 HD
ATOM     62  C   UNL A   1      42.594  30.307  35.368  1.00  0.00     0.074 A 
ATOM     63  C   UNL A   1      42.925  30.789  36.693  1.00  0.00     0.031 C 
ATOM     64  C   UNL A   1      43.240  29.290  34.744  1.00  0.00     0.034 A 
BRANCH  51  65
ATOM     65  C   UNL A   1      40.856  27.814  29.235  1.00  0.00     0.023 A 
ATOM     66  C   UNL A   1      40.026  26.675  29.188  1.00  0.00     0.012 A 
ATOM     67  C   UNL A   1      41.678  28.117  28.132  1.00  0.00     0.148 A 
ATOM     68  C   UNL A   1      40.040  25.832  28.079  1.00  0.00     0.002 A 
ATOM     69  C   UNL A   1      41.648  27.300  27.009  1.00  0.00     0.091 A 
ATOM     70  F   UNL A   1      42.475  29.192  28.205  1.00  0.00    -0.205 F 
ATOM     71  C   UNL A   1      40.842  26.150  26.985  1.00  0.00     0.022 A 
BRANCH  69  72
ATOM     72  S   UNL A   1      42.584  27.666  25.519  1.00  0.00     0.127 S 
ATOM     73  O   UNL A   1      43.954  27.686  26.030  1.00  0.00    -0.237 OA
ATOM     74  O   UNL A   1      42.265  26.519  24.670  1.00  0.00    -0.237 OA
ATOM     75  O   UNL A   1      42.083  28.943  25.033  1.00  0.00    -0.744 OA
ENDBRANCH  69  72
ENDBRANCH  51  65
BRANCH  52  76
ATOM     76  C   UNL A   1      40.069  33.866  37.147  1.00  0.00     0.023 A 
ATOM     77  C   UNL A   1      40.699  35.124  37.203  1.00  0.00     0.012 A 
ATOM     78  C   UNL A   1      39.304  33.431  38.247  1.00  0.00     0.148 A 
ATOM     79  C   UNL A   1      40.598  35.919  38.346  1.00  0.00     0.002 A 
ATOM     80  C   UNL A   1      39.159  34.252  39.358  1.00  0.00     0.091 A 
ATOM     81  F   UNL A   1      38.727  32.224  38.180  1.00  0.00    -0.205 F 
ATOM     82  C   UNL A   1      39.821  35.488  39.418  1.00  0.00     0.022 A 
BRANCH  80  83
ATOM     83  S   UNL A   1      38.079  33.836  40.731  1.00  0.00     0.127 S 
ATOM     84  O   UNL A   1      37.851  35.145  41.339  1.00  0.00    -0.237 OA
ATOM     85  O   UNL A   1      36.923  33.266  40.039  1.00  0.00    -0.237 OA
ATOM     86  O   UNL A   1      38.823  32.885  41.545  1.00  0.00    -0.744 OA
ENDBRANCH  80  83
ENDBRANCH  52  76
BRANCH  64  87
ATOM     87  C   UNL A   1      44.409  28.655  35.455  1.00  0.00     0.023 A 
ATOM     88  C   UNL A   1      45.722  29.096  35.197  1.00  0.00     0.012 A 
ATOM     89  C   UNL A   1      44.193  27.668  36.439  1.00  0.00     0.148 A 
ATOM     90  C   UNL A   1      46.804  28.540  35.880  1.00  0.00     0.002 A 
ATOM     91  C   UNL A   1      45.270  27.159  37.154  1.00  0.00     0.091 A 
ATOM     92  F   UNL A   1      42.938  27.252  36.661  1.00  0.00    -0.205 F 
ATOM     93  C   UNL A   1      46.577  27.581  36.865  1.00  0.00     0.022 A 
BRANCH  91  94
ATOM     94  S   UNL A   1      45.066  25.996  38.508  1.00  0.00     0.127 S 
ATOM     95  O   UNL A   1      46.231  26.299  39.338  1.00  0.00    -0.237 OA
ATOM     96  O   UNL A   1      43.784  26.410  39.080  1.00  0.00    -0.237 OA
ATOM     97  O   UNL A   1      45.059  24.671  37.905  1.00  0.00    -0.744 OA
ENDBRANCH  91  94
ENDBRANCH  64  87
ENDBRANCH  38  39
ENDBRANCH  31  33
ENDBRANCH  30  31
ENDBRANCH  29  30
ENDBRANCH  28  29
ENDBRANCH  27  28
ENDBRANCH  26  27
ENDBRANCH  25  26
ENDBRANCH   1  25
TORSDOF 26
ENDMDL
MODEL 3
REMARK VINA RESULT:      -9.3      2.663      4.052
REMARK SMILES C[C@@H](C(=O)OCCOCCOCCOCCOC(=O)c1ccc(-c2c3nc(c(-c4cccc(S(=O)(=O)[O-])c4F)c4ccc([nH]4)c(-c4cccc(S(=O)(=O)[O-])c4F)c4nc(c(-c5cccc(S(=O)(=O)[O-])c5F)c5ccc2[nH]5)C=C4)C=C3)cc1)c1ccc(Cc2ccsc2)cc1F
REMARK SMILES IDX 11 1 10 2 9 3 8 4 7 5 6 6 5 7 3 8 4 9 2 10 1 11 83 12 84 13
REMARK SMILES IDX 94 14 85 15 93 16 95 17 86 18 87 19 88 20 89 21 92 22 90 23
REMARK SMILES IDX 91 24 12 25 13 26 14 27 15 28 16 29 17 30 18 31 19 32 20 33
REMARK SMILES IDX 21 34 82 35 22 36 81 37 23 38 24 39 25 40 75 41 26 42 80 43
REMARK SMILES IDX 74 44 76 45 27 46 79 47 73 48 72 49 28 51 60 52 40 53 59 54
REMARK SMILES IDX 41 55 44 56 58 57 77 58 42 59 43 60 57 62 78 63 45 64 29 65
REMARK SMILES IDX 30 66 38 67 31 68 33 69 39 70 32 71 34 72 35 73 36 74 37 75
REMARK SMILES IDX 61 76 62 77 70 78 63 79 65 80 71 81 64 82 66 83 67 84 68 85
REMARK SMILES IDX 69 86 46 87 47 88 55 89 48 90 50 91 56 92 49 93 51 94 52 95
REMARK SMILES IDX 53 96 54 97
REMARK H PARENT 76 50 44 61
REMARK Flexibility Score: inf
ROOT
ATOM      1  O   UNL A   1      31.978  28.742  24.962  1.00  0.00    -0.377 OA
ENDROOT
BRANCH   1   2
ATOM      2  C   UNL A   1      31.025  29.299  24.080  1.00  0.00     0.188 C 
BRANCH   2   3
ATOM      3  C   UNL A   1      31.234  28.959  22.597  1.00  0.00     0.188 C 
BRANCH   3   4
ATOM      4  O   UNL A   1      30.679  27.772  22.062  1.00  0.00    -0.376 OA
BRANCH   4   5
ATOM      5  C   UNL A   1      29.829  26.940  22.842  1.00  0.00     0.202 C 
BRANCH   5   6
ATOM      6  C   UNL A   1      30.294  25.724  23.670  1.00  0.00     0.261 C 
BRANCH   6   7
ATOM      7  O   UNL A   1      30.020  25.768  25.075  1.00  0.00    -0.463 OA
BRANCH   7   8
ATOM      8  C   UNL A   1      30.862  25.102  25.897  1.00  0.00     0.313 C 
ATOM      9  O   UNL A   1      31.119  25.456  27.045  1.00  0.00    -0.252 OA
BRANCH   8  10
ATOM     10  C   UNL A   1      31.381  23.784  25.295  1.00  0.00     0.129 C 
ATOM     11  C   UNL A   1      30.675  22.550  25.880  1.00  0.00     0.025 C 
BRANCH  10  12
ATOM     12  C   UNL A   1      32.910  23.748  25.161  1.00  0.00     0.002 A 
ATOM     13  C   UNL A   1      33.480  23.771  23.876  1.00  0.00     0.008 A 
ATOM     14  C   UNL A   1      33.806  23.611  26.230  1.00  0.00     0.127 A 
ATOM     15  C   UNL A   1      34.858  23.670  23.672  1.00  0.00     0.004 A 
ATOM     16  C   UNL A   1      35.190  23.459  26.029  1.00  0.00     0.043 A 
ATOM     17  F   UNL A   1      33.370  23.614  27.497  1.00  0.00    -0.207 F 
ATOM     18  C   UNL A   1      35.735  23.456  24.738  1.00  0.00    -0.041 A 
BRANCH  18  19
ATOM     19  C   UNL A   1      37.214  23.258  24.491  1.00  0.00     0.072 C 
BRANCH  19  20
ATOM     20  C   UNL A   1      37.565  21.832  24.848  1.00  0.00    -0.033 A 
ATOM     21  C   UNL A   1      36.791  20.660  24.522  1.00  0.00     0.015 A 
ATOM     22  C   UNL A   1      38.739  21.451  25.479  1.00  0.00     0.068 A 
ATOM     23  C   UNL A   1      37.361  19.488  24.965  1.00  0.00     0.065 A 
ATOM     24  S   UNL A   1      38.867  19.760  25.716  1.00  0.00    -0.152 S 
ENDBRANCH  19  20
ENDBRANCH  18  19
ENDBRANCH  10  12
ENDBRANCH   8  10
ENDBRANCH   7   8
ENDBRANCH   6   7
ENDBRANCH   5   6
ENDBRANCH   4   5
ENDBRANCH   3   4
ENDBRANCH   2   3
ENDBRANCH   1   2
BRANCH   1  25
ATOM     25  C   UNL A   1      31.749  28.831  26.361  1.00  0.00     0.188 C 
BRANCH  25  26
ATOM     26  C   UNL A   1      32.699  29.658  27.252  1.00  0.00     0.188 C 
BRANCH  26  27
ATOM     27  O   UNL A   1      32.855  31.017  26.869  1.00  0.00    -0.376 OA
BRANCH  27  28
ATOM     28  C   UNL A   1      31.732  31.883  26.967  1.00  0.00     0.202 C 
BRANCH  28  29
ATOM     29  C   UNL A   1      31.997  33.375  27.233  1.00  0.00     0.261 C 
BRANCH  29  30
ATOM     30  O   UNL A   1      32.575  33.707  28.504  1.00  0.00    -0.460 OA
BRANCH  30  31
ATOM     31  C   UNL A   1      33.680  34.484  28.516  1.00  0.00     0.338 C 
ATOM     32  O   UNL A   1      33.725  35.695  28.448  1.00  0.00    -0.246 OA
BRANCH  31  33
ATOM     33  C   UNL A   1      34.834  33.614  28.838  1.00  0.00     0.060 A 
ATOM     34  C   UNL A   1      34.597  32.382  29.460  1.00  0.00     0.016 A 
ATOM     35  C   UNL A   1      36.137  34.012  28.527  1.00  0.00     0.016 A 
ATOM     36  C   UNL A   1      35.668  31.562  29.817  1.00  0.00     0.010 A 
ATOM     37  C   UNL A   1      37.209  33.199  28.905  1.00  0.00     0.010 A 
ATOM     38  C   UNL A   1      36.981  31.990  29.586  1.00  0.00    -0.014 A 
BRANCH  38  39
ATOM     39  C   UNL A   1      38.110  31.280  30.236  1.00  0.00     0.031 A 
ATOM     40  C   UNL A   1      38.426  31.605  31.671  1.00  0.00     0.074 A 
ATOM     41  C   UNL A   1      38.838  30.363  29.574  1.00  0.00     0.049 A 
ATOM     42  N   UNL A   1      39.387  31.154  32.433  1.00  0.00    -0.248 NA
ATOM     43  C   UNL A   1      37.535  32.572  32.335  1.00  0.00     0.031 C 
ATOM     44  C   UNL A   1      38.624  29.950  28.190  1.00  0.00     0.029 A 
ATOM     45  N   UNL A   1      39.928  29.633  29.981  1.00  0.00    -0.354 N 
ATOM     46  C   UNL A   1      39.238  31.804  33.653  1.00  0.00     0.074 A 
ATOM     47  C   UNL A   1      38.102  32.689  33.527  1.00  0.00     0.031 C 
ATOM     48  C   UNL A   1      39.577  29.065  27.848  1.00  0.00     0.029 A 
ATOM     49  C   UNL A   1      40.484  28.872  28.979  1.00  0.00     0.049 A 
ATOM     50  H   UNL A   1      40.279  29.653  30.900  1.00  0.00     0.167 HD
ATOM     51  C   UNL A   1      39.972  31.668  34.782  1.00  0.00     0.034 A 
ATOM     52  C   UNL A   1      41.611  28.133  28.969  1.00  0.00     0.034 A 
ATOM     53  C   UNL A   1      41.097  30.782  34.908  1.00  0.00     0.049 A 
ATOM     54  C   UNL A   1      42.437  28.028  30.227  1.00  0.00     0.074 A 
ATOM     55  C   UNL A   1      41.884  30.545  36.021  1.00  0.00     0.029 A 
ATOM     56  N   UNL A   1      41.608  30.001  33.883  1.00  0.00    -0.354 N 
ATOM     57  N   UNL A   1      42.226  28.567  31.403  1.00  0.00    -0.248 NA
ATOM     58  C   UNL A   1      43.641  27.184  30.165  1.00  0.00     0.031 C 
ATOM     59  C   UNL A   1      42.896  29.651  35.658  1.00  0.00     0.029 A 
ATOM     60  C   UNL A   1      42.709  29.293  34.332  1.00  0.00     0.049 A 
ATOM     61  H   UNL A   1      41.242  29.957  32.970  1.00  0.00     0.167 HD
ATOM     62  C   UNL A   1      43.243  28.098  32.229  1.00  0.00     0.074 A 
ATOM     63  C   UNL A   1      44.060  27.216  31.421  1.00  0.00     0.031 C 
ATOM     64  C   UNL A   1      43.485  28.379  33.534  1.00  0.00     0.034 A 
BRANCH  51  65
ATOM     65  C   UNL A   1      39.573  32.493  35.977  1.00  0.00     0.023 A 
ATOM     66  C   UNL A   1      40.097  33.792  36.140  1.00  0.00     0.012 A 
ATOM     67  C   UNL A   1      38.644  32.000  36.914  1.00  0.00     0.148 A 
ATOM     68  C   UNL A   1      39.731  34.574  37.234  1.00  0.00     0.002 A 
ATOM     69  C   UNL A   1      38.246  32.804  37.975  1.00  0.00     0.091 A 
ATOM     70  F   UNL A   1      38.174  30.755  36.753  1.00  0.00    -0.205 F 
ATOM     71  C   UNL A   1      38.797  34.084  38.145  1.00  0.00     0.022 A 
BRANCH  69  72
ATOM     72  S   UNL A   1      36.991  32.298  39.157  1.00  0.00     0.127 S 
ATOM     73  O   UNL A   1      37.345  33.103  40.326  1.00  0.00    -0.237 OA
ATOM     74  O   UNL A   1      35.757  32.707  38.485  1.00  0.00    -0.237 OA
ATOM     75  O   UNL A   1      37.147  30.860  39.320  1.00  0.00    -0.744 OA
ENDBRANCH  69  72
ENDBRANCH  51  65
BRANCH  52  76
ATOM     76  C   UNL A   1      42.028  27.422  27.726  1.00  0.00     0.023 A 
ATOM     77  C   UNL A   1      42.516  28.155  26.628  1.00  0.00     0.012 A 
ATOM     78  C   UNL A   1      41.940  26.019  27.630  1.00  0.00     0.148 A 
ATOM     79  C   UNL A   1      42.877  27.508  25.445  1.00  0.00     0.002 A 
ATOM     80  C   UNL A   1      42.356  25.376  26.471  1.00  0.00     0.091 A 
ATOM     81  F   UNL A   1      41.457  25.340  28.680  1.00  0.00    -0.205 F 
ATOM     82  C   UNL A   1      42.807  26.120  25.370  1.00  0.00     0.022 A 
BRANCH  80  83
ATOM     83  S   UNL A   1      42.420  23.587  26.330  1.00  0.00     0.127 S 
ATOM     84  O   UNL A   1      41.031  23.216  26.588  1.00  0.00    -0.237 OA
ATOM     85  O   UNL A   1      42.859  23.413  24.945  1.00  0.00    -0.237 OA
ATOM     86  O   UNL A   1      43.386  23.146  27.327  1.00  0.00    -0.744 OA
ENDBRANCH  80  83
ENDBRANCH  52  76
BRANCH  64  87
ATOM     87  C   UNL A   1      44.650  27.689  34.200  1.00  0.00     0.023 A 
ATOM     88  C   UNL A   1      44.472  26.436  34.819  1.00  0.00     0.012 A 
ATOM     89  C   UNL A   1      45.940  28.254  34.142  1.00  0.00     0.148 A 
ATOM     90  C   UNL A   1      45.554  25.774  35.402  1.00  0.00     0.002 A 
ATOM     91  C   UNL A   1      47.021  27.565  34.677  1.00  0.00     0.091 A 
ATOM     92  F   UNL A   1      46.085  29.454  33.561  1.00  0.00    -0.205 F 
ATOM     93  C   UNL A   1      46.828  26.332  35.321  1.00  0.00     0.022 A 
BRANCH  91  94
ATOM     94  S   UNL A   1      48.711  28.157  34.531  1.00  0.00     0.127 S 
ATOM     95  O   UNL A   1      48.568  29.223  33.542  1.00  0.00    -0.237 OA
ATOM     96  O   UNL A   1      48.994  28.618  35.890  1.00  0.00    -0.237 OA
ATOM     97  O   UNL A   1      49.503  27.012  34.103  1.00  0.00    -0.744 OA
ENDBRANCH  91  94
ENDBRANCH  64  87
ENDBRANCH  38  39
ENDBRANCH  31  33
ENDBRANCH  30  31
ENDBRANCH  29  30
ENDBRANCH  28  29
ENDBRANCH  27  28
ENDBRANCH  26  27
ENDBRANCH  25  26
ENDBRANCH   1  25
TORSDOF 26
ENDMDL
