MODEL 1
REMARK VINA RESULT:      -8.3      0.000      0.000
REMARK SMILES Cc1ncccc1C(=O)N[C@H]1COC[C@@]1(C)C(=O)OCCOCCOCCOCCOC(=O)c1ccc(-c2c3nc(c(-c4cccc(S(=O)(=O)[O-])c4F)c4ccc([nH]4)c(-c4cccc(S(=O)(=O)[O-])c4F)c4nc(c(-c5cccc(S(=O)(=O)[O-])c5F)c5ccc2[nH]5)C=C4)C=C3)cc1
REMARK SMILES IDX 26 1 25 2 24 3 23 4 22 5 21 6 20 7 19 8 17 9 18 10 15 11
REMARK SMILES IDX 11 12 12 13 13 14 14 15 16 16 10 17 8 18 9 19 7 21 1 22 2 23
REMARK SMILES IDX 3 24 4 25 6 26 5 27 27 28 28 29 29 30 30 31 31 32 32 33
REMARK SMILES IDX 33 34 34 35 35 36 96 37 36 38 95 39 37 40 38 41 39 42 89 43
REMARK SMILES IDX 40 44 94 45 88 46 90 47 41 48 93 49 87 50 86 51 42 53 74 54
REMARK SMILES IDX 54 55 73 56 55 57 58 58 72 59 91 60 56 61 57 62 71 64 92 65
REMARK SMILES IDX 59 66 43 67 44 68 52 69 45 70 47 71 53 72 46 73 48 74 49 75
REMARK SMILES IDX 50 76 51 77 75 78 76 79 84 80 77 81 79 82 85 83 78 84 80 85
REMARK SMILES IDX 81 86 82 87 83 88 60 89 61 90 69 91 62 92 64 93 70 94 63 95
REMARK SMILES IDX 65 96 66 97 67 98 68 99
REMARK H PARENT 10 20 90 52 58 63
REMARK Flexibility Score: inf
ROOT
ATOM      1  C   UNL A   1      35.642  30.840  29.055  1.00  0.00     0.188 C 
ENDROOT
BRANCH   1   2
ATOM      2  O   UNL A   1      35.488  30.215  27.790  1.00  0.00    -0.377 OA
BRANCH   2   3
ATOM      3  C   UNL A   1      34.224  30.271  27.173  1.00  0.00     0.188 C 
BRANCH   3   4
ATOM      4  C   UNL A   1      33.430  28.958  27.251  1.00  0.00     0.188 C 
BRANCH   4   5
ATOM      5  O   UNL A   1      33.889  27.782  26.605  1.00  0.00    -0.376 OA
BRANCH   5   6
ATOM      6  C   UNL A   1      33.832  27.619  25.195  1.00  0.00     0.202 C 
BRANCH   6   7
ATOM      7  C   UNL A   1      33.682  26.264  24.476  1.00  0.00     0.261 C 
BRANCH   7   8
ATOM      8  O   UNL A   1      34.335  25.131  25.066  1.00  0.00    -0.463 OA
BRANCH   8   9
ATOM      9  C   UNL A   1      34.841  24.240  24.197  1.00  0.00     0.316 C 
ATOM     10  O   UNL A   1      34.674  24.309  22.981  1.00  0.00    -0.251 OA
BRANCH   9  11
ATOM     11  C   UNL A   1      35.670  23.126  24.814  1.00  0.00     0.111 C 
ATOM     12  C   UNL A   1      35.214  21.671  25.068  1.00  0.00     0.127 C 
ATOM     13  C   UNL A   1      36.501  20.877  24.798  1.00  0.00     0.186 C 
ATOM     14  O   UNL A   1      37.389  21.668  24.010  1.00  0.00    -0.378 OA
ATOM     15  C   UNL A   1      36.800  22.947  23.803  1.00  0.00     0.181 C 
ATOM     16  C   UNL A   1      36.220  23.671  26.166  1.00  0.00     0.028 C 
BRANCH  12  17
ATOM     17  N   UNL A   1      34.085  21.108  24.352  1.00  0.00    -0.346 N 
ATOM     18  C   UNL A   1      32.735  21.377  24.255  1.00  0.00     0.253 C 
ATOM     19  O   UNL A   1      32.147  20.553  23.539  1.00  0.00    -0.269 OA
ATOM     20  H   UNL A   1      34.349  20.340  23.794  1.00  0.00     0.164 HD
BRANCH  18  21
ATOM     21  C   UNL A   1      31.879  22.496  24.835  1.00  0.00     0.061 A 
ATOM     22  C   UNL A   1      31.153  23.983  22.844  1.00  0.00     0.067 C 
ATOM     23  C   UNL A   1      31.184  23.577  24.272  1.00  0.00     0.050 A 
ATOM     24  N   UNL A   1      30.450  24.479  25.012  1.00  0.00    -0.261 NA
ATOM     25  C   UNL A   1      30.446  24.387  26.350  1.00  0.00     0.111 A 
ATOM     26  C   UNL A   1      31.818  22.461  26.255  1.00  0.00     0.017 A 
ATOM     27  C   UNL A   1      31.125  23.404  27.018  1.00  0.00     0.021 A 
ENDBRANCH  18  21
ENDBRANCH  12  17
ENDBRANCH   9  11
ENDBRANCH   8   9
ENDBRANCH   7   8
ENDBRANCH   6   7
ENDBRANCH   5   6
ENDBRANCH   4   5
ENDBRANCH   3   4
ENDBRANCH   2   3
ENDBRANCH   1   2
BRANCH   1  28
ATOM     28  C   UNL A   1      35.195  32.307  29.209  1.00  0.00     0.188 C 
BRANCH  28  29
ATOM     29  O   UNL A   1      34.361  32.552  30.335  1.00  0.00    -0.376 OA
BRANCH  29  30
ATOM     30  C   UNL A   1      34.813  33.470  31.320  1.00  0.00     0.202 C 
BRANCH  30  31
ATOM     31  C   UNL A   1      34.494  33.158  32.792  1.00  0.00     0.261 C 
BRANCH  31  32
ATOM     32  O   UNL A   1      35.408  32.292  33.482  1.00  0.00    -0.460 OA
BRANCH  32  33
ATOM     33  C   UNL A   1      36.416  32.851  34.183  1.00  0.00     0.338 C 
ATOM     34  O   UNL A   1      36.318  33.638  35.111  1.00  0.00    -0.246 OA
BRANCH  33  35
ATOM     35  C   UNL A   1      37.670  32.194  33.765  1.00  0.00     0.060 A 
ATOM     36  C   UNL A   1      38.848  32.440  34.485  1.00  0.00     0.016 A 
ATOM     37  C   UNL A   1      37.680  31.338  32.662  1.00  0.00     0.016 A 
ATOM     38  C   UNL A   1      40.052  31.868  34.073  1.00  0.00     0.010 A 
ATOM     39  C   UNL A   1      38.888  30.780  32.240  1.00  0.00     0.010 A 
ATOM     40  C   UNL A   1      40.084  31.080  32.917  1.00  0.00    -0.014 A 
BRANCH  40  41
ATOM     41  C   UNL A   1      41.379  30.766  32.266  1.00  0.00     0.031 A 
ATOM     42  C   UNL A   1      41.941  31.775  31.301  1.00  0.00     0.074 A 
ATOM     43  C   UNL A   1      42.027  29.612  32.495  1.00  0.00     0.049 A 
ATOM     44  N   UNL A   1      42.999  31.699  30.538  1.00  0.00    -0.248 NA
ATOM     45  C   UNL A   1      41.196  33.040  31.174  1.00  0.00     0.031 C 
ATOM     46  C   UNL A   1      41.600  28.570  33.426  1.00  0.00     0.029 A 
ATOM     47  N   UNL A   1      43.175  29.113  31.930  1.00  0.00    -0.354 N 
ATOM     48  C   UNL A   1      43.017  32.878  29.803  1.00  0.00     0.074 A 
ATOM     49  C   UNL A   1      41.866  33.650  30.210  1.00  0.00     0.031 C 
ATOM     50  C   UNL A   1      42.467  27.543  33.353  1.00  0.00     0.029 A 
ATOM     51  C   UNL A   1      43.482  27.839  32.343  1.00  0.00     0.049 A 
ATOM     52  H   UNL A   1      43.725  29.621  31.290  1.00  0.00     0.167 HD
ATOM     53  C   UNL A   1      43.913  33.283  28.873  1.00  0.00     0.034 A 
ATOM     54  C   UNL A   1      44.455  27.002  31.930  1.00  0.00     0.034 A 
ATOM     55  C   UNL A   1      45.062  32.515  28.481  1.00  0.00     0.049 A 
ATOM     56  C   UNL A   1      45.416  27.456  30.861  1.00  0.00     0.074 A 
ATOM     57  C   UNL A   1      46.062  32.858  27.590  1.00  0.00     0.029 A 
ATOM     58  N   UNL A   1      45.351  31.237  28.936  1.00  0.00    -0.354 N 
ATOM     59  N   UNL A   1      45.483  28.611  30.244  1.00  0.00    -0.248 NA
ATOM     60  C   UNL A   1      46.453  26.497  30.448  1.00  0.00     0.031 C 
ATOM     61  C   UNL A   1      46.927  31.766  27.467  1.00  0.00     0.029 A 
ATOM     62  C   UNL A   1      46.500  30.767  28.327  1.00  0.00     0.049 A 
ATOM     63  H   UNL A   1      44.817  30.739  29.597  1.00  0.00     0.167 HD
ATOM     64  C   UNL A   1      46.595  28.538  29.411  1.00  0.00     0.074 A 
ATOM     65  C   UNL A   1      47.173  27.224  29.602  1.00  0.00     0.031 C 
ATOM     66  C   UNL A   1      47.094  29.476  28.566  1.00  0.00     0.034 A 
BRANCH  53  67
ATOM     67  C   UNL A   1      43.666  34.611  28.204  1.00  0.00     0.023 A 
ATOM     68  C   UNL A   1      42.984  34.670  26.971  1.00  0.00     0.012 A 
ATOM     69  C   UNL A   1      44.106  35.805  28.807  1.00  0.00     0.148 A 
ATOM     70  C   UNL A   1      42.793  35.891  26.324  1.00  0.00     0.002 A 
ATOM     71  C   UNL A   1      43.863  37.022  28.183  1.00  0.00     0.091 A 
ATOM     72  F   UNL A   1      44.775  35.729  29.967  1.00  0.00    -0.205 F 
ATOM     73  C   UNL A   1      43.223  37.066  26.934  1.00  0.00     0.022 A 
BRANCH  71  74
ATOM     74  S   UNL A   1      44.306  38.593  28.931  1.00  0.00     0.127 S 
ATOM     75  O   UNL A   1      45.766  38.535  28.897  1.00  0.00    -0.237 OA
ATOM     76  O   UNL A   1      43.712  39.555  28.000  1.00  0.00    -0.237 OA
ATOM     77  O   UNL A   1      43.708  38.588  30.259  1.00  0.00    -0.744 OA
ENDBRANCH  71  74
ENDBRANCH  53  67
BRANCH  54  78
ATOM     78  C   UNL A   1      44.600  25.661  32.565  1.00  0.00     0.023 A 
ATOM     79  C   UNL A   1      44.111  24.525  31.889  1.00  0.00     0.012 A 
ATOM     80  C   UNL A   1      45.233  25.498  33.812  1.00  0.00     0.148 A 
ATOM     81  C   UNL A   1      44.227  23.256  32.454  1.00  0.00     0.002 A 
ATOM     82  C   UNL A   1      45.391  24.224  34.346  1.00  0.00     0.091 A 
ATOM     83  F   UNL A   1      45.682  26.592  34.442  1.00  0.00    -0.205 F 
ATOM     84  C   UNL A   1      44.876  23.103  33.677  1.00  0.00     0.022 A 
BRANCH  82  85
ATOM     85  S   UNL A   1      46.304  23.910  35.861  1.00  0.00     0.127 S 
ATOM     86  O   UNL A   1      45.351  24.347  36.880  1.00  0.00    -0.237 OA
ATOM     87  O   UNL A   1      46.508  22.464  35.789  1.00  0.00    -0.237 OA
ATOM     88  O   UNL A   1      47.520  24.705  35.765  1.00  0.00    -0.744 OA
ENDBRANCH  82  85
ENDBRANCH  54  78
BRANCH  66  89
ATOM     89  C   UNL A   1      48.370  29.160  27.827  1.00  0.00     0.023 A 
ATOM     90  C   UNL A   1      49.621  29.461  28.401  1.00  0.00     0.012 A 
ATOM     91  C   UNL A   1      48.323  28.464  26.602  1.00  0.00     0.148 A 
ATOM     92  C   UNL A   1      50.802  29.099  27.753  1.00  0.00     0.002 A 
ATOM     93  C   UNL A   1      49.502  28.058  25.990  1.00  0.00     0.091 A 
ATOM     94  F   UNL A   1      47.122  28.200  26.065  1.00  0.00    -0.205 F 
ATOM     95  C   UNL A   1      50.743  28.386  26.558  1.00  0.00     0.022 A 
BRANCH  93  96
ATOM     96  S   UNL A   1      49.519  27.044  24.507  1.00  0.00     0.127 S 
ATOM     97  O   UNL A   1      50.945  26.758  24.358  1.00  0.00    -0.237 OA
ATOM     98  O   UNL A   1      48.705  25.897  24.909  1.00  0.00    -0.237 OA
ATOM     99  O   UNL A   1      48.936  27.860  23.450  1.00  0.00    -0.744 OA
ENDBRANCH  93  96
ENDBRANCH  66  89
ENDBRANCH  40  41
ENDBRANCH  33  35
ENDBRANCH  32  33
ENDBRANCH  31  32
ENDBRANCH  30  31
ENDBRANCH  29  30
ENDBRANCH  28  29
ENDBRANCH   1  28
TORSDOF 25
ENDMDL
MODEL 2
REMARK VINA RESULT:      -8.2      2.089      8.010
REMARK SMILES Cc1ncccc1C(=O)N[C@H]1COC[C@@]1(C)C(=O)OCCOCCOCCOCCOC(=O)c1ccc(-c2c3nc(c(-c4cccc(S(=O)(=O)[O-])c4F)c4ccc([nH]4)c(-c4cccc(S(=O)(=O)[O-])c4F)c4nc(c(-c5cccc(S(=O)(=O)[O-])c5F)c5ccc2[nH]5)C=C4)C=C3)cc1
REMARK SMILES IDX 26 1 25 2 24 3 23 4 22 5 21 6 20 7 19 8 17 9 18 10 15 11
REMARK SMILES IDX 11 12 12 13 13 14 14 15 16 16 10 17 8 18 9 19 7 21 1 22 2 23
REMARK SMILES IDX 3 24 4 25 6 26 5 27 27 28 28 29 29 30 30 31 31 32 32 33
REMARK SMILES IDX 33 34 34 35 35 36 96 37 36 38 95 39 37 40 38 41 39 42 89 43
REMARK SMILES IDX 40 44 94 45 88 46 90 47 41 48 93 49 87 50 86 51 42 53 74 54
REMARK SMILES IDX 54 55 73 56 55 57 58 58 72 59 91 60 56 61 57 62 71 64 92 65
REMARK SMILES IDX 59 66 43 67 44 68 52 69 45 70 47 71 53 72 46 73 48 74 49 75
REMARK SMILES IDX 50 76 51 77 75 78 76 79 84 80 77 81 79 82 85 83 78 84 80 85
REMARK SMILES IDX 81 86 82 87 83 88 60 89 61 90 69 91 62 92 64 93 70 94 63 95
REMARK SMILES IDX 65 96 66 97 67 98 68 99
REMARK H PARENT 10 20 90 52 58 63
REMARK Flexibility Score: inf
ROOT
ATOM      1  C   UNL A   1      34.357  33.972  30.241  1.00  0.00     0.188 C 
ENDROOT
BRANCH   1   2
ATOM      2  O   UNL A   1      34.554  34.920  29.204  1.00  0.00    -0.377 OA
BRANCH   2   3
ATOM      3  C   UNL A   1      34.399  34.488  27.874  1.00  0.00     0.188 C 
BRANCH   3   4
ATOM      4  C   UNL A   1      33.829  33.068  27.738  1.00  0.00     0.188 C 
BRANCH   4   5
ATOM      5  O   UNL A   1      34.638  31.991  27.294  1.00  0.00    -0.376 OA
BRANCH   5   6
ATOM      6  C   UNL A   1      34.403  30.649  27.698  1.00  0.00     0.202 C 
BRANCH   6   7
ATOM      7  C   UNL A   1      33.791  29.559  26.796  1.00  0.00     0.261 C 
BRANCH   7   8
ATOM      8  O   UNL A   1      32.880  29.987  25.773  1.00  0.00    -0.463 OA
BRANCH   8   9
ATOM      9  C   UNL A   1      32.852  29.221  24.670  1.00  0.00     0.316 C 
ATOM     10  O   UNL A   1      33.861  28.866  24.065  1.00  0.00    -0.251 OA
BRANCH   9  11
ATOM     11  C   UNL A   1      31.469  28.791  24.210  1.00  0.00     0.111 C 
ATOM     12  C   UNL A   1      31.119  28.075  22.886  1.00  0.00     0.127 C 
ATOM     13  C   UNL A   1      29.977  27.142  23.314  1.00  0.00     0.186 C 
ATOM     14  O   UNL A   1      30.020  26.958  24.728  1.00  0.00    -0.378 OA
ATOM     15  C   UNL A   1      31.071  27.757  25.260  1.00  0.00     0.181 C 
ATOM     16  C   UNL A   1      30.554  30.049  24.300  1.00  0.00     0.028 C 
BRANCH  12  17
ATOM     17  N   UNL A   1      32.133  27.359  22.136  1.00  0.00    -0.346 N 
ATOM     18  C   UNL A   1      32.950  26.268  22.360  1.00  0.00     0.253 C 
ATOM     19  O   UNL A   1      33.722  26.063  21.412  1.00  0.00    -0.269 OA
ATOM     20  H   UNL A   1      32.275  27.748  21.243  1.00  0.00     0.164 HD
BRANCH  18  21
ATOM     21  C   UNL A   1      33.036  25.286  23.522  1.00  0.00     0.061 A 
ATOM     22  C   UNL A   1      30.956  23.755  23.358  1.00  0.00     0.067 C 
ATOM     23  C   UNL A   1      32.240  24.213  23.947  1.00  0.00     0.050 A 
ATOM     24  N   UNL A   1      32.528  23.441  25.052  1.00  0.00    -0.261 NA
ATOM     25  C   UNL A   1      33.578  23.759  25.824  1.00  0.00     0.111 A 
ATOM     26  C   UNL A   1      34.135  25.554  24.385  1.00  0.00     0.017 A 
ATOM     27  C   UNL A   1      34.402  24.814  25.540  1.00  0.00     0.021 A 
ENDBRANCH  18  21
ENDBRANCH  12  17
ENDBRANCH   9  11
ENDBRANCH   8   9
ENDBRANCH   7   8
ENDBRANCH   6   7
ENDBRANCH   5   6
ENDBRANCH   4   5
ENDBRANCH   3   4
ENDBRANCH   2   3
ENDBRANCH   1   2
BRANCH   1  28
ATOM     28  C   UNL A   1      35.200  34.103  31.526  1.00  0.00     0.188 C 
BRANCH  28  29
ATOM     29  O   UNL A   1      36.572  33.762  31.365  1.00  0.00    -0.376 OA
BRANCH  29  30
ATOM     30  C   UNL A   1      37.477  34.110  32.402  1.00  0.00     0.202 C 
BRANCH  30  31
ATOM     31  C   UNL A   1      37.003  33.937  33.856  1.00  0.00     0.261 C 
BRANCH  31  32
ATOM     32  O   UNL A   1      36.878  32.591  34.339  1.00  0.00    -0.460 OA
BRANCH  32  33
ATOM     33  C   UNL A   1      37.663  32.202  35.364  1.00  0.00     0.338 C 
ATOM     34  O   UNL A   1      37.375  32.196  36.550  1.00  0.00    -0.246 OA
BRANCH  33  35
ATOM     35  C   UNL A   1      38.879  31.590  34.789  1.00  0.00     0.060 A 
ATOM     36  C   UNL A   1      40.138  31.998  35.253  1.00  0.00     0.016 A 
ATOM     37  C   UNL A   1      38.771  30.619  33.793  1.00  0.00     0.016 A 
ATOM     38  C   UNL A   1      41.297  31.468  34.686  1.00  0.00     0.010 A 
ATOM     39  C   UNL A   1      39.931  30.102  33.214  1.00  0.00     0.010 A 
ATOM     40  C   UNL A   1      41.196  30.559  33.627  1.00  0.00    -0.014 A 
BRANCH  40  41
ATOM     41  C   UNL A   1      42.380  30.265  32.784  1.00  0.00     0.031 A 
ATOM     42  C   UNL A   1      43.300  29.159  33.227  1.00  0.00     0.074 A 
ATOM     43  C   UNL A   1      42.654  30.972  31.674  1.00  0.00     0.049 A 
ATOM     44  N   UNL A   1      44.440  28.772  32.721  1.00  0.00    -0.248 NA
ATOM     45  C   UNL A   1      42.876  28.395  34.412  1.00  0.00     0.031 C 
ATOM     46  C   UNL A   1      41.827  32.045  31.127  1.00  0.00     0.029 A 
ATOM     47  N   UNL A   1      43.730  30.905  30.825  1.00  0.00    -0.354 N 
ATOM     48  C   UNL A   1      44.895  27.757  33.555  1.00  0.00     0.074 A 
ATOM     49  C   UNL A   1      43.910  27.591  34.599  1.00  0.00     0.031 C 
ATOM     50  C   UNL A   1      42.438  32.552  30.042  1.00  0.00     0.029 A 
ATOM     51  C   UNL A   1      43.715  31.868  29.844  1.00  0.00     0.049 A 
ATOM     52  H   UNL A   1      44.444  30.232  30.911  1.00  0.00     0.167 HD
ATOM     53  C   UNL A   1      46.032  27.028  33.460  1.00  0.00     0.034 A 
ATOM     54  C   UNL A   1      44.642  32.175  28.914  1.00  0.00     0.034 A 
ATOM     55  C   UNL A   1      47.002  27.192  32.414  1.00  0.00     0.049 A 
ATOM     56  C   UNL A   1      45.921  31.379  28.853  1.00  0.00     0.074 A 
ATOM     57  C   UNL A   1      48.159  26.466  32.194  1.00  0.00     0.029 A 
ATOM     58  N   UNL A   1      46.943  28.163  31.426  1.00  0.00    -0.354 N 
ATOM     59  N   UNL A   1      46.296  30.357  29.585  1.00  0.00    -0.248 NA
ATOM     60  C   UNL A   1      46.896  31.764  27.821  1.00  0.00     0.031 C 
ATOM     61  C   UNL A   1      48.826  27.034  31.104  1.00  0.00     0.029 A 
ATOM     62  C   UNL A   1      48.055  28.074  30.608  1.00  0.00     0.049 A 
ATOM     63  H   UNL A   1      46.216  28.819  31.322  1.00  0.00     0.167 HD
ATOM     64  C   UNL A   1      47.521  29.945  29.070  1.00  0.00     0.074 A 
ATOM     65  C   UNL A   1      47.826  30.829  27.963  1.00  0.00     0.031 C 
ATOM     66  C   UNL A   1      48.320  28.926  29.477  1.00  0.00     0.034 A 
BRANCH  53  67
ATOM     67  C   UNL A   1      46.290  26.003  34.535  1.00  0.00     0.023 A 
ATOM     68  C   UNL A   1      46.952  26.371  35.724  1.00  0.00     0.012 A 
ATOM     69  C   UNL A   1      45.864  24.671  34.365  1.00  0.00     0.148 A 
ATOM     70  C   UNL A   1      47.234  25.417  36.702  1.00  0.00     0.002 A 
ATOM     71  C   UNL A   1      46.101  23.740  35.367  1.00  0.00     0.091 A 
ATOM     72  F   UNL A   1      45.258  24.333  33.218  1.00  0.00    -0.205 F 
ATOM     73  C   UNL A   1      46.801  24.106  36.529  1.00  0.00     0.022 A 
BRANCH  71  74
ATOM     74  S   UNL A   1      45.508  22.048  35.270  1.00  0.00     0.127 S 
ATOM     75  O   UNL A   1      46.441  21.463  34.309  1.00  0.00    -0.237 OA
ATOM     76  O   UNL A   1      45.678  21.582  36.647  1.00  0.00    -0.237 OA
ATOM     77  O   UNL A   1      44.123  22.133  34.828  1.00  0.00    -0.744 OA
ENDBRANCH  71  74
ENDBRANCH  53  67
BRANCH  54  78
ATOM     78  C   UNL A   1      44.374  33.261  27.928  1.00  0.00     0.023 A 
ATOM     79  C   UNL A   1      44.042  32.917  26.602  1.00  0.00     0.012 A 
ATOM     80  C   UNL A   1      44.423  34.620  28.293  1.00  0.00     0.148 A 
ATOM     81  C   UNL A   1      43.788  33.906  25.653  1.00  0.00     0.002 A 
ATOM     82  C   UNL A   1      44.120  35.600  27.355  1.00  0.00     0.091 A 
ATOM     83  F   UNL A   1      44.751  34.924  29.556  1.00  0.00    -0.205 F 
ATOM     84  C   UNL A   1      43.817  35.247  26.031  1.00  0.00     0.022 A 
BRANCH  82  85
ATOM     85  S   UNL A   1      44.025  37.345  27.766  1.00  0.00     0.127 S 
ATOM     86  O   UNL A   1      43.166  37.857  26.700  1.00  0.00    -0.237 OA
ATOM     87  O   UNL A   1      43.404  37.305  29.091  1.00  0.00    -0.237 OA
ATOM     88  O   UNL A   1      45.396  37.834  27.749  1.00  0.00    -0.744 OA
ENDBRANCH  82  85
ENDBRANCH  54  78
BRANCH  66  89
ATOM     89  C   UNL A   1      49.574  28.647  28.686  1.00  0.00     0.023 A 
ATOM     90  C   UNL A   1      50.766  29.344  28.968  1.00  0.00     0.012 A 
ATOM     91  C   UNL A   1      49.590  27.611  27.730  1.00  0.00     0.148 A 
ATOM     92  C   UNL A   1      51.945  29.032  28.290  1.00  0.00     0.002 A 
ATOM     93  C   UNL A   1      50.779  27.269  27.100  1.00  0.00     0.091 A 
ATOM     94  F   UNL A   1      48.442  26.970  27.466  1.00  0.00    -0.205 F 
ATOM     95  C   UNL A   1      51.955  27.987  27.369  1.00  0.00     0.022 A 
BRANCH  93  96
ATOM     96  S   UNL A   1      50.910  25.869  25.981  1.00  0.00     0.127 S 
ATOM     97  O   UNL A   1      52.182  26.139  25.314  1.00  0.00    -0.237 OA
ATOM     98  O   UNL A   1      50.935  24.737  26.907  1.00  0.00    -0.237 OA
ATOM     99  O   UNL A   1      49.734  25.924  25.123  1.00  0.00    -0.744 OA
ENDBRANCH  93  96
ENDBRANCH  66  89
ENDBRANCH  40  41
ENDBRANCH  33  35
ENDBRANCH  32  33
ENDBRANCH  31  32
ENDBRANCH  30  31
ENDBRANCH  29  30
ENDBRANCH  28  29
ENDBRANCH   1  28
TORSDOF 25
ENDMDL
MODEL 3
REMARK VINA RESULT:      -8.1      1.217      2.432
REMARK SMILES Cc1ncccc1C(=O)N[C@H]1COC[C@@]1(C)C(=O)OCCOCCOCCOCCOC(=O)c1ccc(-c2c3nc(c(-c4cccc(S(=O)(=O)[O-])c4F)c4ccc([nH]4)c(-c4cccc(S(=O)(=O)[O-])c4F)c4nc(c(-c5cccc(S(=O)(=O)[O-])c5F)c5ccc2[nH]5)C=C4)C=C3)cc1
REMARK SMILES IDX 26 1 25 2 24 3 23 4 22 5 21 6 20 7 19 8 17 9 18 10 15 11
REMARK SMILES IDX 11 12 12 13 13 14 14 15 16 16 10 17 8 18 9 19 7 21 1 22 2 23
REMARK SMILES IDX 3 24 4 25 6 26 5 27 27 28 28 29 29 30 30 31 31 32 32 33
REMARK SMILES IDX 33 34 34 35 35 36 96 37 36 38 95 39 37 40 38 41 39 42 89 43
REMARK SMILES IDX 40 44 94 45 88 46 90 47 41 48 93 49 87 50 86 51 42 53 74 54
REMARK SMILES IDX 54 55 73 56 55 57 58 58 72 59 91 60 56 61 57 62 71 64 92 65
REMARK SMILES IDX 59 66 43 67 44 68 52 69 45 70 47 71 53 72 46 73 48 74 49 75
REMARK SMILES IDX 50 76 51 77 75 78 76 79 84 80 77 81 79 82 85 83 78 84 80 85
REMARK SMILES IDX 81 86 82 87 83 88 60 89 61 90 69 91 62 92 64 93 70 94 63 95
REMARK SMILES IDX 65 96 66 97 67 98 68 99
REMARK H PARENT 10 20 90 52 58 63
REMARK Flexibility Score: inf
ROOT
ATOM      1  C   UNL A   1      35.680  31.336  29.957  1.00  0.00     0.188 C 
ENDROOT
BRANCH   1   2
ATOM      2  O   UNL A   1      35.603  30.798  28.646  1.00  0.00    -0.377 OA
BRANCH   2   3
ATOM      3  C   UNL A   1      34.924  31.542  27.664  1.00  0.00     0.188 C 
BRANCH   3   4
ATOM      4  C   UNL A   1      33.441  31.170  27.509  1.00  0.00     0.188 C 
BRANCH   4   5
ATOM      5  O   UNL A   1      33.007  29.824  27.607  1.00  0.00    -0.376 OA
BRANCH   5   6
ATOM      6  C   UNL A   1      33.172  28.894  26.545  1.00  0.00     0.202 C 
BRANCH   6   7
ATOM      7  C   UNL A   1      32.846  27.390  26.640  1.00  0.00     0.261 C 
BRANCH   7   8
ATOM      8  O   UNL A   1      33.458  26.522  25.675  1.00  0.00    -0.463 OA
BRANCH   8   9
ATOM      9  C   UNL A   1      32.607  25.855  24.878  1.00  0.00     0.316 C 
ATOM     10  O   UNL A   1      31.810  25.014  25.291  1.00  0.00    -0.251 OA
BRANCH   9  11
ATOM     11  C   UNL A   1      32.670  26.221  23.405  1.00  0.00     0.111 C 
ATOM     12  C   UNL A   1      32.774  25.240  22.216  1.00  0.00     0.127 C 
ATOM     13  C   UNL A   1      31.928  25.941  21.143  1.00  0.00     0.186 C 
ATOM     14  O   UNL A   1      31.056  26.882  21.767  1.00  0.00    -0.378 OA
ATOM     15  C   UNL A   1      31.319  26.890  23.165  1.00  0.00     0.181 C 
ATOM     16  C   UNL A   1      33.831  27.249  23.247  1.00  0.00     0.028 C 
BRANCH  12  17
ATOM     17  N   UNL A   1      32.391  23.848  22.362  1.00  0.00    -0.346 N 
ATOM     18  C   UNL A   1      32.943  22.721  22.939  1.00  0.00     0.253 C 
ATOM     19  O   UNL A   1      32.247  21.714  22.747  1.00  0.00    -0.269 OA
ATOM     20  H   UNL A   1      31.520  23.660  21.945  1.00  0.00     0.164 HD
BRANCH  18  21
ATOM     21  C   UNL A   1      34.203  22.520  23.772  1.00  0.00     0.061 A 
ATOM     22  C   UNL A   1      33.445  21.528  26.039  1.00  0.00     0.067 C 
ATOM     23  C   UNL A   1      34.448  22.000  25.051  1.00  0.00     0.050 A 
ATOM     24  N   UNL A   1      35.706  21.907  25.607  1.00  0.00    -0.261 NA
ATOM     25  C   UNL A   1      36.760  22.403  24.943  1.00  0.00     0.111 A 
ATOM     26  C   UNL A   1      35.371  23.015  23.127  1.00  0.00     0.017 A 
ATOM     27  C   UNL A   1      36.642  22.978  23.707  1.00  0.00     0.021 A 
ENDBRANCH  18  21
ENDBRANCH  12  17
ENDBRANCH   9  11
ENDBRANCH   8   9
ENDBRANCH   7   8
ENDBRANCH   6   7
ENDBRANCH   5   6
ENDBRANCH   4   5
ENDBRANCH   3   4
ENDBRANCH   2   3
ENDBRANCH   1   2
BRANCH   1  28
ATOM     28  C   UNL A   1      36.187  32.782  30.129  1.00  0.00     0.188 C 
BRANCH  28  29
ATOM     29  O   UNL A   1      35.210  33.692  30.620  1.00  0.00    -0.376 OA
BRANCH  29  30
ATOM     30  C   UNL A   1      35.267  34.065  31.990  1.00  0.00     0.202 C 
BRANCH  30  31
ATOM     31  C   UNL A   1      34.674  33.092  33.023  1.00  0.00     0.261 C 
BRANCH  31  32
ATOM     32  O   UNL A   1      35.604  32.405  33.874  1.00  0.00    -0.460 OA
BRANCH  32  33
ATOM     33  C   UNL A   1      36.653  33.095  34.367  1.00  0.00     0.338 C 
ATOM     34  O   UNL A   1      36.617  34.010  35.174  1.00  0.00    -0.246 OA
BRANCH  33  35
ATOM     35  C   UNL A   1      37.886  32.421  33.912  1.00  0.00     0.060 A 
ATOM     36  C   UNL A   1      39.109  32.749  34.513  1.00  0.00     0.016 A 
ATOM     37  C   UNL A   1      37.830  31.471  32.892  1.00  0.00     0.016 A 
ATOM     38  C   UNL A   1      40.290  32.160  34.061  1.00  0.00     0.010 A 
ATOM     39  C   UNL A   1      39.014  30.895  32.428  1.00  0.00     0.010 A 
ATOM     40  C   UNL A   1      40.252  31.272  32.980  1.00  0.00    -0.014 A 
BRANCH  40  41
ATOM     41  C   UNL A   1      41.499  30.921  32.260  1.00  0.00     0.031 A 
ATOM     42  C   UNL A   1      42.045  31.919  31.275  1.00  0.00     0.074 A 
ATOM     43  C   UNL A   1      42.119  29.743  32.447  1.00  0.00     0.049 A 
ATOM     44  N   UNL A   1      43.058  31.813  30.457  1.00  0.00    -0.248 NA
ATOM     45  C   UNL A   1      41.338  33.209  31.195  1.00  0.00     0.031 C 
ATOM     46  C   UNL A   1      41.705  28.708  33.392  1.00  0.00     0.029 A 
ATOM     47  N   UNL A   1      43.218  29.211  31.819  1.00  0.00    -0.354 N 
ATOM     48  C   UNL A   1      43.079  32.998  29.731  1.00  0.00     0.074 A 
ATOM     49  C   UNL A   1      41.977  33.805  30.202  1.00  0.00     0.031 C 
ATOM     50  C   UNL A   1      42.531  27.654  33.267  1.00  0.00     0.029 A 
ATOM     51  C   UNL A   1      43.502  27.924  32.207  1.00  0.00     0.049 A 
ATOM     52  H   UNL A   1      43.751  29.705  31.155  1.00  0.00     0.167 HD
ATOM     53  C   UNL A   1      43.939  33.380  28.758  1.00  0.00     0.034 A 
ATOM     54  C   UNL A   1      44.423  27.058  31.738  1.00  0.00     0.034 A 
ATOM     55  C   UNL A   1      45.039  32.577  28.301  1.00  0.00     0.049 A 
ATOM     56  C   UNL A   1      45.343  27.488  30.624  1.00  0.00     0.074 A 
ATOM     57  C   UNL A   1      46.002  32.894  27.361  1.00  0.00     0.029 A 
ATOM     58  N   UNL A   1      45.307  31.287  28.732  1.00  0.00    -0.354 N 
ATOM     59  N   UNL A   1      45.417  28.646  30.012  1.00  0.00    -0.248 NA
ATOM     60  C   UNL A   1      46.323  26.499  30.150  1.00  0.00     0.031 C 
ATOM     61  C   UNL A   1      46.822  31.775  27.186  1.00  0.00     0.029 A 
ATOM     62  C   UNL A   1      46.407  30.783  28.060  1.00  0.00     0.049 A 
ATOM     63  H   UNL A   1      44.791  30.801  29.416  1.00  0.00     0.167 HD
ATOM     64  C   UNL A   1      46.481  28.543  29.122  1.00  0.00     0.074 A 
ATOM     65  C   UNL A   1      47.022  27.208  29.274  1.00  0.00     0.031 C 
ATOM     66  C   UNL A   1      46.967  29.470  28.258  1.00  0.00     0.034 A 
BRANCH  53  67
ATOM     67  C   UNL A   1      43.703  34.722  28.111  1.00  0.00     0.023 A 
ATOM     68  C   UNL A   1      42.906  34.822  26.953  1.00  0.00     0.012 A 
ATOM     69  C   UNL A   1      44.269  35.887  28.664  1.00  0.00     0.148 A 
ATOM     70  C   UNL A   1      42.722  36.053  26.324  1.00  0.00     0.002 A 
ATOM     71  C   UNL A   1      44.035  37.117  28.063  1.00  0.00     0.091 A 
ATOM     72  F   UNL A   1      45.044  35.771  29.752  1.00  0.00    -0.205 F 
ATOM     73  C   UNL A   1      43.277  37.201  26.883  1.00  0.00     0.022 A 
BRANCH  71  74
ATOM     74  S   UNL A   1      44.640  38.659  28.757  1.00  0.00     0.127 S 
ATOM     75  O   UNL A   1      43.455  39.153  29.456  1.00  0.00    -0.237 OA
ATOM     76  O   UNL A   1      45.718  38.199  29.635  1.00  0.00    -0.237 OA
ATOM     77  O   UNL A   1      45.083  39.462  27.626  1.00  0.00    -0.744 OA
ENDBRANCH  71  74
ENDBRANCH  53  67
BRANCH  54  78
ATOM     78  C   UNL A   1      44.555  25.707  32.355  1.00  0.00     0.023 A 
ATOM     79  C   UNL A   1      44.048  24.586  31.668  1.00  0.00     0.012 A 
ATOM     80  C   UNL A   1      45.193  25.520  33.597  1.00  0.00     0.148 A 
ATOM     81  C   UNL A   1      44.152  23.308  32.215  1.00  0.00     0.002 A 
ATOM     82  C   UNL A   1      45.338  24.238  34.114  1.00  0.00     0.091 A 
ATOM     83  F   UNL A   1      45.658  26.601  34.238  1.00  0.00    -0.205 F 
ATOM     84  C   UNL A   1      44.805  23.132  33.433  1.00  0.00     0.022 A 
BRANCH  82  85
ATOM     85  S   UNL A   1      46.254  23.894  35.620  1.00  0.00     0.127 S 
ATOM     86  O   UNL A   1      47.572  24.437  35.298  1.00  0.00    -0.237 OA
ATOM     87  O   UNL A   1      45.497  24.660  36.609  1.00  0.00    -0.237 OA
ATOM     88  O   UNL A   1      46.202  22.449  35.796  1.00  0.00    -0.744 OA
ENDBRANCH  82  85
ENDBRANCH  54  78
BRANCH  66  89
ATOM     89  C   UNL A   1      48.192  29.118  27.452  1.00  0.00     0.023 A 
ATOM     90  C   UNL A   1      49.481  29.339  27.976  1.00  0.00     0.012 A 
ATOM     91  C   UNL A   1      48.055  28.466  26.209  1.00  0.00     0.148 A 
ATOM     92  C   UNL A   1      50.612  28.943  27.264  1.00  0.00     0.002 A 
ATOM     93  C   UNL A   1      49.184  28.024  25.531  1.00  0.00     0.091 A 
ATOM     94  F   UNL A   1      46.820  28.278  25.721  1.00  0.00    -0.205 F 
ATOM     95  C   UNL A   1      50.464  28.273  26.051  1.00  0.00     0.022 A 
BRANCH  93  96
ATOM     96  S   UNL A   1      49.085  27.060  24.019  1.00  0.00     0.127 S 
ATOM     97  O   UNL A   1      50.478  27.054  23.577  1.00  0.00    -0.237 OA
ATOM     98  O   UNL A   1      48.595  25.770  24.507  1.00  0.00    -0.237 OA
ATOM     99  O   UNL A   1      48.159  27.768  23.145  1.00  0.00    -0.744 OA
ENDBRANCH  93  96
ENDBRANCH  66  89
ENDBRANCH  40  41
ENDBRANCH  33  35
ENDBRANCH  32  33
ENDBRANCH  31  32
ENDBRANCH  30  31
ENDBRANCH  29  30
ENDBRANCH  28  29
ENDBRANCH   1  28
TORSDOF 25
ENDMDL
