MODEL 1
REMARK VINA RESULT:     -10.5      0.000      0.000
REMARK SMILES C/C(=C(\C#N)C(=O)OCCOCCOCCOCCOC(=O)c1ccc(-c2c3nc(c(-c4cccc(S(=O)(=O)[O-])c4F)c4ccc([nH]4)c(-c4cccc(S(=O)(=O)[O-])c4F)c4nc(c(-c5cccc(S(=O)(=O)[O-])c5F)c5ccc2[nH]5)C=C4)C=C3)cc1)c1cccc2ccccc12
REMARK SMILES IDX 15 1 14 2 13 3 12 4 11 5 10 6 9 7 8 8 6 9 7 10 3 11 1 12
REMARK SMILES IDX 2 13 86 14 87 15 95 16 88 17 90 18 94 19 89 20 91 21 93 22
REMARK SMILES IDX 92 23 4 24 5 25 16 26 17 27 18 28 19 29 20 30 21 31 22 32
REMARK SMILES IDX 23 33 24 34 85 35 25 36 84 37 26 38 27 39 28 40 78 41 29 42
REMARK SMILES IDX 83 43 77 44 79 45 30 46 82 47 76 48 75 49 31 51 63 52 43 53
REMARK SMILES IDX 62 54 44 55 47 56 61 57 80 58 45 59 46 60 60 62 81 63 48 64
REMARK SMILES IDX 32 65 33 66 41 67 34 68 36 69 42 70 35 71 37 72 38 73 39 74
REMARK SMILES IDX 40 75 64 76 65 77 73 78 66 79 68 80 74 81 67 82 69 83 70 84
REMARK SMILES IDX 71 85 72 86 49 87 50 88 58 89 51 90 53 91 59 92 52 93 54 94
REMARK SMILES IDX 55 95 56 96 57 97
REMARK H PARENT 79 50 47 61
REMARK Flexibility Score: inf
ROOT
ATOM      1  C   UNL A   1      30.883  28.430  23.336  1.00  0.00     0.188 C 
ENDROOT
BRANCH   1   2
ATOM      2  O   UNL A   1      32.021  28.503  22.493  1.00  0.00    -0.377 OA
BRANCH   2   3
ATOM      3  C   UNL A   1      33.250  28.093  23.048  1.00  0.00     0.188 C 
BRANCH   3   4
ATOM      4  C   UNL A   1      33.531  26.577  23.196  1.00  0.00     0.188 C 
BRANCH   4   5
ATOM      5  O   UNL A   1      33.599  26.125  24.534  1.00  0.00    -0.376 OA
BRANCH   5   6
ATOM      6  C   UNL A   1      34.623  25.200  24.845  1.00  0.00     0.202 C 
BRANCH   6   7
ATOM      7  C   UNL A   1      34.432  24.285  26.065  1.00  0.00     0.261 C 
BRANCH   7   8
ATOM      8  O   UNL A   1      33.072  24.074  26.474  1.00  0.00    -0.459 OA
BRANCH   8   9
ATOM      9  C   UNL A   1      32.609  22.803  26.456  1.00  0.00     0.349 C 
ATOM     10  O   UNL A   1      32.600  22.040  27.408  1.00  0.00    -0.245 OA
BRANCH   9  11
ATOM     11  C   UNL A   1      32.079  22.491  25.088  1.00  0.00     0.140 C 
ATOM     12  C   UNL A   1      32.752  21.841  22.729  1.00  0.00     0.047 C 
ATOM     13  C   UNL A   1      32.839  21.711  24.231  1.00  0.00    -0.018 C 
BRANCH  13  14
ATOM     14  C   UNL A   1      33.836  20.665  24.702  1.00  0.00    -0.013 A 
ATOM     15  C   UNL A   1      35.094  21.153  25.060  1.00  0.00     0.009 A 
ATOM     16  C   UNL A   1      33.686  19.246  24.803  1.00  0.00    -0.011 A 
ATOM     17  C   UNL A   1      36.227  20.342  25.011  1.00  0.00     0.001 A 
ATOM     18  C   UNL A   1      34.846  18.439  24.627  1.00  0.00    -0.018 A 
ATOM     19  C   UNL A   1      32.524  18.547  25.213  1.00  0.00     0.009 A 
ATOM     20  C   UNL A   1      36.108  19.020  24.626  1.00  0.00     0.009 A 
ATOM     21  C   UNL A   1      34.778  17.041  24.595  1.00  0.00     0.009 A 
ATOM     22  C   UNL A   1      32.531  17.155  25.408  1.00  0.00     0.001 A 
ATOM     23  C   UNL A   1      33.634  16.396  25.036  1.00  0.00     0.001 A 
ENDBRANCH  13  14
BRANCH  11  24
ATOM     24  C   UNL A   1      31.171  23.581  24.543  1.00  0.00     0.107 C 
ATOM     25  N   UNL A   1      30.418  24.485  24.089  1.00  0.00    -0.192 NA
ENDBRANCH  11  24
ENDBRANCH   9  11
ENDBRANCH   8   9
ENDBRANCH   7   8
ENDBRANCH   6   7
ENDBRANCH   5   6
ENDBRANCH   4   5
ENDBRANCH   3   4
ENDBRANCH   2   3
ENDBRANCH   1   2
BRANCH   1  26
ATOM     26  C   UNL A   1      29.898  29.627  23.348  1.00  0.00     0.188 C 
BRANCH  26  27
ATOM     27  O   UNL A   1      30.152  30.644  24.312  1.00  0.00    -0.376 OA
BRANCH  27  28
ATOM     28  C   UNL A   1      31.123  30.400  25.319  1.00  0.00     0.202 C 
BRANCH  28  29
ATOM     29  C   UNL A   1      31.400  31.506  26.350  1.00  0.00     0.261 C 
BRANCH  29  30
ATOM     30  O   UNL A   1      32.511  31.286  27.228  1.00  0.00    -0.460 OA
BRANCH  30  31
ATOM     31  C   UNL A   1      33.285  32.348  27.535  1.00  0.00     0.338 C 
ATOM     32  O   UNL A   1      32.932  33.515  27.608  1.00  0.00    -0.246 OA
BRANCH  31  33
ATOM     33  C   UNL A   1      34.584  31.830  28.010  1.00  0.00     0.060 A 
ATOM     34  C   UNL A   1      34.711  30.453  28.251  1.00  0.00     0.016 A 
ATOM     35  C   UNL A   1      35.689  32.675  28.134  1.00  0.00     0.016 A 
ATOM     36  C   UNL A   1      35.937  29.922  28.633  1.00  0.00     0.010 A 
ATOM     37  C   UNL A   1      36.909  32.148  28.563  1.00  0.00     0.010 A 
ATOM     38  C   UNL A   1      37.026  30.776  28.844  1.00  0.00    -0.014 A 
BRANCH  38  39
ATOM     39  C   UNL A   1      38.200  30.249  29.575  1.00  0.00     0.031 A 
ATOM     40  C   UNL A   1      38.409  30.709  30.990  1.00  0.00     0.074 A 
ATOM     41  C   UNL A   1      39.026  29.348  29.018  1.00  0.00     0.049 A 
ATOM     42  N   UNL A   1      39.327  30.353  31.849  1.00  0.00    -0.248 NA
ATOM     43  C   UNL A   1      37.450  31.700  31.509  1.00  0.00     0.031 C 
ATOM     44  C   UNL A   1      38.915  28.822  27.659  1.00  0.00     0.029 A 
ATOM     45  N   UNL A   1      40.135  28.726  29.534  1.00  0.00    -0.354 N 
ATOM     46  C   UNL A   1      39.073  31.092  32.998  1.00  0.00     0.074 A 
ATOM     47  C   UNL A   1      37.922  31.924  32.724  1.00  0.00     0.031 C 
ATOM     48  C   UNL A   1      39.934  27.972  27.438  1.00  0.00     0.029 A 
ATOM     49  C   UNL A   1      40.776  27.912  28.632  1.00  0.00     0.049 A 
ATOM     50  H   UNL A   1      40.441  28.852  30.461  1.00  0.00     0.167 HD
ATOM     51  C   UNL A   1      39.730  31.070  34.180  1.00  0.00     0.034 A 
ATOM     52  C   UNL A   1      41.923  27.214  28.756  1.00  0.00     0.034 A 
ATOM     53  C   UNL A   1      40.871  30.238  34.448  1.00  0.00     0.049 A 
ATOM     54  C   UNL A   1      42.655  27.232  30.073  1.00  0.00     0.074 A 
ATOM     55  C   UNL A   1      41.580  30.109  35.628  1.00  0.00     0.029 A 
ATOM     56  N   UNL A   1      41.484  29.412  33.519  1.00  0.00    -0.354 N 
ATOM     57  N   UNL A   1      42.334  27.838  31.192  1.00  0.00    -0.248 NA
ATOM     58  C   UNL A   1      43.891  26.440  30.157  1.00  0.00     0.031 C 
ATOM     59  C   UNL A   1      42.649  29.236  35.400  1.00  0.00     0.029 A 
ATOM     60  C   UNL A   1      42.577  28.786  34.091  1.00  0.00     0.049 A 
ATOM     61  H   UNL A   1      41.185  29.289  32.589  1.00  0.00     0.167 HD
ATOM     62  C   UNL A   1      43.307  27.476  32.117  1.00  0.00     0.074 A 
ATOM     63  C   UNL A   1      44.214  26.575  31.435  1.00  0.00     0.031 C 
ATOM     64  C   UNL A   1      43.450  27.863  33.410  1.00  0.00     0.034 A 
BRANCH  51  65
ATOM     65  C   UNL A   1      39.227  31.975  35.273  1.00  0.00     0.023 A 
ATOM     66  C   UNL A   1      38.245  31.513  36.173  1.00  0.00     0.012 A 
ATOM     67  C   UNL A   1      39.759  33.268  35.432  1.00  0.00     0.148 A 
ATOM     68  C   UNL A   1      37.778  32.337  37.196  1.00  0.00     0.002 A 
ATOM     69  C   UNL A   1      39.324  34.065  36.484  1.00  0.00     0.091 A 
ATOM     70  F   UNL A   1      40.671  33.699  34.549  1.00  0.00    -0.205 F 
ATOM     71  C   UNL A   1      38.326  33.606  37.359  1.00  0.00     0.022 A 
BRANCH  69  72
ATOM     72  S   UNL A   1      40.024  35.683  36.825  1.00  0.00     0.127 S 
ATOM     73  O   UNL A   1      39.645  36.427  35.625  1.00  0.00    -0.237 OA
ATOM     74  O   UNL A   1      39.307  36.076  38.038  1.00  0.00    -0.237 OA
ATOM     75  O   UNL A   1      41.454  35.475  37.004  1.00  0.00    -0.744 OA
ENDBRANCH  69  72
ENDBRANCH  51  65
BRANCH  52  76
ATOM     76  C   UNL A   1      42.443  26.423  27.605  1.00  0.00     0.023 A 
ATOM     77  C   UNL A   1      43.284  27.035  26.656  1.00  0.00     0.012 A 
ATOM     78  C   UNL A   1      42.106  25.065  27.449  1.00  0.00     0.148 A 
ATOM     79  C   UNL A   1      43.754  26.317  25.555  1.00  0.00     0.002 A 
ATOM     80  C   UNL A   1      42.624  24.341  26.384  1.00  0.00     0.091 A 
ATOM     81  F   UNL A   1      41.288  24.507  28.354  1.00  0.00    -0.205 F 
ATOM     82  C   UNL A   1      43.432  24.968  25.425  1.00  0.00     0.022 A 
BRANCH  80  83
ATOM     83  S   UNL A   1      42.367  22.572  26.203  1.00  0.00     0.127 S 
ATOM     84  O   UNL A   1      42.958  22.057  27.437  1.00  0.00    -0.237 OA
ATOM     85  O   UNL A   1      40.907  22.489  26.138  1.00  0.00    -0.237 OA
ATOM     86  O   UNL A   1      43.049  22.197  24.974  1.00  0.00    -0.744 OA
ENDBRANCH  80  83
ENDBRANCH  52  76
BRANCH  64  87
ATOM     87  C   UNL A   1      44.609  27.291  34.187  1.00  0.00     0.023 A 
ATOM     88  C   UNL A   1      45.836  27.982  34.236  1.00  0.00     0.012 A 
ATOM     89  C   UNL A   1      44.465  26.092  34.914  1.00  0.00     0.148 A 
ATOM     90  C   UNL A   1      46.913  27.468  34.957  1.00  0.00     0.002 A 
ATOM     91  C   UNL A   1      45.525  25.613  35.674  1.00  0.00     0.091 A 
ATOM     92  F   UNL A   1      43.296  25.439  34.846  1.00  0.00    -0.205 F 
ATOM     93  C   UNL A   1      46.755  26.290  35.683  1.00  0.00     0.022 A 
BRANCH  91  94
ATOM     94  S   UNL A   1      45.382  24.159  36.719  1.00  0.00     0.127 S 
ATOM     95  O   UNL A   1      44.189  24.473  37.504  1.00  0.00    -0.237 OA
ATOM     96  O   UNL A   1      45.201  23.088  35.738  1.00  0.00    -0.237 OA
ATOM     97  O   UNL A   1      46.625  24.081  37.474  1.00  0.00    -0.744 OA
ENDBRANCH  91  94
ENDBRANCH  64  87
ENDBRANCH  38  39
ENDBRANCH  31  33
ENDBRANCH  30  31
ENDBRANCH  29  30
ENDBRANCH  28  29
ENDBRANCH  27  28
ENDBRANCH  26  27
ENDBRANCH   1  26
TORSDOF 25
ENDMDL
MODEL 2
REMARK VINA RESULT:      -9.7      1.747      2.412
REMARK SMILES C/C(=C(\C#N)C(=O)OCCOCCOCCOCCOC(=O)c1ccc(-c2c3nc(c(-c4cccc(S(=O)(=O)[O-])c4F)c4ccc([nH]4)c(-c4cccc(S(=O)(=O)[O-])c4F)c4nc(c(-c5cccc(S(=O)(=O)[O-])c5F)c5ccc2[nH]5)C=C4)C=C3)cc1)c1cccc2ccccc12
REMARK SMILES IDX 15 1 14 2 13 3 12 4 11 5 10 6 9 7 8 8 6 9 7 10 3 11 1 12
REMARK SMILES IDX 2 13 86 14 87 15 95 16 88 17 90 18 94 19 89 20 91 21 93 22
REMARK SMILES IDX 92 23 4 24 5 25 16 26 17 27 18 28 19 29 20 30 21 31 22 32
REMARK SMILES IDX 23 33 24 34 85 35 25 36 84 37 26 38 27 39 28 40 78 41 29 42
REMARK SMILES IDX 83 43 77 44 79 45 30 46 82 47 76 48 75 49 31 51 63 52 43 53
REMARK SMILES IDX 62 54 44 55 47 56 61 57 80 58 45 59 46 60 60 62 81 63 48 64
REMARK SMILES IDX 32 65 33 66 41 67 34 68 36 69 42 70 35 71 37 72 38 73 39 74
REMARK SMILES IDX 40 75 64 76 65 77 73 78 66 79 68 80 74 81 67 82 69 83 70 84
REMARK SMILES IDX 71 85 72 86 49 87 50 88 58 89 51 90 53 91 59 92 52 93 54 94
REMARK SMILES IDX 55 95 56 96 57 97
REMARK H PARENT 79 50 47 61
REMARK Flexibility Score: inf
ROOT
ATOM      1  C   UNL A   1      30.408  28.529  23.368  1.00  0.00     0.188 C 
ENDROOT
BRANCH   1   2
ATOM      2  O   UNL A   1      31.542  28.363  22.533  1.00  0.00    -0.377 OA
BRANCH   2   3
ATOM      3  C   UNL A   1      32.458  27.356  22.898  1.00  0.00     0.188 C 
BRANCH   3   4
ATOM      4  C   UNL A   1      31.914  26.042  23.511  1.00  0.00     0.188 C 
BRANCH   4   5
ATOM      5  O   UNL A   1      31.749  26.079  24.915  1.00  0.00    -0.376 OA
BRANCH   5   6
ATOM      6  C   UNL A   1      32.838  26.567  25.673  1.00  0.00     0.202 C 
BRANCH   6   7
ATOM      7  C   UNL A   1      34.112  25.711  25.752  1.00  0.00     0.261 C 
BRANCH   7   8
ATOM      8  O   UNL A   1      33.922  24.300  25.570  1.00  0.00    -0.459 OA
BRANCH   8   9
ATOM      9  C   UNL A   1      34.581  23.471  26.412  1.00  0.00     0.349 C 
ATOM     10  O   UNL A   1      34.280  23.259  27.575  1.00  0.00    -0.245 OA
BRANCH   9  11
ATOM     11  C   UNL A   1      35.721  22.830  25.679  1.00  0.00     0.140 C 
ATOM     12  C   UNL A   1      36.810  20.605  25.129  1.00  0.00     0.047 C 
ATOM     13  C   UNL A   1      35.609  21.507  25.280  1.00  0.00    -0.018 C 
BRANCH  13  14
ATOM     14  C   UNL A   1      34.285  20.828  24.971  1.00  0.00    -0.013 A 
ATOM     15  C   UNL A   1      33.821  19.944  25.947  1.00  0.00     0.009 A 
ATOM     16  C   UNL A   1      33.457  20.936  23.809  1.00  0.00    -0.011 A 
ATOM     17  C   UNL A   1      32.956  18.899  25.627  1.00  0.00     0.001 A 
ATOM     18  C   UNL A   1      32.675  19.804  23.441  1.00  0.00    -0.018 A 
ATOM     19  C   UNL A   1      33.208  22.110  23.057  1.00  0.00     0.009 A 
ATOM     20  C   UNL A   1      32.523  18.743  24.324  1.00  0.00     0.009 A 
ATOM     21  C   UNL A   1      31.924  19.776  22.260  1.00  0.00     0.009 A 
ATOM     22  C   UNL A   1      32.267  22.131  22.013  1.00  0.00     0.001 A 
ATOM     23  C   UNL A   1      31.677  20.953  21.572  1.00  0.00     0.001 A 
ENDBRANCH  13  14
BRANCH  11  24
ATOM     24  C   UNL A   1      37.072  23.412  26.060  1.00  0.00     0.107 C 
ATOM     25  N   UNL A   1      38.193  23.896  26.377  1.00  0.00    -0.192 NA
ENDBRANCH  11  24
ENDBRANCH   9  11
ENDBRANCH   8   9
ENDBRANCH   7   8
ENDBRANCH   6   7
ENDBRANCH   5   6
ENDBRANCH   4   5
ENDBRANCH   3   4
ENDBRANCH   2   3
ENDBRANCH   1   2
BRANCH   1  26
ATOM     26  C   UNL A   1      29.827  29.956  23.546  1.00  0.00     0.188 C 
BRANCH  26  27
ATOM     27  O   UNL A   1      30.383  30.737  24.599  1.00  0.00    -0.376 OA
BRANCH  27  28
ATOM     28  C   UNL A   1      31.423  30.178  25.386  1.00  0.00     0.202 C 
BRANCH  28  29
ATOM     29  C   UNL A   1      31.967  30.997  26.568  1.00  0.00     0.261 C 
BRANCH  29  30
ATOM     30  O   UNL A   1      33.382  30.934  26.782  1.00  0.00    -0.460 OA
BRANCH  30  31
ATOM     31  C   UNL A   1      33.918  31.794  27.674  1.00  0.00     0.338 C 
ATOM     32  O   UNL A   1      33.360  32.743  28.203  1.00  0.00    -0.246 OA
BRANCH  31  33
ATOM     33  C   UNL A   1      35.225  31.246  28.090  1.00  0.00     0.060 A 
ATOM     34  C   UNL A   1      35.295  29.900  28.483  1.00  0.00     0.016 A 
ATOM     35  C   UNL A   1      36.383  32.022  28.013  1.00  0.00     0.016 A 
ATOM     36  C   UNL A   1      36.520  29.334  28.816  1.00  0.00     0.010 A 
ATOM     37  C   UNL A   1      37.607  31.465  28.392  1.00  0.00     0.010 A 
ATOM     38  C   UNL A   1      37.672  30.130  28.824  1.00  0.00    -0.014 A 
BRANCH  38  39
ATOM     39  C   UNL A   1      38.878  29.611  29.506  1.00  0.00     0.031 A 
ATOM     40  C   UNL A   1      39.207  30.161  30.865  1.00  0.00     0.074 A 
ATOM     41  C   UNL A   1      39.630  28.641  28.959  1.00  0.00     0.049 A 
ATOM     42  N   UNL A   1      40.174  29.832  31.680  1.00  0.00    -0.248 NA
ATOM     43  C   UNL A   1      38.322  31.223  31.377  1.00  0.00     0.031 C 
ATOM     44  C   UNL A   1      39.400  28.025  27.654  1.00  0.00     0.029 A 
ATOM     45  N   UNL A   1      40.752  28.015  29.438  1.00  0.00    -0.354 N 
ATOM     46  C   UNL A   1      40.031  30.660  32.786  1.00  0.00     0.074 A 
ATOM     47  C   UNL A   1      38.891  31.514  32.536  1.00  0.00     0.031 C 
ATOM     48  C   UNL A   1      40.371  27.123  27.424  1.00  0.00     0.029 A 
ATOM     49  C   UNL A   1      41.297  27.114  28.556  1.00  0.00     0.049 A 
ATOM     50  H   UNL A   1      41.131  28.194  30.330  1.00  0.00     0.167 HD
ATOM     51  C   UNL A   1      40.772  30.696  33.917  1.00  0.00     0.034 A 
ATOM     52  C   UNL A   1      42.426  26.384  28.648  1.00  0.00     0.034 A 
ATOM     53  C   UNL A   1      41.901  29.842  34.163  1.00  0.00     0.049 A 
ATOM     54  C   UNL A   1      43.254  26.467  29.904  1.00  0.00     0.074 A 
ATOM     55  C   UNL A   1      42.691  29.769  35.295  1.00  0.00     0.029 A 
ATOM     56  N   UNL A   1      42.416  28.929  33.256  1.00  0.00    -0.354 N 
ATOM     57  N   UNL A   1      43.038  27.162  30.995  1.00  0.00    -0.248 NA
ATOM     58  C   UNL A   1      44.466  25.635  29.957  1.00  0.00     0.031 C 
ATOM     59  C   UNL A   1      43.711  28.842  35.056  1.00  0.00     0.029 A 
ATOM     60  C   UNL A   1      43.527  28.303  33.792  1.00  0.00     0.049 A 
ATOM     61  H   UNL A   1      42.045  28.752  32.361  1.00  0.00     0.167 HD
ATOM     62  C   UNL A   1      44.065  26.829  31.873  1.00  0.00     0.074 A 
ATOM     63  C   UNL A   1      44.887  25.848  31.195  1.00  0.00     0.031 C 
ATOM     64  C   UNL A   1      44.316  27.301  33.120  1.00  0.00     0.034 A 
BRANCH  51  65
ATOM     65  C   UNL A   1      40.383  31.695  34.974  1.00  0.00     0.023 A 
ATOM     66  C   UNL A   1      40.970  32.977  34.982  1.00  0.00     0.012 A 
ATOM     67  C   UNL A   1      39.404  31.375  35.934  1.00  0.00     0.148 A 
ATOM     68  C   UNL A   1      40.609  33.915  35.948  1.00  0.00     0.002 A 
ATOM     69  C   UNL A   1      39.015  32.332  36.863  1.00  0.00     0.091 A 
ATOM     70  F   UNL A   1      38.879  30.142  35.927  1.00  0.00    -0.205 F 
ATOM     71  C   UNL A   1      39.625  33.597  36.880  1.00  0.00     0.022 A 
BRANCH  69  72
ATOM     72  S   UNL A   1      37.701  32.047  38.052  1.00  0.00     0.127 S 
ATOM     73  O   UNL A   1      38.415  32.186  39.321  1.00  0.00    -0.237 OA
ATOM     74  O   UNL A   1      36.775  33.139  37.751  1.00  0.00    -0.237 OA
ATOM     75  O   UNL A   1      37.184  30.716  37.772  1.00  0.00    -0.744 OA
ENDBRANCH  69  72
ENDBRANCH  51  65
BRANCH  52  76
ATOM     76  C   UNL A   1      42.833  25.494  27.524  1.00  0.00     0.023 A 
ATOM     77  C   UNL A   1      43.752  25.953  26.561  1.00  0.00     0.012 A 
ATOM     78  C   UNL A   1      42.310  24.192  27.407  1.00  0.00     0.148 A 
ATOM     79  C   UNL A   1      44.119  25.144  25.485  1.00  0.00     0.002 A 
ATOM     80  C   UNL A   1      42.724  23.370  26.366  1.00  0.00     0.091 A 
ATOM     81  F   UNL A   1      41.422  23.780  28.323  1.00  0.00    -0.205 F 
ATOM     82  C   UNL A   1      43.613  23.850  25.393  1.00  0.00     0.022 A 
BRANCH  80  83
ATOM     83  S   UNL A   1      42.224  21.650  26.238  1.00  0.00     0.127 S 
ATOM     84  O   UNL A   1      42.473  21.164  27.593  1.00  0.00    -0.237 OA
ATOM     85  O   UNL A   1      40.810  21.777  25.879  1.00  0.00    -0.237 OA
ATOM     86  O   UNL A   1      43.061  21.071  25.197  1.00  0.00    -0.744 OA
ENDBRANCH  80  83
ENDBRANCH  52  76
BRANCH  64  87
ATOM     87  C   UNL A   1      45.510  26.741  33.852  1.00  0.00     0.023 A 
ATOM     88  C   UNL A   1      46.775  27.344  33.704  1.00  0.00     0.012 A 
ATOM     89  C   UNL A   1      45.366  25.648  34.731  1.00  0.00     0.148 A 
ATOM     90  C   UNL A   1      47.885  26.840  34.381  1.00  0.00     0.002 A 
ATOM     91  C   UNL A   1      46.466  25.185  35.443  1.00  0.00     0.091 A 
ATOM     92  F   UNL A   1      44.159  25.077  34.850  1.00  0.00    -0.205 F 
ATOM     93  C   UNL A   1      47.729  25.769  35.257  1.00  0.00     0.022 A 
BRANCH  91  94
ATOM     94  S   UNL A   1      46.340  23.876  36.667  1.00  0.00     0.127 S 
ATOM     95  O   UNL A   1      45.921  24.619  37.854  1.00  0.00    -0.237 OA
ATOM     96  O   UNL A   1      45.306  23.013  36.092  1.00  0.00    -0.237 OA
ATOM     97  O   UNL A   1      47.659  23.267  36.743  1.00  0.00    -0.744 OA
ENDBRANCH  91  94
ENDBRANCH  64  87
ENDBRANCH  38  39
ENDBRANCH  31  33
ENDBRANCH  30  31
ENDBRANCH  29  30
ENDBRANCH  28  29
ENDBRANCH  27  28
ENDBRANCH  26  27
ENDBRANCH   1  26
TORSDOF 25
ENDMDL
MODEL 3
REMARK VINA RESULT:      -8.7      2.480      3.237
REMARK SMILES C/C(=C(\C#N)C(=O)OCCOCCOCCOCCOC(=O)c1ccc(-c2c3nc(c(-c4cccc(S(=O)(=O)[O-])c4F)c4ccc([nH]4)c(-c4cccc(S(=O)(=O)[O-])c4F)c4nc(c(-c5cccc(S(=O)(=O)[O-])c5F)c5ccc2[nH]5)C=C4)C=C3)cc1)c1cccc2ccccc12
REMARK SMILES IDX 15 1 14 2 13 3 12 4 11 5 10 6 9 7 8 8 6 9 7 10 3 11 1 12
REMARK SMILES IDX 2 13 86 14 87 15 95 16 88 17 90 18 94 19 89 20 91 21 93 22
REMARK SMILES IDX 92 23 4 24 5 25 16 26 17 27 18 28 19 29 20 30 21 31 22 32
REMARK SMILES IDX 23 33 24 34 85 35 25 36 84 37 26 38 27 39 28 40 78 41 29 42
REMARK SMILES IDX 83 43 77 44 79 45 30 46 82 47 76 48 75 49 31 51 63 52 43 53
REMARK SMILES IDX 62 54 44 55 47 56 61 57 80 58 45 59 46 60 60 62 81 63 48 64
REMARK SMILES IDX 32 65 33 66 41 67 34 68 36 69 42 70 35 71 37 72 38 73 39 74
REMARK SMILES IDX 40 75 64 76 65 77 73 78 66 79 68 80 74 81 67 82 69 83 70 84
REMARK SMILES IDX 71 85 72 86 49 87 50 88 58 89 51 90 53 91 59 92 52 93 54 94
REMARK SMILES IDX 55 95 56 96 57 97
REMARK H PARENT 79 50 47 61
REMARK Flexibility Score: inf
ROOT
ATOM      1  C   UNL A   1      30.662  28.442  23.597  1.00  0.00     0.188 C 
ENDROOT
BRANCH   1   2
ATOM      2  O   UNL A   1      31.756  28.334  22.700  1.00  0.00    -0.377 OA
BRANCH   2   3
ATOM      3  C   UNL A   1      32.622  27.237  22.885  1.00  0.00     0.188 C 
BRANCH   3   4
ATOM      4  C   UNL A   1      32.047  25.925  23.475  1.00  0.00     0.188 C 
BRANCH   4   5
ATOM      5  O   UNL A   1      31.791  25.974  24.864  1.00  0.00    -0.376 OA
BRANCH   5   6
ATOM      6  C   UNL A   1      32.823  26.485  25.686  1.00  0.00     0.202 C 
BRANCH   6   7
ATOM      7  C   UNL A   1      34.155  25.719  25.742  1.00  0.00     0.261 C 
BRANCH   7   8
ATOM      8  O   UNL A   1      34.078  24.320  25.431  1.00  0.00    -0.459 OA
BRANCH   8   9
ATOM      9  C   UNL A   1      34.657  23.460  26.300  1.00  0.00     0.349 C 
ATOM     10  O   UNL A   1      34.296  23.264  27.449  1.00  0.00    -0.245 OA
BRANCH   9  11
ATOM     11  C   UNL A   1      35.793  22.759  25.615  1.00  0.00     0.140 C 
ATOM     12  C   UNL A   1      36.831  20.486  25.177  1.00  0.00     0.047 C 
ATOM     13  C   UNL A   1      35.653  21.424  25.269  1.00  0.00    -0.018 C 
BRANCH  13  14
ATOM     14  C   UNL A   1      34.316  20.767  24.962  1.00  0.00    -0.013 A 
ATOM     15  C   UNL A   1      33.847  19.880  25.932  1.00  0.00     0.009 A 
ATOM     16  C   UNL A   1      33.481  20.901  23.808  1.00  0.00    -0.011 A 
ATOM     17  C   UNL A   1      32.964  18.851  25.607  1.00  0.00     0.001 A 
ATOM     18  C   UNL A   1      32.680  19.784  23.433  1.00  0.00    -0.018 A 
ATOM     19  C   UNL A   1      33.243  22.087  23.071  1.00  0.00     0.009 A 
ATOM     20  C   UNL A   1      32.520  18.716  24.305  1.00  0.00     0.009 A 
ATOM     21  C   UNL A   1      31.920  19.780  22.258  1.00  0.00     0.009 A 
ATOM     22  C   UNL A   1      32.295  22.133  22.034  1.00  0.00     0.001 A 
ATOM     23  C   UNL A   1      31.685  20.968  21.585  1.00  0.00     0.001 A 
ENDBRANCH  13  14
BRANCH  11  24
ATOM     24  C   UNL A   1      37.152  23.321  25.998  1.00  0.00     0.107 C 
ATOM     25  N   UNL A   1      38.280  23.788  26.315  1.00  0.00    -0.192 NA
ENDBRANCH  11  24
ENDBRANCH   9  11
ENDBRANCH   8   9
ENDBRANCH   7   8
ENDBRANCH   6   7
ENDBRANCH   5   6
ENDBRANCH   4   5
ENDBRANCH   3   4
ENDBRANCH   2   3
ENDBRANCH   1   2
BRANCH   1  26
ATOM     26  C   UNL A   1      30.120  29.857  23.929  1.00  0.00     0.188 C 
BRANCH  26  27
ATOM     27  O   UNL A   1      30.758  30.541  25.001  1.00  0.00    -0.376 OA
BRANCH  27  28
ATOM     28  C   UNL A   1      31.844  29.911  25.662  1.00  0.00     0.202 C 
BRANCH  28  29
ATOM     29  C   UNL A   1      32.432  30.586  26.912  1.00  0.00     0.261 C 
BRANCH  29  30
ATOM     30  O   UNL A   1      33.847  30.451  27.096  1.00  0.00    -0.460 OA
BRANCH  30  31
ATOM     31  C   UNL A   1      34.466  31.367  27.870  1.00  0.00     0.338 C 
ATOM     32  O   UNL A   1      33.991  32.408  28.295  1.00  0.00    -0.246 OA
BRANCH  31  33
ATOM     33  C   UNL A   1      35.742  30.776  28.324  1.00  0.00     0.060 A 
ATOM     34  C   UNL A   1      35.710  29.799  29.331  1.00  0.00     0.016 A 
ATOM     35  C   UNL A   1      36.947  31.116  27.706  1.00  0.00     0.016 A 
ATOM     36  C   UNL A   1      36.884  29.173  29.734  1.00  0.00     0.010 A 
ATOM     37  C   UNL A   1      38.132  30.520  28.143  1.00  0.00     0.010 A 
ATOM     38  C   UNL A   1      38.106  29.572  29.180  1.00  0.00    -0.014 A 
BRANCH  38  39
ATOM     39  C   UNL A   1      39.353  29.154  29.857  1.00  0.00     0.031 A 
ATOM     40  C   UNL A   1      39.772  29.912  31.085  1.00  0.00     0.074 A 
ATOM     41  C   UNL A   1      40.065  28.099  29.428  1.00  0.00     0.049 A 
ATOM     42  N   UNL A   1      40.789  29.707  31.879  1.00  0.00    -0.248 NA
ATOM     43  C   UNL A   1      38.925  31.054  31.474  1.00  0.00     0.031 C 
ATOM     44  C   UNL A   1      39.749  27.284  28.257  1.00  0.00     0.029 A 
ATOM     45  N   UNL A   1      41.215  27.544  29.929  1.00  0.00    -0.354 N 
ATOM     46  C   UNL A   1      40.720  30.704  32.844  1.00  0.00     0.074 A 
ATOM     47  C   UNL A   1      39.569  31.521  32.532  1.00  0.00     0.031 C 
ATOM     48  C   UNL A   1      40.701  26.343  28.114  1.00  0.00     0.029 A 
ATOM     49  C   UNL A   1      41.699  26.506  29.171  1.00  0.00     0.049 A 
ATOM     50  H   UNL A   1      41.652  27.860  30.753  1.00  0.00     0.167 HD
ATOM     51  C   UNL A   1      41.534  30.912  33.903  1.00  0.00     0.034 A 
ATOM     52  C   UNL A   1      42.830  25.785  29.307  1.00  0.00     0.034 A 
ATOM     53  C   UNL A   1      42.675  30.094  34.212  1.00  0.00     0.049 A 
ATOM     54  C   UNL A   1      43.738  26.059  30.478  1.00  0.00     0.074 A 
ATOM     55  C   UNL A   1      43.537  30.195  35.288  1.00  0.00     0.029 A 
ATOM     56  N   UNL A   1      43.127  29.040  33.433  1.00  0.00    -0.354 N 
ATOM     57  N   UNL A   1      43.595  26.924  31.454  1.00  0.00    -0.248 NA
ATOM     58  C   UNL A   1      44.949  25.231  30.587  1.00  0.00     0.031 C 
ATOM     59  C   UNL A   1      44.537  29.228  35.137  1.00  0.00     0.029 A 
ATOM     60  C   UNL A   1      44.269  28.495  33.992  1.00  0.00     0.049 A 
ATOM     61  H   UNL A   1      42.698  28.727  32.604  1.00  0.00     0.167 HD
ATOM     62  C   UNL A   1      44.677  26.724  32.305  1.00  0.00     0.074 A 
ATOM     63  C   UNL A   1      45.451  25.635  31.745  1.00  0.00     0.031 C 
ATOM     64  C   UNL A   1      45.010  27.388  33.441  1.00  0.00     0.034 A 
BRANCH  51  65
ATOM     65  C   UNL A   1      41.217  32.073  34.808  1.00  0.00     0.023 A 
ATOM     66  C   UNL A   1      41.863  33.312  34.617  1.00  0.00     0.012 A 
ATOM     67  C   UNL A   1      40.247  31.947  35.821  1.00  0.00     0.148 A 
ATOM     68  C   UNL A   1      41.571  34.398  35.440  1.00  0.00     0.002 A 
ATOM     69  C   UNL A   1      39.926  33.048  36.605  1.00  0.00     0.091 A 
ATOM     70  F   UNL A   1      39.665  30.754  36.004  1.00  0.00    -0.205 F 
ATOM     71  C   UNL A   1      40.595  34.270  36.424  1.00  0.00     0.022 A 
BRANCH  69  72
ATOM     72  S   UNL A   1      38.628  33.007  37.844  1.00  0.00     0.127 S 
ATOM     73  O   UNL A   1      39.269  32.247  38.917  1.00  0.00    -0.237 OA
ATOM     74  O   UNL A   1      38.438  34.428  38.135  1.00  0.00    -0.237 OA
ATOM     75  O   UNL A   1      37.488  32.356  37.215  1.00  0.00    -0.744 OA
ENDBRANCH  69  72
ENDBRANCH  51  65
BRANCH  52  76
ATOM     76  C   UNL A   1      43.159  24.720  28.318  1.00  0.00     0.023 A 
ATOM     77  C   UNL A   1      42.419  23.523  28.302  1.00  0.00     0.012 A 
ATOM     78  C   UNL A   1      44.205  24.892  27.391  1.00  0.00     0.148 A 
ATOM     79  C   UNL A   1      42.734  22.503  27.404  1.00  0.00     0.002 A 
ATOM     80  C   UNL A   1      44.477  23.898  26.461  1.00  0.00     0.091 A 
ATOM     81  F   UNL A   1      44.910  26.032  27.436  1.00  0.00    -0.205 F 
ATOM     82  C   UNL A   1      43.756  22.695  26.477  1.00  0.00     0.022 A 
BRANCH  80  83
ATOM     83  S   UNL A   1      45.688  24.106  25.151  1.00  0.00     0.127 S 
ATOM     84  O   UNL A   1      45.290  23.064  24.207  1.00  0.00    -0.237 OA
ATOM     85  O   UNL A   1      45.414  25.475  24.709  1.00  0.00    -0.237 OA
ATOM     86  O   UNL A   1      46.987  23.923  25.781  1.00  0.00    -0.744 OA
ENDBRANCH  80  83
ENDBRANCH  52  76
BRANCH  64  87
ATOM     87  C   UNL A   1      46.248  26.937  34.176  1.00  0.00     0.023 A 
ATOM     88  C   UNL A   1      46.152  25.961  35.188  1.00  0.00     0.012 A 
ATOM     89  C   UNL A   1      47.516  27.444  33.826  1.00  0.00     0.148 A 
ATOM     90  C   UNL A   1      47.290  25.531  35.869  1.00  0.00     0.002 A 
ATOM     91  C   UNL A   1      48.651  26.971  34.472  1.00  0.00     0.091 A 
ATOM     92  F   UNL A   1      47.588  28.382  32.871  1.00  0.00    -0.205 F 
ATOM     93  C   UNL A   1      48.538  26.027  35.505  1.00  0.00     0.022 A 
BRANCH  91  94
ATOM     94  S   UNL A   1      50.309  27.479  34.003  1.00  0.00     0.127 S 
ATOM     95  O   UNL A   1      51.131  26.720  34.943  1.00  0.00    -0.237 OA
ATOM     96  O   UNL A   1      50.392  27.022  32.614  1.00  0.00    -0.237 OA
ATOM     97  O   UNL A   1      50.348  28.926  34.164  1.00  0.00    -0.744 OA
ENDBRANCH  91  94
ENDBRANCH  64  87
ENDBRANCH  38  39
ENDBRANCH  31  33
ENDBRANCH  30  31
ENDBRANCH  29  30
ENDBRANCH  28  29
ENDBRANCH  27  28
ENDBRANCH  26  27
ENDBRANCH   1  26
TORSDOF 25
ENDMDL
