MODEL 1
REMARK VINA RESULT:      -5.0      0.000      0.000
REMARK SMILES CCCCCCNC(=O)Oc1cccc(-c2ccc([C@@H](C)C(=O)OCCOCCOCCOCCOC(=O)c3ccc(-c4c5nc(c(-c6cccc(S(=O)(=O)[O-])c6F)c6ccc([nH]6)c(-c6cccc(S(=O)(=O)[O-])c6F)c6nc(c(-c7cccc(S(=O)(=O)[O-])c7F)c7ccc4[nH]7)C=C6)C=C5)cc3)cc2F)c1
REMARK SMILES IDX 27 1 26 2 25 3 24 4 22 5 23 6 20 7 21 8 19 9 16 10 17 11
REMARK SMILES IDX 103 12 18 13 102 14 104 15 15 16 11 17 12 18 105 19 13 20
REMARK SMILES IDX 14 21 10 22 8 23 7 24 9 26 6 27 5 28 4 29 3 30 2 31 1 32
REMARK SMILES IDX 28 33 29 34 30 35 31 36 32 37 33 38 34 39 35 40 36 41 37 42
REMARK SMILES IDX 38 43 39 44 40 45 101 46 41 47 100 48 42 49 43 50 44 51
REMARK SMILES IDX 94 52 45 53 99 54 93 55 95 56 46 57 98 58 92 59 91 60 47 62
REMARK SMILES IDX 79 63 59 64 78 65 60 66 63 67 77 68 96 69 61 70 62 71 76 73
REMARK SMILES IDX 97 74 64 75 48 76 49 77 57 78 50 79 52 80 58 81 51 82 53 83
REMARK SMILES IDX 54 84 55 85 56 86 80 87 81 88 89 89 82 90 84 91 90 92 83 93
REMARK SMILES IDX 85 94 86 95 87 96 88 97 65 98 66 99 74 100 67 101 69 102
REMARK SMILES IDX 75 103 68 104 70 105 71 106 72 107 73 108
REMARK H PARENT 7 25 95 61 63 72
REMARK Flexibility Score: inf
ROOT
ATOM      1  O   UNL A   1      42.969  28.621  27.863  1.00  0.00    -0.376 OA
ENDROOT
BRANCH   1   2
ATOM      2  C   UNL A   1      43.439  27.362  28.329  1.00  0.00     0.202 C 
BRANCH   2   3
ATOM      3  C   UNL A   1      44.444  27.271  29.492  1.00  0.00     0.261 C 
BRANCH   3   4
ATOM      4  O   UNL A   1      43.936  26.800  30.758  1.00  0.00    -0.463 OA
BRANCH   4   5
ATOM      5  C   UNL A   1      44.766  26.904  31.820  1.00  0.00     0.313 C 
ATOM      6  O   UNL A   1      45.986  26.760  31.744  1.00  0.00    -0.252 OA
BRANCH   5   7
ATOM      7  C   UNL A   1      44.101  27.202  33.164  1.00  0.00     0.126 C 
ATOM      8  C   UNL A   1      43.957  25.894  33.933  1.00  0.00     0.025 C 
BRANCH   7   9
ATOM      9  C   UNL A   1      42.829  28.048  33.251  1.00  0.00    -0.031 A 
ATOM     10  C   UNL A   1      40.365  29.525  33.421  1.00  0.00     0.018 A 
ATOM     11  C   UNL A   1      41.618  30.142  33.611  1.00  0.00     0.012 A 
ATOM     12  C   UNL A   1      40.381  28.156  33.140  1.00  0.00     0.131 A 
ATOM     13  C   UNL A   1      42.827  29.419  33.528  1.00  0.00     0.005 A 
ATOM     14  C   UNL A   1      41.578  27.433  33.040  1.00  0.00     0.044 A 
ATOM     15  F   UNL A   1      39.229  27.492  32.943  1.00  0.00    -0.206 F 
BRANCH  10  16
ATOM     16  C   UNL A   1      39.108  30.304  33.470  1.00  0.00    -0.012 A 
ATOM     17  C   UNL A   1      37.680  32.035  34.426  1.00  0.00     0.133 A 
ATOM     18  C   UNL A   1      36.664  31.738  33.521  1.00  0.00     0.047 A 
ATOM     19  C   UNL A   1      38.885  31.320  34.420  1.00  0.00     0.056 A 
ATOM     20  C   UNL A   1      36.863  30.731  32.581  1.00  0.00     0.004 A 
ATOM     21  C   UNL A   1      38.071  30.025  32.557  1.00  0.00     0.009 A 
BRANCH  17  22
ATOM     22  O   UNL A   1      37.390  33.000  35.408  1.00  0.00    -0.410 OA
BRANCH  22  23
ATOM     23  C   UNL A   1      38.255  34.080  35.499  1.00  0.00     0.412 C 
ATOM     24  N   UNL A   1      39.041  34.070  36.621  1.00  0.00    -0.321 N 
ATOM     25  H   UNL A   1      39.740  34.762  36.669  1.00  0.00     0.167 HD
ATOM     26  O   UNL A   1      38.357  34.990  34.686  1.00  0.00    -0.224 OA
BRANCH  24  27
ATOM     27  C   UNL A   1      38.958  33.161  37.744  1.00  0.00     0.119 C 
BRANCH  27  28
ATOM     28  C   UNL A   1      39.584  33.742  39.014  1.00  0.00     0.021 C 
BRANCH  28  29
ATOM     29  C   UNL A   1      39.192  35.191  39.330  1.00  0.00     0.002 C 
BRANCH  29  30
ATOM     30  C   UNL A   1      40.355  36.157  39.591  1.00  0.00    -0.000 C 
BRANCH  30  31
ATOM     31  C   UNL A   1      40.053  37.638  39.349  1.00  0.00    -0.003 C 
ATOM     32  C   UNL A   1      38.660  38.055  39.798  1.00  0.00     0.004 C 
ENDBRANCH  30  31
ENDBRANCH  29  30
ENDBRANCH  28  29
ENDBRANCH  27  28
ENDBRANCH  24  27
ENDBRANCH  22  23
ENDBRANCH  17  22
ENDBRANCH  10  16
ENDBRANCH   7   9
ENDBRANCH   5   7
ENDBRANCH   4   5
ENDBRANCH   3   4
ENDBRANCH   2   3
ENDBRANCH   1   2
BRANCH   1  33
ATOM     33  C   UNL A   1      41.808  29.216  28.429  1.00  0.00     0.188 C 
BRANCH  33  34
ATOM     34  C   UNL A   1      41.046  28.544  29.580  1.00  0.00     0.188 C 
BRANCH  34  35
ATOM     35  O   UNL A   1      39.759  29.066  29.823  1.00  0.00    -0.377 OA
BRANCH  35  36
ATOM     36  C   UNL A   1      38.657  28.268  29.427  1.00  0.00     0.188 C 
BRANCH  36  37
ATOM     37  C   UNL A   1      37.726  28.854  28.348  1.00  0.00     0.188 C 
BRANCH  37  38
ATOM     38  O   UNL A   1      36.620  29.589  28.865  1.00  0.00    -0.376 OA
BRANCH  38  39
ATOM     39  C   UNL A   1      35.767  30.248  27.937  1.00  0.00     0.202 C 
BRANCH  39  40
ATOM     40  C   UNL A   1      35.823  31.782  27.876  1.00  0.00     0.261 C 
BRANCH  40  41
ATOM     41  O   UNL A   1      36.940  32.395  28.532  1.00  0.00    -0.460 OA
BRANCH  41  42
ATOM     42  C   UNL A   1      36.756  32.959  29.745  1.00  0.00     0.338 C 
ATOM     43  O   UNL A   1      35.727  33.016  30.378  1.00  0.00    -0.246 OA
BRANCH  42  44
ATOM     44  C   UNL A   1      38.104  33.279  30.278  1.00  0.00     0.060 A 
ATOM     45  C   UNL A   1      38.261  34.418  31.078  1.00  0.00     0.016 A 
ATOM     46  C   UNL A   1      39.196  32.451  30.013  1.00  0.00     0.016 A 
ATOM     47  C   UNL A   1      39.516  34.748  31.595  1.00  0.00     0.010 A 
ATOM     48  C   UNL A   1      40.459  32.798  30.505  1.00  0.00     0.010 A 
ATOM     49  C   UNL A   1      40.630  33.962  31.277  1.00  0.00    -0.014 A 
BRANCH  49  50
ATOM     50  C   UNL A   1      41.997  34.441  31.602  1.00  0.00     0.031 A 
ATOM     51  C   UNL A   1      42.538  34.185  32.980  1.00  0.00     0.074 A 
ATOM     52  C   UNL A   1      42.737  35.117  30.705  1.00  0.00     0.049 A 
ATOM     53  N   UNL A   1      43.663  34.579  33.517  1.00  0.00    -0.248 NA
ATOM     54  C   UNL A   1      41.692  33.379  33.875  1.00  0.00     0.031 C 
ATOM     55  C   UNL A   1      42.335  35.418  29.333  1.00  0.00     0.029 A 
ATOM     56  N   UNL A   1      43.972  35.706  30.834  1.00  0.00    -0.354 N 
ATOM     57  C   UNL A   1      43.642  34.109  34.824  1.00  0.00     0.074 A 
ATOM     58  C   UNL A   1      42.395  33.394  34.996  1.00  0.00     0.031 C 
ATOM     59  C   UNL A   1      43.283  36.180  28.761  1.00  0.00     0.029 A 
ATOM     60  C   UNL A   1      44.339  36.450  29.737  1.00  0.00     0.049 A 
ATOM     61  H   UNL A   1      44.537  35.608  31.634  1.00  0.00     0.167 HD
ATOM     62  C   UNL A   1      44.575  34.258  35.794  1.00  0.00     0.034 A 
ATOM     63  C   UNL A   1      45.381  37.286  29.556  1.00  0.00     0.034 A 
ATOM     64  C   UNL A   1      45.817  34.961  35.620  1.00  0.00     0.049 A 
ATOM     65  C   UNL A   1      46.389  37.473  30.663  1.00  0.00     0.074 A 
ATOM     66  C   UNL A   1      46.859  35.099  36.519  1.00  0.00     0.029 A 
ATOM     67  N   UNL A   1      46.171  35.672  34.484  1.00  0.00    -0.354 N 
ATOM     68  N   UNL A   1      46.428  36.909  31.847  1.00  0.00    -0.248 NA
ATOM     69  C   UNL A   1      47.505  38.394  30.403  1.00  0.00     0.031 C 
ATOM     70  C   UNL A   1      47.820  35.938  35.947  1.00  0.00     0.029 A 
ATOM     71  C   UNL A   1      47.396  36.288  34.674  1.00  0.00     0.049 A 
ATOM     72  H   UNL A   1      45.629  35.732  33.664  1.00  0.00     0.167 HD
ATOM     73  C   UNL A   1      47.578  37.393  32.465  1.00  0.00     0.074 A 
ATOM     74  C   UNL A   1      48.223  38.273  31.512  1.00  0.00     0.031 C 
ATOM     75  C   UNL A   1      48.048  37.141  33.713  1.00  0.00     0.034 A 
BRANCH  62  76
ATOM     76  C   UNL A   1      44.276  33.656  37.143  1.00  0.00     0.023 A 
ATOM     77  C   UNL A   1      43.449  34.342  38.055  1.00  0.00     0.012 A 
ATOM     78  C   UNL A   1      44.791  32.393  37.490  1.00  0.00     0.148 A 
ATOM     79  C   UNL A   1      43.174  33.797  39.309  1.00  0.00     0.002 A 
ATOM     80  C   UNL A   1      44.474  31.835  38.723  1.00  0.00     0.091 A 
ATOM     81  F   UNL A   1      45.596  31.768  36.618  1.00  0.00    -0.205 F 
ATOM     82  C   UNL A   1      43.679  32.542  39.639  1.00  0.00     0.022 A 
BRANCH  80  83
ATOM     83  S   UNL A   1      45.011  30.191  39.205  1.00  0.00     0.127 S 
ATOM     84  O   UNL A   1      44.449  30.080  40.550  1.00  0.00    -0.237 OA
ATOM     85  O   UNL A   1      44.358  29.349  38.202  1.00  0.00    -0.237 OA
ATOM     86  O   UNL A   1      46.465  30.205  39.134  1.00  0.00    -0.744 OA
ENDBRANCH  80  83
ENDBRANCH  62  76
BRANCH  63  87
ATOM     87  C   UNL A   1      45.513  38.028  28.270  1.00  0.00     0.023 A 
ATOM     88  C   UNL A   1      46.315  37.507  27.238  1.00  0.00     0.012 A 
ATOM     89  C   UNL A   1      44.814  39.233  28.056  1.00  0.00     0.148 A 
ATOM     90  C   UNL A   1      46.432  38.180  26.021  1.00  0.00     0.002 A 
ATOM     91  C   UNL A   1      44.889  39.868  26.823  1.00  0.00     0.091 A 
ATOM     92  F   UNL A   1      44.071  39.722  29.059  1.00  0.00    -0.205 F 
ATOM     93  C   UNL A   1      45.710  39.353  25.809  1.00  0.00     0.022 A 
BRANCH  91  94
ATOM     94  S   UNL A   1      43.892  41.305  26.414  1.00  0.00     0.127 S 
ATOM     95  O   UNL A   1      44.167  41.465  24.988  1.00  0.00    -0.237 OA
ATOM     96  O   UNL A   1      42.544  40.832  26.733  1.00  0.00    -0.237 OA
ATOM     97  O   UNL A   1      44.372  42.380  27.270  1.00  0.00    -0.744 OA
ENDBRANCH  91  94
ENDBRANCH  63  87
BRANCH  75  98
ATOM     98  C   UNL A   1      49.328  37.817  34.136  1.00  0.00     0.023 A 
ATOM     99  C   UNL A   1      50.566  37.197  33.874  1.00  0.00     0.012 A 
ATOM    100  C   UNL A   1      49.311  39.107  34.705  1.00  0.00     0.148 A 
ATOM    101  C   UNL A   1      51.764  37.836  34.195  1.00  0.00     0.002 A 
ATOM    102  C   UNL A   1      50.508  39.758  34.978  1.00  0.00     0.091 A 
ATOM    103  F   UNL A   1      48.124  39.677  34.958  1.00  0.00    -0.205 F 
ATOM    104  C   UNL A   1      51.735  39.120  34.735  1.00  0.00     0.022 A 
BRANCH 102 105
ATOM    105  S   UNL A   1      50.578  41.448  35.585  1.00  0.00     0.127 S 
ATOM    106  O   UNL A   1      51.925  41.853  35.185  1.00  0.00    -0.237 OA
ATOM    107  O   UNL A   1      49.500  42.091  34.832  1.00  0.00    -0.237 OA
ATOM    108  O   UNL A   1      50.355  41.373  37.022  1.00  0.00    -0.744 OA
ENDBRANCH 102 105
ENDBRANCH  75  98
ENDBRANCH  49  50
ENDBRANCH  42  44
ENDBRANCH  41  42
ENDBRANCH  40  41
ENDBRANCH  39  40
ENDBRANCH  38  39
ENDBRANCH  37  38
ENDBRANCH  36  37
ENDBRANCH  35  36
ENDBRANCH  34  35
ENDBRANCH  33  34
ENDBRANCH   1  33
TORSDOF 32
ENDMDL
MODEL 2
REMARK VINA RESULT:      -4.9      3.025      6.937
REMARK SMILES CCCCCCNC(=O)Oc1cccc(-c2ccc([C@@H](C)C(=O)OCCOCCOCCOCCOC(=O)c3ccc(-c4c5nc(c(-c6cccc(S(=O)(=O)[O-])c6F)c6ccc([nH]6)c(-c6cccc(S(=O)(=O)[O-])c6F)c6nc(c(-c7cccc(S(=O)(=O)[O-])c7F)c7ccc4[nH]7)C=C6)C=C5)cc3)cc2F)c1
REMARK SMILES IDX 27 1 26 2 25 3 24 4 22 5 23 6 20 7 21 8 19 9 16 10 17 11
REMARK SMILES IDX 103 12 18 13 102 14 104 15 15 16 11 17 12 18 105 19 13 20
REMARK SMILES IDX 14 21 10 22 8 23 7 24 9 26 6 27 5 28 4 29 3 30 2 31 1 32
REMARK SMILES IDX 28 33 29 34 30 35 31 36 32 37 33 38 34 39 35 40 36 41 37 42
REMARK SMILES IDX 38 43 39 44 40 45 101 46 41 47 100 48 42 49 43 50 44 51
REMARK SMILES IDX 94 52 45 53 99 54 93 55 95 56 46 57 98 58 92 59 91 60 47 62
REMARK SMILES IDX 79 63 59 64 78 65 60 66 63 67 77 68 96 69 61 70 62 71 76 73
REMARK SMILES IDX 97 74 64 75 48 76 49 77 57 78 50 79 52 80 58 81 51 82 53 83
REMARK SMILES IDX 54 84 55 85 56 86 80 87 81 88 89 89 82 90 84 91 90 92 83 93
REMARK SMILES IDX 85 94 86 95 87 96 88 97 65 98 66 99 74 100 67 101 69 102
REMARK SMILES IDX 75 103 68 104 70 105 71 106 72 107 73 108
REMARK H PARENT 7 25 95 61 63 72
REMARK Flexibility Score: inf
ROOT
ATOM      1  O   UNL A   1      42.263  28.374  26.835  1.00  0.00    -0.376 OA
ENDROOT
BRANCH   1   2
ATOM      2  C   UNL A   1      42.834  27.387  27.685  1.00  0.00     0.202 C 
BRANCH   2   3
ATOM      3  C   UNL A   1      44.056  27.708  28.566  1.00  0.00     0.261 C 
BRANCH   3   4
ATOM      4  O   UNL A   1      43.851  27.699  29.994  1.00  0.00    -0.463 OA
BRANCH   4   5
ATOM      5  C   UNL A   1      44.932  27.966  30.762  1.00  0.00     0.313 C 
ATOM      6  O   UNL A   1      46.073  28.071  30.314  1.00  0.00    -0.252 OA
BRANCH   5   7
ATOM      7  C   UNL A   1      44.668  28.119  32.260  1.00  0.00     0.126 C 
ATOM      8  C   UNL A   1      44.876  26.765  32.929  1.00  0.00     0.025 C 
BRANCH   7   9
ATOM      9  C   UNL A   1      43.408  28.813  32.778  1.00  0.00    -0.031 A 
ATOM     10  C   UNL A   1      40.979  30.000  33.767  1.00  0.00     0.018 A 
ATOM     11  C   UNL A   1      42.177  30.734  33.661  1.00  0.00     0.012 A 
ATOM     12  C   UNL A   1      41.029  28.664  33.361  1.00  0.00     0.131 A 
ATOM     13  C   UNL A   1      43.369  30.154  33.176  1.00  0.00     0.005 A 
ATOM     14  C   UNL A   1      42.204  28.083  32.864  1.00  0.00     0.044 A 
ATOM     15  F   UNL A   1      39.930  27.894  33.429  1.00  0.00    -0.206 F 
BRANCH  10  16
ATOM     16  C   UNL A   1      39.727  30.633  34.238  1.00  0.00    -0.012 A 
ATOM     17  C   UNL A   1      38.369  31.711  35.953  1.00  0.00     0.133 A 
ATOM     18  C   UNL A   1      37.290  31.811  35.078  1.00  0.00     0.047 A 
ATOM     19  C   UNL A   1      39.572  31.115  35.552  1.00  0.00     0.056 A 
ATOM     20  C   UNL A   1      37.422  31.331  33.779  1.00  0.00     0.004 A 
ATOM     21  C   UNL A   1      38.626  30.751  33.365  1.00  0.00     0.009 A 
BRANCH  17  22
ATOM     22  O   UNL A   1      38.150  32.132  37.278  1.00  0.00    -0.410 OA
BRANCH  22  23
ATOM     23  C   UNL A   1      37.509  31.237  38.121  1.00  0.00     0.412 C 
ATOM     24  N   UNL A   1      37.093  31.788  39.304  1.00  0.00    -0.321 N 
ATOM     25  H   UNL A   1      36.542  31.213  39.883  1.00  0.00     0.167 HD
ATOM     26  O   UNL A   1      37.301  30.053  37.889  1.00  0.00    -0.224 OA
BRANCH  24  27
ATOM     27  C   UNL A   1      37.374  33.119  39.801  1.00  0.00     0.119 C 
BRANCH  27  28
ATOM     28  C   UNL A   1      36.669  33.407  41.128  1.00  0.00     0.021 C 
BRANCH  28  29
ATOM     29  C   UNL A   1      35.769  32.279  41.649  1.00  0.00     0.002 C 
BRANCH  29  30
ATOM     30  C   UNL A   1      36.204  31.631  42.969  1.00  0.00    -0.000 C 
BRANCH  30  31
ATOM     31  C   UNL A   1      37.228  30.499  42.844  1.00  0.00    -0.003 C 
ATOM     32  C   UNL A   1      38.390  30.622  43.817  1.00  0.00     0.004 C 
ENDBRANCH  30  31
ENDBRANCH  29  30
ENDBRANCH  28  29
ENDBRANCH  27  28
ENDBRANCH  24  27
ENDBRANCH  22  23
ENDBRANCH  17  22
ENDBRANCH  10  16
ENDBRANCH   7   9
ENDBRANCH   5   7
ENDBRANCH   4   5
ENDBRANCH   3   4
ENDBRANCH   2   3
ENDBRANCH   1   2
BRANCH   1  33
ATOM     33  C   UNL A   1      41.136  29.131  27.259  1.00  0.00     0.188 C 
BRANCH  33  34
ATOM     34  C   UNL A   1      40.536  28.955  28.660  1.00  0.00     0.188 C 
BRANCH  34  35
ATOM     35  O   UNL A   1      39.336  29.659  28.884  1.00  0.00    -0.377 OA
BRANCH  35  36
ATOM     36  C   UNL A   1      38.129  28.928  28.758  1.00  0.00     0.188 C 
BRANCH  36  37
ATOM     37  C   UNL A   1      37.080  29.481  27.773  1.00  0.00     0.188 C 
BRANCH  37  38
ATOM     38  O   UNL A   1      35.849  29.863  28.381  1.00  0.00    -0.376 OA
BRANCH  38  39
ATOM     39  C   UNL A   1      34.834  30.406  27.545  1.00  0.00     0.202 C 
BRANCH  39  40
ATOM     40  C   UNL A   1      34.553  31.913  27.645  1.00  0.00     0.261 C 
BRANCH  40  41
ATOM     41  O   UNL A   1      35.505  32.680  28.391  1.00  0.00    -0.460 OA
BRANCH  41  42
ATOM     42  C   UNL A   1      35.180  33.094  29.636  1.00  0.00     0.338 C 
ATOM     43  O   UNL A   1      34.087  33.069  30.153  1.00  0.00    -0.246 OA
BRANCH  42  44
ATOM     44  C   UNL A   1      36.456  33.356  30.347  1.00  0.00     0.060 A 
ATOM     45  C   UNL A   1      36.465  34.283  31.398  1.00  0.00     0.016 A 
ATOM     46  C   UNL A   1      37.623  32.674  30.001  1.00  0.00     0.016 A 
ATOM     47  C   UNL A   1      37.649  34.552  32.088  1.00  0.00     0.010 A 
ATOM     48  C   UNL A   1      38.816  32.967  30.673  1.00  0.00     0.010 A 
ATOM     49  C   UNL A   1      38.839  33.926  31.702  1.00  0.00    -0.014 A 
BRANCH  49  50
ATOM     50  C   UNL A   1      40.137  34.392  32.251  1.00  0.00     0.031 A 
ATOM     51  C   UNL A   1      41.336  34.408  31.344  1.00  0.00     0.074 A 
ATOM     52  C   UNL A   1      40.264  34.769  33.536  1.00  0.00     0.049 A 
ATOM     53  N   UNL A   1      42.582  34.693  31.618  1.00  0.00    -0.248 NA
ATOM     54  C   UNL A   1      41.095  34.048  29.937  1.00  0.00     0.031 C 
ATOM     55  C   UNL A   1      39.180  34.813  34.514  1.00  0.00     0.029 A 
ATOM     56  N   UNL A   1      41.378  35.148  34.246  1.00  0.00    -0.354 N 
ATOM     57  C   UNL A   1      43.282  34.504  30.433  1.00  0.00     0.074 A 
ATOM     58  C   UNL A   1      42.319  34.087  29.435  1.00  0.00     0.031 C 
ATOM     59  C   UNL A   1      39.690  35.149  35.711  1.00  0.00     0.029 A 
ATOM     60  C   UNL A   1      41.139  35.307  35.591  1.00  0.00     0.049 A 
ATOM     61  H   UNL A   1      42.261  35.289  33.833  1.00  0.00     0.167 HD
ATOM     62  C   UNL A   1      44.605  34.663  30.194  1.00  0.00     0.034 A 
ATOM     63  C   UNL A   1      41.995  35.513  36.613  1.00  0.00     0.034 A 
ATOM     64  C   UNL A   1      45.559  35.084  31.184  1.00  0.00     0.049 A 
ATOM     65  C   UNL A   1      43.471  35.645  36.335  1.00  0.00     0.074 A 
ATOM     66  C   UNL A   1      46.907  35.348  31.019  1.00  0.00     0.029 A 
ATOM     67  N   UNL A   1      45.276  35.271  32.527  1.00  0.00    -0.354 N 
ATOM     68  N   UNL A   1      44.101  35.604  35.185  1.00  0.00    -0.248 NA
ATOM     69  C   UNL A   1      44.352  35.873  37.491  1.00  0.00     0.031 C 
ATOM     70  C   UNL A   1      47.450  35.642  32.274  1.00  0.00     0.029 A 
ATOM     71  C   UNL A   1      46.431  35.605  33.213  1.00  0.00     0.049 A 
ATOM     72  H   UNL A   1      44.384  35.178  32.935  1.00  0.00     0.167 HD
ATOM     73  C   UNL A   1      45.446  35.816  35.476  1.00  0.00     0.074 A 
ATOM     74  C   UNL A   1      45.535  36.016  36.908  1.00  0.00     0.031 C 
ATOM     75  C   UNL A   1      46.510  35.830  34.635  1.00  0.00     0.034 A 
BRANCH  62  76
ATOM     76  C   UNL A   1      45.101  34.362  28.804  1.00  0.00     0.023 A 
ATOM     77  C   UNL A   1      45.110  35.373  27.822  1.00  0.00     0.012 A 
ATOM     78  C   UNL A   1      45.588  33.080  28.483  1.00  0.00     0.148 A 
ATOM     79  C   UNL A   1      45.558  35.101  26.530  1.00  0.00     0.002 A 
ATOM     80  C   UNL A   1      46.078  32.830  27.206  1.00  0.00     0.091 A 
ATOM     81  F   UNL A   1      45.548  32.125  29.423  1.00  0.00    -0.205 F 
ATOM     82  C   UNL A   1      46.050  33.834  26.225  1.00  0.00     0.022 A 
BRANCH  80  83
ATOM     83  S   UNL A   1      46.804  31.255  26.743  1.00  0.00     0.127 S 
ATOM     84  O   UNL A   1      46.507  30.437  27.918  1.00  0.00    -0.237 OA
ATOM     85  O   UNL A   1      46.038  30.904  25.547  1.00  0.00    -0.237 OA
ATOM     86  O   UNL A   1      48.216  31.517  26.505  1.00  0.00    -0.744 OA
ENDBRANCH  80  83
ENDBRANCH  62  76
BRANCH  63  87
ATOM     87  C   UNL A   1      41.470  35.588  38.007  1.00  0.00     0.023 A 
ATOM     88  C   UNL A   1      40.805  36.748  38.444  1.00  0.00     0.012 A 
ATOM     89  C   UNL A   1      41.598  34.495  38.887  1.00  0.00     0.148 A 
ATOM     90  C   UNL A   1      40.291  36.826  39.740  1.00  0.00     0.002 A 
ATOM     91  C   UNL A   1      41.033  34.557  40.154  1.00  0.00     0.091 A 
ATOM     92  F   UNL A   1      42.251  33.407  38.456  1.00  0.00    -0.205 F 
ATOM     93  C   UNL A   1      40.394  35.727  40.590  1.00  0.00     0.022 A 
BRANCH  91  94
ATOM     94  S   UNL A   1      40.999  33.146  41.266  1.00  0.00     0.127 S 
ATOM     95  O   UNL A   1      40.282  32.154  40.469  1.00  0.00    -0.237 OA
ATOM     96  O   UNL A   1      42.426  32.877  41.448  1.00  0.00    -0.237 OA
ATOM     97  O   UNL A   1      40.313  33.601  42.467  1.00  0.00    -0.744 OA
ENDBRANCH  91  94
ENDBRANCH  63  87
BRANCH  75  98
ATOM     98  C   UNL A   1      47.876  36.073  35.226  1.00  0.00     0.023 A 
ATOM     99  C   UNL A   1      48.593  35.002  35.796  1.00  0.00     0.012 A 
ATOM    100  C   UNL A   1      48.489  37.340  35.133  1.00  0.00     0.148 A 
ATOM    101  C   UNL A   1      49.885  35.192  36.288  1.00  0.00     0.002 A 
ATOM    102  C   UNL A   1      49.795  37.510  35.580  1.00  0.00     0.091 A 
ATOM    103  F   UNL A   1      47.788  38.350  34.598  1.00  0.00    -0.205 F 
ATOM    104  C   UNL A   1      50.489  36.441  36.168  1.00  0.00     0.022 A 
BRANCH 102 105
ATOM    105  S   UNL A   1      50.693  39.054  35.384  1.00  0.00     0.127 S 
ATOM    106  O   UNL A   1      50.525  39.317  33.955  1.00  0.00    -0.237 OA
ATOM    107  O   UNL A   1      49.949  39.958  36.262  1.00  0.00    -0.237 OA
ATOM    108  O   UNL A   1      52.060  38.784  35.807  1.00  0.00    -0.744 OA
ENDBRANCH 102 105
ENDBRANCH  75  98
ENDBRANCH  49  50
ENDBRANCH  42  44
ENDBRANCH  41  42
ENDBRANCH  40  41
ENDBRANCH  39  40
ENDBRANCH  38  39
ENDBRANCH  37  38
ENDBRANCH  36  37
ENDBRANCH  35  36
ENDBRANCH  34  35
ENDBRANCH  33  34
ENDBRANCH   1  33
TORSDOF 32
ENDMDL
MODEL 3
REMARK VINA RESULT:      -4.9      5.662     15.487
REMARK SMILES CCCCCCNC(=O)Oc1cccc(-c2ccc([C@@H](C)C(=O)OCCOCCOCCOCCOC(=O)c3ccc(-c4c5nc(c(-c6cccc(S(=O)(=O)[O-])c6F)c6ccc([nH]6)c(-c6cccc(S(=O)(=O)[O-])c6F)c6nc(c(-c7cccc(S(=O)(=O)[O-])c7F)c7ccc4[nH]7)C=C6)C=C5)cc3)cc2F)c1
REMARK SMILES IDX 27 1 26 2 25 3 24 4 22 5 23 6 20 7 21 8 19 9 16 10 17 11
REMARK SMILES IDX 103 12 18 13 102 14 104 15 15 16 11 17 12 18 105 19 13 20
REMARK SMILES IDX 14 21 10 22 8 23 7 24 9 26 6 27 5 28 4 29 3 30 2 31 1 32
REMARK SMILES IDX 28 33 29 34 30 35 31 36 32 37 33 38 34 39 35 40 36 41 37 42
REMARK SMILES IDX 38 43 39 44 40 45 101 46 41 47 100 48 42 49 43 50 44 51
REMARK SMILES IDX 94 52 45 53 99 54 93 55 95 56 46 57 98 58 92 59 91 60 47 62
REMARK SMILES IDX 79 63 59 64 78 65 60 66 63 67 77 68 96 69 61 70 62 71 76 73
REMARK SMILES IDX 97 74 64 75 48 76 49 77 57 78 50 79 52 80 58 81 51 82 53 83
REMARK SMILES IDX 54 84 55 85 56 86 80 87 81 88 89 89 82 90 84 91 90 92 83 93
REMARK SMILES IDX 85 94 86 95 87 96 88 97 65 98 66 99 74 100 67 101 69 102
REMARK SMILES IDX 75 103 68 104 70 105 71 106 72 107 73 108
REMARK H PARENT 7 25 95 61 63 72
REMARK Flexibility Score: inf
ROOT
ATOM      1  O   UNL A   1      44.440  43.793  33.409  1.00  0.00    -0.376 OA
ENDROOT
BRANCH   1   2
ATOM      2  C   UNL A   1      44.165  44.554  32.240  1.00  0.00     0.202 C 
BRANCH   2   3
ATOM      3  C   UNL A   1      43.622  43.882  30.965  1.00  0.00     0.261 C 
BRANCH   3   4
ATOM      4  O   UNL A   1      42.853  42.674  31.140  1.00  0.00    -0.463 OA
BRANCH   4   5
ATOM      5  C   UNL A   1      43.507  41.507  30.944  1.00  0.00     0.313 C 
ATOM      6  O   UNL A   1      44.300  41.028  31.755  1.00  0.00    -0.252 OA
BRANCH   5   7
ATOM      7  C   UNL A   1      43.222  40.793  29.622  1.00  0.00     0.126 C 
ATOM      8  C   UNL A   1      43.403  39.294  29.832  1.00  0.00     0.025 C 
BRANCH   7   9
ATOM      9  C   UNL A   1      43.862  41.258  28.313  1.00  0.00    -0.031 A 
ATOM     10  C   UNL A   1      45.184  42.150  25.917  1.00  0.00     0.018 A 
ATOM     11  C   UNL A   1      43.920  41.526  25.883  1.00  0.00     0.012 A 
ATOM     12  C   UNL A   1      45.761  42.318  27.178  1.00  0.00     0.131 A 
ATOM     13  C   UNL A   1      43.270  41.089  27.057  1.00  0.00     0.005 A 
ATOM     14  C   UNL A   1      45.117  41.901  28.351  1.00  0.00     0.044 A 
ATOM     15  F   UNL A   1      46.964  42.906  27.299  1.00  0.00    -0.206 F 
BRANCH  10  16
ATOM     16  C   UNL A   1      45.834  42.641  24.682  1.00  0.00    -0.012 A 
ATOM     17  C   UNL A   1      45.893  42.988  22.268  1.00  0.00     0.133 A 
ATOM     18  C   UNL A   1      47.149  43.583  22.355  1.00  0.00     0.047 A 
ATOM     19  C   UNL A   1      45.242  42.504  23.411  1.00  0.00     0.056 A 
ATOM     20  C   UNL A   1      47.753  43.718  23.601  1.00  0.00     0.004 A 
ATOM     21  C   UNL A   1      47.101  43.253  24.749  1.00  0.00     0.009 A 
BRANCH  17  22
ATOM     22  O   UNL A   1      45.371  42.798  20.975  1.00  0.00    -0.410 OA
BRANCH  22  23
ATOM     23  C   UNL A   1      46.156  43.223  19.915  1.00  0.00     0.412 C 
ATOM     24  N   UNL A   1      45.779  44.432  19.393  1.00  0.00    -0.321 N 
ATOM     25  H   UNL A   1      46.374  44.816  18.709  1.00  0.00     0.167 HD
ATOM     26  O   UNL A   1      47.111  42.621  19.441  1.00  0.00    -0.224 OA
BRANCH  24  27
ATOM     27  C   UNL A   1      44.604  45.208  19.730  1.00  0.00     0.119 C 
BRANCH  27  28
ATOM     28  C   UNL A   1      43.583  45.246  18.591  1.00  0.00     0.021 C 
BRANCH  28  29
ATOM     29  C   UNL A   1      43.152  43.876  18.053  1.00  0.00     0.002 C 
BRANCH  29  30
ATOM     30  C   UNL A   1      42.460  42.949  19.061  1.00  0.00    -0.000 C 
BRANCH  30  31
ATOM     31  C   UNL A   1      41.596  43.646  20.116  1.00  0.00    -0.003 C 
ATOM     32  C   UNL A   1      41.789  43.093  21.520  1.00  0.00     0.004 C 
ENDBRANCH  30  31
ENDBRANCH  29  30
ENDBRANCH  28  29
ENDBRANCH  27  28
ENDBRANCH  24  27
ENDBRANCH  22  23
ENDBRANCH  17  22
ENDBRANCH  10  16
ENDBRANCH   7   9
ENDBRANCH   5   7
ENDBRANCH   4   5
ENDBRANCH   3   4
ENDBRANCH   2   3
ENDBRANCH   1   2
BRANCH   1  33
ATOM     33  C   UNL A   1      45.564  44.100  34.226  1.00  0.00     0.188 C 
BRANCH  33  34
ATOM     34  C   UNL A   1      46.905  43.377  34.044  1.00  0.00     0.188 C 
BRANCH  34  35
ATOM     35  O   UNL A   1      46.920  42.037  34.480  1.00  0.00    -0.377 OA
BRANCH  35  36
ATOM     36  C   UNL A   1      47.803  41.717  35.541  1.00  0.00     0.188 C 
BRANCH  36  37
ATOM     37  C   UNL A   1      47.552  40.386  36.277  1.00  0.00     0.188 C 
BRANCH  37  38
ATOM     38  O   UNL A   1      47.138  39.317  35.430  1.00  0.00    -0.376 OA
BRANCH  38  39
ATOM     39  C   UNL A   1      47.718  38.036  35.644  1.00  0.00     0.202 C 
BRANCH  39  40
ATOM     40  C   UNL A   1      47.313  37.269  36.913  1.00  0.00     0.261 C 
BRANCH  40  41
ATOM     41  O   UNL A   1      46.362  36.213  36.731  1.00  0.00    -0.460 OA
BRANCH  41  42
ATOM     42  C   UNL A   1      46.480  35.092  37.476  1.00  0.00     0.338 C 
ATOM     43  O   UNL A   1      46.510  35.015  38.683  1.00  0.00    -0.246 OA
BRANCH  42  44
ATOM     44  C   UNL A   1      46.313  33.944  36.551  1.00  0.00     0.060 A 
ATOM     45  C   UNL A   1      47.454  33.368  35.976  1.00  0.00     0.016 A 
ATOM     46  C   UNL A   1      45.048  33.423  36.274  1.00  0.00     0.016 A 
ATOM     47  C   UNL A   1      47.332  32.286  35.102  1.00  0.00     0.010 A 
ATOM     48  C   UNL A   1      44.924  32.358  35.374  1.00  0.00     0.010 A 
ATOM     49  C   UNL A   1      46.063  31.802  34.764  1.00  0.00    -0.014 A 
BRANCH  49  50
ATOM     50  C   UNL A   1      45.908  30.834  33.649  1.00  0.00     0.031 A 
ATOM     51  C   UNL A   1      45.781  31.367  32.249  1.00  0.00     0.074 A 
ATOM     52  C   UNL A   1      45.852  29.509  33.870  1.00  0.00     0.049 A 
ATOM     53  N   UNL A   1      45.556  30.724  31.133  1.00  0.00    -0.248 NA
ATOM     54  C   UNL A   1      45.923  32.823  32.089  1.00  0.00     0.031 C 
ATOM     55  C   UNL A   1      45.976  28.864  35.175  1.00  0.00     0.029 A 
ATOM     56  N   UNL A   1      45.634  28.470  32.997  1.00  0.00    -0.354 N 
ATOM     57  C   UNL A   1      45.484  31.698  30.145  1.00  0.00     0.074 A 
ATOM     58  C   UNL A   1      45.697  32.975  30.794  1.00  0.00     0.031 C 
ATOM     59  C   UNL A   1      45.783  27.543  35.025  1.00  0.00     0.029 A 
ATOM     60  C   UNL A   1      45.485  27.254  33.622  1.00  0.00     0.049 A 
ATOM     61  H   UNL A   1      45.588  28.585  32.020  1.00  0.00     0.167 HD
ATOM     62  C   UNL A   1      45.260  31.547  28.819  1.00  0.00     0.034 A 
ATOM     63  C   UNL A   1      45.108  26.057  33.128  1.00  0.00     0.034 A 
ATOM     64  C   UNL A   1      45.056  30.278  28.174  1.00  0.00     0.049 A 
ATOM     65  C   UNL A   1      44.822  25.914  31.655  1.00  0.00     0.074 A 
ATOM     66  C   UNL A   1      44.899  30.015  26.825  1.00  0.00     0.029 A 
ATOM     67  N   UNL A   1      44.946  29.064  28.833  1.00  0.00    -0.354 N 
ATOM     68  N   UNL A   1      44.897  26.820  30.708  1.00  0.00    -0.248 NA
ATOM     69  C   UNL A   1      44.421  24.582  31.177  1.00  0.00     0.031 C 
ATOM     70  C   UNL A   1      44.641  28.649  26.674  1.00  0.00     0.029 A 
ATOM     71  C   UNL A   1      44.680  28.053  27.925  1.00  0.00     0.049 A 
ATOM     72  H   UNL A   1      45.041  28.939  29.806  1.00  0.00     0.167 HD
ATOM     73  C   UNL A   1      44.568  26.165  29.524  1.00  0.00     0.074 A 
ATOM     74  C   UNL A   1      44.324  24.780  29.869  1.00  0.00     0.031 C 
ATOM     75  C   UNL A   1      44.465  26.671  28.269  1.00  0.00     0.034 A 
BRANCH  62  76
ATOM     76  C   UNL A   1      45.210  32.794  27.976  1.00  0.00     0.023 A 
ATOM     77  C   UNL A   1      43.973  33.408  27.693  1.00  0.00     0.012 A 
ATOM     78  C   UNL A   1      46.398  33.375  27.492  1.00  0.00     0.148 A 
ATOM     79  C   UNL A   1      43.917  34.557  26.905  1.00  0.00     0.002 A 
ATOM     80  C   UNL A   1      46.337  34.548  26.748  1.00  0.00     0.091 A 
ATOM     81  F   UNL A   1      47.563  32.763  27.751  1.00  0.00    -0.205 F 
ATOM     82  C   UNL A   1      45.097  35.131  26.442  1.00  0.00     0.022 A 
BRANCH  80  83
ATOM     83  S   UNL A   1      47.807  35.405  26.175  1.00  0.00     0.127 S 
ATOM     84  O   UNL A   1      48.647  35.381  27.372  1.00  0.00    -0.237 OA
ATOM     85  O   UNL A   1      48.267  34.534  25.092  1.00  0.00    -0.237 OA
ATOM     86  O   UNL A   1      47.363  36.724  25.747  1.00  0.00    -0.744 OA
ENDBRANCH  80  83
ENDBRANCH  62  76
BRANCH  63  87
ATOM     87  C   UNL A   1      44.963  24.894  34.051  1.00  0.00     0.023 A 
ATOM     88  C   UNL A   1      43.688  24.520  34.513  1.00  0.00     0.012 A 
ATOM     89  C   UNL A   1      46.086  24.137  34.440  1.00  0.00     0.148 A 
ATOM     90  C   UNL A   1      43.535  23.422  35.361  1.00  0.00     0.002 A 
ATOM     91  C   UNL A   1      45.920  23.011  35.236  1.00  0.00     0.091 A 
ATOM     92  F   UNL A   1      47.294  24.522  34.004  1.00  0.00    -0.205 F 
ATOM     93  C   UNL A   1      44.648  22.660  35.712  1.00  0.00     0.022 A 
BRANCH  91  94
ATOM     94  S   UNL A   1      47.273  21.896  35.628  1.00  0.00     0.127 S 
ATOM     95  O   UNL A   1      47.696  21.459  34.300  1.00  0.00    -0.237 OA
ATOM     96  O   UNL A   1      48.209  22.793  36.309  1.00  0.00    -0.237 OA
ATOM     97  O   UNL A   1      46.704  20.860  36.478  1.00  0.00    -0.744 OA
ENDBRANCH  91  94
ENDBRANCH  63  87
BRANCH  75  98
ATOM     98  C   UNL A   1      44.075  25.728  27.157  1.00  0.00     0.023 A 
ATOM     99  C   UNL A   1      42.741  25.696  26.704  1.00  0.00     0.012 A 
ATOM    100  C   UNL A   1      45.046  24.946  26.499  1.00  0.00     0.148 A 
ATOM    101  C   UNL A   1      42.374  24.882  25.632  1.00  0.00     0.002 A 
ATOM    102  C   UNL A   1      44.683  24.174  25.401  1.00  0.00     0.091 A 
ATOM    103  F   UNL A   1      46.308  24.981  26.951  1.00  0.00    -0.205 F 
ATOM    104  C   UNL A   1      43.346  24.132  24.974  1.00  0.00     0.022 A 
BRANCH 102 105
ATOM    105  S   UNL A   1      45.877  23.248  24.429  1.00  0.00     0.127 S 
ATOM    106  O   UNL A   1      46.345  22.257  25.397  1.00  0.00    -0.237 OA
ATOM    107  O   UNL A   1      45.046  22.705  23.354  1.00  0.00    -0.237 OA
ATOM    108  O   UNL A   1      46.880  24.211  23.995  1.00  0.00    -0.744 OA
ENDBRANCH 102 105
ENDBRANCH  75  98
ENDBRANCH  49  50
ENDBRANCH  42  44
ENDBRANCH  41  42
ENDBRANCH  40  41
ENDBRANCH  39  40
ENDBRANCH  38  39
ENDBRANCH  37  38
ENDBRANCH  36  37
ENDBRANCH  35  36
ENDBRANCH  34  35
ENDBRANCH  33  34
ENDBRANCH   1  33
TORSDOF 32
ENDMDL
