MODEL 1
REMARK VINA RESULT:      -9.3      0.000      0.000
REMARK SMILES C[N@H+](Cc1cc(Cl)ccc1[N+](=O)[O-])[C@H]1COC[C@@H]1C(=O)OCCOCCOCCOCCOC(=O)c1ccc(-c2c3nc(c(-c4cccc(S(=O)(=O)[O-])c4F)c4ccc([nH]4)c(-c4cccc(S(=O)(=O)[O-])c4F)c4nc(c(-c5cccc(S(=O)(=O)[O-])c5F)c5ccc2[nH]5)C=C4)C=C3)cc1
REMARK SMILES IDX 26 1 25 2 24 3 23 4 22 5 21 6 19 7 20 8 18 9 14 10 15 11
REMARK SMILES IDX 16 12 17 13 2 14 1 15 3 17 4 18 5 19 10 20 6 21 9 22 7 23
REMARK SMILES IDX 8 24 11 25 12 26 13 27 27 28 28 29 29 30 30 31 31 32 32 33
REMARK SMILES IDX 33 34 34 35 35 36 36 37 37 38 98 39 38 40 97 41 39 42 40 43
REMARK SMILES IDX 41 44 91 45 42 46 96 47 90 48 92 49 43 50 95 51 89 52 88 53
REMARK SMILES IDX 44 55 76 56 56 57 75 58 57 59 60 60 74 61 93 62 58 63 59 64
REMARK SMILES IDX 73 66 94 67 61 68 45 69 46 70 54 71 47 72 49 73 55 74 48 75
REMARK SMILES IDX 50 76 51 77 52 78 53 79 77 80 78 81 86 82 79 83 81 84 87 85
REMARK SMILES IDX 80 86 82 87 83 88 84 89 85 90 62 91 63 92 71 93 64 94 66 95
REMARK SMILES IDX 72 96 65 97 67 98 68 99 69 100 70 101
REMARK H PARENT 2 16 92 54 60 65
REMARK Flexibility Score: inf
ROOT
ATOM      1  C   UNL A   1      39.611  22.965  27.201  1.00  0.00     0.188 C 
ENDROOT
BRANCH   1   2
ATOM      2  C   UNL A   1      38.840  24.117  26.533  1.00  0.00     0.188 C 
BRANCH   2   3
ATOM      3  O   UNL A   1      37.911  23.738  25.540  1.00  0.00    -0.376 OA
BRANCH   3   4
ATOM      4  C   UNL A   1      36.725  23.022  25.854  1.00  0.00     0.202 C 
BRANCH   4   5
ATOM      5  C   UNL A   1      35.278  23.565  25.835  1.00  0.00     0.261 C 
BRANCH   5   6
ATOM      6  O   UNL A   1      34.305  22.912  25.018  1.00  0.00    -0.463 OA
BRANCH   6   7
ATOM      7  C   UNL A   1      33.265  22.296  25.628  1.00  0.00     0.317 C 
ATOM      8  O   UNL A   1      33.382  21.430  26.483  1.00  0.00    -0.252 OA
BRANCH   7   9
ATOM      9  C   UNL A   1      31.955  22.934  25.165  1.00  0.00     0.185 C 
ATOM     10  C   UNL A   1      32.040  24.468  25.161  1.00  0.00     0.227 C 
ATOM     11  C   UNL A   1      31.774  24.716  26.664  1.00  0.00     0.226 C 
ATOM     12  O   UNL A   1      30.887  23.689  27.135  1.00  0.00    -0.374 OA
ATOM     13  C   UNL A   1      30.867  22.634  26.164  1.00  0.00     0.182 C 
BRANCH  10  14
ATOM     14  N   UNL A   1      31.048  25.196  24.286  1.00  0.00    -0.328 N 
ATOM     15  C   UNL A   1      30.383  24.291  23.335  1.00  0.00     0.333 C 
ATOM     16  H   UNL A   1      30.336  25.588  24.903  1.00  0.00     0.348 HD
BRANCH  14  17
ATOM     17  C   UNL A   1      31.724  26.288  23.534  1.00  0.00     0.306 C 
BRANCH  17  18
ATOM     18  C   UNL A   1      31.070  27.650  23.708  1.00  0.00     0.085 A 
ATOM     19  C   UNL A   1      29.986  27.981  22.869  1.00  0.00     0.037 A 
ATOM     20  C   UNL A   1      31.511  28.637  24.613  1.00  0.00     0.278 A 
ATOM     21  C   UNL A   1      29.386  29.243  22.931  1.00  0.00     0.042 A 
ATOM     22  C   UNL A   1      30.937  29.919  24.649  1.00  0.00     0.088 A 
ATOM     23  Cl  UNL A   1      28.038  29.600  21.924  1.00  0.00    -0.084 Cl
ATOM     24  C   UNL A   1      29.869  30.218  23.802  1.00  0.00     0.027 A 
BRANCH  20  25
ATOM     25  N   UNL A   1      32.587  28.377  25.561  1.00  0.00     0.063 N 
ATOM     26  O   UNL A   1      32.264  27.995  26.695  1.00  0.00    -0.258 OA
ATOM     27  O   UNL A   1      33.749  28.519  25.159  1.00  0.00    -0.258 OA
ENDBRANCH  20  25
ENDBRANCH  17  18
ENDBRANCH  14  17
ENDBRANCH  10  14
ENDBRANCH   7   9
ENDBRANCH   6   7
ENDBRANCH   5   6
ENDBRANCH   4   5
ENDBRANCH   3   4
ENDBRANCH   2   3
ENDBRANCH   1   2
BRANCH   1  28
ATOM     28  O   UNL A   1      40.726  23.399  27.953  1.00  0.00    -0.377 OA
BRANCH  28  29
ATOM     29  C   UNL A   1      41.984  22.795  27.677  1.00  0.00     0.188 C 
BRANCH  29  30
ATOM     30  C   UNL A   1      42.084  21.581  26.726  1.00  0.00     0.188 C 
BRANCH  30  31
ATOM     31  O   UNL A   1      41.999  20.315  27.371  1.00  0.00    -0.376 OA
BRANCH  31  32
ATOM     32  C   UNL A   1      41.876  19.150  26.572  1.00  0.00     0.202 C 
BRANCH  32  33
ATOM     33  C   UNL A   1      43.124  18.716  25.791  1.00  0.00     0.261 C 
BRANCH  33  34
ATOM     34  O   UNL A   1      43.403  19.454  24.594  1.00  0.00    -0.460 OA
BRANCH  34  35
ATOM     35  C   UNL A   1      44.698  19.606  24.245  1.00  0.00     0.338 C 
ATOM     36  O   UNL A   1      45.393  18.805  23.641  1.00  0.00    -0.246 OA
BRANCH  35  37
ATOM     37  C   UNL A   1      45.082  21.001  24.543  1.00  0.00     0.060 A 
ATOM     38  C   UNL A   1      45.678  21.294  25.776  1.00  0.00     0.016 A 
ATOM     39  C   UNL A   1      44.872  22.010  23.599  1.00  0.00     0.016 A 
ATOM     40  C   UNL A   1      46.035  22.607  26.085  1.00  0.00     0.010 A 
ATOM     41  C   UNL A   1      45.208  23.327  23.919  1.00  0.00     0.010 A 
ATOM     42  C   UNL A   1      45.757  23.636  25.177  1.00  0.00    -0.014 A 
BRANCH  42  43
ATOM     43  C   UNL A   1      45.846  25.049  25.618  1.00  0.00     0.031 A 
ATOM     44  C   UNL A   1      47.210  25.681  25.699  1.00  0.00     0.074 A 
ATOM     45  C   UNL A   1      44.748  25.759  25.938  1.00  0.00     0.049 A 
ATOM     46  N   UNL A   1      47.549  26.875  26.107  1.00  0.00    -0.248 NA
ATOM     47  C   UNL A   1      48.346  24.851  25.258  1.00  0.00     0.031 C 
ATOM     48  C   UNL A   1      43.374  25.264  25.884  1.00  0.00     0.029 A 
ATOM     49  N   UNL A   1      44.626  27.046  26.399  1.00  0.00    -0.354 N 
ATOM     50  C   UNL A   1      48.933  26.932  25.999  1.00  0.00     0.074 A 
ATOM     51  C   UNL A   1      49.376  25.650  25.499  1.00  0.00     0.031 C 
ATOM     52  C   UNL A   1      42.548  26.228  26.330  1.00  0.00     0.029 A 
ATOM     53  C   UNL A   1      43.337  27.393  26.727  1.00  0.00     0.049 A 
ATOM     54  H   UNL A   1      45.390  27.662  26.487  1.00  0.00     0.167 HD
ATOM     55  C   UNL A   1      49.763  27.964  26.276  1.00  0.00     0.034 A 
ATOM     56  C   UNL A   1      42.857  28.511  27.310  1.00  0.00     0.034 A 
ATOM     57  C   UNL A   1      49.322  29.242  26.763  1.00  0.00     0.049 A 
ATOM     58  C   UNL A   1      43.813  29.630  27.654  1.00  0.00     0.074 A 
ATOM     59  C   UNL A   1      50.083  30.362  27.048  1.00  0.00     0.029 A 
ATOM     60  N   UNL A   1      48.005  29.568  27.050  1.00  0.00    -0.354 N 
ATOM     61  N   UNL A   1      45.106  29.706  27.451  1.00  0.00    -0.248 NA
ATOM     62  C   UNL A   1      43.235  30.829  28.279  1.00  0.00     0.031 C 
ATOM     63  C   UNL A   1      49.230  31.355  27.539  1.00  0.00     0.029 A 
ATOM     64  C   UNL A   1      47.932  30.868  27.517  1.00  0.00     0.049 A 
ATOM     65  H   UNL A   1      47.237  28.964  26.936  1.00  0.00     0.167 HD
ATOM     66  C   UNL A   1      45.485  30.974  27.879  1.00  0.00     0.074 A 
ATOM     67  C   UNL A   1      44.283  31.640  28.334  1.00  0.00     0.031 C 
ATOM     68  C   UNL A   1      46.719  31.538  27.906  1.00  0.00     0.034 A 
BRANCH  55  69
ATOM     69  C   UNL A   1      51.236  27.766  26.040  1.00  0.00     0.023 A 
ATOM     70  C   UNL A   1      52.092  27.528  27.134  1.00  0.00     0.012 A 
ATOM     71  C   UNL A   1      51.758  27.740  24.732  1.00  0.00     0.148 A 
ATOM     72  C   UNL A   1      53.451  27.291  26.932  1.00  0.00     0.002 A 
ATOM     73  C   UNL A   1      53.104  27.456  24.536  1.00  0.00     0.091 A 
ATOM     74  F   UNL A   1      50.929  27.989  23.709  1.00  0.00    -0.205 F 
ATOM     75  C   UNL A   1      53.953  27.242  25.633  1.00  0.00     0.022 A 
BRANCH  73  76
ATOM     76  S   UNL A   1      53.833  27.293  22.903  1.00  0.00     0.127 S 
ATOM     77  O   UNL A   1      55.188  26.850  23.228  1.00  0.00    -0.237 OA
ATOM     78  O   UNL A   1      52.986  26.268  22.292  1.00  0.00    -0.237 OA
ATOM     79  O   UNL A   1      53.743  28.609  22.285  1.00  0.00    -0.744 OA
ENDBRANCH  73  76
ENDBRANCH  55  69
BRANCH  56  80
ATOM     80  C   UNL A   1      41.402  28.649  27.608  1.00  0.00     0.023 A 
ATOM     81  C   UNL A   1      40.523  29.112  26.609  1.00  0.00     0.012 A 
ATOM     82  C   UNL A   1      40.892  28.360  28.889  1.00  0.00     0.148 A 
ATOM     83  C   UNL A   1      39.174  29.332  26.893  1.00  0.00     0.002 A 
ATOM     84  C   UNL A   1      39.535  28.523  29.148  1.00  0.00     0.091 A 
ATOM     85  F   UNL A   1      41.744  27.938  29.833  1.00  0.00    -0.205 F 
ATOM     86  C   UNL A   1      38.679  29.031  28.160  1.00  0.00     0.022 A 
BRANCH  84  87
ATOM     87  S   UNL A   1      38.791  28.044  30.710  1.00  0.00     0.127 S 
ATOM     88  O   UNL A   1      37.475  28.671  30.619  1.00  0.00    -0.237 OA
ATOM     89  O   UNL A   1      38.787  26.585  30.605  1.00  0.00    -0.237 OA
ATOM     90  O   UNL A   1      39.674  28.569  31.743  1.00  0.00    -0.744 OA
ENDBRANCH  84  87
ENDBRANCH  56  80
BRANCH  68  91
ATOM     91  C   UNL A   1      46.833  32.964  28.379  1.00  0.00     0.023 A 
ATOM     92  C   UNL A   1      47.059  33.243  29.742  1.00  0.00     0.012 A 
ATOM     93  C   UNL A   1      46.792  34.027  27.453  1.00  0.00     0.148 A 
ATOM     94  C   UNL A   1      47.201  34.560  30.180  1.00  0.00     0.002 A 
ATOM     95  C   UNL A   1      46.989  35.330  27.890  1.00  0.00     0.091 A 
ATOM     96  F   UNL A   1      46.562  33.741  26.164  1.00  0.00    -0.205 F 
ATOM     97  C   UNL A   1      47.177  35.600  29.255  1.00  0.00     0.022 A 
BRANCH  95  98
ATOM     98  S   UNL A   1      47.076  36.723  26.760  1.00  0.00     0.127 S 
ATOM     99  O   UNL A   1      45.662  37.034  26.559  1.00  0.00    -0.237 OA
ATOM    100  O   UNL A   1      47.812  37.713  27.546  1.00  0.00    -0.237 OA
ATOM    101  O   UNL A   1      47.781  36.242  25.580  1.00  0.00    -0.744 OA
ENDBRANCH  95  98
ENDBRANCH  68  91
ENDBRANCH  42  43
ENDBRANCH  35  37
ENDBRANCH  34  35
ENDBRANCH  33  34
ENDBRANCH  32  33
ENDBRANCH  31  32
ENDBRANCH  30  31
ENDBRANCH  29  30
ENDBRANCH  28  29
ENDBRANCH   1  28
TORSDOF 27
ENDMDL
MODEL 2
REMARK VINA RESULT:      -9.0      2.070      7.827
REMARK SMILES C[N@H+](Cc1cc(Cl)ccc1[N+](=O)[O-])[C@H]1COC[C@@H]1C(=O)OCCOCCOCCOCCOC(=O)c1ccc(-c2c3nc(c(-c4cccc(S(=O)(=O)[O-])c4F)c4ccc([nH]4)c(-c4cccc(S(=O)(=O)[O-])c4F)c4nc(c(-c5cccc(S(=O)(=O)[O-])c5F)c5ccc2[nH]5)C=C4)C=C3)cc1
REMARK SMILES IDX 26 1 25 2 24 3 23 4 22 5 21 6 19 7 20 8 18 9 14 10 15 11
REMARK SMILES IDX 16 12 17 13 2 14 1 15 3 17 4 18 5 19 10 20 6 21 9 22 7 23
REMARK SMILES IDX 8 24 11 25 12 26 13 27 27 28 28 29 29 30 30 31 31 32 32 33
REMARK SMILES IDX 33 34 34 35 35 36 36 37 37 38 98 39 38 40 97 41 39 42 40 43
REMARK SMILES IDX 41 44 91 45 42 46 96 47 90 48 92 49 43 50 95 51 89 52 88 53
REMARK SMILES IDX 44 55 76 56 56 57 75 58 57 59 60 60 74 61 93 62 58 63 59 64
REMARK SMILES IDX 73 66 94 67 61 68 45 69 46 70 54 71 47 72 49 73 55 74 48 75
REMARK SMILES IDX 50 76 51 77 52 78 53 79 77 80 78 81 86 82 79 83 81 84 87 85
REMARK SMILES IDX 80 86 82 87 83 88 84 89 85 90 62 91 63 92 71 93 64 94 66 95
REMARK SMILES IDX 72 96 65 97 67 98 68 99 69 100 70 101
REMARK H PARENT 2 16 92 54 60 65
REMARK Flexibility Score: inf
ROOT
ATOM      1  C   UNL A   1      38.239  23.714  26.120  1.00  0.00     0.188 C 
ENDROOT
BRANCH   1   2
ATOM      2  C   UNL A   1      37.248  22.554  25.925  1.00  0.00     0.188 C 
BRANCH   2   3
ATOM      3  O   UNL A   1      35.898  22.925  25.738  1.00  0.00    -0.376 OA
BRANCH   3   4
ATOM      4  C   UNL A   1      35.532  24.203  25.238  1.00  0.00     0.202 C 
BRANCH   4   5
ATOM      5  C   UNL A   1      34.347  25.080  25.702  1.00  0.00     0.261 C 
BRANCH   5   6
ATOM      6  O   UNL A   1      34.221  26.404  25.182  1.00  0.00    -0.463 OA
BRANCH   6   7
ATOM      7  C   UNL A   1      33.753  27.373  26.003  1.00  0.00     0.317 C 
ATOM      8  O   UNL A   1      34.446  28.250  26.498  1.00  0.00    -0.252 OA
BRANCH   7   9
ATOM      9  C   UNL A   1      32.233  27.258  26.110  1.00  0.00     0.185 C 
ATOM     10  C   UNL A   1      31.582  27.024  24.738  1.00  0.00     0.227 C 
ATOM     11  C   UNL A   1      31.561  28.489  24.243  1.00  0.00     0.226 C 
ATOM     12  O   UNL A   1      31.387  29.343  25.384  1.00  0.00    -0.374 OA
ATOM     13  C   UNL A   1      31.658  28.575  26.564  1.00  0.00     0.182 C 
BRANCH  10  14
ATOM     14  N   UNL A   1      30.203  26.411  24.741  1.00  0.00    -0.328 N 
ATOM     15  C   UNL A   1      29.971  25.582  25.935  1.00  0.00     0.333 C 
ATOM     16  H   UNL A   1      29.534  27.181  24.754  1.00  0.00     0.348 HD
BRANCH  14  17
ATOM     17  C   UNL A   1      30.001  25.583  23.521  1.00  0.00     0.306 C 
BRANCH  17  18
ATOM     18  C   UNL A   1      31.086  24.541  23.299  1.00  0.00     0.085 A 
ATOM     19  C   UNL A   1      31.050  23.365  24.076  1.00  0.00     0.037 A 
ATOM     20  C   UNL A   1      32.169  24.694  22.409  1.00  0.00     0.278 A 
ATOM     21  C   UNL A   1      32.057  22.400  23.971  1.00  0.00     0.042 A 
ATOM     22  C   UNL A   1      33.203  23.745  22.331  1.00  0.00     0.088 A 
ATOM     23  Cl  UNL A   1      31.960  20.957  24.901  1.00  0.00    -0.084 Cl
ATOM     24  C   UNL A   1      33.141  22.594  23.117  1.00  0.00     0.027 A 
BRANCH  20  25
ATOM     25  N   UNL A   1      32.271  25.846  21.522  1.00  0.00     0.063 N 
ATOM     26  O   UNL A   1      31.235  26.490  21.308  1.00  0.00    -0.258 OA
ATOM     27  O   UNL A   1      33.391  26.123  21.074  1.00  0.00    -0.258 OA
ENDBRANCH  20  25
ENDBRANCH  17  18
ENDBRANCH  14  17
ENDBRANCH  10  14
ENDBRANCH   7   9
ENDBRANCH   6   7
ENDBRANCH   5   6
ENDBRANCH   4   5
ENDBRANCH   3   4
ENDBRANCH   2   3
ENDBRANCH   1   2
BRANCH   1  28
ATOM     28  O   UNL A   1      39.269  23.423  27.042  1.00  0.00    -0.377 OA
BRANCH  28  29
ATOM     29  C   UNL A   1      40.436  22.778  26.547  1.00  0.00     0.188 C 
BRANCH  29  30
ATOM     30  C   UNL A   1      41.223  21.784  27.432  1.00  0.00     0.188 C 
BRANCH  30  31
ATOM     31  O   UNL A   1      40.823  20.424  27.294  1.00  0.00    -0.376 OA
BRANCH  31  32
ATOM     32  C   UNL A   1      41.825  19.427  27.197  1.00  0.00     0.202 C 
BRANCH  32  33
ATOM     33  C   UNL A   1      42.362  19.122  25.792  1.00  0.00     0.261 C 
BRANCH  33  34
ATOM     34  O   UNL A   1      43.787  19.159  25.643  1.00  0.00    -0.460 OA
BRANCH  34  35
ATOM     35  C   UNL A   1      44.290  19.960  24.680  1.00  0.00     0.338 C 
ATOM     36  O   UNL A   1      44.494  19.665  23.513  1.00  0.00    -0.246 OA
BRANCH  35  37
ATOM     37  C   UNL A   1      44.365  21.329  25.230  1.00  0.00     0.060 A 
ATOM     38  C   UNL A   1      43.964  22.406  24.428  1.00  0.00     0.016 A 
ATOM     39  C   UNL A   1      44.808  21.545  26.537  1.00  0.00     0.016 A 
ATOM     40  C   UNL A   1      44.040  23.709  24.921  1.00  0.00     0.010 A 
ATOM     41  C   UNL A   1      44.905  22.852  27.020  1.00  0.00     0.010 A 
ATOM     42  C   UNL A   1      44.556  23.941  26.201  1.00  0.00    -0.014 A 
BRANCH  42  43
ATOM     43  C   UNL A   1      44.925  25.319  26.606  1.00  0.00     0.031 A 
ATOM     44  C   UNL A   1      43.842  26.210  27.155  1.00  0.00     0.074 A 
ATOM     45  C   UNL A   1      46.187  25.773  26.495  1.00  0.00     0.049 A 
ATOM     46  N   UNL A   1      43.904  27.462  27.523  1.00  0.00    -0.248 NA
ATOM     47  C   UNL A   1      42.508  25.602  27.310  1.00  0.00     0.031 C 
ATOM     48  C   UNL A   1      47.324  25.003  25.995  1.00  0.00     0.029 A 
ATOM     49  N   UNL A   1      46.714  27.010  26.774  1.00  0.00    -0.354 N 
ATOM     50  C   UNL A   1      42.618  27.800  27.925  1.00  0.00     0.074 A 
ATOM     51  C   UNL A   1      41.791  26.628  27.747  1.00  0.00     0.031 C 
ATOM     52  C   UNL A   1      48.410  25.797  25.971  1.00  0.00     0.029 A 
ATOM     53  C   UNL A   1      48.037  27.135  26.424  1.00  0.00     0.049 A 
ATOM     54  H   UNL A   1      46.193  27.738  27.186  1.00  0.00     0.167 HD
ATOM     55  C   UNL A   1      42.167  28.978  28.415  1.00  0.00     0.034 A 
ATOM     56  C   UNL A   1      48.843  28.218  26.440  1.00  0.00     0.034 A 
ATOM     57  C   UNL A   1      42.990  30.140  28.603  1.00  0.00     0.049 A 
ATOM     58  C   UNL A   1      48.299  29.533  26.947  1.00  0.00     0.074 A 
ATOM     59  C   UNL A   1      42.633  31.373  29.119  1.00  0.00     0.029 A 
ATOM     60  N   UNL A   1      44.334  30.219  28.270  1.00  0.00    -0.354 N 
ATOM     61  N   UNL A   1      47.108  29.810  27.419  1.00  0.00    -0.248 NA
ATOM     62  C   UNL A   1      49.223  30.677  26.951  1.00  0.00     0.031 C 
ATOM     63  C   UNL A   1      43.752  32.209  29.066  1.00  0.00     0.029 A 
ATOM     64  C   UNL A   1      44.818  31.482  28.560  1.00  0.00     0.049 A 
ATOM     65  H   UNL A   1      44.864  29.485  27.885  1.00  0.00     0.167 HD
ATOM     66  C   UNL A   1      47.156  31.142  27.818  1.00  0.00     0.074 A 
ATOM     67  C   UNL A   1      48.498  31.611  27.551  1.00  0.00     0.031 C 
ATOM     68  C   UNL A   1      46.174  31.915  28.348  1.00  0.00     0.034 A 
BRANCH  55  69
ATOM     69  C   UNL A   1      40.716  29.068  28.806  1.00  0.00     0.023 A 
ATOM     70  C   UNL A   1      39.726  29.132  27.804  1.00  0.00     0.012 A 
ATOM     71  C   UNL A   1      40.330  29.012  30.159  1.00  0.00     0.148 A 
ATOM     72  C   UNL A   1      38.375  29.164  28.145  1.00  0.00     0.002 A 
ATOM     73  C   UNL A   1      38.981  28.997  30.489  1.00  0.00     0.091 A 
ATOM     74  F   UNL A   1      41.289  28.973  31.094  1.00  0.00    -0.205 F 
ATOM     75  C   UNL A   1      38.002  29.084  29.485  1.00  0.00     0.022 A 
BRANCH  73  76
ATOM     76  S   UNL A   1      38.395  28.817  32.177  1.00  0.00     0.127 S 
ATOM     77  O   UNL A   1      36.973  29.121  32.031  1.00  0.00    -0.237 OA
ATOM     78  O   UNL A   1      38.694  27.411  32.454  1.00  0.00    -0.237 OA
ATOM     79  O   UNL A   1      39.155  29.771  32.973  1.00  0.00    -0.744 OA
ENDBRANCH  73  76
ENDBRANCH  55  69
BRANCH  56  80
ATOM     80  C   UNL A   1      50.256  28.120  25.970  1.00  0.00     0.023 A 
ATOM     81  C   UNL A   1      50.545  28.227  24.595  1.00  0.00     0.012 A 
ATOM     82  C   UNL A   1      51.308  27.884  26.875  1.00  0.00     0.148 A 
ATOM     83  C   UNL A   1      51.848  28.051  24.126  1.00  0.00     0.002 A 
ATOM     84  C   UNL A   1      52.613  27.770  26.407  1.00  0.00     0.091 A 
ATOM     85  F   UNL A   1      51.013  27.766  28.177  1.00  0.00    -0.205 F 
ATOM     86  C   UNL A   1      52.882  27.830  25.031  1.00  0.00     0.022 A 
BRANCH  84  87
ATOM     87  S   UNL A   1      54.020  27.608  27.511  1.00  0.00     0.127 S 
ATOM     88  O   UNL A   1      55.133  27.540  26.569  1.00  0.00    -0.237 OA
ATOM     89  O   UNL A   1      53.939  28.848  28.283  1.00  0.00    -0.237 OA
ATOM     90  O   UNL A   1      53.771  26.401  28.288  1.00  0.00    -0.744 OA
ENDBRANCH  84  87
ENDBRANCH  56  80
BRANCH  68  91
ATOM     91  C   UNL A   1      46.523  33.328  28.739  1.00  0.00     0.023 A 
ATOM     92  C   UNL A   1      47.139  33.590  29.978  1.00  0.00     0.012 A 
ATOM     93  C   UNL A   1      46.306  34.390  27.837  1.00  0.00     0.148 A 
ATOM     94  C   UNL A   1      47.496  34.892  30.331  1.00  0.00     0.002 A 
ATOM     95  C   UNL A   1      46.714  35.674  28.172  1.00  0.00     0.091 A 
ATOM     96  F   UNL A   1      45.706  34.122  26.668  1.00  0.00    -0.205 F 
ATOM     97  C   UNL A   1      47.294  35.930  29.425  1.00  0.00     0.022 A 
BRANCH  95  98
ATOM     98  S   UNL A   1      46.588  37.055  27.031  1.00  0.00     0.127 S 
ATOM     99  O   UNL A   1      47.255  38.121  27.777  1.00  0.00    -0.237 OA
ATOM    100  O   UNL A   1      47.333  36.565  25.870  1.00  0.00    -0.237 OA
ATOM    101  O   UNL A   1      45.165  37.256  26.796  1.00  0.00    -0.744 OA
ENDBRANCH  95  98
ENDBRANCH  68  91
ENDBRANCH  42  43
ENDBRANCH  35  37
ENDBRANCH  34  35
ENDBRANCH  33  34
ENDBRANCH  32  33
ENDBRANCH  31  32
ENDBRANCH  30  31
ENDBRANCH  29  30
ENDBRANCH  28  29
ENDBRANCH   1  28
TORSDOF 27
ENDMDL
MODEL 3
REMARK VINA RESULT:      -7.6      5.421      9.910
REMARK SMILES C[N@H+](Cc1cc(Cl)ccc1[N+](=O)[O-])[C@H]1COC[C@@H]1C(=O)OCCOCCOCCOCCOC(=O)c1ccc(-c2c3nc(c(-c4cccc(S(=O)(=O)[O-])c4F)c4ccc([nH]4)c(-c4cccc(S(=O)(=O)[O-])c4F)c4nc(c(-c5cccc(S(=O)(=O)[O-])c5F)c5ccc2[nH]5)C=C4)C=C3)cc1
REMARK SMILES IDX 26 1 25 2 24 3 23 4 22 5 21 6 19 7 20 8 18 9 14 10 15 11
REMARK SMILES IDX 16 12 17 13 2 14 1 15 3 17 4 18 5 19 10 20 6 21 9 22 7 23
REMARK SMILES IDX 8 24 11 25 12 26 13 27 27 28 28 29 29 30 30 31 31 32 32 33
REMARK SMILES IDX 33 34 34 35 35 36 36 37 37 38 98 39 38 40 97 41 39 42 40 43
REMARK SMILES IDX 41 44 91 45 42 46 96 47 90 48 92 49 43 50 95 51 89 52 88 53
REMARK SMILES IDX 44 55 76 56 56 57 75 58 57 59 60 60 74 61 93 62 58 63 59 64
REMARK SMILES IDX 73 66 94 67 61 68 45 69 46 70 54 71 47 72 49 73 55 74 48 75
REMARK SMILES IDX 50 76 51 77 52 78 53 79 77 80 78 81 86 82 79 83 81 84 87 85
REMARK SMILES IDX 80 86 82 87 83 88 84 89 85 90 62 91 63 92 71 93 64 94 66 95
REMARK SMILES IDX 72 96 65 97 67 98 68 99 69 100 70 101
REMARK H PARENT 2 16 92 54 60 65
REMARK Flexibility Score: inf
ROOT
ATOM      1  C   UNL A   1      40.307  21.931  27.095  1.00  0.00     0.188 C 
ENDROOT
BRANCH   1   2
ATOM      2  C   UNL A   1      39.102  22.081  26.152  1.00  0.00     0.188 C 
BRANCH   2   3
ATOM      3  O   UNL A   1      38.598  23.391  26.003  1.00  0.00    -0.376 OA
BRANCH   3   4
ATOM      4  C   UNL A   1      37.286  23.642  25.523  1.00  0.00     0.202 C 
BRANCH   4   5
ATOM      5  C   UNL A   1      35.968  23.557  26.326  1.00  0.00     0.261 C 
BRANCH   5   6
ATOM      6  O   UNL A   1      34.725  23.665  25.629  1.00  0.00    -0.463 OA
BRANCH   6   7
ATOM      7  C   UNL A   1      34.010  22.535  25.417  1.00  0.00     0.317 C 
ATOM      8  O   UNL A   1      34.315  21.434  25.853  1.00  0.00    -0.252 OA
BRANCH   7   9
ATOM      9  C   UNL A   1      32.729  22.880  24.658  1.00  0.00     0.185 C 
ATOM     10  C   UNL A   1      32.073  24.158  25.202  1.00  0.00     0.227 C 
ATOM     11  C   UNL A   1      31.337  23.539  26.413  1.00  0.00     0.226 C 
ATOM     12  O   UNL A   1      30.956  22.198  26.065  1.00  0.00    -0.374 OA
ATOM     13  C   UNL A   1      31.695  21.810  24.900  1.00  0.00     0.182 C 
BRANCH  10  14
ATOM     14  N   UNL A   1      31.124  24.877  24.273  1.00  0.00    -0.328 N 
ATOM     15  C   UNL A   1      30.507  23.962  23.300  1.00  0.00     0.333 C 
ATOM     16  H   UNL A   1      30.383  25.273  24.851  1.00  0.00     0.348 HD
BRANCH  14  17
ATOM     17  C   UNL A   1      31.835  25.963  23.544  1.00  0.00     0.306 C 
BRANCH  17  18
ATOM     18  C   UNL A   1      31.241  27.344  23.769  1.00  0.00     0.085 A 
ATOM     19  C   UNL A   1      30.140  27.733  22.979  1.00  0.00     0.037 A 
ATOM     20  C   UNL A   1      31.754  28.295  24.675  1.00  0.00     0.278 A 
ATOM     21  C   UNL A   1      29.592  29.016  23.087  1.00  0.00     0.042 A 
ATOM     22  C   UNL A   1      31.231  29.597  24.757  1.00  0.00     0.088 A 
ATOM     23  Cl  UNL A   1      28.223  29.444  22.139  1.00  0.00    -0.084 Cl
ATOM     24  C   UNL A   1      30.145  29.953  23.958  1.00  0.00     0.027 A 
BRANCH  20  25
ATOM     25  N   UNL A   1      32.853  27.975  25.577  1.00  0.00     0.063 N 
ATOM     26  O   UNL A   1      33.997  28.271  25.202  1.00  0.00    -0.258 OA
ATOM     27  O   UNL A   1      32.567  27.467  26.668  1.00  0.00    -0.258 OA
ENDBRANCH  20  25
ENDBRANCH  17  18
ENDBRANCH  14  17
ENDBRANCH  10  14
ENDBRANCH   7   9
ENDBRANCH   6   7
ENDBRANCH   5   6
ENDBRANCH   4   5
ENDBRANCH   3   4
ENDBRANCH   2   3
ENDBRANCH   1   2
BRANCH   1  28
ATOM     28  O   UNL A   1      41.375  21.199  26.530  1.00  0.00    -0.377 OA
BRANCH  28  29
ATOM     29  C   UNL A   1      42.671  21.380  27.088  1.00  0.00     0.188 C 
BRANCH  29  30
ATOM     30  C   UNL A   1      43.622  22.466  26.536  1.00  0.00     0.188 C 
BRANCH  30  31
ATOM     31  O   UNL A   1      44.257  22.128  25.307  1.00  0.00    -0.376 OA
BRANCH  31  32
ATOM     32  C   UNL A   1      44.513  23.158  24.368  1.00  0.00     0.202 C 
BRANCH  32  33
ATOM     33  C   UNL A   1      45.481  24.265  24.805  1.00  0.00     0.261 C 
BRANCH  33  34
ATOM     34  O   UNL A   1      44.878  25.445  25.352  1.00  0.00    -0.460 OA
BRANCH  34  35
ATOM     35  C   UNL A   1      45.579  26.597  25.269  1.00  0.00     0.338 C 
ATOM     36  O   UNL A   1      46.179  27.021  24.294  1.00  0.00    -0.246 OA
BRANCH  35  37
ATOM     37  C   UNL A   1      45.327  27.364  26.505  1.00  0.00     0.060 A 
ATOM     38  C   UNL A   1      44.990  26.674  27.677  1.00  0.00     0.016 A 
ATOM     39  C   UNL A   1      45.444  28.757  26.512  1.00  0.00     0.016 A 
ATOM     40  C   UNL A   1      44.733  27.379  28.853  1.00  0.00     0.010 A 
ATOM     41  C   UNL A   1      45.163  29.462  27.684  1.00  0.00     0.010 A 
ATOM     42  C   UNL A   1      44.771  28.778  28.849  1.00  0.00    -0.014 A 
BRANCH  42  43
ATOM     43  C   UNL A   1      44.204  29.532  29.994  1.00  0.00     0.031 A 
ATOM     44  C   UNL A   1      42.724  29.809  29.995  1.00  0.00     0.074 A 
ATOM     45  C   UNL A   1      44.977  29.959  31.009  1.00  0.00     0.049 A 
ATOM     46  N   UNL A   1      42.009  30.491  30.849  1.00  0.00    -0.248 NA
ATOM     47  C   UNL A   1      41.948  29.239  28.880  1.00  0.00     0.031 C 
ATOM     48  C   UNL A   1      46.416  29.738  31.130  1.00  0.00     0.029 A 
ATOM     49  N   UNL A   1      44.654  30.695  32.122  1.00  0.00    -0.354 N 
ATOM     50  C   UNL A   1      40.707  30.456  30.364  1.00  0.00     0.074 A 
ATOM     51  C   UNL A   1      40.730  29.696  29.134  1.00  0.00     0.031 C 
ATOM     52  C   UNL A   1      46.859  30.357  32.240  1.00  0.00     0.029 A 
ATOM     53  C   UNL A   1      45.742  31.039  32.889  1.00  0.00     0.049 A 
ATOM     54  H   UNL A   1      43.730  30.951  32.350  1.00  0.00     0.167 HD
ATOM     55  C   UNL A   1      39.588  30.993  30.902  1.00  0.00     0.034 A 
ATOM     56  C   UNL A   1      45.826  31.841  33.971  1.00  0.00     0.034 A 
ATOM     57  C   UNL A   1      39.563  31.739  32.130  1.00  0.00     0.049 A 
ATOM     58  C   UNL A   1      44.567  32.468  34.522  1.00  0.00     0.074 A 
ATOM     59  C   UNL A   1      38.474  32.301  32.771  1.00  0.00     0.029 A 
ATOM     60  N   UNL A   1      40.679  32.038  32.895  1.00  0.00    -0.354 N 
ATOM     61  N   UNL A   1      43.329  32.341  34.109  1.00  0.00    -0.248 NA
ATOM     62  C   UNL A   1      44.715  33.325  35.708  1.00  0.00     0.031 C 
ATOM     63  C   UNL A   1      38.936  32.970  33.909  1.00  0.00     0.029 A 
ATOM     64  C   UNL A   1      40.307  32.785  33.999  1.00  0.00     0.049 A 
ATOM     65  H   UNL A   1      41.599  31.759  32.686  1.00  0.00     0.167 HD
ATOM     66  C   UNL A   1      42.550  33.061  35.010  1.00  0.00     0.074 A 
ATOM     67  C   UNL A   1      43.453  33.605  36.002  1.00  0.00     0.031 C 
ATOM     68  C   UNL A   1      41.209  33.265  35.013  1.00  0.00     0.034 A 
BRANCH  55  69
ATOM     69  C   UNL A   1      38.287  30.779  30.177  1.00  0.00     0.023 A 
ATOM     70  C   UNL A   1      37.753  29.479  30.068  1.00  0.00     0.012 A 
ATOM     71  C   UNL A   1      37.557  31.873  29.670  1.00  0.00     0.148 A 
ATOM     72  C   UNL A   1      36.524  29.267  29.445  1.00  0.00     0.002 A 
ATOM     73  C   UNL A   1      36.312  31.659  29.093  1.00  0.00     0.091 A 
ATOM     74  F   UNL A   1      38.094  33.097  29.766  1.00  0.00    -0.205 F 
ATOM     75  C   UNL A   1      35.798  30.357  28.970  1.00  0.00     0.022 A 
BRANCH  73  76
ATOM     76  S   UNL A   1      35.263  33.000  28.521  1.00  0.00     0.127 S 
ATOM     77  O   UNL A   1      34.033  32.288  28.179  1.00  0.00    -0.237 OA
ATOM     78  O   UNL A   1      35.169  33.842  29.714  1.00  0.00    -0.237 OA
ATOM     79  O   UNL A   1      35.961  33.609  27.397  1.00  0.00    -0.744 OA
ENDBRANCH  73  76
ENDBRANCH  55  69
BRANCH  56  80
ATOM     80  C   UNL A   1      47.143  32.103  34.622  1.00  0.00     0.023 A 
ATOM     81  C   UNL A   1      47.944  33.173  34.178  1.00  0.00     0.012 A 
ATOM     82  C   UNL A   1      47.621  31.272  35.654  1.00  0.00     0.148 A 
ATOM     83  C   UNL A   1      49.216  33.381  34.714  1.00  0.00     0.002 A 
ATOM     84  C   UNL A   1      48.864  31.521  36.226  1.00  0.00     0.091 A 
ATOM     85  F   UNL A   1      46.855  30.247  36.052  1.00  0.00    -0.205 F 
ATOM     86  C   UNL A   1      49.673  32.560  35.741  1.00  0.00     0.022 A 
BRANCH  84  87
ATOM     87  S   UNL A   1      49.477  30.593  37.635  1.00  0.00     0.127 S 
ATOM     88  O   UNL A   1      49.630  29.256  37.069  1.00  0.00    -0.237 OA
ATOM     89  O   UNL A   1      50.732  31.287  37.927  1.00  0.00    -0.237 OA
ATOM     90  O   UNL A   1      48.461  30.733  38.669  1.00  0.00    -0.744 OA
ENDBRANCH  84  87
ENDBRANCH  56  80
BRANCH  68  91
ATOM     91  C   UNL A   1      40.618  34.054  36.152  1.00  0.00     0.023 A 
ATOM     92  C   UNL A   1      40.477  35.452  36.050  1.00  0.00     0.012 A 
ATOM     93  C   UNL A   1      40.132  33.392  37.299  1.00  0.00     0.148 A 
ATOM     94  C   UNL A   1      39.898  36.183  37.088  1.00  0.00     0.002 A 
ATOM     95  C   UNL A   1      39.508  34.121  38.303  1.00  0.00     0.091 A 
ATOM     96  F   UNL A   1      40.288  32.063  37.384  1.00  0.00    -0.205 F 
ATOM     97  C   UNL A   1      39.404  35.518  38.207  1.00  0.00     0.022 A 
BRANCH  95  98
ATOM     98  S   UNL A   1      38.751  33.340  39.733  1.00  0.00     0.127 S 
ATOM     99  O   UNL A   1      37.620  32.640  39.127  1.00  0.00    -0.237 OA
ATOM    100  O   UNL A   1      39.823  32.468  40.212  1.00  0.00    -0.237 OA
ATOM    101  O   UNL A   1      38.398  34.422  40.643  1.00  0.00    -0.744 OA
ENDBRANCH  95  98
ENDBRANCH  68  91
ENDBRANCH  42  43
ENDBRANCH  35  37
ENDBRANCH  34  35
ENDBRANCH  33  34
ENDBRANCH  32  33
ENDBRANCH  31  32
ENDBRANCH  30  31
ENDBRANCH  29  30
ENDBRANCH  28  29
ENDBRANCH   1  28
TORSDOF 27
ENDMDL
