MODEL 1
REMARK VINA RESULT:      -9.6      0.000      0.000
REMARK SMILES Cc1cc(N(C)[C@H](C)C(=O)OCCOCCOCCOCCOC(=O)c2ccc(-c3c4nc(c(-c5cccc(S(=O)(=O)[O-])c5F)c5ccc([nH]5)c(-c5cccc(S(=O)(=O)[O-])c5F)c5nc(c(-c6cccc(S(=O)(=O)[O-])c6F)c6ccc3[nH]6)C=C5)C=C4)cc2)ncc1[N+](=O)[O-]
REMARK SMILES IDX 17 1 16 2 15 3 14 4 13 5 12 6 11 7 9 8 10 9 7 10 8 11 5 12
REMARK SMILES IDX 6 13 4 14 1 15 2 16 3 17 91 18 90 19 89 20 92 21 93 22 94 23
REMARK SMILES IDX 18 24 19 25 20 26 21 27 22 28 23 29 24 30 25 31 26 32 27 33
REMARK SMILES IDX 88 34 28 35 87 36 29 37 30 38 31 39 81 40 32 41 86 42 80 43
REMARK SMILES IDX 82 44 33 45 85 46 79 47 78 48 34 50 66 51 46 52 65 53 47 54
REMARK SMILES IDX 50 55 64 56 83 57 48 58 49 59 63 61 84 62 51 63 35 64 36 65
REMARK SMILES IDX 44 66 37 67 39 68 45 69 38 70 40 71 41 72 42 73 43 74 67 75
REMARK SMILES IDX 68 76 76 77 69 78 71 79 77 80 70 81 72 82 73 83 74 84 75 85
REMARK SMILES IDX 52 86 53 87 61 88 54 89 56 90 62 91 55 92 57 93 58 94 59 95
REMARK SMILES IDX 60 96
REMARK H PARENT 82 49 50 60
REMARK Flexibility Score: inf
ROOT
ATOM      1  O   UNL A   1      34.224  24.499  22.867  1.00  0.00    -0.377 OA
ENDROOT
BRANCH   1   2
ATOM      2  C   UNL A   1      33.661  25.655  22.287  1.00  0.00     0.188 C 
BRANCH   2   3
ATOM      3  C   UNL A   1      32.367  25.429  21.494  1.00  0.00     0.188 C 
BRANCH   3   4
ATOM      4  O   UNL A   1      31.384  26.442  21.357  1.00  0.00    -0.376 OA
BRANCH   4   5
ATOM      5  C   UNL A   1      30.780  27.068  22.480  1.00  0.00     0.202 C 
BRANCH   5   6
ATOM      6  C   UNL A   1      30.823  28.589  22.705  1.00  0.00     0.261 C 
BRANCH   6   7
ATOM      7  O   UNL A   1      31.443  29.044  23.916  1.00  0.00    -0.462 OA
BRANCH   7   8
ATOM      8  C   UNL A   1      32.686  28.558  24.150  1.00  0.00     0.328 C 
ATOM      9  O   UNL A   1      33.668  28.842  23.466  1.00  0.00    -0.250 OA
BRANCH   8  10
ATOM     10  C   UNL A   1      32.746  27.547  25.316  1.00  0.00     0.190 C 
ATOM     11  C   UNL A   1      34.029  26.780  25.656  1.00  0.00     0.044 C 
BRANCH  10  12
ATOM     12  N   UNL A   1      32.292  28.219  26.542  1.00  0.00    -0.346 N 
ATOM     13  C   UNL A   1      31.358  27.492  27.395  1.00  0.00     0.146 C 
BRANCH  12  14
ATOM     14  C   UNL A   1      32.916  29.395  26.873  1.00  0.00     0.129 A 
ATOM     15  C   UNL A   1      36.261  30.535  28.153  1.00  0.00     0.052 C 
ATOM     16  C   UNL A   1      34.839  30.659  27.695  1.00  0.00     0.032 A 
ATOM     17  C   UNL A   1      34.241  29.452  27.277  1.00  0.00     0.057 A 
ATOM     18  C   UNL A   1      34.045  31.813  27.675  1.00  0.00     0.290 A 
ATOM     19  C   UNL A   1      32.741  31.697  27.227  1.00  0.00     0.199 A 
ATOM     20  N   UNL A   1      32.184  30.530  26.847  1.00  0.00    -0.232 NA
BRANCH  18  21
ATOM     21  N   UNL A   1      34.471  33.139  28.111  1.00  0.00     0.064 N 
ATOM     22  O   UNL A   1      33.787  33.704  28.980  1.00  0.00    -0.258 OA
ATOM     23  O   UNL A   1      35.499  33.626  27.628  1.00  0.00    -0.258 OA
ENDBRANCH  18  21
ENDBRANCH  12  14
ENDBRANCH  10  12
ENDBRANCH   8  10
ENDBRANCH   7   8
ENDBRANCH   6   7
ENDBRANCH   5   6
ENDBRANCH   4   5
ENDBRANCH   3   4
ENDBRANCH   2   3
ENDBRANCH   1   2
BRANCH   1  24
ATOM     24  C   UNL A   1      33.411  23.334  22.909  1.00  0.00     0.188 C 
BRANCH  24  25
ATOM     25  C   UNL A   1      33.614  22.363  24.089  1.00  0.00     0.188 C 
BRANCH  25  26
ATOM     26  O   UNL A   1      34.958  22.273  24.546  1.00  0.00    -0.376 OA
BRANCH  26  27
ATOM     27  C   UNL A   1      35.504  20.992  24.821  1.00  0.00     0.202 C 
BRANCH  27  28
ATOM     28  C   UNL A   1      37.033  20.857  24.933  1.00  0.00     0.261 C 
BRANCH  28  29
ATOM     29  O   UNL A   1      37.702  21.772  25.814  1.00  0.00    -0.460 OA
BRANCH  29  30
ATOM     30  C   UNL A   1      38.991  21.533  26.126  1.00  0.00     0.338 C 
ATOM     31  O   UNL A   1      39.658  20.566  25.794  1.00  0.00    -0.246 OA
BRANCH  30  32
ATOM     32  C   UNL A   1      39.537  22.752  26.761  1.00  0.00     0.060 A 
ATOM     33  C   UNL A   1      38.894  23.977  26.537  1.00  0.00     0.016 A 
ATOM     34  C   UNL A   1      40.671  22.689  27.574  1.00  0.00     0.016 A 
ATOM     35  C   UNL A   1      39.408  25.149  27.090  1.00  0.00     0.010 A 
ATOM     36  C   UNL A   1      41.200  23.869  28.107  1.00  0.00     0.010 A 
ATOM     37  C   UNL A   1      40.593  25.108  27.834  1.00  0.00    -0.014 A 
BRANCH  37  38
ATOM     38  C   UNL A   1      41.306  26.371  28.142  1.00  0.00     0.031 A 
ATOM     39  C   UNL A   1      42.692  26.559  27.583  1.00  0.00     0.074 A 
ATOM     40  C   UNL A   1      40.740  27.337  28.888  1.00  0.00     0.049 A 
ATOM     41  N   UNL A   1      43.524  27.552  27.747  1.00  0.00    -0.248 NA
ATOM     42  C   UNL A   1      43.206  25.477  26.726  1.00  0.00     0.031 C 
ATOM     43  C   UNL A   1      39.399  27.284  29.466  1.00  0.00     0.029 A 
ATOM     44  N   UNL A   1      41.241  28.545  29.306  1.00  0.00    -0.354 N 
ATOM     45  C   UNL A   1      44.670  27.204  27.042  1.00  0.00     0.074 A 
ATOM     46  C   UNL A   1      44.431  25.903  26.457  1.00  0.00     0.031 C 
ATOM     47  C   UNL A   1      39.195  28.396  30.192  1.00  0.00     0.029 A 
ATOM     48  C   UNL A   1      40.400  29.225  30.154  1.00  0.00     0.049 A 
ATOM     49  H   UNL A   1      42.119  28.891  29.025  1.00  0.00     0.167 HD
ATOM     50  C   UNL A   1      45.816  27.907  26.884  1.00  0.00     0.034 A 
ATOM     51  C   UNL A   1      40.594  30.369  30.843  1.00  0.00     0.034 A 
ATOM     52  C   UNL A   1      46.049  29.204  27.456  1.00  0.00     0.049 A 
ATOM     53  C   UNL A   1      41.898  31.111  30.686  1.00  0.00     0.074 A 
ATOM     54  C   UNL A   1      47.161  30.015  27.321  1.00  0.00     0.029 A 
ATOM     55  N   UNL A   1      45.164  29.872  28.288  1.00  0.00    -0.354 N 
ATOM     56  N   UNL A   1      42.930  30.821  29.931  1.00  0.00    -0.248 NA
ATOM     57  C   UNL A   1      42.052  32.356  31.454  1.00  0.00     0.031 C 
ATOM     58  C   UNL A   1      46.966  31.157  28.105  1.00  0.00     0.029 A 
ATOM     59  C   UNL A   1      45.713  31.078  28.690  1.00  0.00     0.049 A 
ATOM     60  H   UNL A   1      44.276  29.539  28.553  1.00  0.00     0.167 HD
ATOM     61  C   UNL A   1      43.836  31.865  30.102  1.00  0.00     0.074 A 
ATOM     62  C   UNL A   1      43.221  32.804  31.016  1.00  0.00     0.031 C 
ATOM     63  C   UNL A   1      45.068  32.027  29.560  1.00  0.00     0.034 A 
BRANCH  50  64
ATOM     64  C   UNL A   1      46.906  27.288  26.050  1.00  0.00     0.023 A 
ATOM     65  C   UNL A   1      47.669  26.221  26.568  1.00  0.00     0.012 A 
ATOM     66  C   UNL A   1      47.138  27.728  24.732  1.00  0.00     0.148 A 
ATOM     67  C   UNL A   1      48.667  25.625  25.798  1.00  0.00     0.002 A 
ATOM     68  C   UNL A   1      48.101  27.097  23.955  1.00  0.00     0.091 A 
ATOM     69  F   UNL A   1      46.418  28.759  24.267  1.00  0.00    -0.205 F 
ATOM     70  C   UNL A   1      48.874  26.053  24.490  1.00  0.00     0.022 A 
BRANCH  68  71
ATOM     71  S   UNL A   1      48.390  27.521  22.235  1.00  0.00     0.127 S 
ATOM     72  O   UNL A   1      47.150  28.217  21.890  1.00  0.00    -0.237 OA
ATOM     73  O   UNL A   1      49.568  28.384  22.326  1.00  0.00    -0.237 OA
ATOM     74  O   UNL A   1      48.610  26.261  21.539  1.00  0.00    -0.744 OA
ENDBRANCH  68  71
ENDBRANCH  50  64
BRANCH  51  75
ATOM     75  C   UNL A   1      39.526  30.896  31.740  1.00  0.00     0.023 A 
ATOM     76  C   UNL A   1      39.466  30.471  33.081  1.00  0.00     0.012 A 
ATOM     77  C   UNL A   1      38.561  31.808  31.267  1.00  0.00     0.148 A 
ATOM     78  C   UNL A   1      38.445  30.915  33.924  1.00  0.00     0.002 A 
ATOM     79  C   UNL A   1      37.584  32.293  32.127  1.00  0.00     0.091 A 
ATOM     80  F   UNL A   1      38.624  32.187  29.982  1.00  0.00    -0.205 F 
ATOM     81  C   UNL A   1      37.510  31.831  33.449  1.00  0.00     0.022 A 
BRANCH  79  82
ATOM     82  S   UNL A   1      36.418  33.569  31.641  1.00  0.00     0.127 S 
ATOM     83  O   UNL A   1      36.943  33.976  30.340  1.00  0.00    -0.237 OA
ATOM     84  O   UNL A   1      35.159  32.825  31.595  1.00  0.00    -0.237 OA
ATOM     85  O   UNL A   1      36.478  34.580  32.690  1.00  0.00    -0.744 OA
ENDBRANCH  79  82
ENDBRANCH  51  75
BRANCH  63  86
ATOM     86  C   UNL A   1      45.825  33.288  29.897  1.00  0.00     0.023 A 
ATOM     87  C   UNL A   1      46.667  33.329  31.025  1.00  0.00     0.012 A 
ATOM     88  C   UNL A   1      45.757  34.409  29.045  1.00  0.00     0.148 A 
ATOM     89  C   UNL A   1      47.400  34.479  31.322  1.00  0.00     0.002 A 
ATOM     90  C   UNL A   1      46.531  35.531  29.317  1.00  0.00     0.091 A 
ATOM     91  F   UNL A   1      44.941  34.357  27.983  1.00  0.00    -0.205 F 
ATOM     92  C   UNL A   1      47.342  35.573  30.463  1.00  0.00     0.022 A 
BRANCH  90  93
ATOM     93  S   UNL A   1      46.599  36.948  28.215  1.00  0.00     0.127 S 
ATOM     94  O   UNL A   1      47.334  37.919  29.024  1.00  0.00    -0.237 OA
ATOM     95  O   UNL A   1      47.344  36.417  27.073  1.00  0.00    -0.237 OA
ATOM     96  O   UNL A   1      45.215  37.300  27.924  1.00  0.00    -0.744 OA
ENDBRANCH  90  93
ENDBRANCH  63  86
ENDBRANCH  37  38
ENDBRANCH  30  32
ENDBRANCH  29  30
ENDBRANCH  28  29
ENDBRANCH  27  28
ENDBRANCH  26  27
ENDBRANCH  25  26
ENDBRANCH  24  25
ENDBRANCH   1  24
TORSDOF 26
ENDMDL
MODEL 2
REMARK VINA RESULT:      -9.4      1.790      7.573
REMARK SMILES Cc1cc(N(C)[C@H](C)C(=O)OCCOCCOCCOCCOC(=O)c2ccc(-c3c4nc(c(-c5cccc(S(=O)(=O)[O-])c5F)c5ccc([nH]5)c(-c5cccc(S(=O)(=O)[O-])c5F)c5nc(c(-c6cccc(S(=O)(=O)[O-])c6F)c6ccc3[nH]6)C=C5)C=C4)cc2)ncc1[N+](=O)[O-]
REMARK SMILES IDX 17 1 16 2 15 3 14 4 13 5 12 6 11 7 9 8 10 9 7 10 8 11 5 12
REMARK SMILES IDX 6 13 4 14 1 15 2 16 3 17 91 18 90 19 89 20 92 21 93 22 94 23
REMARK SMILES IDX 18 24 19 25 20 26 21 27 22 28 23 29 24 30 25 31 26 32 27 33
REMARK SMILES IDX 88 34 28 35 87 36 29 37 30 38 31 39 81 40 32 41 86 42 80 43
REMARK SMILES IDX 82 44 33 45 85 46 79 47 78 48 34 50 66 51 46 52 65 53 47 54
REMARK SMILES IDX 50 55 64 56 83 57 48 58 49 59 63 61 84 62 51 63 35 64 36 65
REMARK SMILES IDX 44 66 37 67 39 68 45 69 38 70 40 71 41 72 42 73 43 74 67 75
REMARK SMILES IDX 68 76 76 77 69 78 71 79 77 80 70 81 72 82 73 83 74 84 75 85
REMARK SMILES IDX 52 86 53 87 61 88 54 89 56 90 62 91 55 92 57 93 58 94 59 95
REMARK SMILES IDX 60 96
REMARK H PARENT 82 49 50 60
REMARK Flexibility Score: inf
ROOT
ATOM      1  O   UNL A   1      34.224  24.972  22.660  1.00  0.00    -0.377 OA
ENDROOT
BRANCH   1   2
ATOM      2  C   UNL A   1      33.666  26.109  22.039  1.00  0.00     0.188 C 
BRANCH   2   3
ATOM      3  C   UNL A   1      32.445  25.838  21.149  1.00  0.00     0.188 C 
BRANCH   3   4
ATOM      4  O   UNL A   1      31.168  26.385  21.440  1.00  0.00    -0.376 OA
BRANCH   4   5
ATOM      5  C   UNL A   1      30.577  26.287  22.728  1.00  0.00     0.202 C 
BRANCH   5   6
ATOM      6  C   UNL A   1      29.711  27.405  23.330  1.00  0.00     0.261 C 
BRANCH   6   7
ATOM      7  O   UNL A   1      30.334  28.246  24.311  1.00  0.00    -0.462 OA
BRANCH   7   8
ATOM      8  C   UNL A   1      31.672  28.407  24.172  1.00  0.00     0.328 C 
ATOM      9  O   UNL A   1      32.190  29.034  23.248  1.00  0.00    -0.250 OA
BRANCH   8  10
ATOM     10  C   UNL A   1      32.501  27.663  25.242  1.00  0.00     0.190 C 
ATOM     11  C   UNL A   1      34.021  27.513  25.128  1.00  0.00     0.044 C 
BRANCH  10  12
ATOM     12  N   UNL A   1      32.210  28.257  26.555  1.00  0.00    -0.346 N 
ATOM     13  C   UNL A   1      31.265  27.551  27.413  1.00  0.00     0.146 C 
BRANCH  12  14
ATOM     14  C   UNL A   1      32.981  29.327  26.937  1.00  0.00     0.129 A 
ATOM     15  C   UNL A   1      36.319  29.948  28.549  1.00  0.00     0.052 C 
ATOM     16  C   UNL A   1      34.990  30.287  27.943  1.00  0.00     0.032 A 
ATOM     17  C   UNL A   1      34.249  29.181  27.477  1.00  0.00     0.057 A 
ATOM     18  C   UNL A   1      34.401  31.552  27.827  1.00  0.00     0.290 A 
ATOM     19  C   UNL A   1      33.148  31.636  27.246  1.00  0.00     0.199 A 
ATOM     20  N   UNL A   1      32.450  30.563  26.822  1.00  0.00    -0.232 NA
BRANCH  18  21
ATOM     21  N   UNL A   1      34.991  32.804  28.291  1.00  0.00     0.064 N 
ATOM     22  O   UNL A   1      35.890  33.306  27.599  1.00  0.00    -0.258 OA
ATOM     23  O   UNL A   1      34.553  33.324  29.324  1.00  0.00    -0.258 OA
ENDBRANCH  18  21
ENDBRANCH  12  14
ENDBRANCH  10  12
ENDBRANCH   8  10
ENDBRANCH   7   8
ENDBRANCH   6   7
ENDBRANCH   5   6
ENDBRANCH   4   5
ENDBRANCH   3   4
ENDBRANCH   2   3
ENDBRANCH   1   2
BRANCH   1  24
ATOM     24  C   UNL A   1      33.383  23.836  22.808  1.00  0.00     0.188 C 
BRANCH  24  25
ATOM     25  C   UNL A   1      33.666  22.886  23.989  1.00  0.00     0.188 C 
BRANCH  25  26
ATOM     26  O   UNL A   1      35.019  22.887  24.426  1.00  0.00    -0.376 OA
BRANCH  26  27
ATOM     27  C   UNL A   1      35.699  21.647  24.553  1.00  0.00     0.202 C 
BRANCH  27  28
ATOM     28  C   UNL A   1      37.234  21.662  24.664  1.00  0.00     0.261 C 
BRANCH  28  29
ATOM     29  O   UNL A   1      37.799  22.452  25.721  1.00  0.00    -0.460 OA
BRANCH  29  30
ATOM     30  C   UNL A   1      38.987  22.077  26.236  1.00  0.00     0.338 C 
ATOM     31  O   UNL A   1      39.513  20.979  26.139  1.00  0.00    -0.246 OA
BRANCH  30  32
ATOM     32  C   UNL A   1      39.658  23.286  26.758  1.00  0.00     0.060 A 
ATOM     33  C   UNL A   1      39.372  24.525  26.168  1.00  0.00     0.016 A 
ATOM     34  C   UNL A   1      40.558  23.203  27.823  1.00  0.00     0.016 A 
ATOM     35  C   UNL A   1      40.019  25.678  26.612  1.00  0.00     0.010 A 
ATOM     36  C   UNL A   1      41.224  24.356  28.250  1.00  0.00     0.010 A 
ATOM     37  C   UNL A   1      40.986  25.591  27.620  1.00  0.00    -0.014 A 
BRANCH  37  38
ATOM     38  C   UNL A   1      41.893  26.739  27.863  1.00  0.00     0.031 A 
ATOM     39  C   UNL A   1      41.347  27.933  28.600  1.00  0.00     0.074 A 
ATOM     40  C   UNL A   1      43.174  26.723  27.454  1.00  0.00     0.049 A 
ATOM     41  N   UNL A   1      41.930  29.064  28.894  1.00  0.00    -0.248 NA
ATOM     42  C   UNL A   1      39.952  27.835  29.066  1.00  0.00     0.031 C 
ATOM     43  C   UNL A   1      43.826  25.620  26.751  1.00  0.00     0.029 A 
ATOM     44  N   UNL A   1      44.150  27.685  27.552  1.00  0.00    -0.354 N 
ATOM     45  C   UNL A   1      40.969  29.825  29.549  1.00  0.00     0.074 A 
ATOM     46  C   UNL A   1      39.761  29.031  29.601  1.00  0.00     0.031 C 
ATOM     47  C   UNL A   1      45.086  25.979  26.452  1.00  0.00     0.029 A 
ATOM     48  C   UNL A   1      45.320  27.347  26.915  1.00  0.00     0.049 A 
ATOM     49  H   UNL A   1      44.022  28.535  28.031  1.00  0.00     0.167 HD
ATOM     50  C   UNL A   1      41.083  31.068  30.072  1.00  0.00     0.034 A 
ATOM     51  C   UNL A   1      46.439  28.071  26.705  1.00  0.00     0.034 A 
ATOM     52  C   UNL A   1      42.286  31.851  30.029  1.00  0.00     0.049 A 
ATOM     53  C   UNL A   1      46.525  29.473  27.258  1.00  0.00     0.074 A 
ATOM     54  C   UNL A   1      42.513  33.106  30.565  1.00  0.00     0.029 A 
ATOM     55  N   UNL A   1      43.459  31.467  29.399  1.00  0.00    -0.354 N 
ATOM     56  N   UNL A   1      45.645  30.137  27.968  1.00  0.00    -0.248 NA
ATOM     57  C   UNL A   1      47.770  30.213  27.006  1.00  0.00     0.031 C 
ATOM     58  C   UNL A   1      43.812  33.498  30.223  1.00  0.00     0.029 A 
ATOM     59  C   UNL A   1      44.408  32.466  29.516  1.00  0.00     0.049 A 
ATOM     60  H   UNL A   1      43.597  30.608  28.937  1.00  0.00     0.167 HD
ATOM     61  C   UNL A   1      46.245  31.354  28.281  1.00  0.00     0.074 A 
ATOM     62  C   UNL A   1      47.571  31.325  27.700  1.00  0.00     0.031 C 
ATOM     63  C   UNL A   1      45.742  32.404  28.977  1.00  0.00     0.034 A 
BRANCH  50  64
ATOM     64  C   UNL A   1      39.871  31.657  30.744  1.00  0.00     0.023 A 
ATOM     65  C   UNL A   1      38.931  32.386  29.988  1.00  0.00     0.012 A 
ATOM     66  C   UNL A   1      39.636  31.440  32.116  1.00  0.00     0.148 A 
ATOM     67  C   UNL A   1      37.793  32.918  30.593  1.00  0.00     0.002 A 
ATOM     68  C   UNL A   1      38.476  31.932  32.702  1.00  0.00     0.091 A 
ATOM     69  F   UNL A   1      40.553  30.764  32.822  1.00  0.00    -0.205 F 
ATOM     70  C   UNL A   1      37.560  32.681  31.945  1.00  0.00     0.022 A 
BRANCH  68  71
ATOM     71  S   UNL A   1      38.045  31.613  34.415  1.00  0.00     0.127 S 
ATOM     72  O   UNL A   1      36.673  32.117  34.473  1.00  0.00    -0.237 OA
ATOM     73  O   UNL A   1      38.164  30.158  34.495  1.00  0.00    -0.237 OA
ATOM     74  O   UNL A   1      39.012  32.349  35.218  1.00  0.00    -0.744 OA
ENDBRANCH  68  71
ENDBRANCH  50  64
BRANCH  51  75
ATOM     75  C   UNL A   1      47.580  27.487  25.944  1.00  0.00     0.023 A 
ATOM     76  C   UNL A   1      47.616  27.600  24.541  1.00  0.00     0.012 A 
ATOM     77  C   UNL A   1      48.625  26.809  26.603  1.00  0.00     0.148 A 
ATOM     78  C   UNL A   1      48.651  27.018  23.806  1.00  0.00     0.002 A 
ATOM     79  C   UNL A   1      49.683  26.284  25.871  1.00  0.00     0.091 A 
ATOM     80  F   UNL A   1      48.565  26.697  27.938  1.00  0.00    -0.205 F 
ATOM     81  C   UNL A   1      49.687  26.368  24.471  1.00  0.00     0.022 A 
BRANCH  79  82
ATOM     82  S   UNL A   1      51.122  25.545  26.649  1.00  0.00     0.127 S 
ATOM     83  O   UNL A   1      51.618  26.646  27.471  1.00  0.00    -0.237 OA
ATOM     84  O   UNL A   1      50.524  24.437  27.396  1.00  0.00    -0.237 OA
ATOM     85  O   UNL A   1      51.994  25.131  25.558  1.00  0.00    -0.744 OA
ENDBRANCH  79  82
ENDBRANCH  51  75
BRANCH  63  86
ATOM     86  C   UNL A   1      46.639  33.597  29.197  1.00  0.00     0.023 A 
ATOM     87  C   UNL A   1      47.586  33.589  30.240  1.00  0.00     0.012 A 
ATOM     88  C   UNL A   1      46.592  34.697  28.316  1.00  0.00     0.148 A 
ATOM     89  C   UNL A   1      48.445  34.672  30.426  1.00  0.00     0.002 A 
ATOM     90  C   UNL A   1      47.486  35.748  28.476  1.00  0.00     0.091 A 
ATOM     91  F   UNL A   1      45.675  34.693  27.338  1.00  0.00    -0.205 F 
ATOM     92  C   UNL A   1      48.403  35.745  29.539  1.00  0.00     0.022 A 
BRANCH  90  93
ATOM     93  S   UNL A   1      47.576  37.123  27.323  1.00  0.00     0.127 S 
ATOM     94  O   UNL A   1      48.989  37.489  27.406  1.00  0.00    -0.237 OA
ATOM     95  O   UNL A   1      47.181  36.497  26.062  1.00  0.00    -0.237 OA
ATOM     96  O   UNL A   1      46.643  38.127  27.820  1.00  0.00    -0.744 OA
ENDBRANCH  90  93
ENDBRANCH  63  86
ENDBRANCH  37  38
ENDBRANCH  30  32
ENDBRANCH  29  30
ENDBRANCH  28  29
ENDBRANCH  27  28
ENDBRANCH  26  27
ENDBRANCH  25  26
ENDBRANCH  24  25
ENDBRANCH   1  24
TORSDOF 26
ENDMDL
MODEL 3
REMARK VINA RESULT:      -9.4      0.670      7.306
REMARK SMILES Cc1cc(N(C)[C@H](C)C(=O)OCCOCCOCCOCCOC(=O)c2ccc(-c3c4nc(c(-c5cccc(S(=O)(=O)[O-])c5F)c5ccc([nH]5)c(-c5cccc(S(=O)(=O)[O-])c5F)c5nc(c(-c6cccc(S(=O)(=O)[O-])c6F)c6ccc3[nH]6)C=C5)C=C4)cc2)ncc1[N+](=O)[O-]
REMARK SMILES IDX 17 1 16 2 15 3 14 4 13 5 12 6 11 7 9 8 10 9 7 10 8 11 5 12
REMARK SMILES IDX 6 13 4 14 1 15 2 16 3 17 91 18 90 19 89 20 92 21 93 22 94 23
REMARK SMILES IDX 18 24 19 25 20 26 21 27 22 28 23 29 24 30 25 31 26 32 27 33
REMARK SMILES IDX 88 34 28 35 87 36 29 37 30 38 31 39 81 40 32 41 86 42 80 43
REMARK SMILES IDX 82 44 33 45 85 46 79 47 78 48 34 50 66 51 46 52 65 53 47 54
REMARK SMILES IDX 50 55 64 56 83 57 48 58 49 59 63 61 84 62 51 63 35 64 36 65
REMARK SMILES IDX 44 66 37 67 39 68 45 69 38 70 40 71 41 72 42 73 43 74 67 75
REMARK SMILES IDX 68 76 76 77 69 78 71 79 77 80 70 81 72 82 73 83 74 84 75 85
REMARK SMILES IDX 52 86 53 87 61 88 54 89 56 90 62 91 55 92 57 93 58 94 59 95
REMARK SMILES IDX 60 96
REMARK H PARENT 82 49 50 60
REMARK Flexibility Score: inf
ROOT
ATOM      1  O   UNL A   1      34.256  24.583  23.143  1.00  0.00    -0.377 OA
ENDROOT
BRANCH   1   2
ATOM      2  C   UNL A   1      33.739  25.704  22.461  1.00  0.00     0.188 C 
BRANCH   2   3
ATOM      3  C   UNL A   1      32.471  25.444  21.636  1.00  0.00     0.188 C 
BRANCH   3   4
ATOM      4  O   UNL A   1      31.403  26.377  21.586  1.00  0.00    -0.376 OA
BRANCH   4   5
ATOM      5  C   UNL A   1      30.776  26.875  22.760  1.00  0.00     0.202 C 
BRANCH   5   6
ATOM      6  C   UNL A   1      30.470  28.367  22.967  1.00  0.00     0.261 C 
BRANCH   6   7
ATOM      7  O   UNL A   1      31.088  29.001  24.096  1.00  0.00    -0.462 OA
BRANCH   7   8
ATOM      8  C   UNL A   1      32.374  28.644  24.330  1.00  0.00     0.328 C 
ATOM      9  O   UNL A   1      33.319  29.005  23.629  1.00  0.00    -0.250 OA
BRANCH   8  10
ATOM     10  C   UNL A   1      32.541  27.674  25.520  1.00  0.00     0.190 C 
ATOM     11  C   UNL A   1      33.832  26.878  25.739  1.00  0.00     0.044 C 
BRANCH  10  12
ATOM     12  N   UNL A   1      32.252  28.404  26.763  1.00  0.00    -0.346 N 
ATOM     13  C   UNL A   1      31.317  27.788  27.697  1.00  0.00     0.146 C 
BRANCH  12  14
ATOM     14  C   UNL A   1      33.017  29.514  27.022  1.00  0.00     0.129 A 
ATOM     15  C   UNL A   1      36.575  30.324  27.924  1.00  0.00     0.052 C 
ATOM     16  C   UNL A   1      35.129  30.585  27.627  1.00  0.00     0.032 A 
ATOM     17  C   UNL A   1      34.378  29.443  27.277  1.00  0.00     0.057 A 
ATOM     18  C   UNL A   1      34.449  31.808  27.695  1.00  0.00     0.290 A 
ATOM     19  C   UNL A   1      33.098  31.819  27.395  1.00  0.00     0.199 A 
ATOM     20  N   UNL A   1      32.395  30.712  27.078  1.00  0.00    -0.232 NA
BRANCH  18  21
ATOM     21  N   UNL A   1      35.042  33.084  28.082  1.00  0.00     0.064 N 
ATOM     22  O   UNL A   1      36.132  33.389  27.570  1.00  0.00    -0.258 OA
ATOM     23  O   UNL A   1      34.428  33.814  28.868  1.00  0.00    -0.258 OA
ENDBRANCH  18  21
ENDBRANCH  12  14
ENDBRANCH  10  12
ENDBRANCH   8  10
ENDBRANCH   7   8
ENDBRANCH   6   7
ENDBRANCH   5   6
ENDBRANCH   4   5
ENDBRANCH   3   4
ENDBRANCH   2   3
ENDBRANCH   1   2
BRANCH   1  24
ATOM     24  C   UNL A   1      33.393  23.466  23.300  1.00  0.00     0.188 C 
BRANCH  24  25
ATOM     25  C   UNL A   1      33.671  22.507  24.476  1.00  0.00     0.188 C 
BRANCH  25  26
ATOM     26  O   UNL A   1      35.049  22.368  24.800  1.00  0.00    -0.376 OA
BRANCH  26  27
ATOM     27  C   UNL A   1      35.639  21.077  24.741  1.00  0.00     0.202 C 
BRANCH  27  28
ATOM     28  C   UNL A   1      37.174  20.971  24.791  1.00  0.00     0.261 C 
BRANCH  28  29
ATOM     29  O   UNL A   1      37.839  21.699  25.834  1.00  0.00    -0.460 OA
BRANCH  29  30
ATOM     30  C   UNL A   1      39.098  21.344  26.160  1.00  0.00     0.338 C 
ATOM     31  O   UNL A   1      39.667  20.306  25.859  1.00  0.00    -0.246 OA
BRANCH  30  32
ATOM     32  C   UNL A   1      39.761  22.521  26.761  1.00  0.00     0.060 A 
ATOM     33  C   UNL A   1      39.374  23.802  26.343  1.00  0.00     0.016 A 
ATOM     34  C   UNL A   1      40.752  22.366  27.734  1.00  0.00     0.016 A 
ATOM     35  C   UNL A   1      40.008  24.929  26.863  1.00  0.00     0.010 A 
ATOM     36  C   UNL A   1      41.404  23.497  28.235  1.00  0.00     0.010 A 
ATOM     37  C   UNL A   1      41.061  24.780  27.773  1.00  0.00    -0.014 A 
BRANCH  37  38
ATOM     38  C   UNL A   1      41.937  25.938  28.073  1.00  0.00     0.031 A 
ATOM     39  C   UNL A   1      41.429  26.987  29.027  1.00  0.00     0.074 A 
ATOM     40  C   UNL A   1      43.160  26.057  27.524  1.00  0.00     0.049 A 
ATOM     41  N   UNL A   1      41.990  28.102  29.410  1.00  0.00    -0.248 NA
ATOM     42  C   UNL A   1      40.105  26.741  29.627  1.00  0.00     0.031 C 
ATOM     43  C   UNL A   1      43.773  25.101  26.605  1.00  0.00     0.029 A 
ATOM     44  N   UNL A   1      44.095  27.055  27.647  1.00  0.00    -0.354 N 
ATOM     45  C   UNL A   1      41.081  28.707  30.269  1.00  0.00     0.074 A 
ATOM     46  C   UNL A   1      39.925  27.840  30.343  1.00  0.00     0.031 C 
ATOM     47  C   UNL A   1      44.970  25.575  26.221  1.00  0.00     0.029 A 
ATOM     48  C   UNL A   1      45.195  26.879  26.842  1.00  0.00     0.049 A 
ATOM     49  H   UNL A   1      43.987  27.824  28.253  1.00  0.00     0.167 HD
ATOM     50  C   UNL A   1      41.199  29.873  30.945  1.00  0.00     0.034 A 
ATOM     51  C   UNL A   1      46.247  27.693  26.613  1.00  0.00     0.034 A 
ATOM     52  C   UNL A   1      42.351  30.728  30.879  1.00  0.00     0.049 A 
ATOM     53  C   UNL A   1      46.334  29.010  27.344  1.00  0.00     0.074 A 
ATOM     54  C   UNL A   1      42.583  31.911  31.557  1.00  0.00     0.029 A 
ATOM     55  N   UNL A   1      43.457  30.505  30.074  1.00  0.00    -0.354 N 
ATOM     56  N   UNL A   1      45.515  29.517  28.235  1.00  0.00    -0.248 NA
ATOM     57  C   UNL A   1      47.505  29.853  27.062  1.00  0.00     0.031 C 
ATOM     58  C   UNL A   1      43.813  32.424  31.131  1.00  0.00     0.029 A 
ATOM     59  C   UNL A   1      44.367  31.536  30.223  1.00  0.00     0.049 A 
ATOM     60  H   UNL A   1      43.578  29.726  29.483  1.00  0.00     0.167 HD
ATOM     61  C   UNL A   1      46.092  30.716  28.647  1.00  0.00     0.074 A 
ATOM     62  C   UNL A   1      47.339  30.847  27.923  1.00  0.00     0.031 C 
ATOM     63  C   UNL A   1      45.628  31.630  29.535  1.00  0.00     0.034 A 
BRANCH  50  64
ATOM     64  C   UNL A   1      40.050  30.290  31.825  1.00  0.00     0.023 A 
ATOM     65  C   UNL A   1      40.039  29.929  33.188  1.00  0.00     0.012 A 
ATOM     66  C   UNL A   1      39.008  31.087  31.312  1.00  0.00     0.148 A 
ATOM     67  C   UNL A   1      38.993  30.327  34.019  1.00  0.00     0.002 A 
ATOM     68  C   UNL A   1      37.994  31.521  32.158  1.00  0.00     0.091 A 
ATOM     69  F   UNL A   1      39.025  31.400  30.009  1.00  0.00    -0.205 F 
ATOM     70  C   UNL A   1      37.979  31.132  33.507  1.00  0.00     0.022 A 
BRANCH  68  71
ATOM     71  S   UNL A   1      36.686  32.624  31.615  1.00  0.00     0.127 S 
ATOM     72  O   UNL A   1      35.769  31.693  30.957  1.00  0.00    -0.237 OA
ATOM     73  O   UNL A   1      36.197  33.165  32.883  1.00  0.00    -0.237 OA
ATOM     74  O   UNL A   1      37.318  33.599  30.738  1.00  0.00    -0.744 OA
ENDBRANCH  68  71
ENDBRANCH  50  64
BRANCH  51  75
ATOM     75  C   UNL A   1      47.315  27.288  25.655  1.00  0.00     0.023 A 
ATOM     76  C   UNL A   1      48.337  26.415  26.076  1.00  0.00     0.012 A 
ATOM     77  C   UNL A   1      47.329  27.772  24.332  1.00  0.00     0.148 A 
ATOM     78  C   UNL A   1      49.374  26.062  25.208  1.00  0.00     0.002 A 
ATOM     79  C   UNL A   1      48.330  27.370  23.456  1.00  0.00     0.091 A 
ATOM     80  F   UNL A   1      46.358  28.616  23.955  1.00  0.00    -0.205 F 
ATOM     81  C   UNL A   1      49.365  26.533  23.898  1.00  0.00     0.022 A 
BRANCH  79  82
ATOM     82  S   UNL A   1      48.330  27.820  21.718  1.00  0.00     0.127 S 
ATOM     83  O   UNL A   1      48.588  26.535  21.074  1.00  0.00    -0.237 OA
ATOM     84  O   UNL A   1      46.973  28.338  21.542  1.00  0.00    -0.237 OA
ATOM     85  O   UNL A   1      49.377  28.822  21.568  1.00  0.00    -0.744 OA
ENDBRANCH  79  82
ENDBRANCH  51  75
BRANCH  63  86
ATOM     86  C   UNL A   1      46.489  32.835  29.820  1.00  0.00     0.023 A 
ATOM     87  C   UNL A   1      47.443  32.796  30.856  1.00  0.00     0.012 A 
ATOM     88  C   UNL A   1      46.402  33.982  29.004  1.00  0.00     0.148 A 
ATOM     89  C   UNL A   1      48.270  33.893  31.101  1.00  0.00     0.002 A 
ATOM     90  C   UNL A   1      47.266  35.049  29.220  1.00  0.00     0.091 A 
ATOM     91  F   UNL A   1      45.480  34.006  28.032  1.00  0.00    -0.205 F 
ATOM     92  C   UNL A   1      48.189  35.013  30.277  1.00  0.00     0.022 A 
BRANCH  90  93
ATOM     93  S   UNL A   1      47.305  36.491  28.149  1.00  0.00     0.127 S 
ATOM     94  O   UNL A   1      48.538  37.149  28.581  1.00  0.00    -0.237 OA
ATOM     95  O   UNL A   1      47.371  35.886  26.818  1.00  0.00    -0.237 OA
ATOM     96  O   UNL A   1      46.078  37.228  28.419  1.00  0.00    -0.744 OA
ENDBRANCH  90  93
ENDBRANCH  63  86
ENDBRANCH  37  38
ENDBRANCH  30  32
ENDBRANCH  29  30
ENDBRANCH  28  29
ENDBRANCH  27  28
ENDBRANCH  26  27
ENDBRANCH  25  26
ENDBRANCH  24  25
ENDBRANCH   1  24
TORSDOF 26
ENDMDL
