MODEL 1
REMARK VINA RESULT:      -9.8      0.000      0.000
REMARK SMILES Cc1cccc(Cl)c1Nc1ccccc1CC(=O)OCCOCCOCCOCCOC(=O)c1ccc(-c2c3nc(c(-c4cccc(S(=O)(=O)[O-])c4F)c4ccc([nH]4)c(-c4cccc(S(=O)(=O)[O-])c4F)c4nc(c(-c5cccc(S(=O)(=O)[O-])c5F)c5ccc2[nH]5)C=C4)C=C3)cc1
REMARK SMILES IDX 25 1 24 2 23 3 22 4 21 5 20 6 19 7 17 8 18 9 16 10 15 11
REMARK SMILES IDX 10 12 11 13 12 14 14 15 13 16 9 17 8 19 1 20 2 21 3 22 4 23
REMARK SMILES IDX 6 24 5 25 7 26 26 27 27 28 28 29 29 30 30 31 31 32 32 33
REMARK SMILES IDX 33 34 34 35 35 36 96 37 36 38 95 39 37 40 38 41 39 42 89 43
REMARK SMILES IDX 40 44 94 45 88 46 90 47 41 48 93 49 87 50 86 51 42 53 74 54
REMARK SMILES IDX 54 55 73 56 55 57 58 58 72 59 91 60 56 61 57 62 71 64 92 65
REMARK SMILES IDX 59 66 43 67 44 68 52 69 45 70 47 71 53 72 46 73 48 74 49 75
REMARK SMILES IDX 50 76 51 77 75 78 76 79 84 80 77 81 79 82 85 83 78 84 80 85
REMARK SMILES IDX 81 86 82 87 83 88 60 89 61 90 69 91 62 92 64 93 70 94 63 95
REMARK SMILES IDX 65 96 66 97 67 98 68 99
REMARK H PARENT 9 18 90 52 58 63
REMARK Flexibility Score: inf
ROOT
ATOM      1  O   UNL A   1      33.886  25.343  25.114  1.00  0.00    -0.377 OA
ENDROOT
BRANCH   1   2
ATOM      2  C   UNL A   1      33.903  26.697  24.713  1.00  0.00     0.188 C 
BRANCH   2   3
ATOM      3  C   UNL A   1      33.908  27.700  25.889  1.00  0.00     0.188 C 
BRANCH   3   4
ATOM      4  O   UNL A   1      32.756  27.895  26.711  1.00  0.00    -0.376 OA
BRANCH   4   5
ATOM      5  C   UNL A   1      31.465  27.733  26.146  1.00  0.00     0.202 C 
BRANCH   5   6
ATOM      6  C   UNL A   1      31.066  28.708  25.018  1.00  0.00     0.261 C 
BRANCH   6   7
ATOM      7  O   UNL A   1      30.772  28.101  23.737  1.00  0.00    -0.463 OA
BRANCH   7   8
ATOM      8  C   UNL A   1      29.769  27.196  23.704  1.00  0.00     0.310 C 
ATOM      9  O   UNL A   1      28.585  27.512  23.577  1.00  0.00    -0.252 OA
BRANCH   8  10
ATOM     10  C   UNL A   1      30.167  25.726  23.693  1.00  0.00     0.160 C 
BRANCH  10  11
ATOM     11  C   UNL A   1      31.261  25.134  22.806  1.00  0.00    -0.013 A 
ATOM     12  C   UNL A   1      31.873  23.880  23.022  1.00  0.00     0.042 A 
ATOM     13  C   UNL A   1      32.957  23.484  22.208  1.00  0.00     0.026 A 
ATOM     14  C   UNL A   1      33.360  24.242  21.113  1.00  0.00     0.002 A 
ATOM     15  C   UNL A   1      31.632  25.839  21.636  1.00  0.00     0.006 A 
ATOM     16  C   UNL A   1      32.666  25.401  20.801  1.00  0.00     0.000 A 
BRANCH  12  17
ATOM     17  N   UNL A   1      31.331  22.885  23.858  1.00  0.00    -0.354 N 
ATOM     18  H   UNL A   1      30.424  22.585  23.622  1.00  0.00     0.167 HD
BRANCH  17  19
ATOM     19  C   UNL A   1      31.899  22.252  24.990  1.00  0.00     0.060 A 
ATOM     20  C   UNL A   1      32.336  20.221  23.520  1.00  0.00     0.046 C 
ATOM     21  C   UNL A   1      32.523  20.999  24.797  1.00  0.00    -0.026 A 
ATOM     22  C   UNL A   1      33.388  20.494  25.781  1.00  0.00     0.005 A 
ATOM     23  C   UNL A   1      33.615  21.192  26.965  1.00  0.00     0.002 A 
ATOM     24  C   UNL A   1      32.039  22.877  26.256  1.00  0.00     0.064 A 
ATOM     25  C   UNL A   1      32.919  22.367  27.215  1.00  0.00     0.023 A 
ATOM     26  Cl  UNL A   1      31.137  24.280  26.735  1.00  0.00    -0.082 Cl
ENDBRANCH  17  19
ENDBRANCH  12  17
ENDBRANCH  10  11
ENDBRANCH   8  10
ENDBRANCH   7   8
ENDBRANCH   6   7
ENDBRANCH   5   6
ENDBRANCH   4   5
ENDBRANCH   3   4
ENDBRANCH   2   3
ENDBRANCH   1   2
BRANCH   1  27
ATOM     27  C   UNL A   1      35.139  24.803  25.464  1.00  0.00     0.188 C 
BRANCH  27  28
ATOM     28  C   UNL A   1      35.679  23.764  24.472  1.00  0.00     0.188 C 
BRANCH  28  29
ATOM     29  O   UNL A   1      36.189  22.599  25.114  1.00  0.00    -0.376 OA
BRANCH  29  30
ATOM     30  C   UNL A   1      36.664  21.521  24.328  1.00  0.00     0.202 C 
BRANCH  30  31
ATOM     31  C   UNL A   1      37.791  20.630  24.879  1.00  0.00     0.261 C 
BRANCH  31  32
ATOM     32  O   UNL A   1      38.286  20.926  26.189  1.00  0.00    -0.460 OA
BRANCH  32  33
ATOM     33  C   UNL A   1      39.627  20.914  26.372  1.00  0.00     0.338 C 
ATOM     34  O   UNL A   1      40.399  20.052  26.020  1.00  0.00    -0.246 OA
BRANCH  33  35
ATOM     35  C   UNL A   1      40.012  22.252  26.891  1.00  0.00     0.060 A 
ATOM     36  C   UNL A   1      39.306  23.373  26.435  1.00  0.00     0.016 A 
ATOM     37  C   UNL A   1      41.018  22.394  27.850  1.00  0.00     0.016 A 
ATOM     38  C   UNL A   1      39.616  24.643  26.921  1.00  0.00     0.010 A 
ATOM     39  C   UNL A   1      41.355  23.672  28.308  1.00  0.00     0.010 A 
ATOM     40  C   UNL A   1      40.676  24.804  27.822  1.00  0.00    -0.014 A 
BRANCH  40  41
ATOM     41  C   UNL A   1      41.218  26.161  28.068  1.00  0.00     0.031 A 
ATOM     42  C   UNL A   1      42.598  26.469  27.552  1.00  0.00     0.074 A 
ATOM     43  C   UNL A   1      40.510  27.101  28.719  1.00  0.00     0.049 A 
ATOM     44  N   UNL A   1      43.300  27.564  27.660  1.00  0.00    -0.248 NA
ATOM     45  C   UNL A   1      43.275  25.389  26.812  1.00  0.00     0.031 C 
ATOM     46  C   UNL A   1      39.159  26.928  29.248  1.00  0.00     0.029 A 
ATOM     47  N   UNL A   1      40.848  28.385  29.066  1.00  0.00    -0.354 N 
ATOM     48  C   UNL A   1      44.510  27.299  27.031  1.00  0.00     0.074 A 
ATOM     49  C   UNL A   1      44.452  25.937  26.551  1.00  0.00     0.031 C 
ATOM     50  C   UNL A   1      38.795  28.056  29.883  1.00  0.00     0.029 A 
ATOM     51  C   UNL A   1      39.895  29.018  29.829  1.00  0.00     0.049 A 
ATOM     52  H   UNL A   1      41.693  28.812  28.796  1.00  0.00     0.167 HD
ATOM     53  C   UNL A   1      45.572  28.118  26.858  1.00  0.00     0.034 A 
ATOM     54  C   UNL A   1      39.924  30.222  30.433  1.00  0.00     0.034 A 
ATOM     55  C   UNL A   1      45.627  29.472  27.337  1.00  0.00     0.049 A 
ATOM     56  C   UNL A   1      41.138  31.102  30.264  1.00  0.00     0.074 A 
ATOM     57  C   UNL A   1      46.643  30.398  27.183  1.00  0.00     0.029 A 
ATOM     58  N   UNL A   1      44.632  30.088  28.080  1.00  0.00    -0.354 N 
ATOM     59  N   UNL A   1      42.232  30.880  29.576  1.00  0.00    -0.248 NA
ATOM     60  C   UNL A   1      41.108  32.414  30.929  1.00  0.00     0.031 C 
ATOM     61  C   UNL A   1      46.280  31.560  27.871  1.00  0.00     0.029 A 
ATOM     62  C   UNL A   1      45.017  31.376  28.409  1.00  0.00     0.049 A 
ATOM     63  H   UNL A   1      43.778  29.670  28.337  1.00  0.00     0.167 HD
ATOM     64  C   UNL A   1      42.999  32.036  29.688  1.00  0.00     0.074 A 
ATOM     65  C   UNL A   1      42.237  32.962  30.499  1.00  0.00     0.031 C 
ATOM     66  C   UNL A   1      44.224  32.305  29.174  1.00  0.00     0.034 A 
BRANCH  53  67
ATOM     67  C   UNL A   1      46.764  27.569  26.123  1.00  0.00     0.023 A 
ATOM     68  C   UNL A   1      46.893  27.777  24.734  1.00  0.00     0.012 A 
ATOM     69  C   UNL A   1      47.780  26.881  26.815  1.00  0.00     0.148 A 
ATOM     70  C   UNL A   1      47.994  27.279  24.041  1.00  0.00     0.002 A 
ATOM     71  C   UNL A   1      48.899  26.431  26.126  1.00  0.00     0.091 A 
ATOM     72  F   UNL A   1      47.627  26.671  28.130  1.00  0.00    -0.205 F 
ATOM     73  C   UNL A   1      49.002  26.616  24.737  1.00  0.00     0.022 A 
BRANCH  71  74
ATOM     74  S   UNL A   1      50.286  25.638  26.945  1.00  0.00     0.127 S 
ATOM     75  O   UNL A   1      49.665  24.420  27.463  1.00  0.00    -0.237 OA
ATOM     76  O   UNL A   1      51.215  25.425  25.834  1.00  0.00    -0.237 OA
ATOM     77  O   UNL A   1      50.750  26.579  27.955  1.00  0.00    -0.744 OA
ENDBRANCH  71  74
ENDBRANCH  53  67
BRANCH  54  78
ATOM     78  C   UNL A   1      38.760  30.682  31.246  1.00  0.00     0.023 A 
ATOM     79  C   UNL A   1      38.761  30.487  32.641  1.00  0.00     0.012 A 
ATOM     80  C   UNL A   1      37.653  31.310  30.642  1.00  0.00     0.148 A 
ATOM     81  C   UNL A   1      37.666  30.875  33.414  1.00  0.00     0.002 A 
ATOM     82  C   UNL A   1      36.592  31.748  31.425  1.00  0.00     0.091 A 
ATOM     83  F   UNL A   1      37.665  31.473  29.312  1.00  0.00    -0.205 F 
ATOM     84  C   UNL A   1      36.587  31.514  32.809  1.00  0.00     0.022 A 
BRANCH  82  85
ATOM     85  S   UNL A   1      35.216  32.685  30.751  1.00  0.00     0.127 S 
ATOM     86  O   UNL A   1      34.188  32.481  31.769  1.00  0.00    -0.237 OA
ATOM     87  O   UNL A   1      35.771  34.036  30.697  1.00  0.00    -0.237 OA
ATOM     88  O   UNL A   1      34.936  32.097  29.448  1.00  0.00    -0.744 OA
ENDBRANCH  82  85
ENDBRANCH  54  78
BRANCH  66  89
ATOM     89  C   UNL A   1      44.808  33.673  29.418  1.00  0.00     0.023 A 
ATOM     90  C   UNL A   1      45.548  33.932  30.589  1.00  0.00     0.012 A 
ATOM     91  C   UNL A   1      44.688  34.682  28.440  1.00  0.00     0.148 A 
ATOM     92  C   UNL A   1      46.129  35.182  30.797  1.00  0.00     0.002 A 
ATOM     93  C   UNL A   1      45.316  35.906  28.630  1.00  0.00     0.091 A 
ATOM     94  F   UNL A   1      43.969  34.421  27.339  1.00  0.00    -0.205 F 
ATOM     95  C   UNL A   1      46.025  36.164  29.814  1.00  0.00     0.022 A 
BRANCH  93  96
ATOM     96  S   UNL A   1      45.322  37.192  27.374  1.00  0.00     0.127 S 
ATOM     97  O   UNL A   1      45.967  36.509  26.253  1.00  0.00    -0.237 OA
ATOM     98  O   UNL A   1      43.893  37.450  27.190  1.00  0.00    -0.237 OA
ATOM     99  O   UNL A   1      46.071  38.305  27.939  1.00  0.00    -0.744 OA
ENDBRANCH  93  96
ENDBRANCH  66  89
ENDBRANCH  40  41
ENDBRANCH  33  35
ENDBRANCH  32  33
ENDBRANCH  31  32
ENDBRANCH  30  31
ENDBRANCH  29  30
ENDBRANCH  28  29
ENDBRANCH  27  28
ENDBRANCH   1  27
TORSDOF 26
ENDMDL
MODEL 2
REMARK VINA RESULT:      -9.4      4.711      7.630
REMARK SMILES Cc1cccc(Cl)c1Nc1ccccc1CC(=O)OCCOCCOCCOCCOC(=O)c1ccc(-c2c3nc(c(-c4cccc(S(=O)(=O)[O-])c4F)c4ccc([nH]4)c(-c4cccc(S(=O)(=O)[O-])c4F)c4nc(c(-c5cccc(S(=O)(=O)[O-])c5F)c5ccc2[nH]5)C=C4)C=C3)cc1
REMARK SMILES IDX 25 1 24 2 23 3 22 4 21 5 20 6 19 7 17 8 18 9 16 10 15 11
REMARK SMILES IDX 10 12 11 13 12 14 14 15 13 16 9 17 8 19 1 20 2 21 3 22 4 23
REMARK SMILES IDX 6 24 5 25 7 26 26 27 27 28 28 29 29 30 30 31 31 32 32 33
REMARK SMILES IDX 33 34 34 35 35 36 96 37 36 38 95 39 37 40 38 41 39 42 89 43
REMARK SMILES IDX 40 44 94 45 88 46 90 47 41 48 93 49 87 50 86 51 42 53 74 54
REMARK SMILES IDX 54 55 73 56 55 57 58 58 72 59 91 60 56 61 57 62 71 64 92 65
REMARK SMILES IDX 59 66 43 67 44 68 52 69 45 70 47 71 53 72 46 73 48 74 49 75
REMARK SMILES IDX 50 76 51 77 75 78 76 79 84 80 77 81 79 82 85 83 78 84 80 85
REMARK SMILES IDX 81 86 82 87 83 88 60 89 61 90 69 91 62 92 64 93 70 94 63 95
REMARK SMILES IDX 65 96 66 97 67 98 68 99
REMARK H PARENT 9 18 90 52 58 63
REMARK Flexibility Score: inf
ROOT
ATOM      1  O   UNL A   1      33.407  28.679  23.732  1.00  0.00    -0.377 OA
ENDROOT
BRANCH   1   2
ATOM      2  C   UNL A   1      33.535  27.968  24.946  1.00  0.00     0.188 C 
BRANCH   2   3
ATOM      3  C   UNL A   1      33.656  26.437  24.767  1.00  0.00     0.188 C 
BRANCH   3   4
ATOM      4  O   UNL A   1      32.757  25.534  25.412  1.00  0.00    -0.376 OA
BRANCH   4   5
ATOM      5  C   UNL A   1      31.474  25.314  24.850  1.00  0.00     0.202 C 
BRANCH   5   6
ATOM      6  C   UNL A   1      30.973  23.856  24.792  1.00  0.00     0.261 C 
BRANCH   6   7
ATOM      7  O   UNL A   1      30.680  23.343  23.469  1.00  0.00    -0.463 OA
BRANCH   7   8
ATOM      8  C   UNL A   1      31.722  22.871  22.751  1.00  0.00     0.310 C 
ATOM      9  O   UNL A   1      32.657  23.582  22.380  1.00  0.00    -0.252 OA
BRANCH   8  10
ATOM     10  C   UNL A   1      31.776  21.367  22.522  1.00  0.00     0.160 C 
BRANCH  10  11
ATOM     11  C   UNL A   1      32.643  20.400  23.328  1.00  0.00    -0.013 A 
ATOM     12  C   UNL A   1      33.690  20.793  24.188  1.00  0.00     0.042 A 
ATOM     13  C   UNL A   1      34.504  19.809  24.791  1.00  0.00     0.026 A 
ATOM     14  C   UNL A   1      34.220  18.451  24.663  1.00  0.00     0.002 A 
ATOM     15  C   UNL A   1      32.325  19.021  23.287  1.00  0.00     0.006 A 
ATOM     16  C   UNL A   1      33.101  18.061  23.944  1.00  0.00     0.000 A 
BRANCH  12  17
ATOM     17  N   UNL A   1      33.849  22.107  24.671  1.00  0.00    -0.354 N 
ATOM     18  H   UNL A   1      33.019  22.633  24.737  1.00  0.00     0.167 HD
BRANCH  17  19
ATOM     19  C   UNL A   1      35.025  22.783  25.074  1.00  0.00     0.060 A 
ATOM     20  C   UNL A   1      34.018  22.951  27.405  1.00  0.00     0.046 C 
ATOM     21  C   UNL A   1      35.176  23.074  26.448  1.00  0.00    -0.026 A 
ATOM     22  C   UNL A   1      36.441  23.421  26.951  1.00  0.00     0.005 A 
ATOM     23  C   UNL A   1      37.547  23.517  26.109  1.00  0.00     0.002 A 
ATOM     24  C   UNL A   1      36.132  23.019  24.218  1.00  0.00     0.064 A 
ATOM     25  C   UNL A   1      37.387  23.346  24.740  1.00  0.00     0.023 A 
ATOM     26  Cl  UNL A   1      36.033  22.954  22.486  1.00  0.00    -0.082 Cl
ENDBRANCH  17  19
ENDBRANCH  12  17
ENDBRANCH  10  11
ENDBRANCH   8  10
ENDBRANCH   7   8
ENDBRANCH   6   7
ENDBRANCH   5   6
ENDBRANCH   4   5
ENDBRANCH   3   4
ENDBRANCH   2   3
ENDBRANCH   1   2
BRANCH   1  27
ATOM     27  C   UNL A   1      32.097  28.765  23.220  1.00  0.00     0.188 C 
BRANCH  27  28
ATOM     28  C   UNL A   1      31.011  28.929  24.292  1.00  0.00     0.188 C 
BRANCH  28  29
ATOM     29  O   UNL A   1      30.355  30.192  24.224  1.00  0.00    -0.376 OA
BRANCH  29  30
ATOM     30  C   UNL A   1      30.654  31.185  25.189  1.00  0.00     0.202 C 
BRANCH  30  31
ATOM     31  C   UNL A   1      31.422  30.789  26.462  1.00  0.00     0.261 C 
BRANCH  31  32
ATOM     32  O   UNL A   1      32.835  31.016  26.477  1.00  0.00    -0.460 OA
BRANCH  32  33
ATOM     33  C   UNL A   1      33.303  32.024  27.251  1.00  0.00     0.338 C 
ATOM     34  O   UNL A   1      32.711  33.030  27.566  1.00  0.00    -0.246 OA
BRANCH  33  35
ATOM     35  C   UNL A   1      34.595  31.572  27.827  1.00  0.00     0.060 A 
ATOM     36  C   UNL A   1      34.721  30.232  28.217  1.00  0.00     0.016 A 
ATOM     37  C   UNL A   1      35.684  32.442  27.932  1.00  0.00     0.016 A 
ATOM     38  C   UNL A   1      35.928  29.762  28.734  1.00  0.00     0.010 A 
ATOM     39  C   UNL A   1      36.882  31.979  28.486  1.00  0.00     0.010 A 
ATOM     40  C   UNL A   1      36.998  30.646  28.917  1.00  0.00    -0.014 A 
BRANCH  40  41
ATOM     41  C   UNL A   1      38.140  30.234  29.767  1.00  0.00     0.031 A 
ATOM     42  C   UNL A   1      39.141  29.276  29.180  1.00  0.00     0.074 A 
ATOM     43  C   UNL A   1      38.299  30.700  31.019  1.00  0.00     0.049 A 
ATOM     44  N   UNL A   1      40.204  28.748  29.724  1.00  0.00    -0.248 NA
ATOM     45  C   UNL A   1      38.906  28.858  27.786  1.00  0.00     0.031 C 
ATOM     46  C   UNL A   1      37.409  31.645  31.689  1.00  0.00     0.029 A 
ATOM     47  N   UNL A   1      39.259  30.415  31.957  1.00  0.00    -0.354 N 
ATOM     48  C   UNL A   1      40.748  27.915  28.753  1.00  0.00     0.074 A 
ATOM     49  C   UNL A   1      39.894  27.999  27.590  1.00  0.00     0.031 C 
ATOM     50  C   UNL A   1      37.847  31.837  32.946  1.00  0.00     0.029 A 
ATOM     51  C   UNL A   1      39.031  31.009  33.176  1.00  0.00     0.049 A 
ATOM     52  H   UNL A   1      40.037  29.839  31.775  1.00  0.00     0.167 HD
ATOM     53  C   UNL A   1      41.865  27.154  28.820  1.00  0.00     0.034 A 
ATOM     54  C   UNL A   1      39.688  30.875  34.345  1.00  0.00     0.034 A 
ATOM     55  C   UNL A   1      42.712  27.073  29.977  1.00  0.00     0.049 A 
ATOM     56  C   UNL A   1      40.906  29.987  34.408  1.00  0.00     0.074 A 
ATOM     57  C   UNL A   1      43.886  26.360  30.135  1.00  0.00     0.029 A 
ATOM     58  N   UNL A   1      42.465  27.711  31.183  1.00  0.00    -0.354 N 
ATOM     59  N   UNL A   1      41.472  29.288  33.452  1.00  0.00    -0.248 NA
ATOM     60  C   UNL A   1      41.597  29.893  35.703  1.00  0.00     0.031 C 
ATOM     61  C   UNL A   1      44.326  26.532  31.451  1.00  0.00     0.029 A 
ATOM     62  C   UNL A   1      43.455  27.393  32.097  1.00  0.00     0.049 A 
ATOM     63  H   UNL A   1      41.698  28.301  31.364  1.00  0.00     0.167 HD
ATOM     64  C   UNL A   1      42.604  28.709  34.018  1.00  0.00     0.074 A 
ATOM     65  C   UNL A   1      42.652  29.150  35.396  1.00  0.00     0.031 C 
ATOM     66  C   UNL A   1      43.517  27.882  33.451  1.00  0.00     0.034 A 
BRANCH  53  67
ATOM     67  C   UNL A   1      42.232  26.347  27.604  1.00  0.00     0.023 A 
ATOM     68  C   UNL A   1      42.952  26.947  26.551  1.00  0.00     0.012 A 
ATOM     69  C   UNL A   1      41.899  24.981  27.523  1.00  0.00     0.148 A 
ATOM     70  C   UNL A   1      43.304  26.210  25.422  1.00  0.00     0.002 A 
ATOM     71  C   UNL A   1      42.297  24.241  26.417  1.00  0.00     0.091 A 
ATOM     72  F   UNL A   1      41.191  24.436  28.522  1.00  0.00    -0.205 F 
ATOM     73  C   UNL A   1      42.987  24.855  25.359  1.00  0.00     0.022 A 
BRANCH  71  74
ATOM     74  S   UNL A   1      42.005  22.474  26.279  1.00  0.00     0.127 S 
ATOM     75  O   UNL A   1      42.654  22.167  25.006  1.00  0.00    -0.237 OA
ATOM     76  O   UNL A   1      42.700  21.958  27.459  1.00  0.00    -0.237 OA
ATOM     77  O   UNL A   1      40.560  22.301  26.299  1.00  0.00    -0.744 OA
ENDBRANCH  71  74
ENDBRANCH  53  67
BRANCH  54  78
ATOM     78  C   UNL A   1      39.223  31.612  35.556  1.00  0.00     0.023 A 
ATOM     79  C   UNL A   1      38.256  31.030  36.400  1.00  0.00     0.012 A 
ATOM     80  C   UNL A   1      39.733  32.886  35.874  1.00  0.00     0.148 A 
ATOM     81  C   UNL A   1      37.779  31.719  37.516  1.00  0.00     0.002 A 
ATOM     82  C   UNL A   1      39.297  33.541  37.020  1.00  0.00     0.091 A 
ATOM     83  F   UNL A   1      40.640  33.429  35.051  1.00  0.00    -0.205 F 
ATOM     84  C   UNL A   1      38.306  32.968  37.832  1.00  0.00     0.022 A 
BRANCH  82  85
ATOM     85  S   UNL A   1      40.004  35.098  37.571  1.00  0.00     0.127 S 
ATOM     86  O   UNL A   1      39.616  36.002  36.491  1.00  0.00    -0.237 OA
ATOM     87  O   UNL A   1      39.305  35.313  38.837  1.00  0.00    -0.237 OA
ATOM     88  O   UNL A   1      41.434  34.857  37.707  1.00  0.00    -0.744 OA
ENDBRANCH  82  85
ENDBRANCH  54  78
BRANCH  66  89
ATOM     89  C   UNL A   1      44.684  27.435  34.294  1.00  0.00     0.023 A 
ATOM     90  C   UNL A   1      45.932  28.079  34.178  1.00  0.00     0.012 A 
ATOM     91  C   UNL A   1      44.516  26.424  35.263  1.00  0.00     0.148 A 
ATOM     92  C   UNL A   1      47.002  27.701  34.989  1.00  0.00     0.002 A 
ATOM     93  C   UNL A   1      45.570  26.091  36.104  1.00  0.00     0.091 A 
ATOM     94  F   UNL A   1      43.325  25.814  35.348  1.00  0.00    -0.205 F 
ATOM     95  C   UNL A   1      46.818  26.718  35.959  1.00  0.00     0.022 A 
BRANCH  93  96
ATOM     96  S   UNL A   1      45.396  24.911  37.447  1.00  0.00     0.127 S 
ATOM     97  O   UNL A   1      44.323  25.515  38.236  1.00  0.00    -0.237 OA
ATOM     98  O   UNL A   1      45.017  23.689  36.737  1.00  0.00    -0.237 OA
ATOM     99  O   UNL A   1      46.694  24.851  38.104  1.00  0.00    -0.744 OA
ENDBRANCH  93  96
ENDBRANCH  66  89
ENDBRANCH  40  41
ENDBRANCH  33  35
ENDBRANCH  32  33
ENDBRANCH  31  32
ENDBRANCH  30  31
ENDBRANCH  29  30
ENDBRANCH  28  29
ENDBRANCH  27  28
ENDBRANCH   1  27
TORSDOF 26
ENDMDL
MODEL 3
REMARK VINA RESULT:      -9.3      4.477      9.337
REMARK SMILES Cc1cccc(Cl)c1Nc1ccccc1CC(=O)OCCOCCOCCOCCOC(=O)c1ccc(-c2c3nc(c(-c4cccc(S(=O)(=O)[O-])c4F)c4ccc([nH]4)c(-c4cccc(S(=O)(=O)[O-])c4F)c4nc(c(-c5cccc(S(=O)(=O)[O-])c5F)c5ccc2[nH]5)C=C4)C=C3)cc1
REMARK SMILES IDX 25 1 24 2 23 3 22 4 21 5 20 6 19 7 17 8 18 9 16 10 15 11
REMARK SMILES IDX 10 12 11 13 12 14 14 15 13 16 9 17 8 19 1 20 2 21 3 22 4 23
REMARK SMILES IDX 6 24 5 25 7 26 26 27 27 28 28 29 29 30 30 31 31 32 32 33
REMARK SMILES IDX 33 34 34 35 35 36 96 37 36 38 95 39 37 40 38 41 39 42 89 43
REMARK SMILES IDX 40 44 94 45 88 46 90 47 41 48 93 49 87 50 86 51 42 53 74 54
REMARK SMILES IDX 54 55 73 56 55 57 58 58 72 59 91 60 56 61 57 62 71 64 92 65
REMARK SMILES IDX 59 66 43 67 44 68 52 69 45 70 47 71 53 72 46 73 48 74 49 75
REMARK SMILES IDX 50 76 51 77 75 78 76 79 84 80 77 81 79 82 85 83 78 84 80 85
REMARK SMILES IDX 81 86 82 87 83 88 60 89 61 90 69 91 62 92 64 93 70 94 63 95
REMARK SMILES IDX 65 96 66 97 67 98 68 99
REMARK H PARENT 9 18 90 52 58 63
REMARK Flexibility Score: inf
ROOT
ATOM      1  O   UNL A   1      34.177  26.190  25.310  1.00  0.00    -0.377 OA
ENDROOT
BRANCH   1   2
ATOM      2  C   UNL A   1      33.827  24.931  25.847  1.00  0.00     0.188 C 
BRANCH   2   3
ATOM      3  C   UNL A   1      34.966  23.886  25.791  1.00  0.00     0.188 C 
BRANCH   3   4
ATOM      4  O   UNL A   1      36.336  24.277  25.691  1.00  0.00    -0.376 OA
BRANCH   4   5
ATOM      5  C   UNL A   1      37.348  23.369  26.096  1.00  0.00     0.202 C 
BRANCH   5   6
ATOM      6  C   UNL A   1      38.009  22.517  24.991  1.00  0.00     0.261 C 
BRANCH   6   7
ATOM      7  O   UNL A   1      37.109  21.704  24.200  1.00  0.00    -0.463 OA
BRANCH   7   8
ATOM      8  C   UNL A   1      36.713  20.528  24.738  1.00  0.00     0.310 C 
ATOM      9  O   UNL A   1      37.501  19.630  25.038  1.00  0.00    -0.252 OA
BRANCH   8  10
ATOM     10  C   UNL A   1      35.240  20.396  25.096  1.00  0.00     0.160 C 
BRANCH  10  11
ATOM     11  C   UNL A   1      34.428  19.109  24.956  1.00  0.00    -0.013 A 
ATOM     12  C   UNL A   1      33.066  18.980  25.306  1.00  0.00     0.042 A 
ATOM     13  C   UNL A   1      32.448  17.712  25.247  1.00  0.00     0.026 A 
ATOM     14  C   UNL A   1      33.110  16.603  24.729  1.00  0.00     0.002 A 
ATOM     15  C   UNL A   1      35.046  17.988  24.352  1.00  0.00     0.006 A 
ATOM     16  C   UNL A   1      34.399  16.753  24.240  1.00  0.00     0.000 A 
BRANCH  12  17
ATOM     17  N   UNL A   1      32.207  20.079  25.502  1.00  0.00    -0.354 N 
ATOM     18  H   UNL A   1      31.810  20.147  26.400  1.00  0.00     0.167 HD
BRANCH  17  19
ATOM     19  C   UNL A   1      31.832  21.101  24.598  1.00  0.00     0.060 A 
ATOM     20  C   UNL A   1      31.051  22.461  26.602  1.00  0.00     0.046 C 
ATOM     21  C   UNL A   1      31.395  22.330  25.140  1.00  0.00    -0.026 A 
ATOM     22  C   UNL A   1      31.341  23.471  24.324  1.00  0.00     0.005 A 
ATOM     23  C   UNL A   1      31.679  23.405  22.974  1.00  0.00     0.002 A 
ATOM     24  C   UNL A   1      32.039  21.029  23.195  1.00  0.00     0.064 A 
ATOM     25  C   UNL A   1      31.998  22.180  22.403  1.00  0.00     0.023 A 
ATOM     26  Cl  UNL A   1      32.327  19.543  22.346  1.00  0.00    -0.082 Cl
ENDBRANCH  17  19
ENDBRANCH  12  17
ENDBRANCH  10  11
ENDBRANCH   8  10
ENDBRANCH   7   8
ENDBRANCH   6   7
ENDBRANCH   5   6
ENDBRANCH   4   5
ENDBRANCH   3   4
ENDBRANCH   2   3
ENDBRANCH   1   2
BRANCH   1  27
ATOM     27  C   UNL A   1      33.684  26.449  24.016  1.00  0.00     0.188 C 
BRANCH  27  28
ATOM     28  C   UNL A   1      32.442  27.350  23.983  1.00  0.00     0.188 C 
BRANCH  28  29
ATOM     29  O   UNL A   1      31.803  27.458  25.252  1.00  0.00    -0.376 OA
BRANCH  29  30
ATOM     30  C   UNL A   1      31.822  28.696  25.940  1.00  0.00     0.202 C 
BRANCH  30  31
ATOM     31  C   UNL A   1      32.576  28.801  27.277  1.00  0.00     0.261 C 
BRANCH  31  32
ATOM     32  O   UNL A   1      33.996  28.971  27.223  1.00  0.00    -0.460 OA
BRANCH  32  33
ATOM     33  C   UNL A   1      34.505  30.153  27.645  1.00  0.00     0.338 C 
ATOM     34  O   UNL A   1      33.917  31.206  27.732  1.00  0.00    -0.246 OA
BRANCH  33  35
ATOM     35  C   UNL A   1      35.859  29.878  28.191  1.00  0.00     0.060 A 
ATOM     36  C   UNL A   1      36.968  30.063  27.353  1.00  0.00     0.016 A 
ATOM     37  C   UNL A   1      36.038  29.494  29.522  1.00  0.00     0.016 A 
ATOM     38  C   UNL A   1      38.257  29.845  27.838  1.00  0.00     0.010 A 
ATOM     39  C   UNL A   1      37.329  29.238  29.996  1.00  0.00     0.010 A 
ATOM     40  C   UNL A   1      38.440  29.383  29.147  1.00  0.00    -0.014 A 
BRANCH  40  41
ATOM     41  C   UNL A   1      39.758  28.833  29.543  1.00  0.00     0.031 A 
ATOM     42  C   UNL A   1      40.522  29.553  30.621  1.00  0.00     0.074 A 
ATOM     43  C   UNL A   1      40.264  27.723  28.977  1.00  0.00     0.049 A 
ATOM     44  N   UNL A   1      41.699  29.290  31.123  1.00  0.00    -0.248 NA
ATOM     45  C   UNL A   1      39.865  30.732  31.212  1.00  0.00     0.031 C 
ATOM     46  C   UNL A   1      39.610  26.929  27.940  1.00  0.00     0.029 A 
ATOM     47  N   UNL A   1      41.463  27.088  29.185  1.00  0.00    -0.354 N 
ATOM     48  C   UNL A   1      41.936  30.284  32.064  1.00  0.00     0.074 A 
ATOM     49  C   UNL A   1      40.788  31.161  32.059  1.00  0.00     0.031 C 
ATOM     50  C   UNL A   1      40.433  25.929  27.576  1.00  0.00     0.029 A 
ATOM     51  C   UNL A   1      41.679  26.029  28.336  1.00  0.00     0.049 A 
ATOM     52  H   UNL A   1      42.107  27.365  29.876  1.00  0.00     0.167 HD
ATOM     53  C   UNL A   1      43.011  30.447  32.871  1.00  0.00     0.034 A 
ATOM     54  C   UNL A   1      42.768  25.251  28.175  1.00  0.00     0.034 A 
ATOM     55  C   UNL A   1      44.151  29.573  32.874  1.00  0.00     0.049 A 
ATOM     56  C   UNL A   1      43.972  25.479  29.055  1.00  0.00     0.074 A 
ATOM     57  C   UNL A   1      45.275  29.630  33.677  1.00  0.00     0.029 A 
ATOM     58  N   UNL A   1      44.321  28.494  32.020  1.00  0.00    -0.354 N 
ATOM     59  N   UNL A   1      44.142  26.356  30.015  1.00  0.00    -0.248 NA
ATOM     60  C   UNL A   1      45.125  24.589  28.850  1.00  0.00     0.031 C 
ATOM     61  C   UNL A   1      46.146  28.612  33.278  1.00  0.00     0.029 A 
ATOM     62  C   UNL A   1      45.542  27.888  32.263  1.00  0.00     0.049 A 
ATOM     63  H   UNL A   1      43.672  28.203  31.340  1.00  0.00     0.167 HD
ATOM     64  C   UNL A   1      45.397  26.097  30.556  1.00  0.00     0.074 A 
ATOM     65  C   UNL A   1      45.939  24.970  29.826  1.00  0.00     0.031 C 
ATOM     66  C   UNL A   1      46.046  26.735  31.561  1.00  0.00     0.034 A 
BRANCH  53  67
ATOM     67  C   UNL A   1      43.002  31.619  33.814  1.00  0.00     0.023 A 
ATOM     68  C   UNL A   1      43.365  32.900  33.350  1.00  0.00     0.012 A 
ATOM     69  C   UNL A   1      42.595  31.459  35.153  1.00  0.00     0.148 A 
ATOM     70  C   UNL A   1      43.356  33.996  34.210  1.00  0.00     0.002 A 
ATOM     71  C   UNL A   1      42.541  32.565  35.992  1.00  0.00     0.091 A 
ATOM     72  F   UNL A   1      42.280  30.229  35.582  1.00  0.00    -0.205 F 
ATOM     73  C   UNL A   1      42.933  33.831  35.528  1.00  0.00     0.022 A 
BRANCH  71  74
ATOM     74  S   UNL A   1      41.936  32.470  37.680  1.00  0.00     0.127 S 
ATOM     75  O   UNL A   1      40.496  32.629  37.486  1.00  0.00    -0.237 OA
ATOM     76  O   UNL A   1      42.355  31.126  38.079  1.00  0.00    -0.237 OA
ATOM     77  O   UNL A   1      42.589  33.551  38.404  1.00  0.00    -0.744 OA
ENDBRANCH  71  74
ENDBRANCH  53  67
BRANCH  54  78
ATOM     78  C   UNL A   1      42.772  24.167  27.149  1.00  0.00     0.023 A 
ATOM     79  C   UNL A   1      43.384  24.390  25.900  1.00  0.00     0.012 A 
ATOM     80  C   UNL A   1      42.170  22.920  27.405  1.00  0.00     0.148 A 
ATOM     81  C   UNL A   1      43.365  23.403  24.913  1.00  0.00     0.002 A 
ATOM     82  C   UNL A   1      42.206  21.921  26.440  1.00  0.00     0.091 A 
ATOM     83  F   UNL A   1      41.579  22.733  28.593  1.00  0.00    -0.205 F 
ATOM     84  C   UNL A   1      42.786  22.167  25.185  1.00  0.00     0.022 A 
BRANCH  82  85
ATOM     85  S   UNL A   1      41.593  20.261  26.743  1.00  0.00     0.127 S 
ATOM     86  O   UNL A   1      40.178  20.508  27.012  1.00  0.00    -0.237 OA
ATOM     87  O   UNL A   1      41.871  19.600  25.469  1.00  0.00    -0.237 OA
ATOM     88  O   UNL A   1      42.368  19.751  27.867  1.00  0.00    -0.744 OA
ENDBRANCH  82  85
ENDBRANCH  54  78
BRANCH  66  89
ATOM     89  C   UNL A   1      47.395  26.207  31.979  1.00  0.00     0.023 A 
ATOM     90  C   UNL A   1      48.568  26.684  31.362  1.00  0.00     0.012 A 
ATOM     91  C   UNL A   1      47.499  25.292  33.047  1.00  0.00     0.148 A 
ATOM     92  C   UNL A   1      49.820  26.233  31.777  1.00  0.00     0.002 A 
ATOM     93  C   UNL A   1      48.753  24.890  33.491  1.00  0.00     0.091 A 
ATOM     94  F   UNL A   1      46.371  24.839  33.613  1.00  0.00    -0.205 F 
ATOM     95  C   UNL A   1      49.914  25.347  32.848  1.00  0.00     0.022 A 
BRANCH  93  96
ATOM     96  S   UNL A   1      48.973  23.833  34.928  1.00  0.00     0.127 S 
ATOM     97  O   UNL A   1      48.326  24.620  35.977  1.00  0.00    -0.237 OA
ATOM     98  O   UNL A   1      48.247  22.624  34.536  1.00  0.00    -0.237 OA
ATOM     99  O   UNL A   1      50.410  23.653  35.081  1.00  0.00    -0.744 OA
ENDBRANCH  93  96
ENDBRANCH  66  89
ENDBRANCH  40  41
ENDBRANCH  33  35
ENDBRANCH  32  33
ENDBRANCH  31  32
ENDBRANCH  30  31
ENDBRANCH  29  30
ENDBRANCH  28  29
ENDBRANCH  27  28
ENDBRANCH   1  27
TORSDOF 26
ENDMDL
