MODEL 1
REMARK VINA RESULT:      -6.8      0.000      0.000
REMARK SMILES C[C@@H](C(=O)OCCOCCOCCOCCOC(=O)c1ccc(-c2c3nc(c(-c4cccc(S(=O)(=O)[O-])c4F)c4ccc([nH]4)c(-c4cccc(S(=O)(=O)[O-])c4F)c4nc(c(-c5cccc(S(=O)(=O)[O-])c5F)c5ccc2[nH]5)C=C4)C=C3)cc1)c1ccc(-c2ccccc2)cc1
REMARK SMILES IDX 12 1 11 2 10 3 9 4 8 5 7 6 6 7 5 8 3 9 4 10 2 11 1 12 83 13
REMARK SMILES IDX 84 14 94 15 85 16 93 17 86 18 87 19 88 20 92 21 89 22 91 23
REMARK SMILES IDX 90 24 13 25 14 26 15 27 16 28 17 29 18 30 19 31 20 32 21 33
REMARK SMILES IDX 82 34 22 35 81 36 23 37 24 38 25 39 75 40 26 41 80 42 74 43
REMARK SMILES IDX 76 44 27 45 79 46 73 47 72 48 28 50 60 51 40 52 59 53 41 54
REMARK SMILES IDX 44 55 58 56 77 57 42 58 43 59 57 61 78 62 45 63 29 64 30 65
REMARK SMILES IDX 38 66 31 67 33 68 39 69 32 70 34 71 35 72 36 73 37 74 61 75
REMARK SMILES IDX 62 76 70 77 63 78 65 79 71 80 64 81 66 82 67 83 68 84 69 85
REMARK SMILES IDX 46 86 47 87 55 88 48 89 50 90 56 91 49 92 51 93 52 94 53 95
REMARK SMILES IDX 54 96
REMARK H PARENT 76 49 44 60
REMARK Flexibility Score: inf
ROOT
ATOM      1  C   UNL A   1      37.857  32.462  41.630  1.00  0.00     0.188 C 
ENDROOT
BRANCH   1   2
ATOM      2  O   UNL A   1      36.764  32.850  40.816  1.00  0.00    -0.377 OA
BRANCH   2   3
ATOM      3  C   UNL A   1      36.889  32.617  39.433  1.00  0.00     0.188 C 
BRANCH   3   4
ATOM      4  C   UNL A   1      36.797  31.134  39.020  1.00  0.00     0.188 C 
BRANCH   4   5
ATOM      5  O   UNL A   1      37.471  30.689  37.858  1.00  0.00    -0.376 OA
BRANCH   5   6
ATOM      6  C   UNL A   1      38.022  31.645  36.962  1.00  0.00     0.202 C 
BRANCH   6   7
ATOM      7  C   UNL A   1      37.848  31.566  35.427  1.00  0.00     0.261 C 
BRANCH   7   8
ATOM      8  O   UNL A   1      37.362  32.733  34.734  1.00  0.00    -0.463 OA
BRANCH   8   9
ATOM      9  C   UNL A   1      37.271  32.657  33.380  1.00  0.00     0.313 C 
ATOM     10  O   UNL A   1      36.252  32.310  32.789  1.00  0.00    -0.252 OA
BRANCH   9  11
ATOM     11  C   UNL A   1      38.566  33.047  32.631  1.00  0.00     0.126 C 
ATOM     12  C   UNL A   1      38.623  34.394  31.901  1.00  0.00     0.025 C 
BRANCH  11  13
ATOM     13  C   UNL A   1      39.060  31.900  31.743  1.00  0.00    -0.034 A 
ATOM     14  C   UNL A   1      38.874  31.891  30.355  1.00  0.00     0.005 A 
ATOM     15  C   UNL A   1      39.658  30.776  32.318  1.00  0.00     0.005 A 
ATOM     16  C   UNL A   1      39.144  30.760  29.582  1.00  0.00     0.009 A 
ATOM     17  C   UNL A   1      39.968  29.654  31.537  1.00  0.00     0.009 A 
ATOM     18  C   UNL A   1      39.676  29.608  30.164  1.00  0.00    -0.018 A 
BRANCH  18  19
ATOM     19  C   UNL A   1      39.879  28.389  29.363  1.00  0.00    -0.018 A 
ATOM     20  C   UNL A   1      39.292  28.237  28.095  1.00  0.00     0.009 A 
ATOM     21  C   UNL A   1      40.631  27.315  29.868  1.00  0.00     0.009 A 
ATOM     22  C   UNL A   1      39.456  27.061  27.357  1.00  0.00     0.001 A 
ATOM     23  C   UNL A   1      40.802  26.140  29.132  1.00  0.00     0.001 A 
ATOM     24  C   UNL A   1      40.215  26.015  27.876  1.00  0.00     0.000 A 
ENDBRANCH  18  19
ENDBRANCH  11  13
ENDBRANCH   9  11
ENDBRANCH   8   9
ENDBRANCH   7   8
ENDBRANCH   6   7
ENDBRANCH   5   6
ENDBRANCH   4   5
ENDBRANCH   3   4
ENDBRANCH   2   3
ENDBRANCH   1   2
BRANCH   1  25
ATOM     25  C   UNL A   1      39.287  32.761  41.136  1.00  0.00     0.188 C 
BRANCH  25  26
ATOM     26  O   UNL A   1      39.925  33.854  41.791  1.00  0.00    -0.376 OA
BRANCH  26  27
ATOM     27  C   UNL A   1      39.386  35.159  41.630  1.00  0.00     0.202 C 
BRANCH  27  28
ATOM     28  C   UNL A   1      40.248  36.203  40.902  1.00  0.00     0.261 C 
BRANCH  28  29
ATOM     29  O   UNL A   1      40.736  35.839  39.603  1.00  0.00    -0.460 OA
BRANCH  29  30
ATOM     30  C   UNL A   1      40.063  36.279  38.520  1.00  0.00     0.338 C 
ATOM     31  O   UNL A   1      39.259  37.198  38.479  1.00  0.00    -0.246 OA
BRANCH  30  32
ATOM     32  C   UNL A   1      40.630  35.602  37.336  1.00  0.00     0.060 A 
ATOM     33  C   UNL A   1      39.755  35.057  36.385  1.00  0.00     0.016 A 
ATOM     34  C   UNL A   1      42.012  35.532  37.148  1.00  0.00     0.016 A 
ATOM     35  C   UNL A   1      40.263  34.408  35.259  1.00  0.00     0.010 A 
ATOM     36  C   UNL A   1      42.519  34.857  36.035  1.00  0.00     0.010 A 
ATOM     37  C   UNL A   1      41.647  34.261  35.107  1.00  0.00    -0.014 A 
BRANCH  37  38
ATOM     38  C   UNL A   1      42.172  33.299  34.109  1.00  0.00     0.031 A 
ATOM     39  C   UNL A   1      42.446  33.804  32.719  1.00  0.00     0.074 A 
ATOM     40  C   UNL A   1      42.405  32.013  34.424  1.00  0.00     0.049 A 
ATOM     41  N   UNL A   1      42.865  33.155  31.667  1.00  0.00    -0.248 NA
ATOM     42  C   UNL A   1      42.211  35.240  32.485  1.00  0.00     0.031 C 
ATOM     43  C   UNL A   1      42.200  31.411  35.738  1.00  0.00     0.029 A 
ATOM     44  N   UNL A   1      42.846  30.975  33.640  1.00  0.00    -0.354 N 
ATOM     45  C   UNL A   1      42.910  34.089  30.639  1.00  0.00     0.074 A 
ATOM     46  C   UNL A   1      42.469  35.351  31.191  1.00  0.00     0.031 C 
ATOM     47  C   UNL A   1      42.487  30.099  35.666  1.00  0.00     0.029 A 
ATOM     48  C   UNL A   1      42.867  29.764  34.293  1.00  0.00     0.049 A 
ATOM     49  H   UNL A   1      43.121  31.086  32.702  1.00  0.00     0.167 HD
ATOM     50  C   UNL A   1      43.290  33.916  29.353  1.00  0.00     0.034 A 
ATOM     51  C   UNL A   1      43.133  28.528  33.826  1.00  0.00     0.034 A 
ATOM     52  C   UNL A   1      43.739  32.663  28.810  1.00  0.00     0.049 A 
ATOM     53  C   UNL A   1      43.517  28.356  32.376  1.00  0.00     0.074 A 
ATOM     54  C   UNL A   1      44.192  32.394  27.531  1.00  0.00     0.029 A 
ATOM     55  N   UNL A   1      43.771  31.465  29.507  1.00  0.00    -0.354 N 
ATOM     56  N   UNL A   1      43.661  29.266  31.444  1.00  0.00    -0.248 NA
ATOM     57  C   UNL A   1      43.803  26.986  31.923  1.00  0.00     0.031 C 
ATOM     58  C   UNL A   1      44.456  31.024  27.442  1.00  0.00     0.029 A 
ATOM     59  C   UNL A   1      44.216  30.450  28.679  1.00  0.00     0.049 A 
ATOM     60  H   UNL A   1      43.514  31.354  30.451  1.00  0.00     0.167 HD
ATOM     61  C   UNL A   1      44.096  28.587  30.309  1.00  0.00     0.074 A 
ATOM     62  C   UNL A   1      44.207  27.191  30.677  1.00  0.00     0.031 C 
ATOM     63  C   UNL A   1      44.371  29.072  29.073  1.00  0.00     0.034 A 
BRANCH  50  64
ATOM     64  C   UNL A   1      43.233  35.110  28.439  1.00  0.00     0.023 A 
ATOM     65  C   UNL A   1      42.006  35.503  27.866  1.00  0.00     0.012 A 
ATOM     66  C   UNL A   1      44.389  35.876  28.189  1.00  0.00     0.148 A 
ATOM     67  C   UNL A   1      41.938  36.619  27.032  1.00  0.00     0.002 A 
ATOM     68  C   UNL A   1      44.303  37.013  27.399  1.00  0.00     0.091 A 
ATOM     69  F   UNL A   1      45.550  35.470  28.724  1.00  0.00    -0.205 F 
ATOM     70  C   UNL A   1      43.083  37.379  26.808  1.00  0.00     0.022 A 
BRANCH  68  71
ATOM     71  S   UNL A   1      45.702  38.104  27.117  1.00  0.00     0.127 S 
ATOM     72  O   UNL A   1      46.069  38.472  28.484  1.00  0.00    -0.237 OA
ATOM     73  O   UNL A   1      46.652  37.215  26.448  1.00  0.00    -0.237 OA
ATOM     74  O   UNL A   1      45.203  39.195  26.293  1.00  0.00    -0.744 OA
ENDBRANCH  68  71
ENDBRANCH  50  64
BRANCH  51  75
ATOM     75  C   UNL A   1      43.070  27.350  34.737  1.00  0.00     0.023 A 
ATOM     76  C   UNL A   1      41.859  26.643  34.880  1.00  0.00     0.012 A 
ATOM     77  C   UNL A   1      44.198  26.933  35.471  1.00  0.00     0.148 A 
ATOM     78  C   UNL A   1      41.765  25.565  35.762  1.00  0.00     0.002 A 
ATOM     79  C   UNL A   1      44.112  25.824  36.304  1.00  0.00     0.091 A 
ATOM     80  F   UNL A   1      45.335  27.629  35.335  1.00  0.00    -0.205 F 
ATOM     81  C   UNL A   1      42.891  25.151  36.466  1.00  0.00     0.022 A 
BRANCH  79  82
ATOM     82  S   UNL A   1      45.538  25.143  37.156  1.00  0.00     0.127 S 
ATOM     83  O   UNL A   1      45.987  26.286  37.948  1.00  0.00    -0.237 OA
ATOM     84  O   UNL A   1      44.935  24.057  37.928  1.00  0.00    -0.237 OA
ATOM     85  O   UNL A   1      46.451  24.704  36.111  1.00  0.00    -0.744 OA
ENDBRANCH  79  82
ENDBRANCH  51  75
BRANCH  63  86
ATOM     86  C   UNL A   1      44.876  28.106  28.032  1.00  0.00     0.023 A 
ATOM     87  C   UNL A   1      46.256  27.854  27.908  1.00  0.00     0.012 A 
ATOM     88  C   UNL A   1      43.969  27.388  27.227  1.00  0.00     0.148 A 
ATOM     89  C   UNL A   1      46.727  26.931  26.974  1.00  0.00     0.002 A 
ATOM     90  C   UNL A   1      44.440  26.430  26.339  1.00  0.00     0.091 A 
ATOM     91  F   UNL A   1      42.659  27.651  27.349  1.00  0.00    -0.205 F 
ATOM     92  C   UNL A   1      45.820  26.211  26.200  1.00  0.00     0.022 A 
BRANCH  90  93
ATOM     93  S   UNL A   1      43.343  25.383  25.376  1.00  0.00     0.127 S 
ATOM     94  O   UNL A   1      42.460  26.369  24.756  1.00  0.00    -0.237 OA
ATOM     95  O   UNL A   1      44.272  24.729  24.453  1.00  0.00    -0.237 OA
ATOM     96  O   UNL A   1      42.703  24.485  26.328  1.00  0.00    -0.744 OA
ENDBRANCH  90  93
ENDBRANCH  63  86
ENDBRANCH  37  38
ENDBRANCH  30  32
ENDBRANCH  29  30
ENDBRANCH  28  29
ENDBRANCH  27  28
ENDBRANCH  26  27
ENDBRANCH  25  26
ENDBRANCH   1  25
TORSDOF 25
ENDMDL
MODEL 2
REMARK VINA RESULT:      -6.6      1.665      2.961
REMARK SMILES C[C@@H](C(=O)OCCOCCOCCOCCOC(=O)c1ccc(-c2c3nc(c(-c4cccc(S(=O)(=O)[O-])c4F)c4ccc([nH]4)c(-c4cccc(S(=O)(=O)[O-])c4F)c4nc(c(-c5cccc(S(=O)(=O)[O-])c5F)c5ccc2[nH]5)C=C4)C=C3)cc1)c1ccc(-c2ccccc2)cc1
REMARK SMILES IDX 12 1 11 2 10 3 9 4 8 5 7 6 6 7 5 8 3 9 4 10 2 11 1 12 83 13
REMARK SMILES IDX 84 14 94 15 85 16 93 17 86 18 87 19 88 20 92 21 89 22 91 23
REMARK SMILES IDX 90 24 13 25 14 26 15 27 16 28 17 29 18 30 19 31 20 32 21 33
REMARK SMILES IDX 82 34 22 35 81 36 23 37 24 38 25 39 75 40 26 41 80 42 74 43
REMARK SMILES IDX 76 44 27 45 79 46 73 47 72 48 28 50 60 51 40 52 59 53 41 54
REMARK SMILES IDX 44 55 58 56 77 57 42 58 43 59 57 61 78 62 45 63 29 64 30 65
REMARK SMILES IDX 38 66 31 67 33 68 39 69 32 70 34 71 35 72 36 73 37 74 61 75
REMARK SMILES IDX 62 76 70 77 63 78 65 79 71 80 64 81 66 82 67 83 68 84 69 85
REMARK SMILES IDX 46 86 47 87 55 88 48 89 50 90 56 91 49 92 51 93 52 94 53 95
REMARK SMILES IDX 54 96
REMARK H PARENT 76 49 44 60
REMARK Flexibility Score: inf
ROOT
ATOM      1  C   UNL A   1      37.812  32.504  41.619  1.00  0.00     0.188 C 
ENDROOT
BRANCH   1   2
ATOM      2  O   UNL A   1      36.752  32.925  40.777  1.00  0.00    -0.377 OA
BRANCH   2   3
ATOM      3  C   UNL A   1      36.902  32.680  39.398  1.00  0.00     0.188 C 
BRANCH   3   4
ATOM      4  C   UNL A   1      36.683  31.212  38.979  1.00  0.00     0.188 C 
BRANCH   4   5
ATOM      5  O   UNL A   1      37.388  30.689  37.868  1.00  0.00    -0.376 OA
BRANCH   5   6
ATOM      6  C   UNL A   1      38.149  31.568  37.049  1.00  0.00     0.202 C 
BRANCH   6   7
ATOM      7  C   UNL A   1      38.061  31.573  35.505  1.00  0.00     0.261 C 
BRANCH   7   8
ATOM      8  O   UNL A   1      38.903  30.661  34.771  1.00  0.00    -0.463 OA
BRANCH   8   9
ATOM      9  C   UNL A   1      38.804  30.681  33.415  1.00  0.00     0.313 C 
ATOM     10  O   UNL A   1      39.628  31.224  32.684  1.00  0.00    -0.252 OA
BRANCH   9  11
ATOM     11  C   UNL A   1      37.559  29.956  32.856  1.00  0.00     0.126 C 
ATOM     12  C   UNL A   1      37.751  28.667  32.048  1.00  0.00     0.025 C 
BRANCH  11  13
ATOM     13  C   UNL A   1      36.619  30.935  32.144  1.00  0.00    -0.034 A 
ATOM     14  C   UNL A   1      36.460  30.946  30.753  1.00  0.00     0.005 A 
ATOM     15  C   UNL A   1      35.939  31.912  32.875  1.00  0.00     0.005 A 
ATOM     16  C   UNL A   1      35.764  31.964  30.097  1.00  0.00     0.009 A 
ATOM     17  C   UNL A   1      35.206  32.912  32.222  1.00  0.00     0.009 A 
ATOM     18  C   UNL A   1      35.141  32.983  30.821  1.00  0.00    -0.018 A 
BRANCH  18  19
ATOM     19  C   UNL A   1      34.482  34.102  30.125  1.00  0.00    -0.018 A 
ATOM     20  C   UNL A   1      34.667  34.321  28.749  1.00  0.00     0.009 A 
ATOM     21  C   UNL A   1      33.682  35.014  30.831  1.00  0.00     0.009 A 
ATOM     22  C   UNL A   1      34.070  35.408  28.103  1.00  0.00     0.001 A 
ATOM     23  C   UNL A   1      33.079  36.099  30.188  1.00  0.00     0.001 A 
ATOM     24  C   UNL A   1      33.273  36.294  28.824  1.00  0.00     0.000 A 
ENDBRANCH  18  19
ENDBRANCH  11  13
ENDBRANCH   9  11
ENDBRANCH   8   9
ENDBRANCH   7   8
ENDBRANCH   6   7
ENDBRANCH   5   6
ENDBRANCH   4   5
ENDBRANCH   3   4
ENDBRANCH   2   3
ENDBRANCH   1   2
BRANCH   1  25
ATOM     25  C   UNL A   1      39.263  32.772  41.170  1.00  0.00     0.188 C 
BRANCH  25  26
ATOM     26  O   UNL A   1      39.899  33.857  41.839  1.00  0.00    -0.376 OA
BRANCH  26  27
ATOM     27  C   UNL A   1      39.364  35.165  41.690  1.00  0.00     0.202 C 
BRANCH  27  28
ATOM     28  C   UNL A   1      40.229  36.214  40.973  1.00  0.00     0.261 C 
BRANCH  28  29
ATOM     29  O   UNL A   1      40.725  35.857  39.674  1.00  0.00    -0.460 OA
BRANCH  29  30
ATOM     30  C   UNL A   1      40.064  36.311  38.590  1.00  0.00     0.338 C 
ATOM     31  O   UNL A   1      39.281  37.247  38.547  1.00  0.00    -0.246 OA
BRANCH  30  32
ATOM     32  C   UNL A   1      40.620  35.622  37.407  1.00  0.00     0.060 A 
ATOM     33  C   UNL A   1      39.736  35.112  36.445  1.00  0.00     0.016 A 
ATOM     34  C   UNL A   1      42.000  35.508  37.232  1.00  0.00     0.016 A 
ATOM     35  C   UNL A   1      40.233  34.453  35.320  1.00  0.00     0.010 A 
ATOM     36  C   UNL A   1      42.495  34.822  36.119  1.00  0.00     0.010 A 
ATOM     37  C   UNL A   1      41.612  34.261  35.180  1.00  0.00    -0.014 A 
BRANCH  37  38
ATOM     38  C   UNL A   1      42.114  33.288  34.181  1.00  0.00     0.031 A 
ATOM     39  C   UNL A   1      42.395  33.786  32.789  1.00  0.00     0.074 A 
ATOM     40  C   UNL A   1      42.322  31.997  34.496  1.00  0.00     0.049 A 
ATOM     41  N   UNL A   1      42.798  33.128  31.737  1.00  0.00    -0.248 NA
ATOM     42  C   UNL A   1      42.189  35.227  32.555  1.00  0.00     0.031 C 
ATOM     43  C   UNL A   1      42.109  31.400  35.812  1.00  0.00     0.029 A 
ATOM     44  N   UNL A   1      42.739  30.950  33.712  1.00  0.00    -0.354 N 
ATOM     45  C   UNL A   1      42.858  34.060  30.708  1.00  0.00     0.074 A 
ATOM     46  C   UNL A   1      42.445  35.331  31.260  1.00  0.00     0.031 C 
ATOM     47  C   UNL A   1      42.369  30.083  35.739  1.00  0.00     0.029 A 
ATOM     48  C   UNL A   1      42.738  29.740  34.365  1.00  0.00     0.049 A 
ATOM     49  H   UNL A   1      43.014  31.055  32.773  1.00  0.00     0.167 HD
ATOM     50  C   UNL A   1      43.231  33.878  29.421  1.00  0.00     0.034 A 
ATOM     51  C   UNL A   1      42.978  28.498  33.898  1.00  0.00     0.034 A 
ATOM     52  C   UNL A   1      43.652  32.617  28.878  1.00  0.00     0.049 A 
ATOM     53  C   UNL A   1      43.353  28.317  32.448  1.00  0.00     0.074 A 
ATOM     54  C   UNL A   1      44.097  32.337  27.597  1.00  0.00     0.029 A 
ATOM     55  N   UNL A   1      43.662  31.419  29.575  1.00  0.00    -0.354 N 
ATOM     56  N   UNL A   1      43.513  29.223  31.515  1.00  0.00    -0.248 NA
ATOM     57  C   UNL A   1      43.610  26.941  31.995  1.00  0.00     0.031 C 
ATOM     58  C   UNL A   1      44.332  30.963  27.508  1.00  0.00     0.029 A 
ATOM     59  C   UNL A   1      44.084  30.394  28.747  1.00  0.00     0.049 A 
ATOM     60  H   UNL A   1      43.406  31.314  30.520  1.00  0.00     0.167 HD
ATOM     61  C   UNL A   1      43.930  28.535  30.379  1.00  0.00     0.074 A 
ATOM     62  C   UNL A   1      44.014  27.137  30.747  1.00  0.00     0.031 C 
ATOM     63  C   UNL A   1      44.212  29.014  29.141  1.00  0.00     0.034 A 
BRANCH  50  64
ATOM     64  C   UNL A   1      43.196  35.073  28.506  1.00  0.00     0.023 A 
ATOM     65  C   UNL A   1      41.974  35.497  27.945  1.00  0.00     0.012 A 
ATOM     66  C   UNL A   1      44.369  35.809  28.245  1.00  0.00     0.148 A 
ATOM     67  C   UNL A   1      41.926  36.614  27.111  1.00  0.00     0.002 A 
ATOM     68  C   UNL A   1      44.304  36.947  27.454  1.00  0.00     0.091 A 
ATOM     69  F   UNL A   1      45.524  35.373  28.768  1.00  0.00    -0.205 F 
ATOM     70  C   UNL A   1      43.088  37.344  26.875  1.00  0.00     0.022 A 
BRANCH  68  71
ATOM     71  S   UNL A   1      45.728  38.002  27.158  1.00  0.00     0.127 S 
ATOM     72  O   UNL A   1      46.154  38.312  28.522  1.00  0.00    -0.237 OA
ATOM     73  O   UNL A   1      46.625  37.105  26.427  1.00  0.00    -0.237 OA
ATOM     74  O   UNL A   1      45.238  39.135  26.387  1.00  0.00    -0.744 OA
ENDBRANCH  68  71
ENDBRANCH  50  64
BRANCH  51  75
ATOM     75  C   UNL A   1      42.892  27.322  34.811  1.00  0.00     0.023 A 
ATOM     76  C   UNL A   1      41.677  26.619  34.931  1.00  0.00     0.012 A 
ATOM     77  C   UNL A   1      44.005  26.903  35.567  1.00  0.00     0.148 A 
ATOM     78  C   UNL A   1      41.562  25.544  35.813  1.00  0.00     0.002 A 
ATOM     79  C   UNL A   1      43.899  25.797  36.400  1.00  0.00     0.091 A 
ATOM     80  F   UNL A   1      45.146  27.595  35.452  1.00  0.00    -0.205 F 
ATOM     81  C   UNL A   1      42.674  25.127  36.540  1.00  0.00     0.022 A 
BRANCH  79  82
ATOM     82  S   UNL A   1      45.306  25.113  37.282  1.00  0.00     0.127 S 
ATOM     83  O   UNL A   1      45.792  26.277  38.018  1.00  0.00    -0.237 OA
ATOM     84  O   UNL A   1      44.673  24.083  38.105  1.00  0.00    -0.237 OA
ATOM     85  O   UNL A   1      46.202  24.597  36.256  1.00  0.00    -0.744 OA
ENDBRANCH  79  82
ENDBRANCH  51  75
BRANCH  63  86
ATOM     86  C   UNL A   1      44.694  28.037  28.099  1.00  0.00     0.023 A 
ATOM     87  C   UNL A   1      46.073  27.814  27.919  1.00  0.00     0.012 A 
ATOM     88  C   UNL A   1      43.770  27.279  27.352  1.00  0.00     0.148 A 
ATOM     89  C   UNL A   1      46.525  26.882  26.985  1.00  0.00     0.002 A 
ATOM     90  C   UNL A   1      44.225  26.313  26.464  1.00  0.00     0.091 A 
ATOM     91  F   UNL A   1      42.461  27.515  27.527  1.00  0.00    -0.205 F 
ATOM     92  C   UNL A   1      45.602  26.124  26.268  1.00  0.00     0.022 A 
BRANCH  90  93
ATOM     93  S   UNL A   1      43.112  25.220  25.573  1.00  0.00     0.127 S 
ATOM     94  O   UNL A   1      42.268  26.174  24.857  1.00  0.00    -0.237 OA
ATOM     95  O   UNL A   1      44.035  24.465  24.724  1.00  0.00    -0.237 OA
ATOM     96  O   UNL A   1      42.432  24.424  26.586  1.00  0.00    -0.744 OA
ENDBRANCH  90  93
ENDBRANCH  63  86
ENDBRANCH  37  38
ENDBRANCH  30  32
ENDBRANCH  29  30
ENDBRANCH  28  29
ENDBRANCH  27  28
ENDBRANCH  26  27
ENDBRANCH  25  26
ENDBRANCH   1  25
TORSDOF 25
ENDMDL
MODEL 3
REMARK VINA RESULT:      -6.4      3.229     10.129
REMARK SMILES C[C@@H](C(=O)OCCOCCOCCOCCOC(=O)c1ccc(-c2c3nc(c(-c4cccc(S(=O)(=O)[O-])c4F)c4ccc([nH]4)c(-c4cccc(S(=O)(=O)[O-])c4F)c4nc(c(-c5cccc(S(=O)(=O)[O-])c5F)c5ccc2[nH]5)C=C4)C=C3)cc1)c1ccc(-c2ccccc2)cc1
REMARK SMILES IDX 12 1 11 2 10 3 9 4 8 5 7 6 6 7 5 8 3 9 4 10 2 11 1 12 83 13
REMARK SMILES IDX 84 14 94 15 85 16 93 17 86 18 87 19 88 20 92 21 89 22 91 23
REMARK SMILES IDX 90 24 13 25 14 26 15 27 16 28 17 29 18 30 19 31 20 32 21 33
REMARK SMILES IDX 82 34 22 35 81 36 23 37 24 38 25 39 75 40 26 41 80 42 74 43
REMARK SMILES IDX 76 44 27 45 79 46 73 47 72 48 28 50 60 51 40 52 59 53 41 54
REMARK SMILES IDX 44 55 58 56 77 57 42 58 43 59 57 61 78 62 45 63 29 64 30 65
REMARK SMILES IDX 38 66 31 67 33 68 39 69 32 70 34 71 35 72 36 73 37 74 61 75
REMARK SMILES IDX 62 76 70 77 63 78 65 79 71 80 64 81 66 82 67 83 68 84 69 85
REMARK SMILES IDX 46 86 47 87 55 88 48 89 50 90 56 91 49 92 51 93 52 94 53 95
REMARK SMILES IDX 54 96
REMARK H PARENT 76 49 44 60
REMARK Flexibility Score: inf
ROOT
ATOM      1  C   UNL A   1      48.484  26.310  23.921  1.00  0.00     0.188 C 
ENDROOT
BRANCH   1   2
ATOM      2  O   UNL A   1      47.115  25.996  24.115  1.00  0.00    -0.377 OA
BRANCH   2   3
ATOM      3  C   UNL A   1      46.348  26.927  24.843  1.00  0.00     0.188 C 
BRANCH   3   4
ATOM      4  C   UNL A   1      45.242  26.303  25.717  1.00  0.00     0.188 C 
BRANCH   4   5
ATOM      5  O   UNL A   1      43.883  26.562  25.415  1.00  0.00    -0.376 OA
BRANCH   5   6
ATOM      6  C   UNL A   1      42.907  26.453  26.443  1.00  0.00     0.202 C 
BRANCH   6   7
ATOM      7  C   UNL A   1      41.388  26.587  26.185  1.00  0.00     0.261 C 
BRANCH   7   8
ATOM      8  O   UNL A   1      40.531  26.899  27.301  1.00  0.00    -0.463 OA
BRANCH   8   9
ATOM      9  C   UNL A   1      40.127  28.191  27.430  1.00  0.00     0.313 C 
ATOM     10  O   UNL A   1      40.185  29.012  26.519  1.00  0.00    -0.252 OA
BRANCH   9  11
ATOM     11  C   UNL A   1      39.581  28.551  28.830  1.00  0.00     0.126 C 
ATOM     12  C   UNL A   1      38.998  27.437  29.708  1.00  0.00     0.025 C 
BRANCH  11  13
ATOM     13  C   UNL A   1      38.649  29.767  28.767  1.00  0.00    -0.034 A 
ATOM     14  C   UNL A   1      38.930  30.964  29.437  1.00  0.00     0.005 A 
ATOM     15  C   UNL A   1      37.434  29.684  28.083  1.00  0.00     0.005 A 
ATOM     16  C   UNL A   1      37.988  31.989  29.541  1.00  0.00     0.009 A 
ATOM     17  C   UNL A   1      36.503  30.730  28.151  1.00  0.00     0.009 A 
ATOM     18  C   UNL A   1      36.744  31.882  28.917  1.00  0.00    -0.018 A 
BRANCH  18  19
ATOM     19  C   UNL A   1      35.721  32.926  29.100  1.00  0.00    -0.018 A 
ATOM     20  C   UNL A   1      35.192  33.222  30.368  1.00  0.00     0.009 A 
ATOM     21  C   UNL A   1      35.208  33.628  27.997  1.00  0.00     0.009 A 
ATOM     22  C   UNL A   1      34.193  34.187  30.528  1.00  0.00     0.001 A 
ATOM     23  C   UNL A   1      34.212  34.597  28.153  1.00  0.00     0.001 A 
ATOM     24  C   UNL A   1      33.707  34.876  29.420  1.00  0.00     0.000 A 
ENDBRANCH  18  19
ENDBRANCH  11  13
ENDBRANCH   9  11
ENDBRANCH   8   9
ENDBRANCH   7   8
ENDBRANCH   6   7
ENDBRANCH   5   6
ENDBRANCH   4   5
ENDBRANCH   3   4
ENDBRANCH   2   3
ENDBRANCH   1   2
BRANCH   1  25
ATOM     25  C   UNL A   1      48.925  26.876  22.556  1.00  0.00     0.188 C 
BRANCH  25  26
ATOM     26  O   UNL A   1      50.329  27.077  22.424  1.00  0.00    -0.376 OA
BRANCH  26  27
ATOM     27  C   UNL A   1      51.032  27.722  23.476  1.00  0.00     0.202 C 
BRANCH  27  28
ATOM     28  C   UNL A   1      52.170  26.944  24.157  1.00  0.00     0.261 C 
BRANCH  28  29
ATOM     29  O   UNL A   1      51.938  26.520  25.509  1.00  0.00    -0.460 OA
BRANCH  29  30
ATOM     30  C   UNL A   1      52.196  27.391  26.506  1.00  0.00     0.338 C 
ATOM     31  O   UNL A   1      53.167  28.124  26.607  1.00  0.00    -0.246 OA
BRANCH  30  32
ATOM     32  C   UNL A   1      50.986  27.473  27.350  1.00  0.00     0.060 A 
ATOM     33  C   UNL A   1      49.810  26.851  26.908  1.00  0.00     0.016 A 
ATOM     34  C   UNL A   1      51.020  28.130  28.582  1.00  0.00     0.016 A 
ATOM     35  C   UNL A   1      48.652  26.916  27.683  1.00  0.00     0.010 A 
ATOM     36  C   UNL A   1      49.852  28.218  29.344  1.00  0.00     0.010 A 
ATOM     37  C   UNL A   1      48.655  27.644  28.879  1.00  0.00    -0.014 A 
BRANCH  37  38
ATOM     38  C   UNL A   1      47.367  27.992  29.523  1.00  0.00     0.031 A 
ATOM     39  C   UNL A   1      46.678  29.256  29.086  1.00  0.00     0.074 A 
ATOM     40  C   UNL A   1      46.817  27.210  30.469  1.00  0.00     0.049 A 
ATOM     41  N   UNL A   1      45.572  29.793  29.524  1.00  0.00    -0.248 NA
ATOM     42  C   UNL A   1      47.331  30.018  28.006  1.00  0.00     0.031 C 
ATOM     43  C   UNL A   1      47.375  25.954  30.960  1.00  0.00     0.029 A 
ATOM     44  N   UNL A   1      45.668  27.380  31.201  1.00  0.00    -0.354 N 
ATOM     45  C   UNL A   1      45.413  30.972  28.804  1.00  0.00     0.074 A 
ATOM     46  C   UNL A   1      46.540  31.075  27.903  1.00  0.00     0.031 C 
ATOM     47  C   UNL A   1      46.583  25.478  31.936  1.00  0.00     0.029 A 
ATOM     48  C   UNL A   1      45.478  26.411  32.158  1.00  0.00     0.049 A 
ATOM     49  H   UNL A   1      45.039  28.123  31.055  1.00  0.00     0.167 HD
ATOM     50  C   UNL A   1      44.417  31.883  28.879  1.00  0.00     0.034 A 
ATOM     51  C   UNL A   1      44.537  26.308  33.118  1.00  0.00     0.034 A 
ATOM     52  C   UNL A   1      43.292  31.771  29.767  1.00  0.00     0.049 A 
ATOM     53  C   UNL A   1      43.458  27.360  33.207  1.00  0.00     0.074 A 
ATOM     54  C   UNL A   1      42.204  32.617  29.885  1.00  0.00     0.029 A 
ATOM     55  N   UNL A   1      43.121  30.764  30.703  1.00  0.00    -0.354 N 
ATOM     56  N   UNL A   1      43.260  28.409  32.447  1.00  0.00    -0.248 NA
ATOM     57  C   UNL A   1      42.454  27.194  34.269  1.00  0.00     0.031 C 
ATOM     58  C   UNL A   1      41.397  32.145  30.924  1.00  0.00     0.029 A 
ATOM     59  C   UNL A   1      41.956  30.977  31.418  1.00  0.00     0.049 A 
ATOM     60  H   UNL A   1      43.738  30.008  30.839  1.00  0.00     0.167 HD
ATOM     61  C   UNL A   1      42.089  29.003  32.910  1.00  0.00     0.074 A 
ATOM     62  C   UNL A   1      41.614  28.186  34.007  1.00  0.00     0.031 C 
ATOM     63  C   UNL A   1      41.467  30.127  32.474  1.00  0.00     0.034 A 
BRANCH  50  64
ATOM     64  C   UNL A   1      44.499  33.086  27.979  1.00  0.00     0.023 A 
ATOM     65  C   UNL A   1      44.143  32.977  26.619  1.00  0.00     0.012 A 
ATOM     66  C   UNL A   1      44.882  34.340  28.495  1.00  0.00     0.148 A 
ATOM     67  C   UNL A   1      44.198  34.090  25.780  1.00  0.00     0.002 A 
ATOM     68  C   UNL A   1      44.886  35.453  27.665  1.00  0.00     0.091 A 
ATOM     69  F   UNL A   1      45.241  34.416  29.785  1.00  0.00    -0.205 F 
ATOM     70  C   UNL A   1      44.559  35.328  26.305  1.00  0.00     0.022 A 
BRANCH  68  71
ATOM     71  S   UNL A   1      45.256  37.105  28.264  1.00  0.00     0.127 S 
ATOM     72  O   UNL A   1      45.043  37.910  27.062  1.00  0.00    -0.237 OA
ATOM     73  O   UNL A   1      44.244  37.285  29.306  1.00  0.00    -0.237 OA
ATOM     74  O   UNL A   1      46.628  37.061  28.748  1.00  0.00    -0.744 OA
ENDBRANCH  68  71
ENDBRANCH  50  64
BRANCH  51  75
ATOM     75  C   UNL A   1      44.553  25.158  34.067  1.00  0.00     0.023 A 
ATOM     76  C   UNL A   1      43.877  23.968  33.732  1.00  0.00     0.012 A 
ATOM     77  C   UNL A   1      45.226  25.241  35.302  1.00  0.00     0.148 A 
ATOM     78  C   UNL A   1      43.841  22.896  34.625  1.00  0.00     0.002 A 
ATOM     79  C   UNL A   1      45.234  24.149  36.161  1.00  0.00     0.091 A 
ATOM     80  F   UNL A   1      45.849  26.387  35.609  1.00  0.00    -0.205 F 
ATOM     81  C   UNL A   1      44.526  22.982  35.834  1.00  0.00     0.022 A 
BRANCH  79  82
ATOM     82  S   UNL A   1      46.188  24.123  37.682  1.00  0.00     0.127 S 
ATOM     83  O   UNL A   1      45.551  25.188  38.453  1.00  0.00    -0.237 OA
ATOM     84  O   UNL A   1      45.933  22.769  38.173  1.00  0.00    -0.237 OA
ATOM     85  O   UNL A   1      47.568  24.371  37.288  1.00  0.00    -0.744 OA
ENDBRANCH  79  82
ENDBRANCH  51  75
BRANCH  63  86
ATOM     86  C   UNL A   1      40.171  30.519  33.136  1.00  0.00     0.023 A 
ATOM     87  C   UNL A   1      38.952  29.971  32.690  1.00  0.00     0.012 A 
ATOM     88  C   UNL A   1      40.174  31.373  34.257  1.00  0.00     0.148 A 
ATOM     89  C   UNL A   1      37.754  30.298  33.325  1.00  0.00     0.002 A 
ATOM     90  C   UNL A   1      38.985  31.650  34.919  1.00  0.00     0.091 A 
ATOM     91  F   UNL A   1      41.343  31.895  34.659  1.00  0.00    -0.205 F 
ATOM     92  C   UNL A   1      37.772  31.126  34.445  1.00  0.00     0.022 A 
BRANCH  90  93
ATOM     93  S   UNL A   1      38.924  32.622  36.429  1.00  0.00     0.127 S 
ATOM     94  O   UNL A   1      37.523  32.479  36.819  1.00  0.00    -0.237 OA
ATOM     95  O   UNL A   1      39.873  31.913  37.290  1.00  0.00    -0.237 OA
ATOM     96  O   UNL A   1      39.334  33.969  36.058  1.00  0.00    -0.744 OA
ENDBRANCH  90  93
ENDBRANCH  63  86
ENDBRANCH  37  38
ENDBRANCH  30  32
ENDBRANCH  29  30
ENDBRANCH  28  29
ENDBRANCH  27  28
ENDBRANCH  26  27
ENDBRANCH  25  26
ENDBRANCH   1  25
TORSDOF 25
ENDMDL
