MODEL 1
REMARK VINA RESULT:      -8.9      0.000      0.000
REMARK SMILES COC(=O)[C@H]1CCN(C(=O)N2CCC[C@@H]2C(=O)OCCOCCOCCOCCOC(=O)c2ccc(-c3c4nc(c(-c5cccc(S(=O)(=O)[O-])c5F)c5ccc([nH]5)c(-c5cccc(S(=O)(=O)[O-])c5F)c5nc(c(-c6cccc(S(=O)(=O)[O-])c6F)c6ccc3[nH]6)C=C5)C=C4)cc2)C1
REMARK SMILES IDX 23 1 22 2 21 3 20 4 19 5 18 6 16 7 17 8 15 9 11 10 12 11
REMARK SMILES IDX 13 12 14 13 9 14 10 15 8 16 5 17 6 18 96 19 7 20 3 21 4 22
REMARK SMILES IDX 2 23 1 24 24 25 25 26 26 27 27 28 28 29 29 30 30 31 31 32
REMARK SMILES IDX 32 33 33 34 34 35 95 36 35 37 94 38 36 39 37 40 38 41 88 42
REMARK SMILES IDX 39 43 93 44 87 45 89 46 40 47 92 48 86 49 85 50 41 52 73 53
REMARK SMILES IDX 53 54 72 55 54 56 57 57 71 58 90 59 55 60 56 61 70 63 91 64
REMARK SMILES IDX 58 65 42 66 43 67 51 68 44 69 46 70 52 71 45 72 47 73 48 74
REMARK SMILES IDX 49 75 50 76 74 77 75 78 83 79 76 80 78 81 84 82 77 83 79 84
REMARK SMILES IDX 80 85 81 86 82 87 59 88 60 89 68 90 61 91 63 92 69 93 62 94
REMARK SMILES IDX 64 95 65 96 66 97 67 98
REMARK H PARENT 89 51 57 62
REMARK Flexibility Score: inf
ROOT
ATOM      1  C   UNL A   1      38.610  23.546  26.317  1.00  0.00     0.188 C 
ENDROOT
BRANCH   1   2
ATOM      2  C   UNL A   1      38.293  22.083  25.979  1.00  0.00     0.188 C 
BRANCH   2   3
ATOM      3  O   UNL A   1      37.034  21.687  25.458  1.00  0.00    -0.376 OA
BRANCH   3   4
ATOM      4  C   UNL A   1      36.637  21.939  24.118  1.00  0.00     0.202 C 
BRANCH   4   5
ATOM      5  C   UNL A   1      36.455  23.345  23.518  1.00  0.00     0.261 C 
BRANCH   5   6
ATOM      6  O   UNL A   1      35.340  24.115  23.980  1.00  0.00    -0.462 OA
BRANCH   6   7
ATOM      7  C   UNL A   1      34.213  23.972  23.244  1.00  0.00     0.329 C 
ATOM      8  O   UNL A   1      34.116  23.185  22.306  1.00  0.00    -0.250 OA
BRANCH   7   9
ATOM      9  C   UNL A   1      33.074  24.932  23.638  1.00  0.00     0.197 C 
ATOM     10  N   UNL A   1      32.351  24.408  24.770  1.00  0.00    -0.311 N 
ATOM     11  C   UNL A   1      31.004  24.912  24.818  1.00  0.00     0.122 C 
ATOM     12  C   UNL A   1      30.624  24.924  23.356  1.00  0.00     0.024 C 
ATOM     13  C   UNL A   1      31.942  25.240  22.637  1.00  0.00     0.039 C 
BRANCH  10  14
ATOM     14  C   UNL A   1      32.984  23.800  25.811  1.00  0.00     0.320 C 
ATOM     15  O   UNL A   1      33.671  24.413  26.619  1.00  0.00    -0.248 OA
BRANCH  14  16
ATOM     16  N   UNL A   1      32.900  22.429  25.746  1.00  0.00    -0.324 N 
ATOM     17  C   UNL A   1      32.268  20.301  24.956  1.00  0.00     0.120 C 
ATOM     18  C   UNL A   1      33.707  20.287  25.487  1.00  0.00     0.039 C 
ATOM     19  C   UNL A   1      31.821  21.762  25.056  1.00  0.00     0.136 C 
ATOM     20  C   UNL A   1      33.734  21.459  26.436  1.00  0.00     0.122 C 
BRANCH  17  21
ATOM     21  C   UNL A   1      32.226  19.804  23.536  1.00  0.00     0.310 C 
ATOM     22  O   UNL A   1      32.199  20.503  22.534  1.00  0.00    -0.252 OA
BRANCH  21  23
ATOM     23  O   UNL A   1      32.224  18.443  23.534  1.00  0.00    -0.469 OA
ATOM     24  C   UNL A   1      32.481  17.870  22.257  1.00  0.00     0.282 C 
ENDBRANCH  21  23
ENDBRANCH  17  21
ENDBRANCH  14  16
ENDBRANCH  10  14
ENDBRANCH   7   9
ENDBRANCH   6   7
ENDBRANCH   5   6
ENDBRANCH   4   5
ENDBRANCH   3   4
ENDBRANCH   2   3
ENDBRANCH   1   2
BRANCH   1  25
ATOM     25  O   UNL A   1      39.933  23.784  26.739  1.00  0.00    -0.377 OA
BRANCH  25  26
ATOM     26  C   UNL A   1      40.582  22.776  27.503  1.00  0.00     0.188 C 
BRANCH  26  27
ATOM     27  C   UNL A   1      41.788  22.044  26.880  1.00  0.00     0.188 C 
BRANCH  27  28
ATOM     28  O   UNL A   1      42.231  20.914  27.620  1.00  0.00    -0.376 OA
BRANCH  28  29
ATOM     29  C   UNL A   1      41.955  19.616  27.117  1.00  0.00     0.202 C 
BRANCH  29  30
ATOM     30  C   UNL A   1      42.506  19.231  25.732  1.00  0.00     0.261 C 
BRANCH  30  31
ATOM     31  O   UNL A   1      43.933  19.214  25.575  1.00  0.00    -0.460 OA
BRANCH  31  32
ATOM     32  C   UNL A   1      44.461  19.733  24.444  1.00  0.00     0.338 C 
ATOM     33  O   UNL A   1      44.435  19.241  23.337  1.00  0.00    -0.246 OA
BRANCH  32  34
ATOM     34  C   UNL A   1      44.899  21.117  24.745  1.00  0.00     0.060 A 
ATOM     35  C   UNL A   1      45.361  21.415  26.034  1.00  0.00     0.016 A 
ATOM     36  C   UNL A   1      44.844  22.113  23.768  1.00  0.00     0.016 A 
ATOM     37  C   UNL A   1      45.725  22.720  26.363  1.00  0.00     0.010 A 
ATOM     38  C   UNL A   1      45.189  23.425  24.105  1.00  0.00     0.010 A 
ATOM     39  C   UNL A   1      45.591  23.742  25.415  1.00  0.00    -0.014 A 
BRANCH  39  40
ATOM     40  C   UNL A   1      45.668  25.161  25.846  1.00  0.00     0.031 A 
ATOM     41  C   UNL A   1      47.024  25.816  25.897  1.00  0.00     0.074 A 
ATOM     42  C   UNL A   1      44.567  25.861  26.175  1.00  0.00     0.049 A 
ATOM     43  N   UNL A   1      47.354  27.014  26.303  1.00  0.00    -0.248 NA
ATOM     44  C   UNL A   1      48.164  25.008  25.426  1.00  0.00     0.031 C 
ATOM     45  C   UNL A   1      43.197  25.353  26.142  1.00  0.00     0.029 A 
ATOM     46  N   UNL A   1      44.436  27.152  26.628  1.00  0.00    -0.354 N 
ATOM     47  C   UNL A   1      48.734  27.097  26.158  1.00  0.00     0.074 A 
ATOM     48  C   UNL A   1      49.186  25.823  25.644  1.00  0.00     0.031 C 
ATOM     49  C   UNL A   1      42.366  26.310  26.593  1.00  0.00     0.029 A 
ATOM     50  C   UNL A   1      43.147  27.486  26.975  1.00  0.00     0.049 A 
ATOM     51  H   UNL A   1      45.193  27.778  26.700  1.00  0.00     0.167 HD
ATOM     52  C   UNL A   1      49.553  28.145  26.411  1.00  0.00     0.034 A 
ATOM     53  C   UNL A   1      42.663  28.599  27.563  1.00  0.00     0.034 A 
ATOM     54  C   UNL A   1      49.104  29.414  26.912  1.00  0.00     0.049 A 
ATOM     55  C   UNL A   1      43.610  29.730  27.890  1.00  0.00     0.074 A 
ATOM     56  C   UNL A   1      49.857  30.543  27.188  1.00  0.00     0.029 A 
ATOM     57  N   UNL A   1      47.790  29.724  27.218  1.00  0.00    -0.354 N 
ATOM     58  N   UNL A   1      44.898  29.825  27.664  1.00  0.00    -0.248 NA
ATOM     59  C   UNL A   1      43.028  30.924  28.526  1.00  0.00     0.031 C 
ATOM     60  C   UNL A   1      48.999  31.526  27.689  1.00  0.00     0.029 A 
ATOM     61  C   UNL A   1      47.708  31.024  27.684  1.00  0.00     0.049 A 
ATOM     62  H   UNL A   1      47.026  29.110  27.119  1.00  0.00     0.167 HD
ATOM     63  C   UNL A   1      45.267  31.101  28.081  1.00  0.00     0.074 A 
ATOM     64  C   UNL A   1      44.063  31.750  28.556  1.00  0.00     0.031 C 
ATOM     65  C   UNL A   1      46.492  31.681  28.086  1.00  0.00     0.034 A 
BRANCH  52  66
ATOM     66  C   UNL A   1      51.021  27.977  26.123  1.00  0.00     0.023 A 
ATOM     67  C   UNL A   1      51.914  27.728  27.186  1.00  0.00     0.012 A 
ATOM     68  C   UNL A   1      51.503  27.981  24.800  1.00  0.00     0.148 A 
ATOM     69  C   UNL A   1      53.267  27.505  26.937  1.00  0.00     0.002 A 
ATOM     70  C   UNL A   1      52.845  27.713  24.557  1.00  0.00     0.091 A 
ATOM     71  F   UNL A   1      50.640  28.238  23.807  1.00  0.00    -0.205 F 
ATOM     72  C   UNL A   1      53.730  27.485  25.624  1.00  0.00     0.022 A 
BRANCH  70  73
ATOM     73  S   UNL A   1      53.525  27.587  22.900  1.00  0.00     0.127 S 
ATOM     74  O   UNL A   1      53.641  28.995  22.521  1.00  0.00    -0.237 OA
ATOM     75  O   UNL A   1      54.801  26.915  23.146  1.00  0.00    -0.237 OA
ATOM     76  O   UNL A   1      52.565  26.815  22.125  1.00  0.00    -0.744 OA
ENDBRANCH  70  73
ENDBRANCH  52  66
BRANCH  53  77
ATOM     77  C   UNL A   1      41.211  28.721  27.890  1.00  0.00     0.023 A 
ATOM     78  C   UNL A   1      40.302  29.140  26.897  1.00  0.00     0.012 A 
ATOM     79  C   UNL A   1      40.735  28.474  29.192  1.00  0.00     0.148 A 
ATOM     80  C   UNL A   1      38.960  29.365  27.209  1.00  0.00     0.002 A 
ATOM     81  C   UNL A   1      39.384  28.639  29.480  1.00  0.00     0.091 A 
ATOM     82  F   UNL A   1      41.614  28.094  30.130  1.00  0.00    -0.205 F 
ATOM     83  C   UNL A   1      38.500  29.109  28.498  1.00  0.00     0.022 A 
BRANCH  81  84
ATOM     84  S   UNL A   1      38.684  28.204  31.076  1.00  0.00     0.127 S 
ATOM     85  O   UNL A   1      37.396  28.891  31.036  1.00  0.00    -0.237 OA
ATOM     86  O   UNL A   1      38.610  26.745  30.987  1.00  0.00    -0.237 OA
ATOM     87  O   UNL A   1      39.635  28.692  32.066  1.00  0.00    -0.744 OA
ENDBRANCH  81  84
ENDBRANCH  53  77
BRANCH  65  88
ATOM     88  C   UNL A   1      46.595  33.112  28.548  1.00  0.00     0.023 A 
ATOM     89  C   UNL A   1      46.919  33.405  29.887  1.00  0.00     0.012 A 
ATOM     90  C   UNL A   1      46.439  34.169  27.628  1.00  0.00     0.148 A 
ATOM     91  C   UNL A   1      47.048  34.727  30.312  1.00  0.00     0.002 A 
ATOM     92  C   UNL A   1      46.623  35.481  28.045  1.00  0.00     0.091 A 
ATOM     93  F   UNL A   1      46.118  33.870  26.361  1.00  0.00    -0.205 F 
ATOM     94  C   UNL A   1      46.912  35.763  29.390  1.00  0.00     0.022 A 
BRANCH  92  95
ATOM     95  S   UNL A   1      46.568  36.872  26.911  1.00  0.00     0.127 S 
ATOM     96  O   UNL A   1      45.130  37.110  26.802  1.00  0.00    -0.237 OA
ATOM     97  O   UNL A   1      47.303  37.900  27.648  1.00  0.00    -0.237 OA
ATOM     98  O   UNL A   1      47.219  36.422  25.687  1.00  0.00    -0.744 OA
ENDBRANCH  92  95
ENDBRANCH  65  88
ENDBRANCH  39  40
ENDBRANCH  32  34
ENDBRANCH  31  32
ENDBRANCH  30  31
ENDBRANCH  29  30
ENDBRANCH  28  29
ENDBRANCH  27  28
ENDBRANCH  26  27
ENDBRANCH  25  26
ENDBRANCH   1  25
TORSDOF 27
ENDMDL
MODEL 2
REMARK VINA RESULT:      -8.6      1.598      2.052
REMARK SMILES COC(=O)[C@H]1CCN(C(=O)N2CCC[C@@H]2C(=O)OCCOCCOCCOCCOC(=O)c2ccc(-c3c4nc(c(-c5cccc(S(=O)(=O)[O-])c5F)c5ccc([nH]5)c(-c5cccc(S(=O)(=O)[O-])c5F)c5nc(c(-c6cccc(S(=O)(=O)[O-])c6F)c6ccc3[nH]6)C=C5)C=C4)cc2)C1
REMARK SMILES IDX 23 1 22 2 21 3 20 4 19 5 18 6 16 7 17 8 15 9 11 10 12 11
REMARK SMILES IDX 13 12 14 13 9 14 10 15 8 16 5 17 6 18 96 19 7 20 3 21 4 22
REMARK SMILES IDX 2 23 1 24 24 25 25 26 26 27 27 28 28 29 29 30 30 31 31 32
REMARK SMILES IDX 32 33 33 34 34 35 95 36 35 37 94 38 36 39 37 40 38 41 88 42
REMARK SMILES IDX 39 43 93 44 87 45 89 46 40 47 92 48 86 49 85 50 41 52 73 53
REMARK SMILES IDX 53 54 72 55 54 56 57 57 71 58 90 59 55 60 56 61 70 63 91 64
REMARK SMILES IDX 58 65 42 66 43 67 51 68 44 69 46 70 52 71 45 72 47 73 48 74
REMARK SMILES IDX 49 75 50 76 74 77 75 78 83 79 76 80 78 81 84 82 77 83 79 84
REMARK SMILES IDX 80 85 81 86 82 87 59 88 60 89 68 90 61 91 63 92 69 93 62 94
REMARK SMILES IDX 64 95 65 96 66 97 67 98
REMARK H PARENT 89 51 57 62
REMARK Flexibility Score: inf
ROOT
ATOM      1  C   UNL A   1      38.528  23.378  26.501  1.00  0.00     0.188 C 
ENDROOT
BRANCH   1   2
ATOM      2  C   UNL A   1      38.228  21.981  25.941  1.00  0.00     0.188 C 
BRANCH   2   3
ATOM      3  O   UNL A   1      36.975  21.657  25.360  1.00  0.00    -0.376 OA
BRANCH   3   4
ATOM      4  C   UNL A   1      36.665  21.910  23.998  1.00  0.00     0.202 C 
BRANCH   4   5
ATOM      5  C   UNL A   1      36.437  23.313  23.407  1.00  0.00     0.261 C 
BRANCH   5   6
ATOM      6  O   UNL A   1      35.328  24.064  23.914  1.00  0.00    -0.462 OA
BRANCH   6   7
ATOM      7  C   UNL A   1      34.191  23.950  23.188  1.00  0.00     0.329 C 
ATOM      8  O   UNL A   1      34.176  23.606  22.009  1.00  0.00    -0.250 OA
BRANCH   7   9
ATOM      9  C   UNL A   1      32.912  24.356  23.947  1.00  0.00     0.197 C 
ATOM     10  N   UNL A   1      32.306  23.198  24.554  1.00  0.00    -0.311 N 
ATOM     11  C   UNL A   1      30.895  23.385  24.761  1.00  0.00     0.122 C 
ATOM     12  C   UNL A   1      30.495  24.135  23.511  1.00  0.00     0.024 C 
ATOM     13  C   UNL A   1      31.729  24.986  23.184  1.00  0.00     0.039 C 
BRANCH  10  14
ATOM     14  C   UNL A   1      33.050  22.223  25.148  1.00  0.00     0.320 C 
ATOM     15  O   UNL A   1      33.740  22.427  26.140  1.00  0.00    -0.248 OA
BRANCH  14  16
ATOM     16  N   UNL A   1      33.064  21.058  24.418  1.00  0.00    -0.324 N 
ATOM     17  C   UNL A   1      33.302  18.761  23.951  1.00  0.00     0.120 C 
ATOM     18  C   UNL A   1      32.155  19.374  23.136  1.00  0.00     0.039 C 
ATOM     19  C   UNL A   1      33.798  19.893  24.854  1.00  0.00     0.136 C 
ATOM     20  C   UNL A   1      32.511  20.839  23.093  1.00  0.00     0.122 C 
BRANCH  17  21
ATOM     21  C   UNL A   1      32.809  17.587  24.753  1.00  0.00     0.310 C 
ATOM     22  O   UNL A   1      32.155  17.648  25.784  1.00  0.00    -0.252 OA
BRANCH  21  23
ATOM     23  O   UNL A   1      33.203  16.432  24.150  1.00  0.00    -0.469 OA
ATOM     24  C   UNL A   1      34.359  16.577  23.332  1.00  0.00     0.282 C 
ENDBRANCH  21  23
ENDBRANCH  17  21
ENDBRANCH  14  16
ENDBRANCH  10  14
ENDBRANCH   7   9
ENDBRANCH   6   7
ENDBRANCH   5   6
ENDBRANCH   4   5
ENDBRANCH   3   4
ENDBRANCH   2   3
ENDBRANCH   1   2
BRANCH   1  25
ATOM     25  O   UNL A   1      39.860  23.575  26.919  1.00  0.00    -0.377 OA
BRANCH  25  26
ATOM     26  C   UNL A   1      40.518  22.503  27.580  1.00  0.00     0.188 C 
BRANCH  26  27
ATOM     27  C   UNL A   1      41.690  21.805  26.861  1.00  0.00     0.188 C 
BRANCH  27  28
ATOM     28  O   UNL A   1      42.271  20.734  27.594  1.00  0.00    -0.376 OA
BRANCH  28  29
ATOM     29  C   UNL A   1      42.116  19.410  27.109  1.00  0.00     0.202 C 
BRANCH  29  30
ATOM     30  C   UNL A   1      42.644  19.076  25.702  1.00  0.00     0.261 C 
BRANCH  30  31
ATOM     31  O   UNL A   1      44.066  19.118  25.508  1.00  0.00    -0.460 OA
BRANCH  31  32
ATOM     32  C   UNL A   1      44.542  19.696  24.383  1.00  0.00     0.338 C 
ATOM     33  O   UNL A   1      44.530  19.231  23.263  1.00  0.00    -0.246 OA
BRANCH  32  34
ATOM     34  C   UNL A   1      44.897  21.097  24.712  1.00  0.00     0.060 A 
ATOM     35  C   UNL A   1      45.610  21.354  25.891  1.00  0.00     0.016 A 
ATOM     36  C   UNL A   1      44.522  22.147  23.872  1.00  0.00     0.016 A 
ATOM     37  C   UNL A   1      45.908  22.667  26.257  1.00  0.00     0.010 A 
ATOM     38  C   UNL A   1      44.803  23.463  24.251  1.00  0.00     0.010 A 
ATOM     39  C   UNL A   1      45.461  23.732  25.465  1.00  0.00    -0.014 A 
BRANCH  39  40
ATOM     40  C   UNL A   1      45.493  25.115  26.003  1.00  0.00     0.031 A 
ATOM     41  C   UNL A   1      46.792  25.875  25.933  1.00  0.00     0.074 A 
ATOM     42  C   UNL A   1      44.399  25.693  26.533  1.00  0.00     0.049 A 
ATOM     43  N   UNL A   1      47.086  27.062  26.395  1.00  0.00    -0.248 NA
ATOM     44  C   UNL A   1      47.912  25.203  25.249  1.00  0.00     0.031 C 
ATOM     45  C   UNL A   1      43.078  25.076  26.636  1.00  0.00     0.029 A 
ATOM     46  N   UNL A   1      44.238  26.930  27.110  1.00  0.00    -0.354 N 
ATOM     47  C   UNL A   1      48.424  27.271  26.078  1.00  0.00     0.074 A 
ATOM     48  C   UNL A   1      48.891  26.082  25.401  1.00  0.00     0.031 C 
ATOM     49  C   UNL A   1      42.249  25.923  27.273  1.00  0.00     0.029 A 
ATOM     50  C   UNL A   1      42.988  27.127  27.650  1.00  0.00     0.049 A 
ATOM     51  H   UNL A   1      44.950  27.610  27.136  1.00  0.00     0.167 HD
ATOM     52  C   UNL A   1      49.191  28.361  26.311  1.00  0.00     0.034 A 
ATOM     53  C   UNL A   1      42.510  28.149  28.391  1.00  0.00     0.034 A 
ATOM     54  C   UNL A   1      48.724  29.547  26.975  1.00  0.00     0.049 A 
ATOM     55  C   UNL A   1      43.408  29.326  28.688  1.00  0.00     0.074 A 
ATOM     56  C   UNL A   1      49.424  30.710  27.247  1.00  0.00     0.029 A 
ATOM     57  N   UNL A   1      47.445  29.721  27.477  1.00  0.00    -0.354 N 
ATOM     58  N   UNL A   1      44.642  29.545  28.305  1.00  0.00    -0.248 NA
ATOM     59  C   UNL A   1      42.834  30.415  29.496  1.00  0.00     0.031 C 
ATOM     60  C   UNL A   1      48.573  31.577  27.940  1.00  0.00     0.029 A 
ATOM     61  C   UNL A   1      47.334  30.971  28.060  1.00  0.00     0.049 A 
ATOM     62  H   UNL A   1      46.722  29.055  27.425  1.00  0.00     0.167 HD
ATOM     63  C   UNL A   1      44.971  30.812  28.779  1.00  0.00     0.074 A 
ATOM     64  C   UNL A   1      43.800  31.320  29.461  1.00  0.00     0.031 C 
ATOM     65  C   UNL A   1      46.140  31.491  28.673  1.00  0.00     0.034 A 
BRANCH  52  66
ATOM     66  C   UNL A   1      50.614  28.340  25.821  1.00  0.00     0.023 A 
ATOM     67  C   UNL A   1      50.909  28.803  24.522  1.00  0.00     0.012 A 
ATOM     68  C   UNL A   1      51.665  27.945  26.670  1.00  0.00     0.148 A 
ATOM     69  C   UNL A   1      52.226  28.853  24.069  1.00  0.00     0.002 A 
ATOM     70  C   UNL A   1      52.979  28.040  26.228  1.00  0.00     0.091 A 
ATOM     71  F   UNL A   1      51.360  27.491  27.894  1.00  0.00    -0.205 F 
ATOM     72  C   UNL A   1      53.261  28.485  24.926  1.00  0.00     0.022 A 
BRANCH  70  73
ATOM     73  S   UNL A   1      54.387  27.665  27.277  1.00  0.00     0.127 S 
ATOM     74  O   UNL A   1      54.194  26.237  27.529  1.00  0.00    -0.237 OA
ATOM     75  O   UNL A   1      55.513  27.984  26.400  1.00  0.00    -0.237 OA
ATOM     76  O   UNL A   1      54.260  28.522  28.448  1.00  0.00    -0.744 OA
ENDBRANCH  70  73
ENDBRANCH  52  66
BRANCH  53  77
ATOM     77  C   UNL A   1      41.112  28.123  28.914  1.00  0.00     0.023 A 
ATOM     78  C   UNL A   1      40.749  27.184  29.900  1.00  0.00     0.012 A 
ATOM     79  C   UNL A   1      40.127  28.992  28.403  1.00  0.00     0.148 A 
ATOM     80  C   UNL A   1      39.424  27.071  30.325  1.00  0.00     0.002 A 
ATOM     81  C   UNL A   1      38.822  28.916  28.877  1.00  0.00     0.091 A 
ATOM     82  F   UNL A   1      40.482  29.868  27.452  1.00  0.00    -0.205 F 
ATOM     83  C   UNL A   1      38.462  27.940  29.817  1.00  0.00     0.022 A 
BRANCH  81  84
ATOM     84  S   UNL A   1      37.551  30.084  28.377  1.00  0.00     0.127 S 
ATOM     85  O   UNL A   1      37.315  29.694  26.989  1.00  0.00    -0.237 OA
ATOM     86  O   UNL A   1      36.464  29.763  29.303  1.00  0.00    -0.237 OA
ATOM     87  O   UNL A   1      38.132  31.404  28.577  1.00  0.00    -0.744 OA
ENDBRANCH  81  84
ENDBRANCH  53  77
BRANCH  65  88
ATOM     88  C   UNL A   1      46.201  32.886  29.240  1.00  0.00     0.023 A 
ATOM     89  C   UNL A   1      46.663  33.100  30.553  1.00  0.00     0.012 A 
ATOM     90  C   UNL A   1      45.865  33.996  28.437  1.00  0.00     0.148 A 
ATOM     91  C   UNL A   1      46.752  34.392  31.072  1.00  0.00     0.002 A 
ATOM     92  C   UNL A   1      46.010  35.282  28.941  1.00  0.00     0.091 A 
ATOM     93  F   UNL A   1      45.415  33.770  27.194  1.00  0.00    -0.205 F 
ATOM     94  C   UNL A   1      46.438  35.482  30.262  1.00  0.00     0.022 A 
BRANCH  92  95
ATOM     95  S   UNL A   1      45.725  36.747  27.942  1.00  0.00     0.127 S 
ATOM     96  O   UNL A   1      46.610  36.506  26.802  1.00  0.00    -0.237 OA
ATOM     97  O   UNL A   1      44.298  36.641  27.639  1.00  0.00    -0.237 OA
ATOM     98  O   UNL A   1      46.086  37.883  28.779  1.00  0.00    -0.744 OA
ENDBRANCH  92  95
ENDBRANCH  65  88
ENDBRANCH  39  40
ENDBRANCH  32  34
ENDBRANCH  31  32
ENDBRANCH  30  31
ENDBRANCH  29  30
ENDBRANCH  28  29
ENDBRANCH  27  28
ENDBRANCH  26  27
ENDBRANCH  25  26
ENDBRANCH   1  25
TORSDOF 27
ENDMDL
MODEL 3
REMARK VINA RESULT:      -8.4      3.101      9.958
REMARK SMILES COC(=O)[C@H]1CCN(C(=O)N2CCC[C@@H]2C(=O)OCCOCCOCCOCCOC(=O)c2ccc(-c3c4nc(c(-c5cccc(S(=O)(=O)[O-])c5F)c5ccc([nH]5)c(-c5cccc(S(=O)(=O)[O-])c5F)c5nc(c(-c6cccc(S(=O)(=O)[O-])c6F)c6ccc3[nH]6)C=C5)C=C4)cc2)C1
REMARK SMILES IDX 23 1 22 2 21 3 20 4 19 5 18 6 16 7 17 8 15 9 11 10 12 11
REMARK SMILES IDX 13 12 14 13 9 14 10 15 8 16 5 17 6 18 96 19 7 20 3 21 4 22
REMARK SMILES IDX 2 23 1 24 24 25 25 26 26 27 27 28 28 29 29 30 30 31 31 32
REMARK SMILES IDX 32 33 33 34 34 35 95 36 35 37 94 38 36 39 37 40 38 41 88 42
REMARK SMILES IDX 39 43 93 44 87 45 89 46 40 47 92 48 86 49 85 50 41 52 73 53
REMARK SMILES IDX 53 54 72 55 54 56 57 57 71 58 90 59 55 60 56 61 70 63 91 64
REMARK SMILES IDX 58 65 42 66 43 67 51 68 44 69 46 70 52 71 45 72 47 73 48 74
REMARK SMILES IDX 49 75 50 76 74 77 75 78 83 79 76 80 78 81 84 82 77 83 79 84
REMARK SMILES IDX 80 85 81 86 82 87 59 88 60 89 68 90 61 91 63 92 69 93 62 94
REMARK SMILES IDX 64 95 65 96 66 97 67 98
REMARK H PARENT 89 51 57 62
REMARK Flexibility Score: inf
ROOT
ATOM      1  C   UNL A   1      32.514  32.024  27.609  1.00  0.00     0.188 C 
ENDROOT
BRANCH   1   2
ATOM      2  C   UNL A   1      32.377  30.957  26.515  1.00  0.00     0.188 C 
BRANCH   2   3
ATOM      3  O   UNL A   1      33.471  30.150  26.111  1.00  0.00    -0.376 OA
BRANCH   3   4
ATOM      4  C   UNL A   1      33.312  28.889  25.479  1.00  0.00     0.202 C 
BRANCH   4   5
ATOM      5  C   UNL A   1      33.572  27.536  26.167  1.00  0.00     0.261 C 
BRANCH   5   6
ATOM      6  O   UNL A   1      32.429  26.808  26.632  1.00  0.00    -0.462 OA
BRANCH   6   7
ATOM      7  C   UNL A   1      32.347  25.537  26.176  1.00  0.00     0.329 C 
ATOM      8  O   UNL A   1      33.073  24.629  26.576  1.00  0.00    -0.250 OA
BRANCH   7   9
ATOM      9  C   UNL A   1      31.308  25.331  25.057  1.00  0.00     0.197 C 
ATOM     10  N   UNL A   1      31.923  25.523  23.767  1.00  0.00    -0.311 N 
ATOM     11  C   UNL A   1      30.958  25.908  22.772  1.00  0.00     0.122 C 
ATOM     12  C   UNL A   1      30.057  26.835  23.555  1.00  0.00     0.024 C 
ATOM     13  C   UNL A   1      30.071  26.248  24.973  1.00  0.00     0.039 C 
BRANCH  10  14
ATOM     14  C   UNL A   1      33.175  25.064  23.490  1.00  0.00     0.320 C 
ATOM     15  O   UNL A   1      34.130  25.809  23.303  1.00  0.00    -0.248 OA
BRANCH  14  16
ATOM     16  N   UNL A   1      33.200  23.705  23.283  1.00  0.00    -0.324 N 
ATOM     17  C   UNL A   1      33.351  21.408  23.785  1.00  0.00     0.120 C 
ATOM     18  C   UNL A   1      32.338  21.661  22.661  1.00  0.00     0.039 C 
ATOM     19  C   UNL A   1      33.812  22.800  24.226  1.00  0.00     0.136 C 
ATOM     20  C   UNL A   1      32.782  22.986  22.091  1.00  0.00     0.122 C 
BRANCH  17  21
ATOM     21  C   UNL A   1      32.706  20.653  24.915  1.00  0.00     0.310 C 
ATOM     22  O   UNL A   1      31.514  20.653  25.188  1.00  0.00    -0.252 OA
BRANCH  21  23
ATOM     23  O   UNL A   1      33.659  19.960  25.596  1.00  0.00    -0.469 OA
ATOM     24  C   UNL A   1      34.531  19.207  24.759  1.00  0.00     0.282 C 
ENDBRANCH  21  23
ENDBRANCH  17  21
ENDBRANCH  14  16
ENDBRANCH  10  14
ENDBRANCH   7   9
ENDBRANCH   6   7
ENDBRANCH   5   6
ENDBRANCH   4   5
ENDBRANCH   3   4
ENDBRANCH   2   3
ENDBRANCH   1   2
BRANCH   1  25
ATOM     25  O   UNL A   1      33.451  33.040  27.333  1.00  0.00    -0.377 OA
BRANCH  25  26
ATOM     26  C   UNL A   1      34.563  33.178  28.206  1.00  0.00     0.188 C 
BRANCH  26  27
ATOM     27  C   UNL A   1      34.493  34.238  29.324  1.00  0.00     0.188 C 
BRANCH  27  28
ATOM     28  O   UNL A   1      34.040  33.739  30.576  1.00  0.00    -0.376 OA
BRANCH  28  29
ATOM     29  C   UNL A   1      34.356  34.461  31.756  1.00  0.00     0.202 C 
BRANCH  29  30
ATOM     30  C   UNL A   1      35.019  33.709  32.923  1.00  0.00     0.261 C 
BRANCH  30  31
ATOM     31  O   UNL A   1      35.621  32.439  32.627  1.00  0.00    -0.460 OA
BRANCH  31  32
ATOM     32  C   UNL A   1      36.681  32.043  33.367  1.00  0.00     0.338 C 
ATOM     33  O   UNL A   1      36.773  32.062  34.575  1.00  0.00    -0.246 OA
BRANCH  32  34
ATOM     34  C   UNL A   1      37.643  31.380  32.455  1.00  0.00     0.060 A 
ATOM     35  C   UNL A   1      38.674  30.606  33.007  1.00  0.00     0.016 A 
ATOM     36  C   UNL A   1      37.537  31.527  31.071  1.00  0.00     0.016 A 
ATOM     37  C   UNL A   1      39.628  30.017  32.178  1.00  0.00     0.010 A 
ATOM     38  C   UNL A   1      38.507  30.954  30.243  1.00  0.00     0.010 A 
ATOM     39  C   UNL A   1      39.579  30.231  30.795  1.00  0.00    -0.014 A 
BRANCH  39  40
ATOM     40  C   UNL A   1      40.752  29.882  29.954  1.00  0.00     0.031 A 
ATOM     41  C   UNL A   1      40.797  28.512  29.330  1.00  0.00     0.074 A 
ATOM     42  C   UNL A   1      41.751  30.757  29.735  1.00  0.00     0.049 A 
ATOM     43  N   UNL A   1      41.740  27.954  28.617  1.00  0.00    -0.248 NA
ATOM     44  C   UNL A   1      39.616  27.654  29.540  1.00  0.00     0.031 C 
ATOM     45  C   UNL A   1      41.815  32.121  30.258  1.00  0.00     0.029 A 
ATOM     46  N   UNL A   1      42.922  30.613  29.030  1.00  0.00    -0.354 N 
ATOM     47  C   UNL A   1      41.279  26.678  28.312  1.00  0.00     0.074 A 
ATOM     48  C   UNL A   1      39.981  26.535  28.931  1.00  0.00     0.031 C 
ATOM     49  C   UNL A   1      42.982  32.677  29.887  1.00  0.00     0.029 A 
ATOM     50  C   UNL A   1      43.761  31.700  29.127  1.00  0.00     0.049 A 
ATOM     51  H   UNL A   1      43.140  29.808  28.506  1.00  0.00     0.167 HD
ATOM     52  C   UNL A   1      41.873  25.717  27.567  1.00  0.00     0.034 A 
ATOM     53  C   UNL A   1      45.023  31.868  28.681  1.00  0.00     0.034 A 
ATOM     54  C   UNL A   1      43.159  25.862  26.942  1.00  0.00     0.049 A 
ATOM     55  C   UNL A   1      45.685  30.755  27.905  1.00  0.00     0.074 A 
ATOM     56  C   UNL A   1      43.840  24.948  26.156  1.00  0.00     0.029 A 
ATOM     57  N   UNL A   1      43.962  26.987  27.036  1.00  0.00    -0.354 N 
ATOM     58  N   UNL A   1      45.200  29.589  27.551  1.00  0.00    -0.248 NA
ATOM     59  C   UNL A   1      47.060  30.994  27.437  1.00  0.00     0.031 C 
ATOM     60  C   UNL A   1      45.068  25.511  25.799  1.00  0.00     0.029 A 
ATOM     61  C   UNL A   1      45.133  26.790  26.325  1.00  0.00     0.049 A 
ATOM     62  H   UNL A   1      43.732  27.805  27.534  1.00  0.00     0.167 HD
ATOM     63  C   UNL A   1      46.188  28.982  26.780  1.00  0.00     0.074 A 
ATOM     64  C   UNL A   1      47.291  29.916  26.702  1.00  0.00     0.031 C 
ATOM     65  C   UNL A   1      46.191  27.757  26.199  1.00  0.00     0.034 A 
BRANCH  52  66
ATOM     66  C   UNL A   1      41.128  24.426  27.358  1.00  0.00     0.023 A 
ATOM     67  C   UNL A   1      41.591  23.247  27.978  1.00  0.00     0.012 A 
ATOM     68  C   UNL A   1      39.928  24.396  26.622  1.00  0.00     0.148 A 
ATOM     69  C   UNL A   1      40.881  22.054  27.852  1.00  0.00     0.002 A 
ATOM     70  C   UNL A   1      39.203  23.213  26.539  1.00  0.00     0.091 A 
ATOM     71  F   UNL A   1      39.517  25.523  26.025  1.00  0.00    -0.205 F 
ATOM     72  C   UNL A   1      39.682  22.040  27.144  1.00  0.00     0.022 A 
BRANCH  70  73
ATOM     73  S   UNL A   1      37.609  23.106  25.717  1.00  0.00     0.127 S 
ATOM     74  O   UNL A   1      37.337  21.671  25.787  1.00  0.00    -0.237 OA
ATOM     75  O   UNL A   1      36.766  23.930  26.582  1.00  0.00    -0.237 OA
ATOM     76  O   UNL A   1      37.809  23.632  24.374  1.00  0.00    -0.744 OA
ENDBRANCH  70  73
ENDBRANCH  52  66
BRANCH  53  77
ATOM     77  C   UNL A   1      45.764  33.137  28.948  1.00  0.00     0.023 A 
ATOM     78  C   UNL A   1      46.284  33.387  30.234  1.00  0.00     0.012 A 
ATOM     79  C   UNL A   1      45.911  34.118  27.948  1.00  0.00     0.148 A 
ATOM     80  C   UNL A   1      46.884  34.612  30.534  1.00  0.00     0.002 A 
ATOM     81  C   UNL A   1      46.568  35.310  28.237  1.00  0.00     0.091 A 
ATOM     82  F   UNL A   1      45.396  33.874  26.735  1.00  0.00    -0.205 F 
ATOM     83  C   UNL A   1      47.031  35.570  29.535  1.00  0.00     0.022 A 
BRANCH  81  84
ATOM     84  S   UNL A   1      46.918  36.541  26.977  1.00  0.00     0.127 S 
ATOM     85  O   UNL A   1      46.102  37.668  27.423  1.00  0.00    -0.237 OA
ATOM     86  O   UNL A   1      48.362  36.725  27.126  1.00  0.00    -0.237 OA
ATOM     87  O   UNL A   1      46.524  35.932  25.714  1.00  0.00    -0.744 OA
ENDBRANCH  81  84
ENDBRANCH  53  77
BRANCH  65  88
ATOM     88  C   UNL A   1      47.387  27.374  25.365  1.00  0.00     0.023 A 
ATOM     89  C   UNL A   1      47.385  27.600  23.974  1.00  0.00     0.012 A 
ATOM     90  C   UNL A   1      48.545  26.853  25.978  1.00  0.00     0.148 A 
ATOM     91  C   UNL A   1      48.502  27.278  23.202  1.00  0.00     0.002 A 
ATOM     92  C   UNL A   1      49.672  26.587  25.212  1.00  0.00     0.091 A 
ATOM     93  F   UNL A   1      48.521  26.633  27.301  1.00  0.00    -0.205 F 
ATOM     94  C   UNL A   1      49.647  26.783  23.823  1.00  0.00     0.022 A 
BRANCH  92  95
ATOM     95  S   UNL A   1      51.224  26.043  25.935  1.00  0.00     0.127 S 
ATOM     96  O   UNL A   1      52.068  25.897  24.749  1.00  0.00    -0.237 OA
ATOM     97  O   UNL A   1      51.574  27.172  26.797  1.00  0.00    -0.237 OA
ATOM     98  O   UNL A   1      50.928  24.806  26.645  1.00  0.00    -0.744 OA
ENDBRANCH  92  95
ENDBRANCH  65  88
ENDBRANCH  39  40
ENDBRANCH  32  34
ENDBRANCH  31  32
ENDBRANCH  30  31
ENDBRANCH  29  30
ENDBRANCH  28  29
ENDBRANCH  27  28
ENDBRANCH  26  27
ENDBRANCH  25  26
ENDBRANCH   1  25
TORSDOF 27
ENDMDL
