MODEL 1
REMARK VINA RESULT:      -7.2      0.000      0.000
REMARK SMILES Cc1cccc(-c2cccc(O)c2)c1C(=O)OCCOCCOCCOCCOC(=O)c1ccc(-c2c3nc(c(-c4cccc(S(=O)(=O)[O-])c4F)c4ccc([nH]4)c(-c4cccc(S(=O)(=O)[O-])c4F)c4nc(c(-c5cccc(S(=O)(=O)[O-])c5F)c5ccc2[nH]5)C=C4)C=C3)cc1
REMARK SMILES IDX 24 1 23 2 22 3 21 4 20 5 19 6 18 7 17 8 15 9 16 10 14 11
REMARK SMILES IDX 1 12 2 13 3 14 4 15 6 16 5 17 7 18 8 19 13 20 9 21 11 22
REMARK SMILES IDX 10 23 12 24 25 26 26 27 27 28 28 29 29 30 30 31 31 32 32 33
REMARK SMILES IDX 33 34 94 35 34 36 93 37 35 38 36 39 37 40 87 41 38 42 92 43
REMARK SMILES IDX 86 44 88 45 39 46 91 47 85 48 84 49 40 51 72 52 52 53 71 54
REMARK SMILES IDX 53 55 56 56 70 57 89 58 54 59 55 60 69 62 90 63 57 64 41 65
REMARK SMILES IDX 42 66 50 67 43 68 45 69 51 70 44 71 46 72 47 73 48 74 49 75
REMARK SMILES IDX 73 76 74 77 82 78 75 79 77 80 83 81 76 82 78 83 79 84 80 85
REMARK SMILES IDX 81 86 58 87 59 88 67 89 60 90 62 91 68 92 61 93 63 94 64 95
REMARK SMILES IDX 65 96 66 97
REMARK H PARENT 12 25 88 50 56 61
REMARK Flexibility Score: inf
ROOT
ATOM      1  C   UNL A   1      52.968  21.267  34.825  1.00  0.00     0.188 C 
ENDROOT
BRANCH   1   2
ATOM      2  O   UNL A   1      53.730  21.779  33.745  1.00  0.00    -0.377 OA
BRANCH   2   3
ATOM      3  C   UNL A   1      53.591  23.174  33.579  1.00  0.00     0.188 C 
BRANCH   3   4
ATOM      4  C   UNL A   1      52.423  23.559  32.679  1.00  0.00     0.188 C 
BRANCH   4   5
ATOM      5  O   UNL A   1      51.214  22.802  32.745  1.00  0.00    -0.376 OA
BRANCH   5   6
ATOM      6  C   UNL A   1      50.143  23.387  33.483  1.00  0.00     0.202 C 
BRANCH   6   7
ATOM      7  C   UNL A   1      50.536  24.082  34.770  1.00  0.00     0.261 C 
BRANCH   7   8
ATOM      8  O   UNL A   1      49.378  24.751  35.253  1.00  0.00    -0.460 OA
BRANCH   8   9
ATOM      9  C   UNL A   1      49.591  25.991  35.709  1.00  0.00     0.339 C 
ATOM     10  O   UNL A   1      50.593  26.672  35.693  1.00  0.00    -0.246 OA
BRANCH   9  11
ATOM     11  C   UNL A   1      48.261  26.505  36.044  1.00  0.00     0.070 A 
ATOM     12  C   UNL A   1      48.219  25.108  38.198  1.00  0.00     0.045 C 
ATOM     13  C   UNL A   1      47.672  26.175  37.284  1.00  0.00    -0.036 A 
ATOM     14  C   UNL A   1      46.507  26.849  37.641  1.00  0.00     0.004 A 
ATOM     15  C   UNL A   1      45.908  27.739  36.747  1.00  0.00     0.001 A 
ATOM     16  C   UNL A   1      47.595  27.283  35.053  1.00  0.00    -0.003 A 
ATOM     17  C   UNL A   1      46.414  27.914  35.449  1.00  0.00     0.009 A 
BRANCH  16  18
ATOM     18  C   UNL A   1      48.006  27.227  33.615  1.00  0.00    -0.014 A 
ATOM     19  C   UNL A   1      47.668  26.097  32.841  1.00  0.00     0.009 A 
ATOM     20  C   UNL A   1      48.915  28.129  33.048  1.00  0.00     0.055 A 
ATOM     21  C   UNL A   1      48.381  25.757  31.683  1.00  0.00     0.004 A 
ATOM     22  C   UNL A   1      49.581  27.815  31.855  1.00  0.00     0.116 A 
ATOM     23  C   UNL A   1      49.362  26.611  31.197  1.00  0.00     0.046 A 
BRANCH  22  24
ATOM     24  O   UNL A   1      50.506  28.702  31.385  1.00  0.00    -0.508 OA
ATOM     25  H   UNL A   1      51.064  28.462  30.671  1.00  0.00     0.293 HD
ENDBRANCH  22  24
ENDBRANCH  16  18
ENDBRANCH   9  11
ENDBRANCH   8   9
ENDBRANCH   7   8
ENDBRANCH   6   7
ENDBRANCH   5   6
ENDBRANCH   4   5
ENDBRANCH   3   4
ENDBRANCH   2   3
ENDBRANCH   1   2
BRANCH   1  26
ATOM     26  C   UNL A   1      53.131  19.745  35.007  1.00  0.00     0.188 C 
BRANCH  26  27
ATOM     27  O   UNL A   1      51.949  18.979  34.956  1.00  0.00    -0.376 OA
BRANCH  27  28
ATOM     28  C   UNL A   1      50.817  19.699  34.486  1.00  0.00     0.202 C 
BRANCH  28  29
ATOM     29  C   UNL A   1      49.599  20.062  35.442  1.00  0.00     0.261 C 
BRANCH  29  30
ATOM     30  O   UNL A   1      48.501  20.901  34.814  1.00  0.00    -0.460 OA
BRANCH  30  31
ATOM     31  C   UNL A   1      47.133  20.736  34.584  1.00  0.00     0.338 C 
ATOM     32  O   UNL A   1      46.664  19.609  34.394  1.00  0.00    -0.246 OA
BRANCH  31  33
ATOM     33  C   UNL A   1      46.118  21.820  34.947  1.00  0.00     0.060 A 
ATOM     34  C   UNL A   1      44.744  21.592  34.841  1.00  0.00     0.016 A 
ATOM     35  C   UNL A   1      46.434  23.058  35.481  1.00  0.00     0.016 A 
ATOM     36  C   UNL A   1      43.822  22.663  34.746  1.00  0.00     0.010 A 
ATOM     37  C   UNL A   1      45.574  24.146  35.268  1.00  0.00     0.010 A 
ATOM     38  C   UNL A   1      44.294  23.960  34.732  1.00  0.00    -0.014 A 
BRANCH  38  39
ATOM     39  C   UNL A   1      43.657  25.091  34.000  1.00  0.00     0.031 A 
ATOM     40  C   UNL A   1      42.978  26.204  34.785  1.00  0.00     0.074 A 
ATOM     41  C   UNL A   1      44.103  25.340  32.730  1.00  0.00     0.049 A 
ATOM     42  N   UNL A   1      42.625  27.357  34.314  1.00  0.00    -0.248 NA
ATOM     43  C   UNL A   1      42.673  26.108  36.213  1.00  0.00     0.031 C 
ATOM     44  C   UNL A   1      44.209  26.680  32.161  1.00  0.00     0.029 A 
ATOM     45  N   UNL A   1      44.643  24.554  31.694  1.00  0.00    -0.354 N 
ATOM     46  C   UNL A   1      42.356  28.222  35.361  1.00  0.00     0.074 A 
ATOM     47  C   UNL A   1      42.336  27.368  36.522  1.00  0.00     0.031 C 
ATOM     48  C   UNL A   1      44.823  26.664  30.977  1.00  0.00     0.029 A 
ATOM     49  C   UNL A   1      44.679  25.317  30.504  1.00  0.00     0.049 A 
ATOM     50  H   UNL A   1      44.946  23.622  31.784  1.00  0.00     0.167 HD
ATOM     51  C   UNL A   1      42.277  29.571  35.140  1.00  0.00     0.034 A 
ATOM     52  C   UNL A   1      43.945  25.116  29.363  1.00  0.00     0.034 A 
ATOM     53  C   UNL A   1      42.246  29.902  33.692  1.00  0.00     0.049 A 
ATOM     54  C   UNL A   1      42.847  26.173  29.136  1.00  0.00     0.074 A 
ATOM     55  C   UNL A   1      42.906  30.813  32.884  1.00  0.00     0.029 A 
ATOM     56  N   UNL A   1      41.461  29.145  32.815  1.00  0.00    -0.354 N 
ATOM     57  N   UNL A   1      42.557  27.104  30.016  1.00  0.00    -0.248 NA
ATOM     58  C   UNL A   1      42.012  26.319  27.946  1.00  0.00     0.031 C 
ATOM     59  C   UNL A   1      42.686  30.448  31.522  1.00  0.00     0.029 A 
ATOM     60  C   UNL A   1      41.763  29.415  31.490  1.00  0.00     0.049 A 
ATOM     61  H   UNL A   1      40.777  28.499  33.104  1.00  0.00     0.167 HD
ATOM     62  C   UNL A   1      41.523  27.887  29.607  1.00  0.00     0.074 A 
ATOM     63  C   UNL A   1      41.226  27.364  28.283  1.00  0.00     0.031 C 
ATOM     64  C   UNL A   1      40.962  28.850  30.406  1.00  0.00     0.034 A 
BRANCH  51  65
ATOM     65  C   UNL A   1      42.347  30.681  36.216  1.00  0.00     0.023 A 
ATOM     66  C   UNL A   1      43.514  30.736  37.021  1.00  0.00     0.012 A 
ATOM     67  C   UNL A   1      41.330  31.608  36.575  1.00  0.00     0.148 A 
ATOM     68  C   UNL A   1      43.664  31.610  38.110  1.00  0.00     0.002 A 
ATOM     69  C   UNL A   1      41.514  32.540  37.617  1.00  0.00     0.091 A 
ATOM     70  F   UNL A   1      40.139  31.555  35.973  1.00  0.00    -0.205 F 
ATOM     71  C   UNL A   1      42.671  32.526  38.399  1.00  0.00     0.022 A 
BRANCH  69  72
ATOM     72  S   UNL A   1      40.306  33.813  38.045  1.00  0.00     0.127 S 
ATOM     73  O   UNL A   1      40.913  34.407  39.237  1.00  0.00    -0.237 OA
ATOM     74  O   UNL A   1      40.319  34.671  36.861  1.00  0.00    -0.237 OA
ATOM     75  O   UNL A   1      39.047  33.117  38.277  1.00  0.00    -0.744 OA
ENDBRANCH  69  72
ENDBRANCH  51  65
BRANCH  52  76
ATOM     76  C   UNL A   1      44.176  23.792  28.724  1.00  0.00     0.023 A 
ATOM     77  C   UNL A   1      43.178  22.824  29.014  1.00  0.00     0.012 A 
ATOM     78  C   UNL A   1      44.776  23.789  27.463  1.00  0.00     0.148 A 
ATOM     79  C   UNL A   1      42.602  22.064  27.994  1.00  0.00     0.002 A 
ATOM     80  C   UNL A   1      44.126  23.115  26.436  1.00  0.00     0.091 A 
ATOM     81  F   UNL A   1      45.803  24.620  27.244  1.00  0.00    -0.205 F 
ATOM     82  C   UNL A   1      43.034  22.262  26.693  1.00  0.00     0.022 A 
BRANCH  80  83
ATOM     83  S   UNL A   1      44.165  23.793  24.774  1.00  0.00     0.127 S 
ATOM     84  O   UNL A   1      45.568  23.694  24.398  1.00  0.00    -0.237 OA
ATOM     85  O   UNL A   1      43.280  22.830  24.127  1.00  0.00    -0.237 OA
ATOM     86  O   UNL A   1      43.622  25.139  24.882  1.00  0.00    -0.744 OA
ENDBRANCH  80  83
ENDBRANCH  52  76
BRANCH  64  87
ATOM     87  C   UNL A   1      39.538  29.358  30.263  1.00  0.00     0.023 A 
ATOM     88  C   UNL A   1      38.444  28.530  30.572  1.00  0.00     0.012 A 
ATOM     89  C   UNL A   1      39.262  30.741  30.071  1.00  0.00     0.148 A 
ATOM     90  C   UNL A   1      37.142  29.031  30.654  1.00  0.00     0.002 A 
ATOM     91  C   UNL A   1      37.984  31.252  30.264  1.00  0.00     0.091 A 
ATOM     92  F   UNL A   1      40.238  31.579  29.693  1.00  0.00    -0.205 F 
ATOM     93  C   UNL A   1      36.916  30.394  30.529  1.00  0.00     0.022 A 
BRANCH  91  94
ATOM     94  S   UNL A   1      37.686  33.025  30.364  1.00  0.00     0.127 S 
ATOM     95  O   UNL A   1      36.267  33.073  30.706  1.00  0.00    -0.237 OA
ATOM     96  O   UNL A   1      38.587  33.431  31.445  1.00  0.00    -0.237 OA
ATOM     97  O   UNL A   1      38.051  33.556  29.057  1.00  0.00    -0.744 OA
ENDBRANCH  91  94
ENDBRANCH  64  87
ENDBRANCH  38  39
ENDBRANCH  31  33
ENDBRANCH  30  31
ENDBRANCH  29  30
ENDBRANCH  28  29
ENDBRANCH  27  28
ENDBRANCH  26  27
ENDBRANCH   1  26
TORSDOF 25
ENDMDL
MODEL 2
REMARK VINA RESULT:      -7.1      5.733     15.002
REMARK SMILES Cc1cccc(-c2cccc(O)c2)c1C(=O)OCCOCCOCCOCCOC(=O)c1ccc(-c2c3nc(c(-c4cccc(S(=O)(=O)[O-])c4F)c4ccc([nH]4)c(-c4cccc(S(=O)(=O)[O-])c4F)c4nc(c(-c5cccc(S(=O)(=O)[O-])c5F)c5ccc2[nH]5)C=C4)C=C3)cc1
REMARK SMILES IDX 24 1 23 2 22 3 21 4 20 5 19 6 18 7 17 8 15 9 16 10 14 11
REMARK SMILES IDX 1 12 2 13 3 14 4 15 6 16 5 17 7 18 8 19 13 20 9 21 11 22
REMARK SMILES IDX 10 23 12 24 25 26 26 27 27 28 28 29 29 30 30 31 31 32 32 33
REMARK SMILES IDX 33 34 94 35 34 36 93 37 35 38 36 39 37 40 87 41 38 42 92 43
REMARK SMILES IDX 86 44 88 45 39 46 91 47 85 48 84 49 40 51 72 52 52 53 71 54
REMARK SMILES IDX 53 55 56 56 70 57 89 58 54 59 55 60 69 62 90 63 57 64 41 65
REMARK SMILES IDX 42 66 50 67 43 68 45 69 51 70 44 71 46 72 47 73 48 74 49 75
REMARK SMILES IDX 73 76 74 77 82 78 75 79 77 80 83 81 76 82 78 83 79 84 80 85
REMARK SMILES IDX 81 86 58 87 59 88 67 89 60 90 62 91 68 92 61 93 63 94 64 95
REMARK SMILES IDX 65 96 66 97
REMARK H PARENT 12 25 88 50 56 61
REMARK Flexibility Score: inf
ROOT
ATOM      1  C   UNL A   1      37.700  31.227  28.734  1.00  0.00     0.188 C 
ENDROOT
BRANCH   1   2
ATOM      2  O   UNL A   1      36.543  32.031  28.579  1.00  0.00    -0.377 OA
BRANCH   2   3
ATOM      3  C   UNL A   1      35.345  31.339  28.855  1.00  0.00     0.188 C 
BRANCH   3   4
ATOM      4  C   UNL A   1      34.731  30.684  27.622  1.00  0.00     0.188 C 
BRANCH   4   5
ATOM      5  O   UNL A   1      33.311  30.671  27.475  1.00  0.00    -0.376 OA
BRANCH   5   6
ATOM      6  C   UNL A   1      32.762  29.578  26.741  1.00  0.00     0.202 C 
BRANCH   6   7
ATOM      7  C   UNL A   1      33.621  28.332  26.681  1.00  0.00     0.261 C 
BRANCH   7   8
ATOM      8  O   UNL A   1      33.187  27.581  25.553  1.00  0.00    -0.460 OA
BRANCH   8   9
ATOM      9  C   UNL A   1      32.469  26.490  25.843  1.00  0.00     0.339 C 
ATOM     10  O   UNL A   1      31.682  26.285  26.741  1.00  0.00    -0.246 OA
BRANCH   9  11
ATOM     11  C   UNL A   1      32.629  25.611  24.683  1.00  0.00     0.070 A 
ATOM     12  C   UNL A   1      34.869  24.749  25.596  1.00  0.00     0.045 C 
ATOM     13  C   UNL A   1      33.709  24.702  24.635  1.00  0.00    -0.036 A 
ATOM     14  C   UNL A   1      33.702  23.751  23.617  1.00  0.00     0.004 A 
ATOM     15  C   UNL A   1      32.710  23.781  22.634  1.00  0.00     0.001 A 
ATOM     16  C   UNL A   1      31.698  25.765  23.615  1.00  0.00    -0.003 A 
ATOM     17  C   UNL A   1      31.751  24.806  22.602  1.00  0.00     0.009 A 
BRANCH  16  18
ATOM     18  C   UNL A   1      30.881  27.011  23.469  1.00  0.00    -0.014 A 
ATOM     19  C   UNL A   1      29.524  26.999  23.855  1.00  0.00     0.009 A 
ATOM     20  C   UNL A   1      31.321  28.128  22.749  1.00  0.00     0.055 A 
ATOM     21  C   UNL A   1      28.603  27.922  23.341  1.00  0.00     0.004 A 
ATOM     22  C   UNL A   1      30.405  29.085  22.290  1.00  0.00     0.116 A 
ATOM     23  C   UNL A   1      29.043  28.961  22.532  1.00  0.00     0.046 A 
BRANCH  22  24
ATOM     24  O   UNL A   1      30.883  30.118  21.536  1.00  0.00    -0.508 OA
ATOM     25  H   UNL A   1      30.291  30.644  21.034  1.00  0.00     0.293 HD
ENDBRANCH  22  24
ENDBRANCH  16  18
ENDBRANCH   9  11
ENDBRANCH   8   9
ENDBRANCH   7   8
ENDBRANCH   6   7
ENDBRANCH   5   6
ENDBRANCH   4   5
ENDBRANCH   3   4
ENDBRANCH   2   3
ENDBRANCH   1   2
BRANCH   1  26
ATOM     26  C   UNL A   1      37.559  30.180  29.857  1.00  0.00     0.188 C 
BRANCH  26  27
ATOM     27  O   UNL A   1      38.743  29.531  30.259  1.00  0.00    -0.376 OA
BRANCH  27  28
ATOM     28  C   UNL A   1      38.764  28.140  29.963  1.00  0.00     0.202 C 
BRANCH  28  29
ATOM     29  C   UNL A   1      40.079  27.418  29.434  1.00  0.00     0.261 C 
BRANCH  29  30
ATOM     30  O   UNL A   1      39.862  26.067  28.774  1.00  0.00    -0.460 OA
BRANCH  30  31
ATOM     31  C   UNL A   1      40.336  25.439  27.620  1.00  0.00     0.338 C 
ATOM     32  O   UNL A   1      39.586  25.259  26.655  1.00  0.00    -0.246 OA
BRANCH  31  33
ATOM     33  C   UNL A   1      41.830  25.314  27.326  1.00  0.00     0.060 A 
ATOM     34  C   UNL A   1      42.463  24.069  27.301  1.00  0.00     0.016 A 
ATOM     35  C   UNL A   1      42.663  26.365  26.979  1.00  0.00     0.016 A 
ATOM     36  C   UNL A   1      43.865  23.948  27.464  1.00  0.00     0.010 A 
ATOM     37  C   UNL A   1      44.035  26.287  27.266  1.00  0.00     0.010 A 
ATOM     38  C   UNL A   1      44.620  25.084  27.678  1.00  0.00    -0.014 A 
BRANCH  38  39
ATOM     39  C   UNL A   1      45.861  25.141  28.500  1.00  0.00     0.031 A 
ATOM     40  C   UNL A   1      47.217  25.039  27.818  1.00  0.00     0.074 A 
ATOM     41  C   UNL A   1      45.769  25.744  29.726  1.00  0.00     0.049 A 
ATOM     42  N   UNL A   1      48.359  25.334  28.352  1.00  0.00    -0.248 NA
ATOM     43  C   UNL A   1      47.385  24.622  26.425  1.00  0.00     0.031 C 
ATOM     44  C   UNL A   1      46.843  26.536  30.317  1.00  0.00     0.029 A 
ATOM     45  N   UNL A   1      44.747  25.904  30.681  1.00  0.00    -0.354 N 
ATOM     46  C   UNL A   1      49.318  25.447  27.361  1.00  0.00     0.074 A 
ATOM     47  C   UNL A   1      48.669  24.925  26.185  1.00  0.00     0.031 C 
ATOM     48  C   UNL A   1      46.445  27.149  31.433  1.00  0.00     0.029 A 
ATOM     49  C   UNL A   1      45.308  26.398  31.881  1.00  0.00     0.049 A 
ATOM     50  H   UNL A   1      43.794  25.702  30.536  1.00  0.00     0.167 HD
ATOM     51  C   UNL A   1      50.516  26.058  27.624  1.00  0.00     0.034 A 
ATOM     52  C   UNL A   1      45.407  25.747  33.084  1.00  0.00     0.034 A 
ATOM     53  C   UNL A   1      50.715  26.300  29.076  1.00  0.00     0.049 A 
ATOM     54  C   UNL A   1      46.846  25.329  33.449  1.00  0.00     0.074 A 
ATOM     55  C   UNL A   1      51.128  27.381  29.838  1.00  0.00     0.029 A 
ATOM     56  N   UNL A   1      50.373  25.313  30.007  1.00  0.00    -0.354 N 
ATOM     57  N   UNL A   1      47.861  25.469  32.627  1.00  0.00    -0.248 NA
ATOM     58  C   UNL A   1      47.293  24.764  34.720  1.00  0.00     0.031 C 
ATOM     59  C   UNL A   1      50.818  27.111  31.205  1.00  0.00     0.029 A 
ATOM     60  C   UNL A   1      50.365  25.805  31.302  1.00  0.00     0.049 A 
ATOM     61  H   UNL A   1      50.164  24.380  29.771  1.00  0.00     0.167 HD
ATOM     62  C   UNL A   1      49.016  24.986  33.158  1.00  0.00     0.074 A 
ATOM     63  C   UNL A   1      48.609  24.570  34.491  1.00  0.00     0.031 C 
ATOM     64  C   UNL A   1      50.185  24.913  32.445  1.00  0.00     0.034 A 
BRANCH  51  65
ATOM     65  C   UNL A   1      51.526  26.583  26.577  1.00  0.00     0.023 A 
ATOM     66  C   UNL A   1      52.865  26.124  26.676  1.00  0.00     0.012 A 
ATOM     67  C   UNL A   1      51.303  27.561  25.569  1.00  0.00     0.148 A 
ATOM     68  C   UNL A   1      53.911  26.605  25.872  1.00  0.00     0.002 A 
ATOM     69  C   UNL A   1      52.337  27.984  24.708  1.00  0.00     0.091 A 
ATOM     70  F   UNL A   1      50.112  28.159  25.475  1.00  0.00    -0.205 F 
ATOM     71  C   UNL A   1      53.645  27.524  24.873  1.00  0.00     0.022 A 
BRANCH  69  72
ATOM     72  S   UNL A   1      52.090  29.138  23.340  1.00  0.00     0.127 S 
ATOM     73  O   UNL A   1      51.797  30.382  24.052  1.00  0.00    -0.237 OA
ATOM     74  O   UNL A   1      53.388  29.111  22.667  1.00  0.00    -0.237 OA
ATOM     75  O   UNL A   1      50.986  28.603  22.552  1.00  0.00    -0.744 OA
ENDBRANCH  69  72
ENDBRANCH  51  65
BRANCH  52  76
ATOM     76  C   UNL A   1      44.096  25.345  33.661  1.00  0.00     0.023 A 
ATOM     77  C   UNL A   1      43.981  23.955  33.932  1.00  0.00     0.012 A 
ATOM     78  C   UNL A   1      43.469  26.255  34.515  1.00  0.00     0.148 A 
ATOM     79  C   UNL A   1      43.497  23.505  35.163  1.00  0.00     0.002 A 
ATOM     80  C   UNL A   1      43.095  25.811  35.777  1.00  0.00     0.091 A 
ATOM     81  F   UNL A   1      43.475  27.552  34.179  1.00  0.00    -0.205 F 
ATOM     82  C   UNL A   1      43.117  24.442  36.110  1.00  0.00     0.022 A 
BRANCH  80  83
ATOM     83  S   UNL A   1      43.240  26.920  37.182  1.00  0.00     0.127 S 
ATOM     84  O   UNL A   1      42.749  26.123  38.297  1.00  0.00    -0.237 OA
ATOM     85  O   UNL A   1      44.685  27.121  37.151  1.00  0.00    -0.237 OA
ATOM     86  O   UNL A   1      42.455  28.097  36.839  1.00  0.00    -0.744 OA
ENDBRANCH  80  83
ENDBRANCH  52  76
BRANCH  64  87
ATOM     87  C   UNL A   1      51.310  23.937  32.743  1.00  0.00     0.023 A 
ATOM     88  C   UNL A   1      51.103  22.549  32.641  1.00  0.00     0.012 A 
ATOM     89  C   UNL A   1      52.656  24.378  32.877  1.00  0.00     0.148 A 
ATOM     90  C   UNL A   1      52.165  21.642  32.701  1.00  0.00     0.002 A 
ATOM     91  C   UNL A   1      53.715  23.479  32.823  1.00  0.00     0.091 A 
ATOM     92  F   UNL A   1      52.926  25.678  33.063  1.00  0.00    -0.205 F 
ATOM     93  C   UNL A   1      53.470  22.106  32.762  1.00  0.00     0.022 A 
BRANCH  91  94
ATOM     94  S   UNL A   1      55.416  24.042  32.645  1.00  0.00     0.127 S 
ATOM     95  O   UNL A   1      55.381  25.328  33.337  1.00  0.00    -0.237 OA
ATOM     96  O   UNL A   1      56.164  22.995  33.344  1.00  0.00    -0.237 OA
ATOM     97  O   UNL A   1      55.663  24.091  31.210  1.00  0.00    -0.744 OA
ENDBRANCH  91  94
ENDBRANCH  64  87
ENDBRANCH  38  39
ENDBRANCH  31  33
ENDBRANCH  30  31
ENDBRANCH  29  30
ENDBRANCH  28  29
ENDBRANCH  27  28
ENDBRANCH  26  27
ENDBRANCH   1  26
TORSDOF 25
ENDMDL
MODEL 3
REMARK VINA RESULT:      -7.0      1.473      2.661
REMARK SMILES Cc1cccc(-c2cccc(O)c2)c1C(=O)OCCOCCOCCOCCOC(=O)c1ccc(-c2c3nc(c(-c4cccc(S(=O)(=O)[O-])c4F)c4ccc([nH]4)c(-c4cccc(S(=O)(=O)[O-])c4F)c4nc(c(-c5cccc(S(=O)(=O)[O-])c5F)c5ccc2[nH]5)C=C4)C=C3)cc1
REMARK SMILES IDX 24 1 23 2 22 3 21 4 20 5 19 6 18 7 17 8 15 9 16 10 14 11
REMARK SMILES IDX 1 12 2 13 3 14 4 15 6 16 5 17 7 18 8 19 13 20 9 21 11 22
REMARK SMILES IDX 10 23 12 24 25 26 26 27 27 28 28 29 29 30 30 31 31 32 32 33
REMARK SMILES IDX 33 34 94 35 34 36 93 37 35 38 36 39 37 40 87 41 38 42 92 43
REMARK SMILES IDX 86 44 88 45 39 46 91 47 85 48 84 49 40 51 72 52 52 53 71 54
REMARK SMILES IDX 53 55 56 56 70 57 89 58 54 59 55 60 69 62 90 63 57 64 41 65
REMARK SMILES IDX 42 66 50 67 43 68 45 69 51 70 44 71 46 72 47 73 48 74 49 75
REMARK SMILES IDX 73 76 74 77 82 78 75 79 77 80 83 81 76 82 78 83 79 84 80 85
REMARK SMILES IDX 81 86 58 87 59 88 67 89 60 90 62 91 68 92 61 93 63 94 64 95
REMARK SMILES IDX 65 96 66 97
REMARK H PARENT 12 25 88 50 56 61
REMARK Flexibility Score: inf
ROOT
ATOM      1  C   UNL A   1      52.425  22.173  33.700  1.00  0.00     0.188 C 
ENDROOT
BRANCH   1   2
ATOM      2  O   UNL A   1      53.266  23.061  32.983  1.00  0.00    -0.377 OA
BRANCH   2   3
ATOM      3  C   UNL A   1      53.025  24.418  33.285  1.00  0.00     0.188 C 
BRANCH   3   4
ATOM      4  C   UNL A   1      51.945  25.047  32.411  1.00  0.00     0.188 C 
BRANCH   4   5
ATOM      5  O   UNL A   1      50.726  24.336  32.192  1.00  0.00    -0.376 OA
BRANCH   5   6
ATOM      6  C   UNL A   1      49.559  24.882  32.803  1.00  0.00     0.202 C 
BRANCH   6   7
ATOM      7  C   UNL A   1      49.590  24.969  34.314  1.00  0.00     0.261 C 
BRANCH   7   8
ATOM      8  O   UNL A   1      48.543  25.850  34.702  1.00  0.00    -0.460 OA
BRANCH   8   9
ATOM      9  C   UNL A   1      48.945  27.055  35.121  1.00  0.00     0.339 C 
ATOM     10  O   UNL A   1      49.948  27.386  35.715  1.00  0.00    -0.246 OA
BRANCH   9  11
ATOM     11  C   UNL A   1      48.020  28.002  34.494  1.00  0.00     0.070 A 
ATOM     12  C   UNL A   1      49.718  28.492  32.632  1.00  0.00     0.045 C 
ATOM     13  C   UNL A   1      48.347  28.585  33.251  1.00  0.00    -0.036 A 
ATOM     14  C   UNL A   1      47.353  29.313  32.602  1.00  0.00     0.004 A 
ATOM     15  C   UNL A   1      46.121  29.530  33.223  1.00  0.00     0.001 A 
ATOM     16  C   UNL A   1      46.839  28.334  35.219  1.00  0.00    -0.003 A 
ATOM     17  C   UNL A   1      45.885  29.093  34.536  1.00  0.00     0.009 A 
BRANCH  16  18
ATOM     18  C   UNL A   1      46.736  28.093  36.692  1.00  0.00    -0.014 A 
ATOM     19  C   UNL A   1      45.959  27.014  37.165  1.00  0.00     0.009 A 
ATOM     20  C   UNL A   1      47.175  29.018  37.647  1.00  0.00     0.055 A 
ATOM     21  C   UNL A   1      45.442  26.994  38.468  1.00  0.00     0.004 A 
ATOM     22  C   UNL A   1      46.705  28.958  38.966  1.00  0.00     0.116 A 
ATOM     23  C   UNL A   1      45.799  27.986  39.370  1.00  0.00     0.046 A 
BRANCH  22  24
ATOM     24  O   UNL A   1      47.116  29.926  39.837  1.00  0.00    -0.508 OA
ATOM     25  H   UNL A   1      46.496  30.334  40.410  1.00  0.00     0.293 HD
ENDBRANCH  22  24
ENDBRANCH  16  18
ENDBRANCH   9  11
ENDBRANCH   8   9
ENDBRANCH   7   8
ENDBRANCH   6   7
ENDBRANCH   5   6
ENDBRANCH   4   5
ENDBRANCH   3   4
ENDBRANCH   2   3
ENDBRANCH   1   2
BRANCH   1  26
ATOM     26  C   UNL A   1      53.032  20.764  33.855  1.00  0.00     0.188 C 
BRANCH  26  27
ATOM     27  O   UNL A   1      52.119  19.705  34.030  1.00  0.00    -0.376 OA
BRANCH  27  28
ATOM     28  C   UNL A   1      50.757  20.095  33.905  1.00  0.00     0.202 C 
BRANCH  28  29
ATOM     29  C   UNL A   1      49.808  20.234  35.173  1.00  0.00     0.261 C 
BRANCH  29  30
ATOM     30  O   UNL A   1      48.598  21.134  34.990  1.00  0.00    -0.460 OA
BRANCH  30  31
ATOM     31  C   UNL A   1      47.259  20.939  34.646  1.00  0.00     0.338 C 
ATOM     32  O   UNL A   1      46.847  19.811  34.352  1.00  0.00    -0.246 OA
BRANCH  31  33
ATOM     33  C   UNL A   1      46.180  21.965  34.992  1.00  0.00     0.060 A 
ATOM     34  C   UNL A   1      44.824  21.681  34.814  1.00  0.00     0.016 A 
ATOM     35  C   UNL A   1      46.414  23.198  35.579  1.00  0.00     0.016 A 
ATOM     36  C   UNL A   1      43.859  22.713  34.708  1.00  0.00     0.010 A 
ATOM     37  C   UNL A   1      45.516  24.253  35.358  1.00  0.00     0.010 A 
ATOM     38  C   UNL A   1      44.272  24.030  34.757  1.00  0.00    -0.014 A 
BRANCH  38  39
ATOM     39  C   UNL A   1      43.620  25.155  34.031  1.00  0.00     0.031 A 
ATOM     40  C   UNL A   1      42.897  26.237  34.819  1.00  0.00     0.074 A 
ATOM     41  C   UNL A   1      44.082  25.436  32.773  1.00  0.00     0.049 A 
ATOM     42  N   UNL A   1      42.523  27.388  34.360  1.00  0.00    -0.248 NA
ATOM     43  C   UNL A   1      42.569  26.110  36.240  1.00  0.00     0.031 C 
ATOM     44  C   UNL A   1      44.164  26.786  32.227  1.00  0.00     0.029 A 
ATOM     45  N   UNL A   1      44.661  24.680  31.735  1.00  0.00    -0.354 N 
ATOM     46  C   UNL A   1      42.212  28.229  35.415  1.00  0.00     0.074 A 
ATOM     47  C   UNL A   1      42.193  27.357  36.562  1.00  0.00     0.031 C 
ATOM     48  C   UNL A   1      44.799  26.805  31.054  1.00  0.00     0.029 A 
ATOM     49  C   UNL A   1      44.699  25.463  30.558  1.00  0.00     0.049 A 
ATOM     50  H   UNL A   1      44.987  23.755  31.816  1.00  0.00     0.167 HD
ATOM     51  C   UNL A   1      42.102  29.579  35.213  1.00  0.00     0.034 A 
ATOM     52  C   UNL A   1      43.993  25.261  29.401  1.00  0.00     0.034 A 
ATOM     53  C   UNL A   1      42.089  29.932  33.770  1.00  0.00     0.049 A 
ATOM     54  C   UNL A   1      42.871  26.293  29.169  1.00  0.00     0.074 A 
ATOM     55  C   UNL A   1      42.740  30.873  32.989  1.00  0.00     0.029 A 
ATOM     56  N   UNL A   1      41.341  29.169  32.867  1.00  0.00    -0.354 N 
ATOM     57  N   UNL A   1      42.541  27.202  30.057  1.00  0.00    -0.248 NA
ATOM     58  C   UNL A   1      42.055  26.436  27.966  1.00  0.00     0.031 C 
ATOM     59  C   UNL A   1      42.554  30.523  31.618  1.00  0.00     0.029 A 
ATOM     60  C   UNL A   1      41.659  29.467  31.552  1.00  0.00     0.049 A 
ATOM     61  H   UNL A   1      40.668  28.500  33.133  1.00  0.00     0.167 HD
ATOM     62  C   UNL A   1      41.494  27.964  29.641  1.00  0.00     0.074 A 
ATOM     63  C   UNL A   1      41.236  27.455  28.304  1.00  0.00     0.031 C 
ATOM     64  C   UNL A   1      40.893  28.900  30.445  1.00  0.00     0.034 A 
BRANCH  51  65
ATOM     65  C   UNL A   1      42.122  30.673  36.308  1.00  0.00     0.023 A 
ATOM     66  C   UNL A   1      41.099  31.655  36.265  1.00  0.00     0.012 A 
ATOM     67  C   UNL A   1      43.110  30.881  37.309  1.00  0.00     0.148 A 
ATOM     68  C   UNL A   1      41.060  32.770  37.118  1.00  0.00     0.002 A 
ATOM     69  C   UNL A   1      43.026  31.957  38.218  1.00  0.00     0.091 A 
ATOM     70  F   UNL A   1      44.189  30.095  37.353  1.00  0.00    -0.205 F 
ATOM     71  C   UNL A   1      42.014  32.914  38.108  1.00  0.00     0.022 A 
BRANCH  69  72
ATOM     72  S   UNL A   1      44.186  32.209  39.579  1.00  0.00     0.127 S 
ATOM     73  O   UNL A   1      44.123  30.918  40.264  1.00  0.00    -0.237 OA
ATOM     74  O   UNL A   1      45.443  32.467  38.878  1.00  0.00    -0.237 OA
ATOM     75  O   UNL A   1      43.674  33.339  40.344  1.00  0.00    -0.744 OA
ENDBRANCH  69  72
ENDBRANCH  51  65
BRANCH  52  76
ATOM     76  C   UNL A   1      44.270  23.954  28.746  1.00  0.00     0.023 A 
ATOM     77  C   UNL A   1      43.336  22.933  29.066  1.00  0.00     0.012 A 
ATOM     78  C   UNL A   1      44.822  23.988  27.464  1.00  0.00     0.148 A 
ATOM     79  C   UNL A   1      42.764  22.147  28.063  1.00  0.00     0.002 A 
ATOM     80  C   UNL A   1      44.172  23.285  26.457  1.00  0.00     0.091 A 
ATOM     81  F   UNL A   1      45.796  24.874  27.212  1.00  0.00    -0.205 F 
ATOM     82  C   UNL A   1      43.137  22.374  26.749  1.00  0.00     0.022 A 
BRANCH  80  83
ATOM     83  S   UNL A   1      44.114  23.970  24.798  1.00  0.00     0.127 S 
ATOM     84  O   UNL A   1      45.504  23.937  24.367  1.00  0.00    -0.237 OA
ATOM     85  O   UNL A   1      43.249  22.970  24.181  1.00  0.00    -0.237 OA
ATOM     86  O   UNL A   1      43.516  25.290  24.936  1.00  0.00    -0.744 OA
ENDBRANCH  80  83
ENDBRANCH  52  76
BRANCH  64  87
ATOM     87  C   UNL A   1      39.459  29.372  30.283  1.00  0.00     0.023 A 
ATOM     88  C   UNL A   1      38.387  28.469  30.396  1.00  0.00     0.012 A 
ATOM     89  C   UNL A   1      39.134  30.758  30.274  1.00  0.00     0.148 A 
ATOM     90  C   UNL A   1      37.062  28.907  30.463  1.00  0.00     0.002 A 
ATOM     91  C   UNL A   1      37.826  31.189  30.454  1.00  0.00     0.091 A 
ATOM     92  F   UNL A   1      40.093  31.676  30.087  1.00  0.00    -0.205 F 
ATOM     93  C   UNL A   1      36.783  30.264  30.522  1.00  0.00     0.022 A 
BRANCH  91  94
ATOM     94  S   UNL A   1      37.444  32.917  30.789  1.00  0.00     0.127 S 
ATOM     95  O   UNL A   1      38.192  33.599  29.736  1.00  0.00    -0.237 OA
ATOM     96  O   UNL A   1      35.989  32.951  30.623  1.00  0.00    -0.237 OA
ATOM     97  O   UNL A   1      37.891  33.158  32.154  1.00  0.00    -0.744 OA
ENDBRANCH  91  94
ENDBRANCH  64  87
ENDBRANCH  38  39
ENDBRANCH  31  33
ENDBRANCH  30  31
ENDBRANCH  29  30
ENDBRANCH  28  29
ENDBRANCH  27  28
ENDBRANCH  26  27
ENDBRANCH   1  26
TORSDOF 25
ENDMDL
