MODEL 1
REMARK VINA RESULT:     -10.9      0.000      0.000
REMARK SMILES Cc1c(CCC(=O)N2CCC(C(=O)OCCOCCOCCOCCOC(=O)c3ccc(-c4c5nc(c(-c6cccc(S(=O)(=O)[O-])c6F)c6ccc([nH]6)c(-c6cccc(S(=O)(=O)[O-])c6F)c6nc(c(-c7cccc(S(=O)(=O)[O-])c7F)c7ccc4[nH]7)C=C6)C=C5)cc3)CC2)c(=O)oc2cc3oc4c(c3cc12)CCCC4
REMARK SMILES IDX 20 1 19 2 18 3 17 4 16 5 15 6 14 7 12 8 13 9 11 10 6 11 7 12
REMARK SMILES IDX 8 13 9 14 93 15 10 16 92 17 5 18 4 19 3 20 1 21 2 22 105 23
REMARK SMILES IDX 94 24 97 25 104 26 95 27 96 28 98 29 103 30 99 31 102 32
REMARK SMILES IDX 100 33 101 34 106 35 109 36 107 37 108 38 21 39 22 40 23 41
REMARK SMILES IDX 24 42 25 43 26 44 27 45 28 46 29 47 30 48 91 49 31 50 90 51
REMARK SMILES IDX 32 52 33 53 34 54 84 55 35 56 89 57 83 58 85 59 36 60 88 61
REMARK SMILES IDX 82 62 81 63 37 65 69 66 49 67 68 68 50 69 53 70 67 71 86 72
REMARK SMILES IDX 51 73 52 74 66 76 87 77 54 78 38 79 39 80 47 81 40 82 42 83
REMARK SMILES IDX 48 84 41 85 43 86 44 87 45 88 46 89 70 90 71 91 79 92 72 93
REMARK SMILES IDX 74 94 80 95 73 96 75 97 76 98 77 99 78 100 55 101 56 102
REMARK SMILES IDX 64 103 57 104 59 105 65 106 58 107 60 108 61 109 62 110
REMARK SMILES IDX 63 111
REMARK H PARENT 85 64 53 75
REMARK Flexibility Score: inf
ROOT
ATOM      1  O   UNL A   1      37.625  21.956  24.545  1.00  0.00    -0.377 OA
ENDROOT
BRANCH   1   2
ATOM      2  C   UNL A   1      36.777  23.077  24.728  1.00  0.00     0.188 C 
BRANCH   2   3
ATOM      3  C   UNL A   1      36.228  23.399  26.115  1.00  0.00     0.188 C 
BRANCH   3   4
ATOM      4  O   UNL A   1      34.916  22.904  26.326  1.00  0.00    -0.376 OA
BRANCH   4   5
ATOM      5  C   UNL A   1      34.738  21.521  26.607  1.00  0.00     0.202 C 
BRANCH   5   6
ATOM      6  C   UNL A   1      34.313  20.599  25.418  1.00  0.00     0.261 C 
BRANCH   6   7
ATOM      7  O   UNL A   1      32.909  20.237  25.282  1.00  0.00    -0.463 OA
BRANCH   7   8
ATOM      8  C   UNL A   1      32.151  21.295  24.954  1.00  0.00     0.309 C 
ATOM      9  O   UNL A   1      31.059  21.528  25.465  1.00  0.00    -0.252 OA
BRANCH   8  10
ATOM     10  C   UNL A   1      32.645  22.297  23.937  1.00  0.00     0.103 C 
ATOM     11  C   UNL A   1      32.111  26.024  22.256  1.00  0.00     0.222 C 
ATOM     12  O   UNL A   1      31.519  26.020  21.173  1.00  0.00    -0.275 OA
ATOM     13  N   UNL A   1      32.844  24.913  22.674  1.00  0.00    -0.343 N 
ATOM     14  C   UNL A   1      33.102  23.697  21.846  1.00  0.00     0.120 C 
ATOM     15  C   UNL A   1      33.043  24.686  24.074  1.00  0.00     0.120 C 
ATOM     16  C   UNL A   1      32.522  22.333  22.418  1.00  0.00     0.037 C 
ATOM     17  C   UNL A   1      32.037  23.611  24.399  1.00  0.00     0.037 C 
BRANCH  11  18
ATOM     18  C   UNL A   1      32.185  27.354  23.094  1.00  0.00     0.105 C 
BRANCH  18  19
ATOM     19  C   UNL A   1      31.254  27.658  24.311  1.00  0.00     0.053 C 
BRANCH  19  20
ATOM     20  C   UNL A   1      31.802  28.645  25.344  1.00  0.00     0.042 A 
ATOM     21  C   UNL A   1      32.676  26.883  26.909  1.00  0.00     0.046 C 
ATOM     22  C   UNL A   1      32.572  28.284  26.386  1.00  0.00    -0.030 A 
ATOM     23  C   UNL A   1      33.462  29.334  26.904  1.00  0.00     0.022 A 
ATOM     24  C   UNL A   1      31.359  30.080  25.314  1.00  0.00     0.339 A 
ATOM     25  C   UNL A   1      32.957  30.615  27.042  1.00  0.00     0.142 A 
ATOM     26  C   UNL A   1      34.824  29.149  27.141  1.00  0.00     0.024 A 
ATOM     27  O   UNL A   1      30.589  30.492  24.450  1.00  0.00    -0.246 OA
ATOM     28  O   UNL A   1      31.744  30.907  26.389  1.00  0.00    -0.422 OA
ATOM     29  C   UNL A   1      33.639  31.626  27.749  1.00  0.00     0.095 A 
ATOM     30  C   UNL A   1      35.608  30.182  27.657  1.00  0.00     0.025 A 
ATOM     31  C   UNL A   1      34.954  31.316  28.114  1.00  0.00     0.138 A 
ATOM     32  C   UNL A   1      36.961  30.292  28.042  1.00  0.00     0.001 A 
ATOM     33  O   UNL A   1      35.766  31.946  29.033  1.00  0.00    -0.461 OA
ATOM     34  C   UNL A   1      36.888  31.169  29.099  1.00  0.00     0.108 A 
ATOM     35  C   UNL A   1      38.078  29.316  27.965  1.00  0.00     0.040 C 
ATOM     36  C   UNL A   1      37.547  30.827  30.398  1.00  0.00     0.076 C 
ATOM     37  C   UNL A   1      38.200  28.558  29.299  1.00  0.00     0.005 C 
ATOM     38  C   UNL A   1      37.514  29.269  30.495  1.00  0.00     0.008 C 
ENDBRANCH  19  20
ENDBRANCH  18  19
ENDBRANCH  11  18
ENDBRANCH   8  10
ENDBRANCH   7   8
ENDBRANCH   6   7
ENDBRANCH   5   6
ENDBRANCH   4   5
ENDBRANCH   3   4
ENDBRANCH   2   3
ENDBRANCH   1   2
BRANCH   1  39
ATOM     39  C   UNL A   1      38.219  21.330  25.661  1.00  0.00     0.188 C 
BRANCH  39  40
ATOM     40  C   UNL A   1      39.569  21.818  26.196  1.00  0.00     0.188 C 
BRANCH  40  41
ATOM     41  O   UNL A   1      40.493  20.889  26.732  1.00  0.00    -0.376 OA
BRANCH  41  42
ATOM     42  C   UNL A   1      41.766  20.766  26.118  1.00  0.00     0.202 C 
BRANCH  42  43
ATOM     43  C   UNL A   1      42.904  21.670  26.609  1.00  0.00     0.261 C 
BRANCH  43  44
ATOM     44  O   UNL A   1      44.003  21.812  25.693  1.00  0.00    -0.460 OA
BRANCH  44  45
ATOM     45  C   UNL A   1      43.918  22.808  24.776  1.00  0.00     0.338 C 
ATOM     46  O   UNL A   1      43.788  22.682  23.565  1.00  0.00    -0.246 OA
BRANCH  45  47
ATOM     47  C   UNL A   1      43.833  24.109  25.477  1.00  0.00     0.060 A 
ATOM     48  C   UNL A   1      44.586  24.354  26.625  1.00  0.00     0.016 A 
ATOM     49  C   UNL A   1      42.936  25.075  25.006  1.00  0.00     0.016 A 
ATOM     50  C   UNL A   1      44.466  25.587  27.277  1.00  0.00     0.010 A 
ATOM     51  C   UNL A   1      42.784  26.283  25.690  1.00  0.00     0.010 A 
ATOM     52  C   UNL A   1      43.570  26.571  26.813  1.00  0.00    -0.014 A 
BRANCH  52  53
ATOM     53  C   UNL A   1      43.631  27.941  27.390  1.00  0.00     0.031 A 
ATOM     54  C   UNL A   1      43.177  28.104  28.813  1.00  0.00     0.074 A 
ATOM     55  C   UNL A   1      44.400  28.918  26.864  1.00  0.00     0.049 A 
ATOM     56  N   UNL A   1      43.955  27.931  29.845  1.00  0.00    -0.248 NA
ATOM     57  C   UNL A   1      41.761  28.233  29.162  1.00  0.00     0.031 C 
ATOM     58  C   UNL A   1      45.767  28.694  26.379  1.00  0.00     0.029 A 
ATOM     59  N   UNL A   1      44.269  30.289  26.889  1.00  0.00    -0.354 N 
ATOM     60  C   UNL A   1      43.150  27.923  30.976  1.00  0.00     0.074 A 
ATOM     61  C   UNL A   1      41.796  28.105  30.497  1.00  0.00     0.031 C 
ATOM     62  C   UNL A   1      46.400  29.884  26.305  1.00  0.00     0.029 A 
ATOM     63  C   UNL A   1      45.454  30.963  26.589  1.00  0.00     0.049 A 
ATOM     64  H   UNL A   1      43.423  30.748  27.098  1.00  0.00     0.167 HD
ATOM     65  C   UNL A   1      43.631  27.797  32.245  1.00  0.00     0.034 A 
ATOM     66  C   UNL A   1      45.797  32.190  27.077  1.00  0.00     0.034 A 
ATOM     67  C   UNL A   1      45.059  27.712  32.358  1.00  0.00     0.049 A 
ATOM     68  C   UNL A   1      46.077  31.854  28.522  1.00  0.00     0.074 A 
ATOM     69  C   UNL A   1      46.018  26.728  32.465  1.00  0.00     0.029 A 
ATOM     70  N   UNL A   1      45.783  28.881  32.328  1.00  0.00    -0.354 N 
ATOM     71  N   UNL A   1      47.167  31.305  28.992  1.00  0.00    -0.248 NA
ATOM     72  C   UNL A   1      44.918  31.782  29.413  1.00  0.00     0.031 C 
ATOM     73  C   UNL A   1      47.240  27.331  32.021  1.00  0.00     0.029 A 
ATOM     74  C   UNL A   1      46.936  28.631  31.624  1.00  0.00     0.049 A 
ATOM     75  H   UNL A   1      45.523  29.738  32.736  1.00  0.00     0.167 HD
ATOM     76  C   UNL A   1      46.754  30.562  30.102  1.00  0.00     0.074 A 
ATOM     77  C   UNL A   1      45.355  30.894  30.291  1.00  0.00     0.031 C 
ATOM     78  C   UNL A   1      47.514  29.610  30.725  1.00  0.00     0.034 A 
BRANCH  65  79
ATOM     79  C   UNL A   1      42.817  27.975  33.478  1.00  0.00     0.023 A 
ATOM     80  C   UNL A   1      42.474  29.301  33.818  1.00  0.00     0.012 A 
ATOM     81  C   UNL A   1      42.556  26.943  34.397  1.00  0.00     0.148 A 
ATOM     82  C   UNL A   1      41.939  29.612  35.065  1.00  0.00     0.002 A 
ATOM     83  C   UNL A   1      42.003  27.259  35.639  1.00  0.00     0.091 A 
ATOM     84  F   UNL A   1      42.891  25.688  34.065  1.00  0.00    -0.205 F 
ATOM     85  C   UNL A   1      41.712  28.592  35.978  1.00  0.00     0.022 A 
BRANCH  83  86
ATOM     86  S   UNL A   1      41.641  26.030  36.901  1.00  0.00     0.127 S 
ATOM     87  O   UNL A   1      40.577  26.680  37.665  1.00  0.00    -0.237 OA
ATOM     88  O   UNL A   1      41.204  24.888  36.097  1.00  0.00    -0.237 OA
ATOM     89  O   UNL A   1      42.891  25.818  37.619  1.00  0.00    -0.744 OA
ENDBRANCH  83  86
ENDBRANCH  65  79
BRANCH  66  90
ATOM     90  C   UNL A   1      44.916  33.338  26.659  1.00  0.00     0.023 A 
ATOM     91  C   UNL A   1      44.271  33.230  25.403  1.00  0.00     0.012 A 
ATOM     92  C   UNL A   1      44.686  34.512  27.402  1.00  0.00     0.148 A 
ATOM     93  C   UNL A   1      43.356  34.188  24.956  1.00  0.00     0.002 A 
ATOM     94  C   UNL A   1      43.720  35.431  26.990  1.00  0.00     0.091 A 
ATOM     95  F   UNL A   1      45.408  34.736  28.506  1.00  0.00    -0.205 F 
ATOM     96  C   UNL A   1      43.054  35.273  25.768  1.00  0.00     0.022 A 
BRANCH  94  97
ATOM     97  S   UNL A   1      43.183  36.801  28.026  1.00  0.00     0.127 S 
ATOM     98  O   UNL A   1      44.401  37.604  28.124  1.00  0.00    -0.237 OA
ATOM     99  O   UNL A   1      42.123  37.384  27.204  1.00  0.00    -0.237 OA
ATOM    100  O   UNL A   1      42.733  36.200  29.274  1.00  0.00    -0.744 OA
ENDBRANCH  94  97
ENDBRANCH  66  90
BRANCH  78 101
ATOM    101  C   UNL A   1      48.962  29.530  30.334  1.00  0.00     0.023 A 
ATOM    102  C   UNL A   1      49.907  30.209  31.132  1.00  0.00     0.012 A 
ATOM    103  C   UNL A   1      49.433  28.729  29.277  1.00  0.00     0.148 A 
ATOM    104  C   UNL A   1      51.276  30.088  30.896  1.00  0.00     0.002 A 
ATOM    105  C   UNL A   1      50.804  28.556  29.093  1.00  0.00     0.091 A 
ATOM    106  F   UNL A   1      48.549  28.124  28.468  1.00  0.00    -0.205 F 
ATOM    107  C   UNL A   1      51.727  29.248  29.884  1.00  0.00     0.022 A 
BRANCH 105 108
ATOM    108  S   UNL A   1      51.438  27.407  27.868  1.00  0.00     0.127 S 
ATOM    109  O   UNL A   1      50.398  26.376  27.816  1.00  0.00    -0.237 OA
ATOM    110  O   UNL A   1      51.530  28.242  26.675  1.00  0.00    -0.237 OA
ATOM    111  O   UNL A   1      52.696  26.948  28.433  1.00  0.00    -0.744 OA
ENDBRANCH 105 108
ENDBRANCH  78 101
ENDBRANCH  52  53
ENDBRANCH  45  47
ENDBRANCH  44  45
ENDBRANCH  43  44
ENDBRANCH  42  43
ENDBRANCH  41  42
ENDBRANCH  40  41
ENDBRANCH  39  40
ENDBRANCH   1  39
TORSDOF 26
ENDMDL
MODEL 2
REMARK VINA RESULT:      -9.7      1.511      2.638
REMARK SMILES Cc1c(CCC(=O)N2CCC(C(=O)OCCOCCOCCOCCOC(=O)c3ccc(-c4c5nc(c(-c6cccc(S(=O)(=O)[O-])c6F)c6ccc([nH]6)c(-c6cccc(S(=O)(=O)[O-])c6F)c6nc(c(-c7cccc(S(=O)(=O)[O-])c7F)c7ccc4[nH]7)C=C6)C=C5)cc3)CC2)c(=O)oc2cc3oc4c(c3cc12)CCCC4
REMARK SMILES IDX 20 1 19 2 18 3 17 4 16 5 15 6 14 7 12 8 13 9 11 10 6 11 7 12
REMARK SMILES IDX 8 13 9 14 93 15 10 16 92 17 5 18 4 19 3 20 1 21 2 22 105 23
REMARK SMILES IDX 94 24 97 25 104 26 95 27 96 28 98 29 103 30 99 31 102 32
REMARK SMILES IDX 100 33 101 34 106 35 109 36 107 37 108 38 21 39 22 40 23 41
REMARK SMILES IDX 24 42 25 43 26 44 27 45 28 46 29 47 30 48 91 49 31 50 90 51
REMARK SMILES IDX 32 52 33 53 34 54 84 55 35 56 89 57 83 58 85 59 36 60 88 61
REMARK SMILES IDX 82 62 81 63 37 65 69 66 49 67 68 68 50 69 53 70 67 71 86 72
REMARK SMILES IDX 51 73 52 74 66 76 87 77 54 78 38 79 39 80 47 81 40 82 42 83
REMARK SMILES IDX 48 84 41 85 43 86 44 87 45 88 46 89 70 90 71 91 79 92 72 93
REMARK SMILES IDX 74 94 80 95 73 96 75 97 76 98 77 99 78 100 55 101 56 102
REMARK SMILES IDX 64 103 57 104 59 105 65 106 58 107 60 108 61 109 62 110
REMARK SMILES IDX 63 111
REMARK H PARENT 85 64 53 75
REMARK Flexibility Score: inf
ROOT
ATOM      1  O   UNL A   1      37.283  21.894  24.335  1.00  0.00    -0.377 OA
ENDROOT
BRANCH   1   2
ATOM      2  C   UNL A   1      36.084  22.542  24.727  1.00  0.00     0.188 C 
BRANCH   2   3
ATOM      3  C   UNL A   1      35.130  21.855  25.700  1.00  0.00     0.188 C 
BRANCH   3   4
ATOM      4  O   UNL A   1      33.764  22.062  25.383  1.00  0.00    -0.376 OA
BRANCH   4   5
ATOM      5  C   UNL A   1      33.262  21.571  24.146  1.00  0.00     0.202 C 
BRANCH   5   6
ATOM      6  C   UNL A   1      32.706  22.624  23.133  1.00  0.00     0.261 C 
BRANCH   6   7
ATOM      7  O   UNL A   1      31.288  22.950  23.172  1.00  0.00    -0.463 OA
BRANCH   7   8
ATOM      8  C   UNL A   1      31.032  23.961  24.017  1.00  0.00     0.309 C 
ATOM      9  O   UNL A   1      30.716  23.795  25.192  1.00  0.00    -0.252 OA
BRANCH   8  10
ATOM     10  C   UNL A   1      31.166  25.392  23.552  1.00  0.00     0.103 C 
ATOM     11  C   UNL A   1      31.717  29.323  24.669  1.00  0.00     0.222 C 
ATOM     12  O   UNL A   1      30.683  29.996  24.712  1.00  0.00    -0.275 OA
ATOM     13  N   UNL A   1      31.816  28.217  23.823  1.00  0.00    -0.343 N 
ATOM     14  C   UNL A   1      30.788  27.813  22.819  1.00  0.00     0.120 C 
ATOM     15  C   UNL A   1      32.719  27.155  24.155  1.00  0.00     0.120 C 
ATOM     16  C   UNL A   1      30.129  26.384  23.038  1.00  0.00     0.037 C 
ATOM     17  C   UNL A   1      31.814  26.097  24.733  1.00  0.00     0.037 C 
BRANCH  11  18
ATOM     18  C   UNL A   1      32.995  29.816  25.443  1.00  0.00     0.105 C 
BRANCH  18  19
ATOM     19  C   UNL A   1      32.942  30.803  26.653  1.00  0.00     0.053 C 
BRANCH  19  20
ATOM     20  C   UNL A   1      34.140  30.763  27.604  1.00  0.00     0.042 A 
ATOM     21  C   UNL A   1      34.298  33.256  27.885  1.00  0.00     0.046 C 
ATOM     22  C   UNL A   1      34.604  31.839  28.265  1.00  0.00    -0.030 A 
ATOM     23  C   UNL A   1      35.320  31.548  29.516  1.00  0.00     0.022 A 
ATOM     24  C   UNL A   1      34.960  29.510  27.721  1.00  0.00     0.339 A 
ATOM     25  C   UNL A   1      36.216  30.493  29.533  1.00  0.00     0.142 A 
ATOM     26  C   UNL A   1      35.053  32.186  30.728  1.00  0.00     0.024 A 
ATOM     27  O   UNL A   1      34.666  28.495  27.093  1.00  0.00    -0.246 OA
ATOM     28  O   UNL A   1      36.154  29.576  28.465  1.00  0.00    -0.422 OA
ATOM     29  C   UNL A   1      37.123  30.286  30.591  1.00  0.00     0.095 A 
ATOM     30  C   UNL A   1      35.787  31.879  31.875  1.00  0.00     0.025 A 
ATOM     31  C   UNL A   1      36.911  31.081  31.723  1.00  0.00     0.138 A 
ATOM     32  C   UNL A   1      35.793  32.368  33.198  1.00  0.00     0.001 A 
ATOM     33  O   UNL A   1      37.764  31.325  32.778  1.00  0.00    -0.461 OA
ATOM     34  C   UNL A   1      37.123  32.265  33.536  1.00  0.00     0.108 A 
ATOM     35  C   UNL A   1      34.937  33.381  33.867  1.00  0.00     0.040 C 
ATOM     36  C   UNL A   1      37.838  33.441  34.120  1.00  0.00     0.076 C 
ATOM     37  C   UNL A   1      35.615  34.761  33.804  1.00  0.00     0.005 C 
ATOM     38  C   UNL A   1      37.139  34.704  33.522  1.00  0.00     0.008 C 
ENDBRANCH  19  20
ENDBRANCH  18  19
ENDBRANCH  11  18
ENDBRANCH   8  10
ENDBRANCH   7   8
ENDBRANCH   6   7
ENDBRANCH   5   6
ENDBRANCH   4   5
ENDBRANCH   3   4
ENDBRANCH   2   3
ENDBRANCH   1   2
BRANCH   1  39
ATOM     39  C   UNL A   1      38.097  21.270  25.302  1.00  0.00     0.188 C 
BRANCH  39  40
ATOM     40  C   UNL A   1      39.123  22.085  26.095  1.00  0.00     0.188 C 
BRANCH  40  41
ATOM     41  O   UNL A   1      40.146  21.422  26.816  1.00  0.00    -0.376 OA
BRANCH  41  42
ATOM     42  C   UNL A   1      41.357  21.113  26.145  1.00  0.00     0.202 C 
BRANCH  42  43
ATOM     43  C   UNL A   1      42.654  21.764  26.642  1.00  0.00     0.261 C 
BRANCH  43  44
ATOM     44  O   UNL A   1      43.744  21.737  25.705  1.00  0.00    -0.460 OA
BRANCH  44  45
ATOM     45  C   UNL A   1      43.796  22.737  24.790  1.00  0.00     0.338 C 
ATOM     46  O   UNL A   1      43.764  22.620  23.571  1.00  0.00    -0.246 OA
BRANCH  45  47
ATOM     47  C   UNL A   1      43.727  24.040  25.490  1.00  0.00     0.060 A 
ATOM     48  C   UNL A   1      44.475  24.274  26.643  1.00  0.00     0.016 A 
ATOM     49  C   UNL A   1      42.850  25.020  25.010  1.00  0.00     0.016 A 
ATOM     50  C   UNL A   1      44.369  25.508  27.293  1.00  0.00     0.010 A 
ATOM     51  C   UNL A   1      42.713  26.231  25.692  1.00  0.00     0.010 A 
ATOM     52  C   UNL A   1      43.494  26.507  26.822  1.00  0.00    -0.014 A 
BRANCH  52  53
ATOM     53  C   UNL A   1      43.573  27.876  27.398  1.00  0.00     0.031 A 
ATOM     54  C   UNL A   1      43.121  28.045  28.821  1.00  0.00     0.074 A 
ATOM     55  C   UNL A   1      44.355  28.843  26.871  1.00  0.00     0.049 A 
ATOM     56  N   UNL A   1      43.897  27.863  29.852  1.00  0.00    -0.248 NA
ATOM     57  C   UNL A   1      41.707  28.193  29.170  1.00  0.00     0.031 C 
ATOM     58  C   UNL A   1      45.719  28.601  26.386  1.00  0.00     0.029 A 
ATOM     59  N   UNL A   1      44.241  30.216  26.896  1.00  0.00    -0.354 N 
ATOM     60  C   UNL A   1      43.092  27.866  30.984  1.00  0.00     0.074 A 
ATOM     61  C   UNL A   1      41.741  28.066  30.505  1.00  0.00     0.031 C 
ATOM     62  C   UNL A   1      46.367  29.783  26.312  1.00  0.00     0.029 A 
ATOM     63  C   UNL A   1      45.436  30.873  26.596  1.00  0.00     0.049 A 
ATOM     64  H   UNL A   1      43.402  30.686  27.105  1.00  0.00     0.167 HD
ATOM     65  C   UNL A   1      43.571  27.734  32.253  1.00  0.00     0.034 A 
ATOM     66  C   UNL A   1      45.795  32.096  27.083  1.00  0.00     0.034 A 
ATOM     67  C   UNL A   1      44.998  27.630  32.366  1.00  0.00     0.049 A 
ATOM     68  C   UNL A   1      46.070  31.757  28.528  1.00  0.00     0.074 A 
ATOM     69  C   UNL A   1      45.944  26.634  32.473  1.00  0.00     0.029 A 
ATOM     70  N   UNL A   1      45.737  28.790  32.336  1.00  0.00    -0.354 N 
ATOM     71  N   UNL A   1      47.153  31.194  28.998  1.00  0.00    -0.248 NA
ATOM     72  C   UNL A   1      44.911  31.701  29.420  1.00  0.00     0.031 C 
ATOM     73  C   UNL A   1      47.174  27.221  32.029  1.00  0.00     0.029 A 
ATOM     74  C   UNL A   1      46.886  28.525  31.632  1.00  0.00     0.049 A 
ATOM     75  H   UNL A   1      45.488  29.650  32.743  1.00  0.00     0.167 HD
ATOM     76  C   UNL A   1      46.730  30.457  30.109  1.00  0.00     0.074 A 
ATOM     77  C   UNL A   1      45.335  30.807  30.298  1.00  0.00     0.031 C 
ATOM     78  C   UNL A   1      47.477  29.496  30.732  1.00  0.00     0.034 A 
BRANCH  65  79
ATOM     79  C   UNL A   1      42.759  27.923  33.486  1.00  0.00     0.023 A 
ATOM     80  C   UNL A   1      42.400  29.250  33.804  1.00  0.00     0.012 A 
ATOM     81  C   UNL A   1      42.515  26.905  34.423  1.00  0.00     0.148 A 
ATOM     82  C   UNL A   1      41.866  29.576  35.047  1.00  0.00     0.002 A 
ATOM     83  C   UNL A   1      41.962  27.235  35.662  1.00  0.00     0.091 A 
ATOM     84  F   UNL A   1      42.865  25.649  34.112  1.00  0.00    -0.205 F 
ATOM     85  C   UNL A   1      41.656  28.570  35.979  1.00  0.00     0.022 A 
BRANCH  83  86
ATOM     86  S   UNL A   1      41.621  26.024  36.947  1.00  0.00     0.127 S 
ATOM     87  O   UNL A   1      40.538  26.664  37.691  1.00  0.00    -0.237 OA
ATOM     88  O   UNL A   1      41.216  24.856  36.164  1.00  0.00    -0.237 OA
ATOM     89  O   UNL A   1      42.872  25.856  37.677  1.00  0.00    -0.744 OA
ENDBRANCH  83  86
ENDBRANCH  65  79
BRANCH  66  90
ATOM     90  C   UNL A   1      44.929  33.256  26.665  1.00  0.00     0.023 A 
ATOM     91  C   UNL A   1      44.282  33.156  25.409  1.00  0.00     0.012 A 
ATOM     92  C   UNL A   1      44.714  34.433  27.407  1.00  0.00     0.148 A 
ATOM     93  C   UNL A   1      43.380  34.126  24.962  1.00  0.00     0.002 A 
ATOM     94  C   UNL A   1      43.760  35.364  26.995  1.00  0.00     0.091 A 
ATOM     95  F   UNL A   1      45.440  34.649  28.511  1.00  0.00    -0.205 F 
ATOM     96  C   UNL A   1      43.093  35.215  25.773  1.00  0.00     0.022 A 
BRANCH  94  97
ATOM     97  S   UNL A   1      43.242  36.742  28.030  1.00  0.00     0.127 S 
ATOM     98  O   UNL A   1      43.922  37.871  27.397  1.00  0.00    -0.237 OA
ATOM     99  O   UNL A   1      41.792  36.712  27.844  1.00  0.00    -0.237 OA
ATOM    100  O   UNL A   1      43.696  36.419  29.375  1.00  0.00    -0.744 OA
ENDBRANCH  94  97
ENDBRANCH  66  90
BRANCH  78 101
ATOM    101  C   UNL A   1      48.924  29.397  30.341  1.00  0.00     0.023 A 
ATOM    102  C   UNL A   1      49.880  30.047  31.150  1.00  0.00     0.012 A 
ATOM    103  C   UNL A   1      49.383  28.603  29.273  1.00  0.00     0.148 A 
ATOM    104  C   UNL A   1      51.247  29.906  30.913  1.00  0.00     0.002 A 
ATOM    105  C   UNL A   1      50.751  28.409  29.088  1.00  0.00     0.091 A 
ATOM    106  F   UNL A   1      48.490  28.024  28.455  1.00  0.00    -0.205 F 
ATOM    107  C   UNL A   1      51.685  29.074  29.890  1.00  0.00     0.022 A 
BRANCH 105 108
ATOM    108  S   UNL A   1      51.366  27.267  27.847  1.00  0.00     0.127 S 
ATOM    109  O   UNL A   1      50.938  27.886  26.590  1.00  0.00    -0.237 OA
ATOM    110  O   UNL A   1      52.806  27.296  28.083  1.00  0.00    -0.237 OA
ATOM    111  O   UNL A   1      50.688  26.018  28.151  1.00  0.00    -0.744 OA
ENDBRANCH 105 108
ENDBRANCH  78 101
ENDBRANCH  52  53
ENDBRANCH  45  47
ENDBRANCH  44  45
ENDBRANCH  43  44
ENDBRANCH  42  43
ENDBRANCH  41  42
ENDBRANCH  40  41
ENDBRANCH  39  40
ENDBRANCH   1  39
TORSDOF 26
ENDMDL
MODEL 3
REMARK VINA RESULT:      -9.4      1.900      2.909
REMARK SMILES Cc1c(CCC(=O)N2CCC(C(=O)OCCOCCOCCOCCOC(=O)c3ccc(-c4c5nc(c(-c6cccc(S(=O)(=O)[O-])c6F)c6ccc([nH]6)c(-c6cccc(S(=O)(=O)[O-])c6F)c6nc(c(-c7cccc(S(=O)(=O)[O-])c7F)c7ccc4[nH]7)C=C6)C=C5)cc3)CC2)c(=O)oc2cc3oc4c(c3cc12)CCCC4
REMARK SMILES IDX 20 1 19 2 18 3 17 4 16 5 15 6 14 7 12 8 13 9 11 10 6 11 7 12
REMARK SMILES IDX 8 13 9 14 93 15 10 16 92 17 5 18 4 19 3 20 1 21 2 22 105 23
REMARK SMILES IDX 94 24 97 25 104 26 95 27 96 28 98 29 103 30 99 31 102 32
REMARK SMILES IDX 100 33 101 34 106 35 109 36 107 37 108 38 21 39 22 40 23 41
REMARK SMILES IDX 24 42 25 43 26 44 27 45 28 46 29 47 30 48 91 49 31 50 90 51
REMARK SMILES IDX 32 52 33 53 34 54 84 55 35 56 89 57 83 58 85 59 36 60 88 61
REMARK SMILES IDX 82 62 81 63 37 65 69 66 49 67 68 68 50 69 53 70 67 71 86 72
REMARK SMILES IDX 51 73 52 74 66 76 87 77 54 78 38 79 39 80 47 81 40 82 42 83
REMARK SMILES IDX 48 84 41 85 43 86 44 87 45 88 46 89 70 90 71 91 79 92 72 93
REMARK SMILES IDX 74 94 80 95 73 96 75 97 76 98 77 99 78 100 55 101 56 102
REMARK SMILES IDX 64 103 57 104 59 105 65 106 58 107 60 108 61 109 62 110
REMARK SMILES IDX 63 111
REMARK H PARENT 85 64 53 75
REMARK Flexibility Score: inf
ROOT
ATOM      1  O   UNL A   1      37.816  20.102  24.511  1.00  0.00    -0.377 OA
ENDROOT
BRANCH   1   2
ATOM      2  C   UNL A   1      37.011  21.266  24.593  1.00  0.00     0.188 C 
BRANCH   2   3
ATOM      3  C   UNL A   1      36.230  21.566  25.869  1.00  0.00     0.188 C 
BRANCH   3   4
ATOM      4  O   UNL A   1      34.875  21.905  25.628  1.00  0.00    -0.376 OA
BRANCH   4   5
ATOM      5  C   UNL A   1      34.146  21.177  24.647  1.00  0.00     0.202 C 
BRANCH   5   6
ATOM      6  C   UNL A   1      33.023  21.943  23.877  1.00  0.00     0.261 C 
BRANCH   6   7
ATOM      7  O   UNL A   1      31.684  21.981  24.449  1.00  0.00    -0.463 OA
BRANCH   7   8
ATOM      8  C   UNL A   1      31.510  23.052  25.238  1.00  0.00     0.309 C 
ATOM      9  O   UNL A   1      30.910  23.011  26.309  1.00  0.00    -0.252 OA
BRANCH   8  10
ATOM     10  C   UNL A   1      32.098  24.388  24.847  1.00  0.00     0.103 C 
ATOM     11  C   UNL A   1      32.902  28.257  26.026  1.00  0.00     0.222 C 
ATOM     12  O   UNL A   1      32.093  29.097  25.620  1.00  0.00    -0.275 OA
ATOM     13  N   UNL A   1      33.119  27.073  25.317  1.00  0.00    -0.343 N 
ATOM     14  C   UNL A   1      32.531  26.755  23.982  1.00  0.00     0.120 C 
ATOM     15  C   UNL A   1      33.582  25.911  26.013  1.00  0.00     0.120 C 
ATOM     16  C   UNL A   1      31.575  25.487  23.930  1.00  0.00     0.037 C 
ATOM     17  C   UNL A   1      32.333  25.083  26.178  1.00  0.00     0.037 C 
BRANCH  11  18
ATOM     18  C   UNL A   1      33.824  28.597  27.254  1.00  0.00     0.105 C 
BRANCH  18  19
ATOM     19  C   UNL A   1      35.204  29.317  27.121  1.00  0.00     0.053 C 
BRANCH  19  20
ATOM     20  C   UNL A   1      35.489  30.415  28.148  1.00  0.00     0.042 A 
ATOM     21  C   UNL A   1      37.084  29.041  29.522  1.00  0.00     0.046 C 
ATOM     22  C   UNL A   1      36.447  30.328  29.088  1.00  0.00    -0.030 A 
ATOM     23  C   UNL A   1      36.972  31.612  29.573  1.00  0.00     0.022 A 
ATOM     24  C   UNL A   1      34.580  31.607  28.239  1.00  0.00     0.339 A 
ATOM     25  C   UNL A   1      36.077  32.636  29.829  1.00  0.00     0.142 A 
ATOM     26  C   UNL A   1      38.333  31.908  29.666  1.00  0.00     0.024 A 
ATOM     27  O   UNL A   1      33.625  31.740  27.477  1.00  0.00    -0.246 OA
ATOM     28  O   UNL A   1      34.773  32.497  29.314  1.00  0.00    -0.422 OA
ATOM     29  C   UNL A   1      36.443  33.808  30.520  1.00  0.00     0.095 A 
ATOM     30  C   UNL A   1      38.765  33.140  30.157  1.00  0.00     0.025 A 
ATOM     31  C   UNL A   1      37.816  33.968  30.737  1.00  0.00     0.138 A 
ATOM     32  C   UNL A   1      40.032  33.708  30.414  1.00  0.00     0.001 A 
ATOM     33  O   UNL A   1      38.458  34.826  31.606  1.00  0.00    -0.461 OA
ATOM     34  C   UNL A   1      39.779  34.486  31.519  1.00  0.00     0.108 A 
ATOM     35  C   UNL A   1      41.400  33.182  30.176  1.00  0.00     0.040 C 
ATOM     36  C   UNL A   1      40.654  34.373  32.727  1.00  0.00     0.076 C 
ATOM     37  C   UNL A   1      41.922  32.493  31.449  1.00  0.00     0.005 C 
ATOM     38  C   UNL A   1      41.170  32.899  32.743  1.00  0.00     0.008 C 
ENDBRANCH  19  20
ENDBRANCH  18  19
ENDBRANCH  11  18
ENDBRANCH   8  10
ENDBRANCH   7   8
ENDBRANCH   6   7
ENDBRANCH   5   6
ENDBRANCH   4   5
ENDBRANCH   3   4
ENDBRANCH   2   3
ENDBRANCH   1   2
BRANCH   1  39
ATOM     39  C   UNL A   1      38.680  19.765  25.574  1.00  0.00     0.188 C 
BRANCH  39  40
ATOM     40  C   UNL A   1      39.667  20.797  26.128  1.00  0.00     0.188 C 
BRANCH  40  41
ATOM     41  O   UNL A   1      40.930  20.967  25.511  1.00  0.00    -0.376 OA
BRANCH  41  42
ATOM     42  C   UNL A   1      41.732  22.071  25.900  1.00  0.00     0.202 C 
BRANCH  42  43
ATOM     43  C   UNL A   1      43.057  21.793  26.622  1.00  0.00     0.261 C 
BRANCH  43  44
ATOM     44  O   UNL A   1      44.235  21.980  25.819  1.00  0.00    -0.460 OA
BRANCH  44  45
ATOM     45  C   UNL A   1      44.198  22.969  24.892  1.00  0.00     0.338 C 
ATOM     46  O   UNL A   1      44.131  22.834  23.676  1.00  0.00    -0.246 OA
BRANCH  45  47
ATOM     47  C   UNL A   1      44.080  24.275  25.578  1.00  0.00     0.060 A 
ATOM     48  C   UNL A   1      44.791  24.536  26.748  1.00  0.00     0.016 A 
ATOM     49  C   UNL A   1      43.192  25.231  25.067  1.00  0.00     0.016 A 
ATOM     50  C   UNL A   1      44.639  25.773  27.385  1.00  0.00     0.010 A 
ATOM     51  C   UNL A   1      43.008  26.443  25.735  1.00  0.00     0.010 A 
ATOM     52  C   UNL A   1      43.752  26.747  26.882  1.00  0.00    -0.014 A 
BRANCH  52  53
ATOM     53  C   UNL A   1      43.784  28.122  27.448  1.00  0.00     0.031 A 
ATOM     54  C   UNL A   1      43.291  28.291  28.858  1.00  0.00     0.074 A 
ATOM     55  C   UNL A   1      44.555  29.103  26.934  1.00  0.00     0.049 A 
ATOM     56  N   UNL A   1      44.044  28.136  29.911  1.00  0.00    -0.248 NA
ATOM     57  C   UNL A   1      41.866  28.408  29.169  1.00  0.00     0.031 C 
ATOM     58  C   UNL A   1      45.937  28.891  26.486  1.00  0.00     0.029 A 
ATOM     59  N   UNL A   1      44.408  30.473  26.944  1.00  0.00    -0.354 N 
ATOM     60  C   UNL A   1      43.211  28.129  31.021  1.00  0.00     0.074 A 
ATOM     61  C   UNL A   1      41.868  28.292  30.506  1.00  0.00     0.031 C 
ATOM     62  C   UNL A   1      46.558  30.087  26.418  1.00  0.00     0.029 A 
ATOM     63  C   UNL A   1      45.594  31.157  26.669  1.00  0.00     0.049 A 
ATOM     64  H   UNL A   1      43.553  30.924  27.127  1.00  0.00     0.167 HD
ATOM     65  C   UNL A   1      43.660  28.019  32.303  1.00  0.00     0.034 A 
ATOM     66  C   UNL A   1      45.910  32.393  27.154  1.00  0.00     0.034 A 
ATOM     67  C   UNL A   1      45.086  27.950  32.453  1.00  0.00     0.049 A 
ATOM     68  C   UNL A   1      46.156  32.072  28.609  1.00  0.00     0.074 A 
ATOM     69  C   UNL A   1      46.053  26.978  32.593  1.00  0.00     0.029 A 
ATOM     70  N   UNL A   1      45.797  29.127  32.432  1.00  0.00    -0.354 N 
ATOM     71  N   UNL A   1      47.240  31.539  29.111  1.00  0.00    -0.248 NA
ATOM     72  C   UNL A   1      44.976  31.994  29.471  1.00  0.00     0.031 C 
ATOM     73  C   UNL A   1      47.279  27.591  32.176  1.00  0.00     0.029 A 
ATOM     74  C   UNL A   1      46.970  28.885  31.760  1.00  0.00     0.049 A 
ATOM     75  H   UNL A   1      45.518  29.984  32.825  1.00  0.00     0.167 HD
ATOM     76  C   UNL A   1      46.807  30.801  30.217  1.00  0.00     0.074 A 
ATOM     77  C   UNL A   1      45.399  31.118  30.367  1.00  0.00     0.031 C 
ATOM     78  C   UNL A   1      47.560  29.863  30.867  1.00  0.00     0.034 A 
BRANCH  65  79
ATOM     79  C   UNL A   1      42.813  28.198  33.513  1.00  0.00     0.023 A 
ATOM     80  C   UNL A   1      42.386  29.513  33.792  1.00  0.00     0.012 A 
ATOM     81  C   UNL A   1      42.594  27.190  34.469  1.00  0.00     0.148 A 
ATOM     82  C   UNL A   1      41.810  29.842  35.016  1.00  0.00     0.002 A 
ATOM     83  C   UNL A   1      41.998  27.522  35.687  1.00  0.00     0.091 A 
ATOM     84  F   UNL A   1      43.007  25.945  34.195  1.00  0.00    -0.205 F 
ATOM     85  C   UNL A   1      41.624  28.848  35.966  1.00  0.00     0.022 A 
BRANCH  83  86
ATOM     86  S   UNL A   1      41.683  26.325  36.992  1.00  0.00     0.127 S 
ATOM     87  O   UNL A   1      42.848  26.502  37.857  1.00  0.00    -0.237 OA
ATOM     88  O   UNL A   1      40.425  26.816  37.556  1.00  0.00    -0.237 OA
ATOM     89  O   UNL A   1      41.582  25.031  36.329  1.00  0.00    -0.744 OA
ENDBRANCH  83  86
ENDBRANCH  65  79
BRANCH  66  90
ATOM     90  C   UNL A   1      45.028  33.527  26.704  1.00  0.00     0.023 A 
ATOM     91  C   UNL A   1      44.201  33.292  25.579  1.00  0.00     0.012 A 
ATOM     92  C   UNL A   1      44.960  34.802  27.298  1.00  0.00     0.148 A 
ATOM     93  C   UNL A   1      43.273  34.237  25.132  1.00  0.00     0.002 A 
ATOM     94  C   UNL A   1      43.984  35.717  26.897  1.00  0.00     0.091 A 
ATOM     95  F   UNL A   1      45.845  35.128  28.247  1.00  0.00    -0.205 F 
ATOM     96  C   UNL A   1      43.141  35.438  25.815  1.00  0.00     0.022 A 
BRANCH  94  97
ATOM     97  S   UNL A   1      43.664  37.245  27.792  1.00  0.00     0.127 S 
ATOM     98  O   UNL A   1      43.412  36.757  29.148  1.00  0.00    -0.237 OA
ATOM     99  O   UNL A   1      44.932  37.952  27.616  1.00  0.00    -0.237 OA
ATOM    100  O   UNL A   1      42.521  37.859  27.131  1.00  0.00    -0.744 OA
ENDBRANCH  94  97
ENDBRANCH  66  90
BRANCH  78 101
ATOM    101  C   UNL A   1      49.019  29.796  30.515  1.00  0.00     0.023 A 
ATOM    102  C   UNL A   1      49.419  28.908  29.494  1.00  0.00     0.012 A 
ATOM    103  C   UNL A   1      49.989  30.648  31.076  1.00  0.00     0.148 A 
ATOM    104  C   UNL A   1      50.736  28.873  29.038  1.00  0.00     0.002 A 
ATOM    105  C   UNL A   1      51.286  30.658  30.565  1.00  0.00     0.091 A 
ATOM    106  F   UNL A   1      49.643  31.457  32.089  1.00  0.00    -0.205 F 
ATOM    107  C   UNL A   1      51.669  29.760  29.562  1.00  0.00     0.022 A 
BRANCH 105 108
ATOM    108  S   UNL A   1      52.499  31.851  31.137  1.00  0.00     0.127 S 
ATOM    109  O   UNL A   1      52.684  31.482  32.543  1.00  0.00    -0.237 OA
ATOM    110  O   UNL A   1      53.643  31.570  30.276  1.00  0.00    -0.237 OA
ATOM    111  O   UNL A   1      51.848  33.136  30.944  1.00  0.00    -0.744 OA
ENDBRANCH 105 108
ENDBRANCH  78 101
ENDBRANCH  52  53
ENDBRANCH  45  47
ENDBRANCH  44  45
ENDBRANCH  43  44
ENDBRANCH  42  43
ENDBRANCH  41  42
ENDBRANCH  40  41
ENDBRANCH  39  40
ENDBRANCH   1  39
TORSDOF 26
ENDMDL
