MODEL 1
REMARK VINA RESULT:      -8.6      0.000      0.000
REMARK SMILES COc1ccc(NCc2cc(C(=O)OCCOCCOCCOCCOC(=O)c3ccc(-c4c5nc(c(-c6cccc(S(=O)(=O)[O-])c6F)c6ccc([nH]6)c(-c6cccc(S(=O)(=O)[O-])c6F)c6nc(c(-c7cccc(S(=O)(=O)[O-])c7F)c7ccc4[nH]7)C=C6)C=C5)cc3)cs2)cc1Br
REMARK SMILES IDX 19 1 18 2 17 3 16 4 15 5 14 6 12 7 13 8 11 9 9 10 10 11
REMARK SMILES IDX 93 12 92 13 8 14 7 15 6 17 3 18 4 19 95 20 5 21 94 22 96 23
REMARK SMILES IDX 2 24 1 25 20 26 21 27 22 28 23 29 24 30 25 31 26 32 27 33
REMARK SMILES IDX 28 34 29 35 30 36 91 37 31 38 90 39 32 40 33 41 34 42 84 43
REMARK SMILES IDX 35 44 89 45 83 46 85 47 36 48 88 49 82 50 81 51 37 53 69 54
REMARK SMILES IDX 49 55 68 56 50 57 53 58 67 59 86 60 51 61 52 62 66 64 87 65
REMARK SMILES IDX 54 66 38 67 39 68 47 69 40 70 42 71 48 72 41 73 43 74 44 75
REMARK SMILES IDX 45 76 46 77 70 78 71 79 79 80 72 81 74 82 80 83 73 84 75 85
REMARK SMILES IDX 76 86 77 87 78 88 55 89 56 90 64 91 57 92 59 93 65 94 58 95
REMARK SMILES IDX 60 96 61 97 62 98 63 99
REMARK H PARENT 7 16 85 52 53 63
REMARK Flexibility Score: inf
ROOT
ATOM      1  C   UNL A   1      35.742  23.520  24.110  1.00  0.00     0.188 C 
ENDROOT
BRANCH   1   2
ATOM      2  C   UNL A   1      35.006  23.738  25.441  1.00  0.00     0.188 C 
BRANCH   2   3
ATOM      3  O   UNL A   1      34.124  24.857  25.444  1.00  0.00    -0.376 OA
BRANCH   3   4
ATOM      4  C   UNL A   1      33.485  25.154  24.209  1.00  0.00     0.202 C 
BRANCH   4   5
ATOM      5  C   UNL A   1      31.957  25.235  24.304  1.00  0.00     0.261 C 
BRANCH   5   6
ATOM      6  O   UNL A   1      31.446  26.533  24.644  1.00  0.00    -0.460 OA
BRANCH   6   7
ATOM      7  C   UNL A   1      31.387  26.849  25.961  1.00  0.00     0.339 C 
ATOM      8  O   UNL A   1      30.974  26.108  26.845  1.00  0.00    -0.246 OA
BRANCH   7   9
ATOM      9  C   UNL A   1      32.041  28.122  26.228  1.00  0.00     0.071 A 
ATOM     10  C   UNL A   1      33.560  29.673  27.119  1.00  0.00     0.025 A 
ATOM     11  C   UNL A   1      33.230  28.336  27.007  1.00  0.00     0.033 A 
ATOM     12  S   UNL A   1      32.392  30.671  26.353  1.00  0.00    -0.146 S 
ATOM     13  C   UNL A   1      31.514  29.322  25.793  1.00  0.00     0.080 A 
BRANCH  10  14
ATOM     14  C   UNL A   1      34.752  30.303  27.792  1.00  0.00     0.159 C 
BRANCH  14  15
ATOM     15  N   UNL A   1      34.360  31.402  28.659  1.00  0.00    -0.380 N 
ATOM     16  H   UNL A   1      33.396  31.585  28.723  1.00  0.00     0.160 HD
BRANCH  15  17
ATOM     17  C   UNL A   1      35.185  32.217  29.399  1.00  0.00     0.036 A 
ATOM     18  C   UNL A   1      36.806  33.844  31.055  1.00  0.00     0.133 A 
ATOM     19  C   UNL A   1      37.008  33.810  29.676  1.00  0.00     0.050 A 
ATOM     20  C   UNL A   1      35.781  33.081  31.613  1.00  0.00     0.062 A 
ATOM     21  C   UNL A   1      36.209  32.997  28.859  1.00  0.00     0.029 A 
ATOM     22  C   UNL A   1      34.993  32.269  30.787  1.00  0.00     0.045 A 
ATOM     23  Br  UNL A   1      35.347  33.130  33.459  1.00  0.00    -0.047 Br
BRANCH  18  24
ATOM     24  O   UNL A   1      37.578  34.727  31.761  1.00  0.00    -0.496 OA
ATOM     25  C   UNL A   1      38.745  34.117  32.311  1.00  0.00     0.278 C 
ENDBRANCH  18  24
ENDBRANCH  15  17
ENDBRANCH  14  15
ENDBRANCH  10  14
ENDBRANCH   7   9
ENDBRANCH   6   7
ENDBRANCH   5   6
ENDBRANCH   4   5
ENDBRANCH   3   4
ENDBRANCH   2   3
ENDBRANCH   1   2
BRANCH   1  26
ATOM     26  O   UNL A   1      36.611  22.409  24.027  1.00  0.00    -0.377 OA
BRANCH  26  27
ATOM     27  C   UNL A   1      36.701  21.496  25.116  1.00  0.00     0.188 C 
BRANCH  27  28
ATOM     28  C   UNL A   1      37.185  20.042  24.930  1.00  0.00     0.188 C 
BRANCH  28  29
ATOM     29  O   UNL A   1      38.563  19.823  25.218  1.00  0.00    -0.376 OA
BRANCH  29  30
ATOM     30  C   UNL A   1      39.331  20.988  25.492  1.00  0.00     0.202 C 
BRANCH  30  31
ATOM     31  C   UNL A   1      40.105  20.896  26.810  1.00  0.00     0.261 C 
BRANCH  31  32
ATOM     32  O   UNL A   1      41.079  19.842  26.850  1.00  0.00    -0.460 OA
BRANCH  32  33
ATOM     33  C   UNL A   1      42.136  19.963  26.018  1.00  0.00     0.338 C 
ATOM     34  O   UNL A   1      42.452  19.214  25.111  1.00  0.00    -0.246 OA
BRANCH  33  35
ATOM     35  C   UNL A   1      42.765  21.271  26.277  1.00  0.00     0.060 A 
ATOM     36  C   UNL A   1      43.079  21.617  27.596  1.00  0.00     0.016 A 
ATOM     37  C   UNL A   1      43.040  22.144  25.222  1.00  0.00     0.016 A 
ATOM     38  C   UNL A   1      43.632  22.867  27.869  1.00  0.00     0.010 A 
ATOM     39  C   UNL A   1      43.581  23.398  25.497  1.00  0.00     0.010 A 
ATOM     40  C   UNL A   1      43.846  23.777  26.824  1.00  0.00    -0.014 A 
BRANCH  40  41
ATOM     41  C   UNL A   1      44.164  25.191  27.127  1.00  0.00     0.031 A 
ATOM     42  C   UNL A   1      45.581  25.656  26.939  1.00  0.00     0.074 A 
ATOM     43  C   UNL A   1      43.223  26.032  27.589  1.00  0.00     0.049 A 
ATOM     44  N   UNL A   1      46.097  26.838  27.150  1.00  0.00    -0.248 NA
ATOM     45  C   UNL A   1      46.545  24.653  26.455  1.00  0.00     0.031 C 
ATOM     46  C   UNL A   1      41.824  25.688  27.829  1.00  0.00     0.029 A 
ATOM     47  N   UNL A   1      43.319  27.348  27.966  1.00  0.00    -0.354 N 
ATOM     48  C   UNL A   1      47.446  26.718  26.840  1.00  0.00     0.074 A 
ATOM     49  C   UNL A   1      47.674  25.346  26.443  1.00  0.00     0.031 C 
ATOM     50  C   UNL A   1      41.195  26.760  28.344  1.00  0.00     0.029 A 
ATOM     51  C   UNL A   1      42.151  27.859  28.479  1.00  0.00     0.049 A 
ATOM     52  H   UNL A   1      44.146  27.875  27.878  1.00  0.00     0.167 HD
ATOM     53  C   UNL A   1      48.407  27.671  26.862  1.00  0.00     0.034 A 
ATOM     54  C   UNL A   1      41.892  29.072  29.007  1.00  0.00     0.034 A 
ATOM     55  C   UNL A   1      48.180  29.034  27.248  1.00  0.00     0.049 A 
ATOM     56  C   UNL A   1      42.986  30.111  29.039  1.00  0.00     0.074 A 
ATOM     57  C   UNL A   1      49.076  30.087  27.256  1.00  0.00     0.029 A 
ATOM     58  N   UNL A   1      46.971  29.533  27.709  1.00  0.00    -0.354 N 
ATOM     59  N   UNL A   1      44.217  30.027  28.596  1.00  0.00    -0.248 NA
ATOM     60  C   UNL A   1      42.644  31.421  29.611  1.00  0.00     0.031 C 
ATOM     61  C   UNL A   1      48.413  31.221  27.738  1.00  0.00     0.029 A 
ATOM     62  C   UNL A   1      47.099  30.875  28.016  1.00  0.00     0.049 A 
ATOM     63  H   UNL A   1      46.143  29.008  27.803  1.00  0.00     0.167 HD
ATOM     64  C   UNL A   1      44.784  31.281  28.804  1.00  0.00     0.074 A 
ATOM     65  C   UNL A   1      43.755  32.111  29.395  1.00  0.00     0.031 C 
ATOM     66  C   UNL A   1      46.047  31.703  28.546  1.00  0.00     0.034 A 
BRANCH  53  67
ATOM     67  C   UNL A   1      49.785  27.271  26.415  1.00  0.00     0.023 A 
ATOM     68  C   UNL A   1      50.633  26.595  27.316  1.00  0.00     0.012 A 
ATOM     69  C   UNL A   1      50.228  27.527  25.104  1.00  0.00     0.148 A 
ATOM     70  C   UNL A   1      51.911  26.199  26.926  1.00  0.00     0.002 A 
ATOM     71  C   UNL A   1      51.491  27.099  24.712  1.00  0.00     0.091 A 
ATOM     72  F   UNL A   1      49.419  28.200  24.274  1.00  0.00    -0.205 F 
ATOM     73  C   UNL A   1      52.335  26.442  25.622  1.00  0.00     0.022 A 
BRANCH  71  74
ATOM     74  S   UNL A   1      52.101  27.309  23.036  1.00  0.00     0.127 S 
ATOM     75  O   UNL A   1      51.036  26.684  22.254  1.00  0.00    -0.237 OA
ATOM     76  O   UNL A   1      52.174  28.766  22.912  1.00  0.00    -0.237 OA
ATOM     77  O   UNL A   1      53.391  26.634  22.994  1.00  0.00    -0.744 OA
ENDBRANCH  71  74
ENDBRANCH  53  67
BRANCH  54  78
ATOM     78  C   UNL A   1      40.523  29.393  29.501  1.00  0.00     0.023 A 
ATOM     79  C   UNL A   1      39.560  29.880  28.598  1.00  0.00     0.012 A 
ATOM     80  C   UNL A   1      40.167  29.204  30.850  1.00  0.00     0.148 A 
ATOM     81  C   UNL A   1      38.274  30.202  29.035  1.00  0.00     0.002 A 
ATOM     82  C   UNL A   1      38.870  29.479  31.268  1.00  0.00     0.091 A 
ATOM     83  F   UNL A   1      41.105  28.760  31.700  1.00  0.00    -0.205 F 
ATOM     84  C   UNL A   1      37.927  29.992  30.366  1.00  0.00     0.022 A 
BRANCH  82  85
ATOM     85  S   UNL A   1      38.303  29.119  32.935  1.00  0.00     0.127 S 
ATOM     86  O   UNL A   1      37.111  29.956  33.034  1.00  0.00    -0.237 OA
ATOM     87  O   UNL A   1      38.042  27.680  32.863  1.00  0.00    -0.237 OA
ATOM     88  O   UNL A   1      39.410  29.482  33.810  1.00  0.00    -0.744 OA
ENDBRANCH  82  85
ENDBRANCH  54  78
BRANCH  66  89
ATOM     89  C   UNL A   1      46.391  33.133  28.871  1.00  0.00     0.023 A 
ATOM     90  C   UNL A   1      46.960  33.445  30.121  1.00  0.00     0.012 A 
ATOM     91  C   UNL A   1      46.239  34.150  27.906  1.00  0.00     0.148 A 
ATOM     92  C   UNL A   1      47.349  34.751  30.417  1.00  0.00     0.002 A 
ATOM     93  C   UNL A   1      46.670  35.440  28.193  1.00  0.00     0.091 A 
ATOM     94  F   UNL A   1      45.679  33.837  26.730  1.00  0.00    -0.205 F 
ATOM     95  C   UNL A   1      47.216  35.744  29.450  1.00  0.00     0.022 A 
BRANCH  93  96
ATOM     96  S   UNL A   1      46.623  36.758  26.972  1.00  0.00     0.127 S 
ATOM     97  O   UNL A   1      47.619  37.688  27.497  1.00  0.00    -0.237 OA
ATOM     98  O   UNL A   1      47.021  36.066  25.745  1.00  0.00    -0.237 OA
ATOM     99  O   UNL A   1      45.248  37.243  26.967  1.00  0.00    -0.744 OA
ENDBRANCH  93  96
ENDBRANCH  66  89
ENDBRANCH  40  41
ENDBRANCH  33  35
ENDBRANCH  32  33
ENDBRANCH  31  32
ENDBRANCH  30  31
ENDBRANCH  29  30
ENDBRANCH  28  29
ENDBRANCH  27  28
ENDBRANCH  26  27
ENDBRANCH   1  26
TORSDOF 27
ENDMDL
MODEL 2
REMARK VINA RESULT:      -8.3      0.929      7.529
REMARK SMILES COc1ccc(NCc2cc(C(=O)OCCOCCOCCOCCOC(=O)c3ccc(-c4c5nc(c(-c6cccc(S(=O)(=O)[O-])c6F)c6ccc([nH]6)c(-c6cccc(S(=O)(=O)[O-])c6F)c6nc(c(-c7cccc(S(=O)(=O)[O-])c7F)c7ccc4[nH]7)C=C6)C=C5)cc3)cs2)cc1Br
REMARK SMILES IDX 19 1 18 2 17 3 16 4 15 5 14 6 12 7 13 8 11 9 9 10 10 11
REMARK SMILES IDX 93 12 92 13 8 14 7 15 6 17 3 18 4 19 95 20 5 21 94 22 96 23
REMARK SMILES IDX 2 24 1 25 20 26 21 27 22 28 23 29 24 30 25 31 26 32 27 33
REMARK SMILES IDX 28 34 29 35 30 36 91 37 31 38 90 39 32 40 33 41 34 42 84 43
REMARK SMILES IDX 35 44 89 45 83 46 85 47 36 48 88 49 82 50 81 51 37 53 69 54
REMARK SMILES IDX 49 55 68 56 50 57 53 58 67 59 86 60 51 61 52 62 66 64 87 65
REMARK SMILES IDX 54 66 38 67 39 68 47 69 40 70 42 71 48 72 41 73 43 74 44 75
REMARK SMILES IDX 45 76 46 77 70 78 71 79 79 80 72 81 74 82 80 83 73 84 75 85
REMARK SMILES IDX 76 86 77 87 78 88 55 89 56 90 64 91 57 92 59 93 65 94 58 95
REMARK SMILES IDX 60 96 61 97 62 98 63 99
REMARK H PARENT 7 16 85 52 53 63
REMARK Flexibility Score: inf
ROOT
ATOM      1  C   UNL A   1      36.074  23.272  23.709  1.00  0.00     0.188 C 
ENDROOT
BRANCH   1   2
ATOM      2  C   UNL A   1      35.472  23.795  25.023  1.00  0.00     0.188 C 
BRANCH   2   3
ATOM      3  O   UNL A   1      34.647  24.947  24.870  1.00  0.00    -0.376 OA
BRANCH   3   4
ATOM      4  C   UNL A   1      34.011  25.098  23.608  1.00  0.00     0.202 C 
BRANCH   4   5
ATOM      5  C   UNL A   1      32.504  24.811  23.634  1.00  0.00     0.261 C 
BRANCH   5   6
ATOM      6  O   UNL A   1      31.696  25.898  24.112  1.00  0.00    -0.460 OA
BRANCH   6   7
ATOM      7  C   UNL A   1      31.667  26.105  25.451  1.00  0.00     0.339 C 
ATOM      8  O   UNL A   1      31.424  25.246  26.292  1.00  0.00    -0.246 OA
BRANCH   7   9
ATOM      9  C   UNL A   1      32.136  27.441  25.789  1.00  0.00     0.071 A 
ATOM     10  C   UNL A   1      33.348  29.147  26.849  1.00  0.00     0.025 A 
ATOM     11  C   UNL A   1      33.188  27.783  26.706  1.00  0.00     0.033 A 
ATOM     12  S   UNL A   1      32.176  30.013  25.941  1.00  0.00    -0.146 S 
ATOM     13  C   UNL A   1      31.533  28.577  25.285  1.00  0.00     0.080 A 
BRANCH  10  14
ATOM     14  C   UNL A   1      34.369  29.903  27.660  1.00  0.00     0.159 C 
BRANCH  14  15
ATOM     15  N   UNL A   1      34.372  31.319  27.333  1.00  0.00    -0.380 N 
ATOM     16  H   UNL A   1      34.398  31.547  26.377  1.00  0.00     0.160 HD
BRANCH  15  17
ATOM     17  C   UNL A   1      34.346  32.378  28.210  1.00  0.00     0.036 A 
ATOM     18  C   UNL A   1      34.344  34.457  30.133  1.00  0.00     0.133 A 
ATOM     19  C   UNL A   1      33.983  34.712  28.810  1.00  0.00     0.050 A 
ATOM     20  C   UNL A   1      34.689  33.160  30.508  1.00  0.00     0.062 A 
ATOM     21  C   UNL A   1      33.992  33.682  27.859  1.00  0.00     0.029 A 
ATOM     22  C   UNL A   1      34.700  32.141  29.547  1.00  0.00     0.045 A 
ATOM     23  Br  UNL A   1      35.094  32.676  32.297  1.00  0.00    -0.047 Br
BRANCH  18  24
ATOM     24  O   UNL A   1      34.225  35.503  31.008  1.00  0.00    -0.496 OA
ATOM     25  C   UNL A   1      33.225  35.277  32.000  1.00  0.00     0.278 C 
ENDBRANCH  18  24
ENDBRANCH  15  17
ENDBRANCH  14  15
ENDBRANCH  10  14
ENDBRANCH   7   9
ENDBRANCH   6   7
ENDBRANCH   5   6
ENDBRANCH   4   5
ENDBRANCH   3   4
ENDBRANCH   2   3
ENDBRANCH   1   2
BRANCH   1  26
ATOM     26  O   UNL A   1      36.948  22.165  23.794  1.00  0.00    -0.377 OA
BRANCH  26  27
ATOM     27  C   UNL A   1      36.838  21.258  24.887  1.00  0.00     0.188 C 
BRANCH  27  28
ATOM     28  C   UNL A   1      37.347  19.804  24.798  1.00  0.00     0.188 C 
BRANCH  28  29
ATOM     29  O   UNL A   1      38.743  19.638  25.028  1.00  0.00    -0.376 OA
BRANCH  29  30
ATOM     30  C   UNL A   1      39.457  20.815  25.385  1.00  0.00     0.202 C 
BRANCH  30  31
ATOM     31  C   UNL A   1      39.862  20.843  26.861  1.00  0.00     0.261 C 
BRANCH  31  32
ATOM     32  O   UNL A   1      40.983  20.006  27.181  1.00  0.00    -0.460 OA
BRANCH  32  33
ATOM     33  C   UNL A   1      42.041  20.066  26.344  1.00  0.00     0.338 C 
ATOM     34  O   UNL A   1      42.290  19.320  25.414  1.00  0.00    -0.246 OA
BRANCH  33  35
ATOM     35  C   UNL A   1      42.776  21.310  26.635  1.00  0.00     0.060 A 
ATOM     36  C   UNL A   1      42.995  21.665  27.971  1.00  0.00     0.016 A 
ATOM     37  C   UNL A   1      43.242  22.116  25.594  1.00  0.00     0.016 A 
ATOM     38  C   UNL A   1      43.647  22.861  28.270  1.00  0.00     0.010 A 
ATOM     39  C   UNL A   1      43.882  23.316  25.893  1.00  0.00     0.010 A 
ATOM     40  C   UNL A   1      44.055  23.710  27.232  1.00  0.00    -0.014 A 
BRANCH  40  41
ATOM     41  C   UNL A   1      44.488  25.092  27.533  1.00  0.00     0.031 A 
ATOM     42  C   UNL A   1      43.445  26.086  27.962  1.00  0.00     0.074 A 
ATOM     43  C   UNL A   1      45.772  25.465  27.395  1.00  0.00     0.049 A 
ATOM     44  N   UNL A   1      43.583  27.349  28.266  1.00  0.00    -0.248 NA
ATOM     45  C   UNL A   1      42.062  25.589  28.058  1.00  0.00     0.031 C 
ATOM     46  C   UNL A   1      46.865  24.596  26.966  1.00  0.00     0.029 A 
ATOM     47  N   UNL A   1      46.364  26.690  27.578  1.00  0.00    -0.354 N 
ATOM     48  C   UNL A   1      42.306  27.802  28.573  1.00  0.00     0.074 A 
ATOM     49  C   UNL A   1      41.403  26.685  28.402  1.00  0.00     0.031 C 
ATOM     50  C   UNL A   1      47.994  25.323  26.887  1.00  0.00     0.029 A 
ATOM     51  C   UNL A   1      47.699  26.709  27.250  1.00  0.00     0.049 A 
ATOM     52  H   UNL A   1      45.878  27.478  27.910  1.00  0.00     0.167 HD
ATOM     53  C   UNL A   1      41.920  29.034  28.980  1.00  0.00     0.034 A 
ATOM     54  C   UNL A   1      48.574  27.734  27.235  1.00  0.00     0.034 A 
ATOM     55  C   UNL A   1      42.817  30.140  29.157  1.00  0.00     0.049 A 
ATOM     56  C   UNL A   1      48.115  29.102  27.676  1.00  0.00     0.074 A 
ATOM     57  C   UNL A   1      42.532  31.414  29.615  1.00  0.00     0.029 A 
ATOM     58  N   UNL A   1      44.173  30.111  28.871  1.00  0.00    -0.354 N 
ATOM     59  N   UNL A   1      46.937  29.477  28.112  1.00  0.00    -0.248 NA
ATOM     60  C   UNL A   1      49.115  30.180  27.655  1.00  0.00     0.031 C 
ATOM     61  C   UNL A   1      43.715  32.160  29.589  1.00  0.00     0.029 A 
ATOM     62  C   UNL A   1      44.738  31.346  29.130  1.00  0.00     0.049 A 
ATOM     63  H   UNL A   1      44.661  29.325  28.533  1.00  0.00     0.167 HD
ATOM     64  C   UNL A   1      47.063  30.821  28.449  1.00  0.00     0.074 A 
ATOM     65  C   UNL A   1      48.439  31.190  28.185  1.00  0.00     0.031 C 
ATOM     66  C   UNL A   1      46.123  31.679  28.919  1.00  0.00     0.034 A 
BRANCH  53  67
ATOM     67  C   UNL A   1      40.465  29.230  29.303  1.00  0.00     0.023 A 
ATOM     68  C   UNL A   1      39.564  29.531  28.262  1.00  0.00     0.012 A 
ATOM     69  C   UNL A   1      39.984  29.079  30.616  1.00  0.00     0.148 A 
ATOM     70  C   UNL A   1      38.207  29.705  28.527  1.00  0.00     0.002 A 
ATOM     71  C   UNL A   1      38.624  29.219  30.868  1.00  0.00     0.091 A 
ATOM     72  F   UNL A   1      40.863  28.824  31.595  1.00  0.00    -0.205 F 
ATOM     73  C   UNL A   1      37.736  29.539  29.827  1.00  0.00     0.022 A 
BRANCH  71  74
ATOM     74  S   UNL A   1      37.915  28.962  32.497  1.00  0.00     0.127 S 
ATOM     75  O   UNL A   1      38.696  29.894  33.308  1.00  0.00    -0.237 OA
ATOM     76  O   UNL A   1      36.519  29.352  32.294  1.00  0.00    -0.237 OA
ATOM     77  O   UNL A   1      38.110  27.550  32.798  1.00  0.00    -0.744 OA
ENDBRANCH  71  74
ENDBRANCH  53  67
BRANCH  54  78
ATOM     78  C   UNL A   1      49.991  27.498  26.839  1.00  0.00     0.023 A 
ATOM     79  C   UNL A   1      50.918  27.073  27.810  1.00  0.00     0.012 A 
ATOM     80  C   UNL A   1      50.421  27.677  25.510  1.00  0.00     0.148 A 
ATOM     81  C   UNL A   1      52.254  26.857  27.471  1.00  0.00     0.002 A 
ATOM     82  C   UNL A   1      51.743  27.411  25.169  1.00  0.00     0.091 A 
ATOM     83  F   UNL A   1      49.530  28.103  24.605  1.00  0.00    -0.205 F 
ATOM     84  C   UNL A   1      52.664  27.017  26.150  1.00  0.00     0.022 A 
BRANCH  82  85
ATOM     85  S   UNL A   1      52.325  27.468  23.470  1.00  0.00     0.127 S 
ATOM     86  O   UNL A   1      52.567  28.896  23.284  1.00  0.00    -0.237 OA
ATOM     87  O   UNL A   1      53.531  26.641  23.534  1.00  0.00    -0.237 OA
ATOM     88  O   UNL A   1      51.250  26.895  22.671  1.00  0.00    -0.744 OA
ENDBRANCH  82  85
ENDBRANCH  54  78
BRANCH  66  89
ATOM     89  C   UNL A   1      46.544  33.096  29.207  1.00  0.00     0.023 A 
ATOM     90  C   UNL A   1      47.068  33.422  30.473  1.00  0.00     0.012 A 
ATOM     91  C   UNL A   1      46.509  34.080  28.198  1.00  0.00     0.148 A 
ATOM     92  C   UNL A   1      47.526  34.712  30.739  1.00  0.00     0.002 A 
ATOM     93  C   UNL A   1      47.008  35.350  28.457  1.00  0.00     0.091 A 
ATOM     94  F   UNL A   1      45.990  33.754  27.006  1.00  0.00    -0.205 F 
ATOM     95  C   UNL A   1      47.509  35.671  29.729  1.00  0.00     0.022 A 
BRANCH  93  96
ATOM     96  S   UNL A   1      47.110  36.616  27.186  1.00  0.00     0.127 S 
ATOM     97  O   UNL A   1      47.517  37.786  27.961  1.00  0.00    -0.237 OA
ATOM     98  O   UNL A   1      48.142  36.085  26.294  1.00  0.00    -0.237 OA
ATOM     99  O   UNL A   1      45.781  36.686  26.590  1.00  0.00    -0.744 OA
ENDBRANCH  93  96
ENDBRANCH  66  89
ENDBRANCH  40  41
ENDBRANCH  33  35
ENDBRANCH  32  33
ENDBRANCH  31  32
ENDBRANCH  30  31
ENDBRANCH  29  30
ENDBRANCH  28  29
ENDBRANCH  27  28
ENDBRANCH  26  27
ENDBRANCH   1  26
TORSDOF 27
ENDMDL
MODEL 3
REMARK VINA RESULT:      -7.9      1.963      7.558
REMARK SMILES COc1ccc(NCc2cc(C(=O)OCCOCCOCCOCCOC(=O)c3ccc(-c4c5nc(c(-c6cccc(S(=O)(=O)[O-])c6F)c6ccc([nH]6)c(-c6cccc(S(=O)(=O)[O-])c6F)c6nc(c(-c7cccc(S(=O)(=O)[O-])c7F)c7ccc4[nH]7)C=C6)C=C5)cc3)cs2)cc1Br
REMARK SMILES IDX 19 1 18 2 17 3 16 4 15 5 14 6 12 7 13 8 11 9 9 10 10 11
REMARK SMILES IDX 93 12 92 13 8 14 7 15 6 17 3 18 4 19 95 20 5 21 94 22 96 23
REMARK SMILES IDX 2 24 1 25 20 26 21 27 22 28 23 29 24 30 25 31 26 32 27 33
REMARK SMILES IDX 28 34 29 35 30 36 91 37 31 38 90 39 32 40 33 41 34 42 84 43
REMARK SMILES IDX 35 44 89 45 83 46 85 47 36 48 88 49 82 50 81 51 37 53 69 54
REMARK SMILES IDX 49 55 68 56 50 57 53 58 67 59 86 60 51 61 52 62 66 64 87 65
REMARK SMILES IDX 54 66 38 67 39 68 47 69 40 70 42 71 48 72 41 73 43 74 44 75
REMARK SMILES IDX 45 76 46 77 70 78 71 79 79 80 72 81 74 82 80 83 73 84 75 85
REMARK SMILES IDX 76 86 77 87 78 88 55 89 56 90 64 91 57 92 59 93 65 94 58 95
REMARK SMILES IDX 60 96 61 97 62 98 63 99
REMARK H PARENT 7 16 85 52 53 63
REMARK Flexibility Score: inf
ROOT
ATOM      1  C   UNL A   1      36.318  23.183  24.077  1.00  0.00     0.188 C 
ENDROOT
BRANCH   1   2
ATOM      2  C   UNL A   1      35.888  23.880  25.377  1.00  0.00     0.188 C 
BRANCH   2   3
ATOM      3  O   UNL A   1      34.810  24.798  25.219  1.00  0.00    -0.376 OA
BRANCH   3   4
ATOM      4  C   UNL A   1      33.786  24.410  24.311  1.00  0.00     0.202 C 
BRANCH   4   5
ATOM      5  C   UNL A   1      32.416  24.209  24.971  1.00  0.00     0.261 C 
BRANCH   5   6
ATOM      6  O   UNL A   1      31.476  25.268  24.732  1.00  0.00    -0.460 OA
BRANCH   6   7
ATOM      7  C   UNL A   1      31.124  26.034  25.794  1.00  0.00     0.339 C 
ATOM      8  O   UNL A   1      30.362  25.690  26.690  1.00  0.00    -0.246 OA
BRANCH   7   9
ATOM      9  C   UNL A   1      31.905  27.263  25.838  1.00  0.00     0.071 A 
ATOM     10  C   UNL A   1      33.570  28.792  26.464  1.00  0.00     0.025 A 
ATOM     11  C   UNL A   1      33.105  27.498  26.592  1.00  0.00     0.033 A 
ATOM     12  S   UNL A   1      32.513  29.743  25.502  1.00  0.00    -0.146 S 
ATOM     13  C   UNL A   1      31.505  28.408  25.178  1.00  0.00     0.080 A 
BRANCH  10  14
ATOM     14  C   UNL A   1      34.817  29.414  27.038  1.00  0.00     0.159 C 
BRANCH  14  15
ATOM     15  N   UNL A   1      34.555  30.067  28.310  1.00  0.00    -0.380 N 
ATOM     16  H   UNL A   1      34.433  29.476  29.087  1.00  0.00     0.160 HD
BRANCH  15  17
ATOM     17  C   UNL A   1      34.456  31.417  28.551  1.00  0.00     0.036 A 
ATOM     18  C   UNL A   1      34.355  34.179  29.171  1.00  0.00     0.133 A 
ATOM     19  C   UNL A   1      33.645  33.668  28.085  1.00  0.00     0.050 A 
ATOM     20  C   UNL A   1      35.104  33.312  29.964  1.00  0.00     0.062 A 
ATOM     21  C   UNL A   1      33.703  32.301  27.775  1.00  0.00     0.029 A 
ATOM     22  C   UNL A   1      35.159  31.950  29.642  1.00  0.00     0.045 A 
ATOM     23  Br  UNL A   1      36.023  33.876  31.525  1.00  0.00    -0.047 Br
BRANCH  18  24
ATOM     24  O   UNL A   1      34.172  35.507  29.445  1.00  0.00    -0.496 OA
ATOM     25  C   UNL A   1      32.856  35.957  29.126  1.00  0.00     0.278 C 
ENDBRANCH  18  24
ENDBRANCH  15  17
ENDBRANCH  14  15
ENDBRANCH  10  14
ENDBRANCH   7   9
ENDBRANCH   6   7
ENDBRANCH   5   6
ENDBRANCH   4   5
ENDBRANCH   3   4
ENDBRANCH   2   3
ENDBRANCH   1   2
BRANCH   1  26
ATOM     26  O   UNL A   1      37.253  22.129  24.187  1.00  0.00    -0.377 OA
BRANCH  26  27
ATOM     27  C   UNL A   1      37.203  21.253  25.309  1.00  0.00     0.188 C 
BRANCH  27  28
ATOM     28  C   UNL A   1      37.758  19.814  25.251  1.00  0.00     0.188 C 
BRANCH  28  29
ATOM     29  O   UNL A   1      39.179  19.713  25.279  1.00  0.00    -0.376 OA
BRANCH  29  30
ATOM     30  C   UNL A   1      39.862  20.766  25.948  1.00  0.00     0.202 C 
BRANCH  30  31
ATOM     31  C   UNL A   1      40.502  20.319  27.265  1.00  0.00     0.261 C 
BRANCH  31  32
ATOM     32  O   UNL A   1      41.824  19.778  27.124  1.00  0.00    -0.460 OA
BRANCH  32  33
ATOM     33  C   UNL A   1      42.493  20.101  25.996  1.00  0.00     0.338 C 
ATOM     34  O   UNL A   1      42.451  19.528  24.922  1.00  0.00    -0.246 OA
BRANCH  33  35
ATOM     35  C   UNL A   1      43.169  21.391  26.226  1.00  0.00     0.060 A 
ATOM     36  C   UNL A   1      43.647  21.680  27.509  1.00  0.00     0.016 A 
ATOM     37  C   UNL A   1      43.324  22.303  25.181  1.00  0.00     0.016 A 
ATOM     38  C   UNL A   1      44.247  22.913  27.761  1.00  0.00     0.010 A 
ATOM     39  C   UNL A   1      43.913  23.540  25.436  1.00  0.00     0.010 A 
ATOM     40  C   UNL A   1      44.345  23.863  26.734  1.00  0.00    -0.014 A 
BRANCH  40  41
ATOM     41  C   UNL A   1      44.717  25.259  27.050  1.00  0.00     0.031 A 
ATOM     42  C   UNL A   1      43.641  26.188  27.539  1.00  0.00     0.074 A 
ATOM     43  C   UNL A   1      45.974  25.701  26.875  1.00  0.00     0.049 A 
ATOM     44  N   UNL A   1      43.725  27.451  27.865  1.00  0.00    -0.248 NA
ATOM     45  C   UNL A   1      42.289  25.619  27.672  1.00  0.00     0.031 C 
ATOM     46  C   UNL A   1      47.094  24.898  26.388  1.00  0.00     0.029 A 
ATOM     47  N   UNL A   1      46.509  26.950  27.064  1.00  0.00    -0.354 N 
ATOM     48  C   UNL A   1      42.438  27.831  28.227  1.00  0.00     0.074 A 
ATOM     49  C   UNL A   1      41.589  26.672  28.064  1.00  0.00     0.031 C 
ATOM     50  C   UNL A   1      48.180  25.685  26.286  1.00  0.00     0.029 A 
ATOM     51  C   UNL A   1      47.828  27.046  26.690  1.00  0.00     0.049 A 
ATOM     52  H   UNL A   1      45.996  27.706  27.432  1.00  0.00     0.167 HD
ATOM     53  C   UNL A   1      42.006  29.032  28.676  1.00  0.00     0.034 A 
ATOM     54  C   UNL A   1      48.649  28.115  26.667  1.00  0.00     0.034 A 
ATOM     55  C   UNL A   1      42.850  30.180  28.845  1.00  0.00     0.049 A 
ATOM     56  C   UNL A   1      48.137  29.448  27.154  1.00  0.00     0.074 A 
ATOM     57  C   UNL A   1      42.518  31.427  29.341  1.00  0.00     0.029 A 
ATOM     58  N   UNL A   1      44.195  30.227  28.510  1.00  0.00    -0.354 N 
ATOM     59  N   UNL A   1      46.958  29.753  27.640  1.00  0.00    -0.248 NA
ATOM     60  C   UNL A   1      49.080  30.576  27.122  1.00  0.00     0.031 C 
ATOM     61  C   UNL A   1      43.659  32.234  29.290  1.00  0.00     0.029 A 
ATOM     62  C   UNL A   1      44.705  31.483  28.777  1.00  0.00     0.049 A 
ATOM     63  H   UNL A   1      44.710  29.475  28.138  1.00  0.00     0.167 HD
ATOM     64  C   UNL A   1      47.028  31.094  28.003  1.00  0.00     0.074 A 
ATOM     65  C   UNL A   1      48.372  31.539  27.698  1.00  0.00     0.031 C 
ATOM     66  C   UNL A   1      46.063  31.892  28.524  1.00  0.00     0.034 A 
BRANCH  53  67
ATOM     67  C   UNL A   1      40.555  29.146  29.054  1.00  0.00     0.023 A 
ATOM     68  C   UNL A   1      39.593  29.336  28.042  1.00  0.00     0.012 A 
ATOM     69  C   UNL A   1      40.141  29.026  30.393  1.00  0.00     0.148 A 
ATOM     70  C   UNL A   1      38.240  29.432  28.360  1.00  0.00     0.002 A 
ATOM     71  C   UNL A   1      38.786  29.087  30.699  1.00  0.00     0.091 A 
ATOM     72  F   UNL A   1      41.075  28.878  31.342  1.00  0.00    -0.205 F 
ATOM     73  C   UNL A   1      37.836  29.297  29.685  1.00  0.00     0.022 A 
BRANCH  71  74
ATOM     74  S   UNL A   1      38.165  28.861  32.368  1.00  0.00     0.127 S 
ATOM     75  O   UNL A   1      38.842  29.941  33.083  1.00  0.00    -0.237 OA
ATOM     76  O   UNL A   1      36.725  29.055  32.193  1.00  0.00    -0.237 OA
ATOM     77  O   UNL A   1      38.550  27.512  32.757  1.00  0.00    -0.744 OA
ENDBRANCH  71  74
ENDBRANCH  53  67
BRANCH  54  78
ATOM     78  C   UNL A   1      50.061  27.961  26.216  1.00  0.00     0.023 A 
ATOM     79  C   UNL A   1      50.365  28.078  24.846  1.00  0.00     0.012 A 
ATOM     80  C   UNL A   1      51.101  27.717  27.132  1.00  0.00     0.148 A 
ATOM     81  C   UNL A   1      51.676  27.926  24.393  1.00  0.00     0.002 A 
ATOM     82  C   UNL A   1      52.413  27.617  26.680  1.00  0.00     0.091 A 
ATOM     83  F   UNL A   1      50.789  27.587  28.429  1.00  0.00    -0.205 F 
ATOM     84  C   UNL A   1      52.700  27.705  25.310  1.00  0.00     0.022 A 
BRANCH  82  85
ATOM     85  S   UNL A   1      53.805  27.459  27.804  1.00  0.00     0.127 S 
ATOM     86  O   UNL A   1      54.898  28.013  27.009  1.00  0.00    -0.237 OA
ATOM     87  O   UNL A   1      53.381  28.289  28.932  1.00  0.00    -0.237 OA
ATOM     88  O   UNL A   1      53.898  26.037  28.111  1.00  0.00    -0.744 OA
ENDBRANCH  82  85
ENDBRANCH  54  78
BRANCH  66  89
ATOM     89  C   UNL A   1      46.422  33.323  28.829  1.00  0.00     0.023 A 
ATOM     90  C   UNL A   1      46.241  34.311  27.842  1.00  0.00     0.012 A 
ATOM     91  C   UNL A   1      46.847  33.702  30.119  1.00  0.00     0.148 A 
ATOM     92  C   UNL A   1      46.502  35.651  28.124  1.00  0.00     0.002 A 
ATOM     93  C   UNL A   1      47.063  35.044  30.405  1.00  0.00     0.091 A 
ATOM     94  F   UNL A   1      47.032  32.745  31.039  1.00  0.00    -0.205 F 
ATOM     95  C   UNL A   1      46.899  36.019  29.408  1.00  0.00     0.022 A 
BRANCH  93  96
ATOM     96  S   UNL A   1      47.485  35.615  32.056  1.00  0.00     0.127 S 
ATOM     97  O   UNL A   1      48.008  34.396  32.669  1.00  0.00    -0.237 OA
ATOM     98  O   UNL A   1      48.492  36.643  31.786  1.00  0.00    -0.237 OA
ATOM     99  O   UNL A   1      46.245  36.126  32.627  1.00  0.00    -0.744 OA
ENDBRANCH  93  96
ENDBRANCH  66  89
ENDBRANCH  40  41
ENDBRANCH  33  35
ENDBRANCH  32  33
ENDBRANCH  31  32
ENDBRANCH  30  31
ENDBRANCH  29  30
ENDBRANCH  28  29
ENDBRANCH  27  28
ENDBRANCH  26  27
ENDBRANCH   1  26
TORSDOF 27
ENDMDL
