MODEL 1
REMARK VINA RESULT:      -6.6      0.000      0.000
REMARK SMILES CC1(C)S[C@H]2[C@H](NC(=O)[C@H](NN3CCNC3=O)c3ccccc3)C(=O)N2[C@H]1C(=O)OCCOCCOCCOCCOC(=O)c1ccc(-c2c3nc(c(-c4cccc(S(=O)(=O)[O-])c4F)c4ccc([nH]4)c(-c4cccc(S(=O)(=O)[O-])c4F)c4nc(c(-c5cccc(S(=O)(=O)[O-])c5F)c5ccc2[nH]5)C=C4)C=C3)cc1
REMARK SMILES IDX 35 1 34 2 33 3 32 4 31 5 30 6 28 7 29 8 27 9 1 10 2 11 3 12
REMARK SMILES IDX 4 13 5 14 26 15 6 16 24 17 25 18 7 19 8 20 9 22 10 23 18 24
REMARK SMILES IDX 19 25 23 26 20 27 22 28 21 29 11 30 12 32 13 33 16 34 14 35
REMARK SMILES IDX 15 36 17 37 36 39 37 40 38 41 39 42 40 43 41 44 42 45 43 46
REMARK SMILES IDX 44 47 45 48 46 49 107 50 47 51 106 52 48 53 49 54 50 55
REMARK SMILES IDX 100 56 51 57 105 58 99 59 101 60 52 61 104 62 98 63 97 64
REMARK SMILES IDX 53 66 85 67 65 68 84 69 66 70 69 71 83 72 102 73 67 74 68 75
REMARK SMILES IDX 82 77 103 78 70 79 54 80 55 81 63 82 56 83 58 84 64 85 57 86
REMARK SMILES IDX 59 87 60 88 61 89 62 90 86 91 87 92 95 93 88 94 90 95 96 96
REMARK SMILES IDX 89 97 91 98 92 99 93 100 94 101 71 102 72 103 80 104 73 105
REMARK SMILES IDX 75 106 81 107 74 108 76 109 77 110 78 111 79 112
REMARK H PARENT 7 21 11 31 15 38 101 65 69 76
REMARK Flexibility Score: inf
ROOT
ATOM      1  C   UNL A   1      47.075  30.564  26.824  1.00  0.00     0.188 C 
ENDROOT
BRANCH   1   2
ATOM      2  C   UNL A   1      45.599  30.943  26.698  1.00  0.00     0.188 C 
BRANCH   2   3
ATOM      3  O   UNL A   1      45.261  31.756  25.596  1.00  0.00    -0.376 OA
BRANCH   3   4
ATOM      4  C   UNL A   1      44.187  32.690  25.722  1.00  0.00     0.202 C 
BRANCH   4   5
ATOM      5  C   UNL A   1      44.192  34.070  25.043  1.00  0.00     0.261 C 
BRANCH   5   6
ATOM      6  O   UNL A   1      43.854  35.188  25.894  1.00  0.00    -0.462 OA
BRANCH   6   7
ATOM      7  C   UNL A   1      44.814  35.569  26.775  1.00  0.00     0.330 C 
ATOM      8  O   UNL A   1      46.021  35.415  26.584  1.00  0.00    -0.250 OA
BRANCH   7   9
ATOM      9  C   UNL A   1      44.307  36.059  28.140  1.00  0.00     0.212 C 
ATOM     10  C   UNL A   1      45.113  34.742  30.204  1.00  0.00     0.026 C 
ATOM     11  C   UNL A   1      45.090  36.090  29.470  1.00  0.00     0.044 C 
ATOM     12  C   UNL A   1      46.502  36.688  29.474  1.00  0.00     0.026 C 
ATOM     13  S   UNL A   1      43.985  37.184  30.552  1.00  0.00    -0.125 SA
ATOM     14  C   UNL A   1      43.307  38.143  29.128  1.00  0.00     0.176 C 
ATOM     15  N   UNL A   1      43.698  37.370  27.943  1.00  0.00    -0.311 N 
ATOM     16  C   UNL A   1      44.278  39.241  28.667  1.00  0.00     0.205 C 
ATOM     17  C   UNL A   1      44.409  38.382  27.393  1.00  0.00     0.250 C 
ATOM     18  O   UNL A   1      45.040  38.434  26.353  1.00  0.00    -0.272 OA
BRANCH  16  19
ATOM     19  N   UNL A   1      43.852  40.618  28.381  1.00  0.00    -0.340 N 
ATOM     20  C   UNL A   1      44.755  41.664  28.480  1.00  0.00     0.244 C 
ATOM     21  H   UNL A   1      42.921  40.799  28.118  1.00  0.00     0.164 HD
ATOM     22  O   UNL A   1      44.715  42.496  27.570  1.00  0.00    -0.273 OA
BRANCH  20  23
ATOM     23  C   UNL A   1      45.721  41.714  29.716  1.00  0.00     0.194 C 
BRANCH  23  24
ATOM     24  C   UNL A   1      47.087  41.077  29.445  1.00  0.00    -0.020 A 
ATOM     25  C   UNL A   1      47.624  41.104  28.139  1.00  0.00     0.006 A 
ATOM     26  C   UNL A   1      47.830  40.377  30.398  1.00  0.00     0.006 A 
ATOM     27  C   UNL A   1      48.831  40.487  27.804  1.00  0.00     0.000 A 
ATOM     28  C   UNL A   1      49.056  39.781  30.080  1.00  0.00     0.000 A 
ATOM     29  C   UNL A   1      49.554  39.833  28.785  1.00  0.00     0.000 A 
ENDBRANCH  23  24
BRANCH  23  30
ATOM     30  N   UNL A   1      45.625  43.048  30.406  1.00  0.00    -0.213 NA
ATOM     31  H   UNL A   1      45.506  43.767  29.693  1.00  0.00     0.149 HD
BRANCH  30  32
ATOM     32  N   UNL A   1      44.572  43.158  31.317  1.00  0.00    -0.257 N 
ATOM     33  C   UNL A   1      44.424  42.425  32.545  1.00  0.00     0.163 C 
ATOM     34  C   UNL A   1      43.556  44.136  31.251  1.00  0.00     0.331 C 
ATOM     35  C   UNL A   1      42.911  42.446  32.705  1.00  0.00     0.141 C 
ATOM     36  N   UNL A   1      42.560  43.724  32.136  1.00  0.00    -0.335 N 
ATOM     37  O   UNL A   1      43.548  45.149  30.575  1.00  0.00    -0.247 OA
ATOM     38  H   UNL A   1      41.740  44.229  32.342  1.00  0.00     0.165 HD
ENDBRANCH  30  32
ENDBRANCH  23  30
ENDBRANCH  20  23
ENDBRANCH  16  19
ENDBRANCH   7   9
ENDBRANCH   6   7
ENDBRANCH   5   6
ENDBRANCH   4   5
ENDBRANCH   3   4
ENDBRANCH   2   3
ENDBRANCH   1   2
BRANCH   1  39
ATOM     39  O   UNL A   1      47.525  29.439  26.091  1.00  0.00    -0.377 OA
BRANCH  39  40
ATOM     40  C   UNL A   1      46.575  28.620  25.413  1.00  0.00     0.188 C 
BRANCH  40  41
ATOM     41  C   UNL A   1      47.060  27.352  24.698  1.00  0.00     0.188 C 
BRANCH  41  42
ATOM     42  O   UNL A   1      46.204  26.211  24.622  1.00  0.00    -0.376 OA
BRANCH  42  43
ATOM     43  C   UNL A   1      46.673  24.950  25.077  1.00  0.00     0.202 C 
BRANCH  43  44
ATOM     44  C   UNL A   1      45.857  23.714  24.691  1.00  0.00     0.261 C 
BRANCH  44  45
ATOM     45  O   UNL A   1      44.571  24.010  24.139  1.00  0.00    -0.460 OA
BRANCH  45  46
ATOM     46  C   UNL A   1      43.523  23.598  24.892  1.00  0.00     0.338 C 
ATOM     47  O   UNL A   1      42.999  22.498  24.893  1.00  0.00    -0.246 OA
BRANCH  46  48
ATOM     48  C   UNL A   1      43.153  24.675  25.827  1.00  0.00     0.060 A 
ATOM     49  C   UNL A   1      43.049  25.982  25.336  1.00  0.00     0.016 A 
ATOM     50  C   UNL A   1      43.001  24.410  27.189  1.00  0.00     0.016 A 
ATOM     51  C   UNL A   1      42.841  27.039  26.218  1.00  0.00     0.010 A 
ATOM     52  C   UNL A   1      42.803  25.471  28.073  1.00  0.00     0.010 A 
ATOM     53  C   UNL A   1      42.767  26.792  27.595  1.00  0.00    -0.014 A 
BRANCH  53  54
ATOM     54  C   UNL A   1      42.855  27.917  28.551  1.00  0.00     0.031 A 
ATOM     55  C   UNL A   1      44.207  28.274  29.110  1.00  0.00     0.074 A 
ATOM     56  C   UNL A   1      41.759  28.604  28.916  1.00  0.00     0.049 A 
ATOM     57  N   UNL A   1      44.526  29.188  29.986  1.00  0.00    -0.248 NA
ATOM     58  C   UNL A   1      45.354  27.495  28.609  1.00  0.00     0.031 C 
ATOM     59  C   UNL A   1      40.404  28.375  28.414  1.00  0.00     0.029 A 
ATOM     60  N   UNL A   1      41.615  29.630  29.815  1.00  0.00    -0.354 N 
ATOM     61  C   UNL A   1      45.900  29.081  30.161  1.00  0.00     0.074 A 
ATOM     62  C   UNL A   1      46.356  28.004  29.310  1.00  0.00     0.031 C 
ATOM     63  C   UNL A   1      39.563  29.226  29.028  1.00  0.00     0.029 A 
ATOM     64  C   UNL A   1      40.311  30.024  29.993  1.00  0.00     0.049 A 
ATOM     65  H   UNL A   1      42.373  30.046  30.286  1.00  0.00     0.167 HD
ATOM     66  C   UNL A   1      46.714  29.825  30.946  1.00  0.00     0.034 A 
ATOM     67  C   UNL A   1      39.783  30.913  30.855  1.00  0.00     0.034 A 
ATOM     68  C   UNL A   1      46.257  30.904  31.777  1.00  0.00     0.049 A 
ATOM     69  C   UNL A   1      40.705  31.682  31.765  1.00  0.00     0.074 A 
ATOM     70  C   UNL A   1      47.003  31.751  32.576  1.00  0.00     0.029 A 
ATOM     71  N   UNL A   1      44.930  31.277  31.925  1.00  0.00    -0.354 N 
ATOM     72  N   UNL A   1      42.013  31.648  31.837  1.00  0.00    -0.248 NA
ATOM     73  C   UNL A   1      40.077  32.643  32.686  1.00  0.00     0.031 C 
ATOM     74  C   UNL A   1      46.123  32.619  33.230  1.00  0.00     0.029 A 
ATOM     75  C   UNL A   1      44.832  32.332  32.814  1.00  0.00     0.049 A 
ATOM     76  H   UNL A   1      44.170  30.854  31.465  1.00  0.00     0.167 HD
ATOM     77  C   UNL A   1      42.369  32.614  32.772  1.00  0.00     0.074 A 
ATOM     78  C   UNL A   1      41.137  33.221  33.233  1.00  0.00     0.031 C 
ATOM     79  C   UNL A   1      43.601  32.963  33.216  1.00  0.00     0.034 A 
BRANCH  66  80
ATOM     80  C   UNL A   1      48.186  29.511  30.925  1.00  0.00     0.023 A 
ATOM     81  C   UNL A   1      49.034  30.201  30.036  1.00  0.00     0.012 A 
ATOM     82  C   UNL A   1      48.738  28.570  31.816  1.00  0.00     0.148 A 
ATOM     83  C   UNL A   1      50.404  29.941  30.014  1.00  0.00     0.002 A 
ATOM     84  C   UNL A   1      50.109  28.347  31.818  1.00  0.00     0.091 A 
ATOM     85  F   UNL A   1      47.911  27.905  32.636  1.00  0.00    -0.205 F 
ATOM     86  C   UNL A   1      50.943  29.023  30.912  1.00  0.00     0.022 A 
BRANCH  84  87
ATOM     87  S   UNL A   1      50.908  27.237  32.983  1.00  0.00     0.127 S 
ATOM     88  O   UNL A   1      50.661  27.916  34.254  1.00  0.00    -0.237 OA
ATOM     89  O   UNL A   1      50.152  25.999  32.796  1.00  0.00    -0.237 OA
ATOM     90  O   UNL A   1      52.305  27.163  32.575  1.00  0.00    -0.744 OA
ENDBRANCH  84  87
ENDBRANCH  66  80
BRANCH  67  91
ATOM     91  C   UNL A   1      38.316  31.168  30.888  1.00  0.00     0.023 A 
ATOM     92  C   UNL A   1      37.515  30.452  31.797  1.00  0.00     0.012 A 
ATOM     93  C   UNL A   1      37.705  32.072  29.997  1.00  0.00     0.148 A 
ATOM     94  C   UNL A   1      36.127  30.599  31.793  1.00  0.00     0.002 A 
ATOM     95  C   UNL A   1      36.321  32.225  30.008  1.00  0.00     0.091 A 
ATOM     96  F   UNL A   1      38.487  32.780  29.171  1.00  0.00    -0.205 F 
ATOM     97  C   UNL A   1      35.529  31.480  30.896  1.00  0.00     0.022 A 
BRANCH  95  98
ATOM     98  S   UNL A   1      35.476  33.341  28.882  1.00  0.00     0.127 S 
ATOM     99  O   UNL A   1      34.154  33.471  29.498  1.00  0.00    -0.237 OA
ATOM    100  O   UNL A   1      36.311  34.534  28.974  1.00  0.00    -0.237 OA
ATOM    101  O   UNL A   1      35.475  32.648  27.601  1.00  0.00    -0.744 OA
ENDBRANCH  95  98
ENDBRANCH  67  91
BRANCH  79 102
ATOM    102  C   UNL A   1      43.692  34.085  34.215  1.00  0.00     0.023 A 
ATOM    103  C   UNL A   1      43.869  35.410  33.770  1.00  0.00     0.012 A 
ATOM    104  C   UNL A   1      43.522  33.833  35.591  1.00  0.00     0.148 A 
ATOM    105  C   UNL A   1      43.906  36.464  34.682  1.00  0.00     0.002 A 
ATOM    106  C   UNL A   1      43.509  34.894  36.489  1.00  0.00     0.091 A 
ATOM    107  F   UNL A   1      43.373  32.563  35.995  1.00  0.00    -0.205 F 
ATOM    108  C   UNL A   1      43.714  36.207  36.038  1.00  0.00     0.022 A 
BRANCH 106 109
ATOM    109  S   UNL A   1      43.167  34.666  38.238  1.00  0.00     0.127 S 
ATOM    110  O   UNL A   1      43.128  36.046  38.717  1.00  0.00    -0.237 OA
ATOM    111  O   UNL A   1      41.868  33.991  38.215  1.00  0.00    -0.237 OA
ATOM    112  O   UNL A   1      44.258  33.853  38.758  1.00  0.00    -0.744 OA
ENDBRANCH 106 109
ENDBRANCH  79 102
ENDBRANCH  53  54
ENDBRANCH  46  48
ENDBRANCH  45  46
ENDBRANCH  44  45
ENDBRANCH  43  44
ENDBRANCH  42  43
ENDBRANCH  41  42
ENDBRANCH  40  41
ENDBRANCH  39  40
ENDBRANCH   1  39
TORSDOF 28
ENDMDL
MODEL 2
REMARK VINA RESULT:      -6.3      5.387     12.783
REMARK SMILES CC1(C)S[C@H]2[C@H](NC(=O)[C@H](NN3CCNC3=O)c3ccccc3)C(=O)N2[C@H]1C(=O)OCCOCCOCCOCCOC(=O)c1ccc(-c2c3nc(c(-c4cccc(S(=O)(=O)[O-])c4F)c4ccc([nH]4)c(-c4cccc(S(=O)(=O)[O-])c4F)c4nc(c(-c5cccc(S(=O)(=O)[O-])c5F)c5ccc2[nH]5)C=C4)C=C3)cc1
REMARK SMILES IDX 35 1 34 2 33 3 32 4 31 5 30 6 28 7 29 8 27 9 1 10 2 11 3 12
REMARK SMILES IDX 4 13 5 14 26 15 6 16 24 17 25 18 7 19 8 20 9 22 10 23 18 24
REMARK SMILES IDX 19 25 23 26 20 27 22 28 21 29 11 30 12 32 13 33 16 34 14 35
REMARK SMILES IDX 15 36 17 37 36 39 37 40 38 41 39 42 40 43 41 44 42 45 43 46
REMARK SMILES IDX 44 47 45 48 46 49 107 50 47 51 106 52 48 53 49 54 50 55
REMARK SMILES IDX 100 56 51 57 105 58 99 59 101 60 52 61 104 62 98 63 97 64
REMARK SMILES IDX 53 66 85 67 65 68 84 69 66 70 69 71 83 72 102 73 67 74 68 75
REMARK SMILES IDX 82 77 103 78 70 79 54 80 55 81 63 82 56 83 58 84 64 85 57 86
REMARK SMILES IDX 59 87 60 88 61 89 62 90 86 91 87 92 95 93 88 94 90 95 96 96
REMARK SMILES IDX 89 97 91 98 92 99 93 100 94 101 71 102 72 103 80 104 73 105
REMARK SMILES IDX 75 106 81 107 74 108 76 109 77 110 78 111 79 112
REMARK H PARENT 7 21 11 31 15 38 101 65 69 76
REMARK Flexibility Score: inf
ROOT
ATOM      1  C   UNL A   1      37.135  33.627  35.777  1.00  0.00     0.188 C 
ENDROOT
BRANCH   1   2
ATOM      2  C   UNL A   1      38.361  34.158  36.521  1.00  0.00     0.188 C 
BRANCH   2   3
ATOM      3  O   UNL A   1      39.246  33.184  37.029  1.00  0.00    -0.376 OA
BRANCH   3   4
ATOM      4  C   UNL A   1      38.821  31.823  37.094  1.00  0.00     0.202 C 
BRANCH   4   5
ATOM      5  C   UNL A   1      39.069  30.812  35.960  1.00  0.00     0.261 C 
BRANCH   5   6
ATOM      6  O   UNL A   1      40.032  29.774  36.247  1.00  0.00    -0.462 OA
BRANCH   6   7
ATOM      7  C   UNL A   1      41.070  29.675  35.377  1.00  0.00     0.330 C 
ATOM      8  O   UNL A   1      42.192  29.272  35.691  1.00  0.00    -0.250 OA
BRANCH   7   9
ATOM      9  C   UNL A   1      40.828  30.270  33.983  1.00  0.00     0.212 C 
ATOM     10  C   UNL A   1      42.469  32.105  33.217  1.00  0.00     0.026 C 
ATOM     11  C   UNL A   1      41.895  30.705  32.955  1.00  0.00     0.044 C 
ATOM     12  C   UNL A   1      43.046  29.741  32.644  1.00  0.00     0.026 C 
ATOM     13  S   UNL A   1      40.864  30.917  31.380  1.00  0.00    -0.125 SA
ATOM     14  C   UNL A   1      39.605  29.660  31.873  1.00  0.00     0.176 C 
ATOM     15  N   UNL A   1      39.862  29.418  33.297  1.00  0.00    -0.311 N 
ATOM     16  C   UNL A   1      40.092  28.228  31.596  1.00  0.00     0.205 C 
ATOM     17  C   UNL A   1      40.107  28.097  33.132  1.00  0.00     0.250 C 
ATOM     18  O   UNL A   1      40.405  27.238  33.943  1.00  0.00    -0.272 OA
BRANCH  16  19
ATOM     19  N   UNL A   1      39.255  27.209  30.948  1.00  0.00    -0.340 N 
ATOM     20  C   UNL A   1      39.238  27.092  29.568  1.00  0.00     0.244 C 
ATOM     21  H   UNL A   1      38.704  26.606  31.497  1.00  0.00     0.164 HD
ATOM     22  O   UNL A   1      39.283  25.941  29.126  1.00  0.00    -0.273 OA
BRANCH  20  23
ATOM     23  C   UNL A   1      39.153  28.397  28.699  1.00  0.00     0.194 C 
BRANCH  23  24
ATOM     24  C   UNL A   1      40.397  28.638  27.841  1.00  0.00    -0.020 A 
ATOM     25  C   UNL A   1      40.622  27.839  26.698  1.00  0.00     0.006 A 
ATOM     26  C   UNL A   1      41.401  29.558  28.152  1.00  0.00     0.006 A 
ATOM     27  C   UNL A   1      41.767  27.957  25.905  1.00  0.00     0.000 A 
ATOM     28  C   UNL A   1      42.536  29.704  27.348  1.00  0.00     0.000 A 
ATOM     29  C   UNL A   1      42.720  28.904  26.229  1.00  0.00     0.000 A 
ENDBRANCH  23  24
BRANCH  23  30
ATOM     30  N   UNL A   1      37.777  28.546  28.109  1.00  0.00    -0.213 NA
ATOM     31  H   UNL A   1      37.157  27.883  28.574  1.00  0.00     0.149 HD
BRANCH  30  32
ATOM     32  N   UNL A   1      37.223  29.822  28.235  1.00  0.00    -0.257 N 
ATOM     33  C   UNL A   1      37.879  30.990  28.757  1.00  0.00     0.163 C 
ATOM     34  C   UNL A   1      35.968  30.205  27.714  1.00  0.00     0.331 C 
ATOM     35  C   UNL A   1      36.682  31.786  29.256  1.00  0.00     0.141 C 
ATOM     36  N   UNL A   1      35.659  31.431  28.304  1.00  0.00    -0.335 N 
ATOM     37  O   UNL A   1      35.292  29.604  26.899  1.00  0.00    -0.247 OA
ATOM     38  H   UNL A   1      34.862  31.972  28.101  1.00  0.00     0.165 HD
ENDBRANCH  30  32
ENDBRANCH  23  30
ENDBRANCH  20  23
ENDBRANCH  16  19
ENDBRANCH   7   9
ENDBRANCH   6   7
ENDBRANCH   5   6
ENDBRANCH   4   5
ENDBRANCH   3   4
ENDBRANCH   2   3
ENDBRANCH   1   2
BRANCH   1  39
ATOM     39  O   UNL A   1      36.887  34.134  34.479  1.00  0.00    -0.377 OA
BRANCH  39  40
ATOM     40  C   UNL A   1      37.664  33.659  33.382  1.00  0.00     0.188 C 
BRANCH  40  41
ATOM     41  C   UNL A   1      37.313  34.123  31.963  1.00  0.00     0.188 C 
BRANCH  41  42
ATOM     42  O   UNL A   1      38.190  35.011  31.270  1.00  0.00    -0.376 OA
BRANCH  42  43
ATOM     43  C   UNL A   1      38.808  34.590  30.063  1.00  0.00     0.202 C 
BRANCH  43  44
ATOM     44  C   UNL A   1      40.067  33.728  30.179  1.00  0.00     0.261 C 
BRANCH  44  45
ATOM     45  O   UNL A   1      41.214  34.276  29.524  1.00  0.00    -0.460 OA
BRANCH  45  46
ATOM     46  C   UNL A   1      42.230  34.619  30.351  1.00  0.00     0.338 C 
ATOM     47  O   UNL A   1      42.146  35.074  31.478  1.00  0.00    -0.246 OA
BRANCH  46  48
ATOM     48  C   UNL A   1      43.508  34.251  29.716  1.00  0.00     0.060 A 
ATOM     49  C   UNL A   1      43.556  34.141  28.321  1.00  0.00     0.016 A 
ATOM     50  C   UNL A   1      44.621  33.932  30.496  1.00  0.00     0.016 A 
ATOM     51  C   UNL A   1      44.707  33.661  27.703  1.00  0.00     0.010 A 
ATOM     52  C   UNL A   1      45.770  33.440  29.877  1.00  0.00     0.010 A 
ATOM     53  C   UNL A   1      45.800  33.262  28.483  1.00  0.00    -0.014 A 
BRANCH  53  54
ATOM     54  C   UNL A   1      46.893  32.473  27.871  1.00  0.00     0.031 A 
ATOM     55  C   UNL A   1      48.072  33.214  27.298  1.00  0.00     0.074 A 
ATOM     56  C   UNL A   1      46.838  31.131  27.825  1.00  0.00     0.049 A 
ATOM     57  N   UNL A   1      49.124  32.746  26.681  1.00  0.00    -0.248 NA
ATOM     58  C   UNL A   1      48.063  34.681  27.444  1.00  0.00     0.031 C 
ATOM     59  C   UNL A   1      45.767  30.304  28.380  1.00  0.00     0.029 A 
ATOM     60  N   UNL A   1      47.705  30.228  27.266  1.00  0.00    -0.354 N 
ATOM     61  C   UNL A   1      49.889  33.856  26.344  1.00  0.00     0.074 A 
ATOM     62  C   UNL A   1      49.176  35.024  26.812  1.00  0.00     0.031 C 
ATOM     63  C   UNL A   1      46.033  29.013  28.115  1.00  0.00     0.029 A 
ATOM     64  C   UNL A   1      47.264  28.928  27.338  1.00  0.00     0.049 A 
ATOM     65  H   UNL A   1      48.561  30.485  26.853  1.00  0.00     0.167 HD
ATOM     66  C   UNL A   1      51.087  33.898  25.716  1.00  0.00     0.034 A 
ATOM     67  C   UNL A   1      47.788  27.805  26.814  1.00  0.00     0.034 A 
ATOM     68  C   UNL A   1      51.798  32.733  25.269  1.00  0.00     0.049 A 
ATOM     69  C   UNL A   1      49.092  27.888  26.064  1.00  0.00     0.074 A 
ATOM     70  C   UNL A   1      53.039  32.661  24.663  1.00  0.00     0.029 A 
ATOM     71  N   UNL A   1      51.323  31.434  25.366  1.00  0.00    -0.354 N 
ATOM     72  N   UNL A   1      49.857  28.930  25.852  1.00  0.00    -0.248 NA
ATOM     73  C   UNL A   1      49.622  26.631  25.514  1.00  0.00     0.031 C 
ATOM     74  C   UNL A   1      53.302  31.320  24.369  1.00  0.00     0.029 A 
ATOM     75  C   UNL A   1      52.238  30.554  24.819  1.00  0.00     0.049 A 
ATOM     76  H   UNL A   1      50.461  31.177  25.766  1.00  0.00     0.167 HD
ATOM     77  C   UNL A   1      50.981  28.449  25.189  1.00  0.00     0.074 A 
ATOM     78  C   UNL A   1      50.798  27.019  25.043  1.00  0.00     0.031 C 
ATOM     79  C   UNL A   1      52.064  29.127  24.736  1.00  0.00     0.034 A 
BRANCH  66  80
ATOM     80  C   UNL A   1      51.716  35.249  25.499  1.00  0.00     0.023 A 
ATOM     81  C   UNL A   1      51.575  35.892  24.252  1.00  0.00     0.012 A 
ATOM     82  C   UNL A   1      52.404  35.903  26.540  1.00  0.00     0.148 A 
ATOM     83  C   UNL A   1      52.131  37.152  24.036  1.00  0.00     0.002 A 
ATOM     84  C   UNL A   1      52.919  37.176  26.330  1.00  0.00     0.091 A 
ATOM     85  F   UNL A   1      52.550  35.263  27.709  1.00  0.00    -0.205 F 
ATOM     86  C   UNL A   1      52.793  37.799  25.077  1.00  0.00     0.022 A 
BRANCH  84  87
ATOM     87  S   UNL A   1      53.726  38.120  27.628  1.00  0.00     0.127 S 
ATOM     88  O   UNL A   1      54.763  37.188  28.070  1.00  0.00    -0.237 OA
ATOM     89  O   UNL A   1      54.225  39.285  26.897  1.00  0.00    -0.237 OA
ATOM     90  O   UNL A   1      52.693  38.417  28.610  1.00  0.00    -0.744 OA
ENDBRANCH  84  87
ENDBRANCH  66  80
BRANCH  67  91
ATOM     91  C   UNL A   1      47.117  26.488  27.004  1.00  0.00     0.023 A 
ATOM     92  C   UNL A   1      47.384  25.744  28.169  1.00  0.00     0.012 A 
ATOM     93  C   UNL A   1      46.263  25.948  26.024  1.00  0.00     0.148 A 
ATOM     94  C   UNL A   1      46.845  24.468  28.337  1.00  0.00     0.002 A 
ATOM     95  C   UNL A   1      45.716  24.680  26.205  1.00  0.00     0.091 A 
ATOM     96  F   UNL A   1      45.982  26.690  24.943  1.00  0.00    -0.205 F 
ATOM     97  C   UNL A   1      46.016  23.934  27.355  1.00  0.00     0.022 A 
BRANCH  95  98
ATOM     98  S   UNL A   1      44.640  23.922  24.983  1.00  0.00     0.127 S 
ATOM     99  O   UNL A   1      43.643  24.968  24.746  1.00  0.00    -0.237 OA
ATOM    100  O   UNL A   1      45.566  23.702  23.877  1.00  0.00    -0.237 OA
ATOM    101  O   UNL A   1      44.115  22.730  25.634  1.00  0.00    -0.744 OA
ENDBRANCH  95  98
ENDBRANCH  67  91
BRANCH  79 102
ATOM    102  C   UNL A   1      53.163  28.332  24.083  1.00  0.00     0.023 A 
ATOM    103  C   UNL A   1      54.103  27.647  24.877  1.00  0.00     0.012 A 
ATOM    104  C   UNL A   1      53.215  28.200  22.680  1.00  0.00     0.148 A 
ATOM    105  C   UNL A   1      55.097  26.869  24.285  1.00  0.00     0.002 A 
ATOM    106  C   UNL A   1      54.176  27.382  22.100  1.00  0.00     0.091 A 
ATOM    107  F   UNL A   1      52.322  28.876  21.942  1.00  0.00    -0.205 F 
ATOM    108  C   UNL A   1      55.125  26.726  22.899  1.00  0.00     0.022 A 
BRANCH 106 109
ATOM    109  S   UNL A   1      54.223  27.061  20.333  1.00  0.00     0.127 S 
ATOM    110  O   UNL A   1      52.940  26.394  20.116  1.00  0.00    -0.237 OA
ATOM    111  O   UNL A   1      54.310  28.411  19.775  1.00  0.00    -0.237 OA
ATOM    112  O   UNL A   1      55.403  26.238  20.106  1.00  0.00    -0.744 OA
ENDBRANCH 106 109
ENDBRANCH  79 102
ENDBRANCH  53  54
ENDBRANCH  46  48
ENDBRANCH  45  46
ENDBRANCH  44  45
ENDBRANCH  43  44
ENDBRANCH  42  43
ENDBRANCH  41  42
ENDBRANCH  40  41
ENDBRANCH  39  40
ENDBRANCH   1  39
TORSDOF 28
ENDMDL
MODEL 3
REMARK VINA RESULT:      -6.1      5.582     11.107
REMARK SMILES CC1(C)S[C@H]2[C@H](NC(=O)[C@H](NN3CCNC3=O)c3ccccc3)C(=O)N2[C@H]1C(=O)OCCOCCOCCOCCOC(=O)c1ccc(-c2c3nc(c(-c4cccc(S(=O)(=O)[O-])c4F)c4ccc([nH]4)c(-c4cccc(S(=O)(=O)[O-])c4F)c4nc(c(-c5cccc(S(=O)(=O)[O-])c5F)c5ccc2[nH]5)C=C4)C=C3)cc1
REMARK SMILES IDX 35 1 34 2 33 3 32 4 31 5 30 6 28 7 29 8 27 9 1 10 2 11 3 12
REMARK SMILES IDX 4 13 5 14 26 15 6 16 24 17 25 18 7 19 8 20 9 22 10 23 18 24
REMARK SMILES IDX 19 25 23 26 20 27 22 28 21 29 11 30 12 32 13 33 16 34 14 35
REMARK SMILES IDX 15 36 17 37 36 39 37 40 38 41 39 42 40 43 41 44 42 45 43 46
REMARK SMILES IDX 44 47 45 48 46 49 107 50 47 51 106 52 48 53 49 54 50 55
REMARK SMILES IDX 100 56 51 57 105 58 99 59 101 60 52 61 104 62 98 63 97 64
REMARK SMILES IDX 53 66 85 67 65 68 84 69 66 70 69 71 83 72 102 73 67 74 68 75
REMARK SMILES IDX 82 77 103 78 70 79 54 80 55 81 63 82 56 83 58 84 64 85 57 86
REMARK SMILES IDX 59 87 60 88 61 89 62 90 86 91 87 92 95 93 88 94 90 95 96 96
REMARK SMILES IDX 89 97 91 98 92 99 93 100 94 101 71 102 72 103 80 104 73 105
REMARK SMILES IDX 75 106 81 107 74 108 76 109 77 110 78 111 79 112
REMARK H PARENT 7 21 11 31 15 38 101 65 69 76
REMARK Flexibility Score: inf
ROOT
ATOM      1  C   UNL A   1      46.245  30.478  26.601  1.00  0.00     0.188 C 
ENDROOT
BRANCH   1   2
ATOM      2  C   UNL A   1      45.027  31.159  27.226  1.00  0.00     0.188 C 
BRANCH   2   3
ATOM      3  O   UNL A   1      45.055  32.570  27.257  1.00  0.00    -0.376 OA
BRANCH   3   4
ATOM      4  C   UNL A   1      43.850  33.284  27.534  1.00  0.00     0.202 C 
BRANCH   4   5
ATOM      5  C   UNL A   1      43.559  33.941  28.894  1.00  0.00     0.261 C 
BRANCH   5   6
ATOM      6  O   UNL A   1      42.566  33.279  29.709  1.00  0.00    -0.462 OA
BRANCH   6   7
ATOM      7  C   UNL A   1      42.938  32.085  30.238  1.00  0.00     0.330 C 
ATOM      8  O   UNL A   1      44.091  31.814  30.577  1.00  0.00    -0.250 OA
BRANCH   7   9
ATOM      9  C   UNL A   1      41.860  30.991  30.232  1.00  0.00     0.212 C 
ATOM     10  C   UNL A   1      42.097  29.155  28.438  1.00  0.00     0.026 C 
ATOM     11  C   UNL A   1      42.057  29.488  29.936  1.00  0.00     0.044 C 
ATOM     12  C   UNL A   1      43.194  28.746  30.647  1.00  0.00     0.026 C 
ATOM     13  S   UNL A   1      40.414  28.752  30.528  1.00  0.00    -0.125 SA
ATOM     14  C   UNL A   1      40.131  30.059  31.800  1.00  0.00     0.176 C 
ATOM     15  N   UNL A   1      41.098  31.112  31.470  1.00  0.00    -0.311 N 
ATOM     16  C   UNL A   1      40.937  29.791  33.081  1.00  0.00     0.205 C 
ATOM     17  C   UNL A   1      41.723  31.053  32.670  1.00  0.00     0.250 C 
ATOM     18  O   UNL A   1      42.672  31.683  33.102  1.00  0.00    -0.272 OA
BRANCH  16  19
ATOM     19  N   UNL A   1      40.359  29.896  34.428  1.00  0.00    -0.340 N 
ATOM     20  C   UNL A   1      41.171  29.804  35.546  1.00  0.00     0.244 C 
ATOM     21  H   UNL A   1      39.390  30.033  34.536  1.00  0.00     0.164 HD
ATOM     22  O   UNL A   1      40.946  30.621  36.442  1.00  0.00    -0.273 OA
BRANCH  20  23
ATOM     23  C   UNL A   1      42.274  28.687  35.590  1.00  0.00     0.194 C 
BRANCH  23  24
ATOM     24  C   UNL A   1      43.648  29.173  35.124  1.00  0.00    -0.020 A 
ATOM     25  C   UNL A   1      44.290  30.223  35.817  1.00  0.00     0.006 A 
ATOM     26  C   UNL A   1      44.304  28.702  33.984  1.00  0.00     0.006 A 
ATOM     27  C   UNL A   1      45.513  30.762  35.411  1.00  0.00     0.000 A 
ATOM     28  C   UNL A   1      45.543  29.215  33.586  1.00  0.00     0.000 A 
ATOM     29  C   UNL A   1      46.145  30.244  34.296  1.00  0.00     0.000 A 
ENDBRANCH  23  24
BRANCH  23  30
ATOM     30  N   UNL A   1      42.139  27.863  36.841  1.00  0.00    -0.213 NA
ATOM     31  H   UNL A   1      41.269  28.127  37.303  1.00  0.00     0.149 HD
BRANCH  30  32
ATOM     32  N   UNL A   1      42.120  26.482  36.632  1.00  0.00    -0.257 N 
ATOM     33  C   UNL A   1      43.196  25.682  36.113  1.00  0.00     0.163 C 
ATOM     34  C   UNL A   1      41.082  25.623  37.053  1.00  0.00     0.331 C 
ATOM     35  C   UNL A   1      42.418  24.524  35.505  1.00  0.00     0.141 C 
ATOM     36  N   UNL A   1      41.292  24.409  36.399  1.00  0.00    -0.335 N 
ATOM     37  O   UNL A   1      40.189  25.874  37.842  1.00  0.00    -0.247 OA
ATOM     38  H   UNL A   1      40.753  23.595  36.528  1.00  0.00     0.165 HD
ENDBRANCH  30  32
ENDBRANCH  23  30
ENDBRANCH  20  23
ENDBRANCH  16  19
ENDBRANCH   7   9
ENDBRANCH   6   7
ENDBRANCH   5   6
ENDBRANCH   4   5
ENDBRANCH   3   4
ENDBRANCH   2   3
ENDBRANCH   1   2
BRANCH   1  39
ATOM     39  O   UNL A   1      46.008  29.387  25.730  1.00  0.00    -0.377 OA
BRANCH  39  40
ATOM     40  C   UNL A   1      45.435  28.189  26.250  1.00  0.00     0.188 C 
BRANCH  40  41
ATOM     41  C   UNL A   1      44.601  27.298  25.321  1.00  0.00     0.188 C 
BRANCH  41  42
ATOM     42  O   UNL A   1      43.368  27.785  24.790  1.00  0.00    -0.376 OA
BRANCH  42  43
ATOM     43  C   UNL A   1      42.141  27.234  25.243  1.00  0.00     0.202 C 
BRANCH  43  44
ATOM     44  C   UNL A   1      42.069  25.714  25.407  1.00  0.00     0.261 C 
BRANCH  44  45
ATOM     45  O   UNL A   1      41.308  25.282  26.538  1.00  0.00    -0.460 OA
BRANCH  45  46
ATOM     46  C   UNL A   1      41.693  24.093  27.059  1.00  0.00     0.338 C 
ATOM     47  O   UNL A   1      41.225  22.994  26.821  1.00  0.00    -0.246 OA
BRANCH  46  48
ATOM     48  C   UNL A   1      42.875  24.305  27.912  1.00  0.00     0.060 A 
ATOM     49  C   UNL A   1      43.093  25.579  28.450  1.00  0.00     0.016 A 
ATOM     50  C   UNL A   1      43.806  23.281  28.101  1.00  0.00     0.016 A 
ATOM     51  C   UNL A   1      44.272  25.847  29.141  1.00  0.00     0.010 A 
ATOM     52  C   UNL A   1      44.991  23.554  28.784  1.00  0.00     0.010 A 
ATOM     53  C   UNL A   1      45.247  24.849  29.267  1.00  0.00    -0.014 A 
BRANCH  53  54
ATOM     54  C   UNL A   1      46.610  25.203  29.720  1.00  0.00     0.031 A 
ATOM     55  C   UNL A   1      46.832  25.450  31.188  1.00  0.00     0.074 A 
ATOM     56  C   UNL A   1      47.627  25.304  28.846  1.00  0.00     0.049 A 
ATOM     57  N   UNL A   1      47.921  25.809  31.813  1.00  0.00    -0.248 NA
ATOM     58  C   UNL A   1      45.666  25.264  32.072  1.00  0.00     0.031 C 
ATOM     59  C   UNL A   1      47.541  25.051  27.408  1.00  0.00     0.029 A 
ATOM     60  N   UNL A   1      48.934  25.666  29.047  1.00  0.00    -0.354 N 
ATOM     61  C   UNL A   1      47.571  25.916  33.153  1.00  0.00     0.074 A 
ATOM     62  C   UNL A   1      46.164  25.597  33.254  1.00  0.00     0.031 C 
ATOM     63  C   UNL A   1      48.743  25.284  26.854  1.00  0.00     0.029 A 
ATOM     64  C   UNL A   1      49.665  25.744  27.886  1.00  0.00     0.049 A 
ATOM     65  H   UNL A   1      49.313  25.851  29.936  1.00  0.00     0.167 HD
ATOM     66  C   UNL A   1      48.356  26.234  34.210  1.00  0.00     0.034 A 
ATOM     67  C   UNL A   1      50.929  26.161  27.683  1.00  0.00     0.034 A 
ATOM     68  C   UNL A   1      49.756  26.533  34.105  1.00  0.00     0.049 A 
ATOM     69  C   UNL A   1      51.761  26.571  28.870  1.00  0.00     0.074 A 
ATOM     70  C   UNL A   1      50.653  26.823  35.118  1.00  0.00     0.029 A 
ATOM     71  N   UNL A   1      50.462  26.595  32.914  1.00  0.00    -0.354 N 
ATOM     72  N   UNL A   1      51.448  26.558  30.142  1.00  0.00    -0.248 NA
ATOM     73  C   UNL A   1      53.136  27.016  28.593  1.00  0.00     0.031 C 
ATOM     74  C   UNL A   1      51.896  27.088  34.535  1.00  0.00     0.029 A 
ATOM     75  C   UNL A   1      51.780  26.933  33.163  1.00  0.00     0.049 A 
ATOM     76  H   UNL A   1      50.082  26.423  32.022  1.00  0.00     0.167 HD
ATOM     77  C   UNL A   1      52.599  26.945  30.821  1.00  0.00     0.074 A 
ATOM     78  C   UNL A   1      53.617  27.176  29.818  1.00  0.00     0.031 C 
ATOM     79  C   UNL A   1      52.794  27.101  32.154  1.00  0.00     0.034 A 
BRANCH  66  80
ATOM     80  C   UNL A   1      47.719  26.250  35.574  1.00  0.00     0.023 A 
ATOM     81  C   UNL A   1      47.202  27.456  36.089  1.00  0.00     0.012 A 
ATOM     82  C   UNL A   1      47.588  25.065  36.325  1.00  0.00     0.148 A 
ATOM     83  C   UNL A   1      46.590  27.489  37.341  1.00  0.00     0.002 A 
ATOM     84  C   UNL A   1      46.939  25.098  37.553  1.00  0.00     0.091 A 
ATOM     85  F   UNL A   1      48.110  23.934  35.829  1.00  0.00    -0.205 F 
ATOM     86  C   UNL A   1      46.449  26.310  38.068  1.00  0.00     0.022 A 
BRANCH  84  87
ATOM     87  S   UNL A   1      46.644  23.621  38.532  1.00  0.00     0.127 S 
ATOM     88  O   UNL A   1      46.620  24.166  39.889  1.00  0.00    -0.237 OA
ATOM     89  O   UNL A   1      45.344  23.175  38.032  1.00  0.00    -0.237 OA
ATOM     90  O   UNL A   1      47.749  22.718  38.241  1.00  0.00    -0.744 OA
ENDBRANCH  84  87
ENDBRANCH  66  80
BRANCH  67  91
ATOM     91  C   UNL A   1      51.517  26.181  26.314  1.00  0.00     0.023 A 
ATOM     92  C   UNL A   1      52.469  25.206  25.963  1.00  0.00     0.012 A 
ATOM     93  C   UNL A   1      51.179  27.181  25.382  1.00  0.00     0.148 A 
ATOM     94  C   UNL A   1      53.107  25.248  24.722  1.00  0.00     0.002 A 
ATOM     95  C   UNL A   1      51.809  27.208  24.140  1.00  0.00     0.091 A 
ATOM     96  F   UNL A   1      50.236  28.073  25.716  1.00  0.00    -0.205 F 
ATOM     97  C   UNL A   1      52.781  26.252  23.813  1.00  0.00     0.022 A 
BRANCH  95  98
ATOM     98  S   UNL A   1      51.445  28.471  22.914  1.00  0.00     0.127 S 
ATOM     99  O   UNL A   1      49.993  28.357  22.763  1.00  0.00    -0.237 OA
ATOM    100  O   UNL A   1      51.892  29.679  23.600  1.00  0.00    -0.237 OA
ATOM    101  O   UNL A   1      52.204  28.078  21.735  1.00  0.00    -0.744 OA
ENDBRANCH  95  98
ENDBRANCH  67  91
BRANCH  79 102
ATOM    102  C   UNL A   1      54.173  27.494  32.616  1.00  0.00     0.023 A 
ATOM    103  C   UNL A   1      55.133  26.500  32.887  1.00  0.00     0.012 A 
ATOM    104  C   UNL A   1      54.537  28.853  32.704  1.00  0.00     0.148 A 
ATOM    105  C   UNL A   1      56.427  26.853  33.270  1.00  0.00     0.002 A 
ATOM    106  C   UNL A   1      55.842  29.196  33.035  1.00  0.00     0.091 A 
ATOM    107  F   UNL A   1      53.602  29.782  32.459  1.00  0.00    -0.205 F 
ATOM    108  C   UNL A   1      56.784  28.198  33.331  1.00  0.00     0.022 A 
BRANCH 106 109
ATOM    109  S   UNL A   1      56.415  30.898  33.039  1.00  0.00     0.127 S 
ATOM    110  O   UNL A   1      57.110  30.977  34.323  1.00  0.00    -0.237 OA
ATOM    111  O   UNL A   1      57.292  30.933  31.868  1.00  0.00    -0.237 OA
ATOM    112  O   UNL A   1      55.221  31.724  32.922  1.00  0.00    -0.744 OA
ENDBRANCH 106 109
ENDBRANCH  79 102
ENDBRANCH  53  54
ENDBRANCH  46  48
ENDBRANCH  45  46
ENDBRANCH  44  45
ENDBRANCH  43  44
ENDBRANCH  42  43
ENDBRANCH  41  42
ENDBRANCH  40  41
ENDBRANCH  39  40
ENDBRANCH   1  39
TORSDOF 28
ENDMDL
