MODEL 1
REMARK VINA RESULT:      -7.7      0.000      0.000
REMARK SMILES NC(=O)CC[N@@H+]1[C@@H](C(=O)OCCOCCOCCOCCOC(=O)c2ccc(-c3c4nc(c(-c5cccc(S(=O)(=O)[O-])c5F)c5ccc([nH]5)c(-c5cccc(S(=O)(=O)[O-])c5F)c5nc(c(-c6cccc(S(=O)(=O)[O-])c6F)c6ccc3[nH]6)C=C5)C=C4)cc2)CC[C@@H]2CCCC[C@H]21
REMARK SMILES IDX 16 1 15 2 14 3 13 4 12 5 11 6 10 7 8 8 9 9 7 10 6 11 95 12
REMARK SMILES IDX 88 14 90 15 94 16 89 17 91 18 93 19 92 20 5 21 4 22 2 23
REMARK SMILES IDX 1 24 3 27 17 28 18 29 19 30 20 31 21 32 22 33 23 34 24 35
REMARK SMILES IDX 25 36 26 37 87 38 27 39 86 40 28 41 29 42 30 43 80 44 31 45
REMARK SMILES IDX 85 46 79 47 81 48 32 49 84 50 78 51 77 52 33 54 65 55 45 56
REMARK SMILES IDX 64 57 46 58 49 59 63 60 82 61 47 62 48 63 62 65 83 66 50 67
REMARK SMILES IDX 34 68 35 69 43 70 36 71 38 72 44 73 37 74 39 75 40 76 41 77
REMARK SMILES IDX 42 78 66 79 67 80 75 81 68 82 70 83 76 84 69 85 71 86 72 87
REMARK SMILES IDX 73 88 74 89 51 90 52 91 60 92 53 93 55 94 61 95 54 96 56 97
REMARK SMILES IDX 57 98 58 99 59 100
REMARK H PARENT 6 13 1 25 1 26 81 53 49 64
REMARK Flexibility Score: inf
ROOT
ATOM      1  O   UNL A   1      35.764  31.243  28.237  1.00  0.00    -0.377 OA
ENDROOT
BRANCH   1   2
ATOM      2  C   UNL A   1      35.053  30.261  27.500  1.00  0.00     0.188 C 
BRANCH   2   3
ATOM      3  C   UNL A   1      33.523  30.282  27.589  1.00  0.00     0.188 C 
BRANCH   3   4
ATOM      4  O   UNL A   1      32.878  30.951  26.513  1.00  0.00    -0.376 OA
BRANCH   4   5
ATOM      5  C   UNL A   1      32.167  30.156  25.576  1.00  0.00     0.202 C 
BRANCH   5   6
ATOM      6  C   UNL A   1      32.994  29.294  24.601  1.00  0.00     0.261 C 
BRANCH   6   7
ATOM      7  O   UNL A   1      32.533  29.035  23.259  1.00  0.00    -0.459 OA
BRANCH   7   8
ATOM      8  C   UNL A   1      31.387  28.366  23.026  1.00  0.00     0.364 C 
ATOM      9  O   UNL A   1      30.268  28.864  23.062  1.00  0.00    -0.245 OA
BRANCH   8  10
ATOM     10  C   UNL A   1      31.583  26.880  22.710  1.00  0.00     0.295 C 
ATOM     11  N   UNL A   1      31.533  26.036  23.951  1.00  0.00    -0.320 N 
ATOM     12  C   UNL A   1      31.723  24.597  23.623  1.00  0.00     0.187 C 
ATOM     13  H   UNL A   1      32.296  26.311  24.569  1.00  0.00     0.349 HD
ATOM     14  C   UNL A   1      32.831  26.633  21.856  1.00  0.00     0.078 C 
ATOM     15  C   UNL A   1      32.919  24.318  22.667  1.00  0.00     0.048 C 
ATOM     16  C   UNL A   1      31.976  23.759  24.899  1.00  0.00     0.065 C 
ATOM     17  C   UNL A   1      32.866  25.182  21.417  1.00  0.00     0.016 C 
ATOM     18  C   UNL A   1      32.971  22.833  22.287  1.00  0.00     0.010 C 
ATOM     19  C   UNL A   1      32.073  22.267  24.575  1.00  0.00     0.006 C 
ATOM     20  C   UNL A   1      33.142  21.967  23.529  1.00  0.00     0.001 C 
BRANCH  11  21
ATOM     21  C   UNL A   1      30.236  26.266  24.667  1.00  0.00     0.273 C 
BRANCH  21  22
ATOM     22  C   UNL A   1      30.356  26.004  26.175  1.00  0.00     0.161 C 
BRANCH  22  23
ATOM     23  C   UNL A   1      31.449  26.828  26.822  1.00  0.00     0.223 C 
ATOM     24  N   UNL A   1      31.017  27.697  27.783  1.00  0.00    -0.369 N 
ATOM     25  H   UNL A   1      31.664  28.270  28.255  1.00  0.00     0.159 HD
ATOM     26  H   UNL A   1      30.059  27.750  28.005  1.00  0.00     0.159 HD
ATOM     27  O   UNL A   1      32.632  26.760  26.509  1.00  0.00    -0.275 OA
ENDBRANCH  22  23
ENDBRANCH  21  22
ENDBRANCH  11  21
ENDBRANCH   8  10
ENDBRANCH   7   8
ENDBRANCH   6   7
ENDBRANCH   5   6
ENDBRANCH   4   5
ENDBRANCH   3   4
ENDBRANCH   2   3
ENDBRANCH   1   2
BRANCH   1  28
ATOM     28  C   UNL A   1      35.196  32.542  28.406  1.00  0.00     0.188 C 
BRANCH  28  29
ATOM     29  C   UNL A   1      35.191  33.206  29.795  1.00  0.00     0.188 C 
BRANCH  29  30
ATOM     30  O   UNL A   1      34.454  32.496  30.774  1.00  0.00    -0.376 OA
BRANCH  30  31
ATOM     31  C   UNL A   1      34.992  32.413  32.081  1.00  0.00     0.202 C 
BRANCH  31  32
ATOM     32  C   UNL A   1      34.267  33.143  33.224  1.00  0.00     0.261 C 
BRANCH  32  33
ATOM     33  O   UNL A   1      35.034  34.049  34.034  1.00  0.00    -0.460 OA
BRANCH  33  34
ATOM     34  C   UNL A   1      36.197  34.544  33.553  1.00  0.00     0.338 C 
ATOM     35  O   UNL A   1      36.340  35.280  32.598  1.00  0.00    -0.246 OA
BRANCH  34  36
ATOM     36  C   UNL A   1      37.261  34.205  34.532  1.00  0.00     0.060 A 
ATOM     37  C   UNL A   1      38.577  34.629  34.290  1.00  0.00     0.016 A 
ATOM     38  C   UNL A   1      36.958  33.480  35.686  1.00  0.00     0.016 A 
ATOM     39  C   UNL A   1      39.600  34.283  35.176  1.00  0.00     0.010 A 
ATOM     40  C   UNL A   1      37.987  33.113  36.557  1.00  0.00     0.010 A 
ATOM     41  C   UNL A   1      39.319  33.473  36.281  1.00  0.00    -0.014 A 
BRANCH  41  42
ATOM     42  C   UNL A   1      40.427  32.796  37.000  1.00  0.00     0.031 A 
ATOM     43  C   UNL A   1      40.936  33.435  38.265  1.00  0.00     0.074 A 
ATOM     44  C   UNL A   1      40.976  31.652  36.553  1.00  0.00     0.049 A 
ATOM     45  N   UNL A   1      41.933  33.084  39.032  1.00  0.00    -0.248 NA
ATOM     46  C   UNL A   1      40.222  34.640  38.721  1.00  0.00     0.031 C 
ATOM     47  C   UNL A   1      40.560  30.922  35.358  1.00  0.00     0.029 A 
ATOM     48  N   UNL A   1      42.029  30.921  37.048  1.00  0.00    -0.354 N 
ATOM     49  C   UNL A   1      41.989  34.040  40.039  1.00  0.00     0.074 A 
ATOM     50  C   UNL A   1      40.932  34.993  39.781  1.00  0.00     0.031 C 
ATOM     51  C   UNL A   1      41.374  29.864  35.191  1.00  0.00     0.029 A 
ATOM     52  C   UNL A   1      42.387  29.861  36.247  1.00  0.00     0.049 A 
ATOM     53  H   UNL A   1      42.484  31.135  37.894  1.00  0.00     0.167 HD
ATOM     54  C   UNL A   1      42.836  34.117  41.092  1.00  0.00     0.034 A 
ATOM     55  C   UNL A   1      43.428  29.010  36.340  1.00  0.00     0.034 A 
ATOM     56  C   UNL A   1      43.880  33.165  41.353  1.00  0.00     0.049 A 
ATOM     57  C   UNL A   1      44.387  29.140  37.500  1.00  0.00     0.074 A 
ATOM     58  C   UNL A   1      44.768  33.134  42.413  1.00  0.00     0.029 A 
ATOM     59  N   UNL A   1      44.189  32.088  40.539  1.00  0.00    -0.354 N 
ATOM     60  N   UNL A   1      44.369  29.990  38.497  1.00  0.00    -0.248 NA
ATOM     61  C   UNL A   1      45.494  28.173  37.560  1.00  0.00     0.031 C 
ATOM     62  C   UNL A   1      45.641  32.060  42.218  1.00  0.00     0.029 A 
ATOM     63  C   UNL A   1      45.265  31.393  41.062  1.00  0.00     0.049 A 
ATOM     64  H   UNL A   1      43.714  31.852  39.709  1.00  0.00     0.167 HD
ATOM     65  C   UNL A   1      45.431  29.635  39.324  1.00  0.00     0.074 A 
ATOM     66  C   UNL A   1      46.063  28.483  38.717  1.00  0.00     0.031 C 
ATOM     67  C   UNL A   1      45.852  30.216  40.476  1.00  0.00     0.034 A 
BRANCH  54  68
ATOM     68  C   UNL A   1      42.664  35.272  42.043  1.00  0.00     0.023 A 
ATOM     69  C   UNL A   1      43.428  36.445  41.870  1.00  0.00     0.012 A 
ATOM     70  C   UNL A   1      41.717  35.212  43.084  1.00  0.00     0.148 A 
ATOM     71  C   UNL A   1      43.275  37.526  42.739  1.00  0.00     0.002 A 
ATOM     72  C   UNL A   1      41.536  36.310  43.915  1.00  0.00     0.091 A 
ATOM     73  F   UNL A   1      41.019  34.079  43.247  1.00  0.00    -0.205 F 
ATOM     74  C   UNL A   1      42.323  37.462  43.753  1.00  0.00     0.022 A 
BRANCH  72  75
ATOM     75  S   UNL A   1      40.280  36.358  45.197  1.00  0.00     0.127 S 
ATOM     76  O   UNL A   1      40.989  37.041  46.279  1.00  0.00    -0.237 OA
ATOM     77  O   UNL A   1      39.226  37.150  44.563  1.00  0.00    -0.237 OA
ATOM     78  O   UNL A   1      39.923  34.971  45.464  1.00  0.00    -0.744 OA
ENDBRANCH  72  75
ENDBRANCH  54  68
BRANCH  55  79
ATOM     79  C   UNL A   1      43.622  27.947  35.313  1.00  0.00     0.023 A 
ATOM     80  C   UNL A   1      44.173  28.278  34.059  1.00  0.00     0.012 A 
ATOM     81  C   UNL A   1      43.261  26.610  35.573  1.00  0.00     0.148 A 
ATOM     82  C   UNL A   1      44.330  27.303  33.071  1.00  0.00     0.002 A 
ATOM     83  C   UNL A   1      43.475  25.634  34.606  1.00  0.00     0.091 A 
ATOM     84  F   UNL A   1      42.721  26.319  36.764  1.00  0.00    -0.205 F 
ATOM     85  C   UNL A   1      43.991  25.981  33.348  1.00  0.00     0.022 A 
BRANCH  83  86
ATOM     86  S   UNL A   1      43.188  23.889  34.917  1.00  0.00     0.127 S 
ATOM     87  O   UNL A   1      41.764  23.872  35.240  1.00  0.00    -0.237 OA
ATOM     88  O   UNL A   1      43.534  23.296  33.624  1.00  0.00    -0.237 OA
ATOM     89  O   UNL A   1      44.086  23.528  36.004  1.00  0.00    -0.744 OA
ENDBRANCH  83  86
ENDBRANCH  55  79
BRANCH  67  90
ATOM     90  C   UNL A   1      47.019  29.590  41.196  1.00  0.00     0.023 A 
ATOM     91  C   UNL A   1      46.804  28.567  42.141  1.00  0.00     0.012 A 
ATOM     92  C   UNL A   1      48.339  29.966  40.873  1.00  0.00     0.148 A 
ATOM     93  C   UNL A   1      47.883  27.954  42.780  1.00  0.00     0.002 A 
ATOM     94  C   UNL A   1      49.410  29.313  41.473  1.00  0.00     0.091 A 
ATOM     95  F   UNL A   1      48.523  30.951  39.983  1.00  0.00    -0.205 F 
ATOM     96  C   UNL A   1      49.184  28.318  42.438  1.00  0.00     0.022 A 
BRANCH  94  97
ATOM     97  S   UNL A   1      51.117  29.644  41.022  1.00  0.00     0.127 S 
ATOM     98  O   UNL A   1      51.840  28.713  41.888  1.00  0.00    -0.237 OA
ATOM     99  O   UNL A   1      51.134  29.294  39.602  1.00  0.00    -0.237 OA
ATOM    100  O   UNL A   1      51.342  31.055  41.300  1.00  0.00    -0.744 OA
ENDBRANCH  94  97
ENDBRANCH  67  90
ENDBRANCH  41  42
ENDBRANCH  34  36
ENDBRANCH  33  34
ENDBRANCH  32  33
ENDBRANCH  31  32
ENDBRANCH  30  31
ENDBRANCH  29  30
ENDBRANCH  28  29
ENDBRANCH   1  28
TORSDOF 26
ENDMDL
MODEL 2
REMARK VINA RESULT:      -7.3      7.782     13.941
REMARK SMILES NC(=O)CC[N@@H+]1[C@@H](C(=O)OCCOCCOCCOCCOC(=O)c2ccc(-c3c4nc(c(-c5cccc(S(=O)(=O)[O-])c5F)c5ccc([nH]5)c(-c5cccc(S(=O)(=O)[O-])c5F)c5nc(c(-c6cccc(S(=O)(=O)[O-])c6F)c6ccc3[nH]6)C=C5)C=C4)cc2)CC[C@@H]2CCCC[C@H]21
REMARK SMILES IDX 16 1 15 2 14 3 13 4 12 5 11 6 10 7 8 8 9 9 7 10 6 11 95 12
REMARK SMILES IDX 88 14 90 15 94 16 89 17 91 18 93 19 92 20 5 21 4 22 2 23
REMARK SMILES IDX 1 24 3 27 17 28 18 29 19 30 20 31 21 32 22 33 23 34 24 35
REMARK SMILES IDX 25 36 26 37 87 38 27 39 86 40 28 41 29 42 30 43 80 44 31 45
REMARK SMILES IDX 85 46 79 47 81 48 32 49 84 50 78 51 77 52 33 54 65 55 45 56
REMARK SMILES IDX 64 57 46 58 49 59 63 60 82 61 47 62 48 63 62 65 83 66 50 67
REMARK SMILES IDX 34 68 35 69 43 70 36 71 38 72 44 73 37 74 39 75 40 76 41 77
REMARK SMILES IDX 42 78 66 79 67 80 75 81 68 82 70 83 76 84 69 85 71 86 72 87
REMARK SMILES IDX 73 88 74 89 51 90 52 91 60 92 53 93 55 94 61 95 54 96 56 97
REMARK SMILES IDX 57 98 58 99 59 100
REMARK H PARENT 6 13 1 25 1 26 81 53 49 64
REMARK Flexibility Score: inf
ROOT
ATOM      1  O   UNL A   1      41.392  30.256  31.066  1.00  0.00    -0.377 OA
ENDROOT
BRANCH   1   2
ATOM      2  C   UNL A   1      41.502  31.586  31.549  1.00  0.00     0.188 C 
BRANCH   2   3
ATOM      3  C   UNL A   1      40.468  32.604  31.057  1.00  0.00     0.188 C 
BRANCH   3   4
ATOM      4  O   UNL A   1      39.825  33.340  32.091  1.00  0.00    -0.376 OA
BRANCH   4   5
ATOM      5  C   UNL A   1      38.853  34.300  31.709  1.00  0.00     0.202 C 
BRANCH   5   6
ATOM      6  C   UNL A   1      37.433  34.147  32.288  1.00  0.00     0.261 C 
BRANCH   6   7
ATOM      7  O   UNL A   1      36.299  33.906  31.431  1.00  0.00    -0.459 OA
BRANCH   7   8
ATOM      8  C   UNL A   1      35.767  32.675  31.299  1.00  0.00     0.364 C 
ATOM      9  O   UNL A   1      34.570  32.441  31.174  1.00  0.00    -0.245 OA
BRANCH   8  10
ATOM     10  C   UNL A   1      36.797  31.542  31.326  1.00  0.00     0.295 C 
ATOM     11  N   UNL A   1      36.986  30.930  29.968  1.00  0.00    -0.320 N 
ATOM     12  C   UNL A   1      37.992  29.834  30.015  1.00  0.00     0.187 C 
ATOM     13  H   UNL A   1      36.103  30.521  29.664  1.00  0.00     0.349 HD
ATOM     14  C   UNL A   1      36.492  30.513  32.420  1.00  0.00     0.078 C 
ATOM     15  C   UNL A   1      37.777  28.827  31.182  1.00  0.00     0.048 C 
ATOM     16  C   UNL A   1      37.977  29.002  28.710  1.00  0.00     0.065 C 
ATOM     17  C   UNL A   1      37.641  29.528  32.525  1.00  0.00     0.016 C 
ATOM     18  C   UNL A   1      38.919  27.804  31.230  1.00  0.00     0.010 C 
ATOM     19  C   UNL A   1      39.075  27.937  28.715  1.00  0.00     0.006 C 
ATOM     20  C   UNL A   1      38.986  27.015  29.927  1.00  0.00     0.001 C 
BRANCH  11  21
ATOM     21  C   UNL A   1      37.381  31.991  28.985  1.00  0.00     0.273 C 
BRANCH  21  22
ATOM     22  C   UNL A   1      36.242  32.333  28.016  1.00  0.00     0.161 C 
BRANCH  22  23
ATOM     23  C   UNL A   1      35.229  31.215  27.893  1.00  0.00     0.223 C 
ATOM     24  N   UNL A   1      34.020  31.470  28.475  1.00  0.00    -0.369 N 
ATOM     25  H   UNL A   1      33.305  30.794  28.439  1.00  0.00     0.159 HD
ATOM     26  H   UNL A   1      33.864  32.329  28.929  1.00  0.00     0.159 HD
ATOM     27  O   UNL A   1      35.459  30.143  27.343  1.00  0.00    -0.275 OA
ENDBRANCH  22  23
ENDBRANCH  21  22
ENDBRANCH  11  21
ENDBRANCH   8  10
ENDBRANCH   7   8
ENDBRANCH   6   7
ENDBRANCH   5   6
ENDBRANCH   4   5
ENDBRANCH   3   4
ENDBRANCH   2   3
ENDBRANCH   1   2
BRANCH   1  28
ATOM     28  C   UNL A   1      42.574  29.475  30.886  1.00  0.00     0.188 C 
BRANCH  28  29
ATOM     29  C   UNL A   1      43.079  28.568  32.024  1.00  0.00     0.188 C 
BRANCH  29  30
ATOM     30  O   UNL A   1      42.049  27.931  32.757  1.00  0.00    -0.376 OA
BRANCH  30  31
ATOM     31  C   UNL A   1      41.791  28.386  34.074  1.00  0.00     0.202 C 
BRANCH  31  32
ATOM     32  C   UNL A   1      41.283  27.376  35.116  1.00  0.00     0.261 C 
BRANCH  32  33
ATOM     33  O   UNL A   1      41.765  26.024  35.029  1.00  0.00    -0.460 OA
BRANCH  33  34
ATOM     34  C   UNL A   1      42.719  25.605  35.891  1.00  0.00     0.338 C 
ATOM     35  O   UNL A   1      42.549  25.113  36.987  1.00  0.00    -0.246 OA
BRANCH  34  36
ATOM     36  C   UNL A   1      44.017  25.650  35.171  1.00  0.00     0.060 A 
ATOM     37  C   UNL A   1      44.730  26.857  35.114  1.00  0.00     0.016 A 
ATOM     38  C   UNL A   1      44.531  24.502  34.565  1.00  0.00     0.016 A 
ATOM     39  C   UNL A   1      45.931  26.931  34.406  1.00  0.00     0.010 A 
ATOM     40  C   UNL A   1      45.720  24.584  33.834  1.00  0.00     0.010 A 
ATOM     41  C   UNL A   1      46.401  25.809  33.713  1.00  0.00    -0.014 A 
BRANCH  41  42
ATOM     42  C   UNL A   1      47.444  25.971  32.670  1.00  0.00     0.031 A 
ATOM     43  C   UNL A   1      47.017  25.866  31.230  1.00  0.00     0.074 A 
ATOM     44  C   UNL A   1      48.734  26.201  32.978  1.00  0.00     0.049 A 
ATOM     45  N   UNL A   1      47.741  25.899  30.142  1.00  0.00    -0.248 NA
ATOM     46  C   UNL A   1      45.575  25.695  30.986  1.00  0.00     0.031 C 
ATOM     47  C   UNL A   1      49.269  26.346  34.328  1.00  0.00     0.029 A 
ATOM     48  N   UNL A   1      49.832  26.322  32.161  1.00  0.00    -0.354 N 
ATOM     49  C   UNL A   1      46.851  25.718  29.091  1.00  0.00     0.074 A 
ATOM     50  C   UNL A   1      45.534  25.565  29.669  1.00  0.00     0.031 C 
ATOM     51  C   UNL A   1      50.604  26.502  34.251  1.00  0.00     0.029 A 
ATOM     52  C   UNL A   1      51.018  26.435  32.849  1.00  0.00     0.049 A 
ATOM     53  H   UNL A   1      49.776  26.328  31.179  1.00  0.00     0.167 HD
ATOM     54  C   UNL A   1      47.100  25.691  27.761  1.00  0.00     0.034 A 
ATOM     55  C   UNL A   1      52.289  26.449  32.400  1.00  0.00     0.034 A 
ATOM     56  C   UNL A   1      48.408  25.851  27.186  1.00  0.00     0.049 A 
ATOM     57  C   UNL A   1      52.548  26.374  30.914  1.00  0.00     0.074 A 
ATOM     58  C   UNL A   1      48.761  25.875  25.849  1.00  0.00     0.029 A 
ATOM     59  N   UNL A   1      49.578  25.996  27.913  1.00  0.00    -0.354 N 
ATOM     60  N   UNL A   1      51.688  26.301  29.926  1.00  0.00    -0.248 NA
ATOM     61  C   UNL A   1      53.953  26.412  30.480  1.00  0.00     0.031 C 
ATOM     62  C   UNL A   1      50.151  25.996  25.769  1.00  0.00     0.029 A 
ATOM     63  C   UNL A   1      50.658  26.095  27.055  1.00  0.00     0.049 A 
ATOM     64  H   UNL A   1      49.633  26.024  28.896  1.00  0.00     0.167 HD
ATOM     65  C   UNL A   1      52.443  26.328  28.757  1.00  0.00     0.074 A 
ATOM     66  C   UNL A   1      53.830  26.439  29.160  1.00  0.00     0.031 C 
ATOM     67  C   UNL A   1      52.029  26.258  27.468  1.00  0.00     0.034 A 
BRANCH  54  68
ATOM     68  C   UNL A   1      45.931  25.481  26.835  1.00  0.00     0.023 A 
ATOM     69  C   UNL A   1      45.199  26.590  26.365  1.00  0.00     0.012 A 
ATOM     70  C   UNL A   1      45.583  24.187  26.398  1.00  0.00     0.148 A 
ATOM     71  C   UNL A   1      44.118  26.412  25.501  1.00  0.00     0.002 A 
ATOM     72  C   UNL A   1      44.536  24.023  25.500  1.00  0.00     0.091 A 
ATOM     73  F   UNL A   1      46.276  23.144  26.877  1.00  0.00    -0.205 F 
ATOM     74  C   UNL A   1      43.794  25.132  25.062  1.00  0.00     0.022 A 
BRANCH  72  75
ATOM     75  S   UNL A   1      44.094  22.425  24.811  1.00  0.00     0.127 S 
ATOM     76  O   UNL A   1      42.633  22.469  24.880  1.00  0.00    -0.237 OA
ATOM     77  O   UNL A   1      44.644  22.511  23.459  1.00  0.00    -0.237 OA
ATOM     78  O   UNL A   1      44.726  21.428  25.665  1.00  0.00    -0.744 OA
ENDBRANCH  72  75
ENDBRANCH  54  68
BRANCH  55  79
ATOM     79  C   UNL A   1      53.424  26.548  33.362  1.00  0.00     0.023 A 
ATOM     80  C   UNL A   1      53.988  25.376  33.902  1.00  0.00     0.012 A 
ATOM     81  C   UNL A   1      53.944  27.800  33.746  1.00  0.00     0.148 A 
ATOM     82  C   UNL A   1      55.027  25.448  34.831  1.00  0.00     0.002 A 
ATOM     83  C   UNL A   1      55.019  27.863  34.626  1.00  0.00     0.091 A 
ATOM     84  F   UNL A   1      53.382  28.904  33.235  1.00  0.00    -0.205 F 
ATOM     85  C   UNL A   1      55.549  26.690  35.185  1.00  0.00     0.022 A 
BRANCH  83  86
ATOM     86  S   UNL A   1      55.838  29.407  35.040  1.00  0.00     0.127 S 
ATOM     87  O   UNL A   1      56.894  28.953  35.941  1.00  0.00    -0.237 OA
ATOM     88  O   UNL A   1      56.299  29.860  33.727  1.00  0.00    -0.237 OA
ATOM     89  O   UNL A   1      54.814  30.248  35.642  1.00  0.00    -0.744 OA
ENDBRANCH  83  86
ENDBRANCH  55  79
BRANCH  67  90
ATOM     90  C   UNL A   1      53.073  26.353  26.384  1.00  0.00     0.023 A 
ATOM     91  C   UNL A   1      53.694  25.188  25.893  1.00  0.00     0.012 A 
ATOM     92  C   UNL A   1      53.379  27.599  25.798  1.00  0.00     0.148 A 
ATOM     93  C   UNL A   1      54.629  25.265  24.860  1.00  0.00     0.002 A 
ATOM     94  C   UNL A   1      54.271  27.661  24.734  1.00  0.00     0.091 A 
ATOM     95  F   UNL A   1      52.789  28.698  26.289  1.00  0.00    -0.205 F 
ATOM     96  C   UNL A   1      54.908  26.498  24.273  1.00  0.00     0.022 A 
BRANCH  94  97
ATOM     97  S   UNL A   1      54.614  29.188  23.852  1.00  0.00     0.127 S 
ATOM     98  O   UNL A   1      53.269  29.621  23.472  1.00  0.00    -0.237 OA
ATOM     99  O   UNL A   1      55.249  30.006  24.885  1.00  0.00    -0.237 OA
ATOM    100  O   UNL A   1      55.487  28.827  22.744  1.00  0.00    -0.744 OA
ENDBRANCH  94  97
ENDBRANCH  67  90
ENDBRANCH  41  42
ENDBRANCH  34  36
ENDBRANCH  33  34
ENDBRANCH  32  33
ENDBRANCH  31  32
ENDBRANCH  30  31
ENDBRANCH  29  30
ENDBRANCH  28  29
ENDBRANCH   1  28
TORSDOF 26
ENDMDL
MODEL 3
REMARK VINA RESULT:      -7.3     10.130     14.934
REMARK SMILES NC(=O)CC[N@@H+]1[C@@H](C(=O)OCCOCCOCCOCCOC(=O)c2ccc(-c3c4nc(c(-c5cccc(S(=O)(=O)[O-])c5F)c5ccc([nH]5)c(-c5cccc(S(=O)(=O)[O-])c5F)c5nc(c(-c6cccc(S(=O)(=O)[O-])c6F)c6ccc3[nH]6)C=C5)C=C4)cc2)CC[C@@H]2CCCC[C@H]21
REMARK SMILES IDX 16 1 15 2 14 3 13 4 12 5 11 6 10 7 8 8 9 9 7 10 6 11 95 12
REMARK SMILES IDX 88 14 90 15 94 16 89 17 91 18 93 19 92 20 5 21 4 22 2 23
REMARK SMILES IDX 1 24 3 27 17 28 18 29 19 30 20 31 21 32 22 33 23 34 24 35
REMARK SMILES IDX 25 36 26 37 87 38 27 39 86 40 28 41 29 42 30 43 80 44 31 45
REMARK SMILES IDX 85 46 79 47 81 48 32 49 84 50 78 51 77 52 33 54 65 55 45 56
REMARK SMILES IDX 64 57 46 58 49 59 63 60 82 61 47 62 48 63 62 65 83 66 50 67
REMARK SMILES IDX 34 68 35 69 43 70 36 71 38 72 44 73 37 74 39 75 40 76 41 77
REMARK SMILES IDX 42 78 66 79 67 80 75 81 68 82 70 83 76 84 69 85 71 86 72 87
REMARK SMILES IDX 73 88 74 89 51 90 52 91 60 92 53 93 55 94 61 95 54 96 56 97
REMARK SMILES IDX 57 98 58 99 59 100
REMARK H PARENT 6 13 1 25 1 26 81 53 49 64
REMARK Flexibility Score: inf
ROOT
ATOM      1  O   UNL A   1      39.644  29.006  30.112  1.00  0.00    -0.377 OA
ENDROOT
BRANCH   1   2
ATOM      2  C   UNL A   1      40.706  29.945  30.046  1.00  0.00     0.188 C 
BRANCH   2   3
ATOM      3  C   UNL A   1      40.755  31.033  31.125  1.00  0.00     0.188 C 
BRANCH   3   4
ATOM      4  O   UNL A   1      41.929  31.017  31.927  1.00  0.00    -0.376 OA
BRANCH   4   5
ATOM      5  C   UNL A   1      41.848  31.590  33.223  1.00  0.00     0.202 C 
BRANCH   5   6
ATOM      6  C   UNL A   1      41.311  30.702  34.362  1.00  0.00     0.261 C 
BRANCH   6   7
ATOM      7  O   UNL A   1      40.442  31.237  35.381  1.00  0.00    -0.459 OA
BRANCH   7   8
ATOM      8  C   UNL A   1      39.136  30.910  35.435  1.00  0.00     0.364 C 
ATOM      9  O   UNL A   1      38.653  30.091  36.207  1.00  0.00    -0.245 OA
BRANCH   8  10
ATOM     10  C   UNL A   1      38.263  31.653  34.419  1.00  0.00     0.295 C 
ATOM     11  N   UNL A   1      37.414  32.701  35.077  1.00  0.00    -0.320 N 
ATOM     12  C   UNL A   1      36.575  33.413  34.074  1.00  0.00     0.187 C 
ATOM     13  H   UNL A   1      36.781  32.249  35.737  1.00  0.00     0.349 HD
ATOM     14  C   UNL A   1      37.464  30.690  33.534  1.00  0.00     0.078 C 
ATOM     15  C   UNL A   1      35.831  32.468  33.086  1.00  0.00     0.048 C 
ATOM     16  C   UNL A   1      35.488  34.273  34.760  1.00  0.00     0.065 C 
ATOM     17  C   UNL A   1      36.773  31.469  32.431  1.00  0.00     0.016 C 
ATOM     18  C   UNL A   1      35.089  33.280  32.017  1.00  0.00     0.010 C 
ATOM     19  C   UNL A   1      34.688  35.082  33.736  1.00  0.00     0.006 C 
ATOM     20  C   UNL A   1      34.060  34.200  32.662  1.00  0.00     0.001 C 
BRANCH  11  21
ATOM     21  C   UNL A   1      38.286  33.657  35.834  1.00  0.00     0.273 C 
BRANCH  21  22
ATOM     22  C   UNL A   1      38.221  33.420  37.349  1.00  0.00     0.161 C 
BRANCH  22  23
ATOM     23  C   UNL A   1      39.355  34.093  38.092  1.00  0.00     0.223 C 
ATOM     24  N   UNL A   1      38.968  35.058  38.977  1.00  0.00    -0.369 N 
ATOM     25  H   UNL A   1      39.644  35.544  39.502  1.00  0.00     0.159 HD
ATOM     26  H   UNL A   1      38.013  35.266  39.091  1.00  0.00     0.159 HD
ATOM     27  O   UNL A   1      40.539  33.831  37.911  1.00  0.00    -0.275 OA
ENDBRANCH  22  23
ENDBRANCH  21  22
ENDBRANCH  11  21
ENDBRANCH   8  10
ENDBRANCH   7   8
ENDBRANCH   6   7
ENDBRANCH   5   6
ENDBRANCH   4   5
ENDBRANCH   3   4
ENDBRANCH   2   3
ENDBRANCH   1   2
BRANCH   1  28
ATOM     28  C   UNL A   1      38.949  28.648  28.917  1.00  0.00     0.188 C 
BRANCH  28  29
ATOM     29  C   UNL A   1      39.663  27.827  27.827  1.00  0.00     0.188 C 
BRANCH  29  30
ATOM     30  O   UNL A   1      39.270  26.468  27.774  1.00  0.00    -0.376 OA
BRANCH  30  31
ATOM     31  C   UNL A   1      40.048  25.523  28.485  1.00  0.00     0.202 C 
BRANCH  31  32
ATOM     32  C   UNL A   1      41.123  24.731  27.723  1.00  0.00     0.261 C 
BRANCH  32  33
ATOM     33  O   UNL A   1      42.473  25.220  27.767  1.00  0.00    -0.460 OA
BRANCH  33  34
ATOM     34  C   UNL A   1      43.431  24.587  27.053  1.00  0.00     0.338 C 
ATOM     35  O   UNL A   1      43.320  23.542  26.446  1.00  0.00    -0.246 OA
BRANCH  34  36
ATOM     36  C   UNL A   1      44.594  25.505  26.958  1.00  0.00     0.060 A 
ATOM     37  C   UNL A   1      45.015  26.202  28.101  1.00  0.00     0.016 A 
ATOM     38  C   UNL A   1      45.270  25.669  25.747  1.00  0.00     0.016 A 
ATOM     39  C   UNL A   1      46.079  27.103  28.022  1.00  0.00     0.010 A 
ATOM     40  C   UNL A   1      46.318  26.591  25.664  1.00  0.00     0.010 A 
ATOM     41  C   UNL A   1      46.696  27.346  26.790  1.00  0.00    -0.014 A 
BRANCH  41  42
ATOM     42  C   UNL A   1      47.548  28.549  26.616  1.00  0.00     0.031 A 
ATOM     43  C   UNL A   1      46.869  29.892  26.602  1.00  0.00     0.074 A 
ATOM     44  C   UNL A   1      48.883  28.464  26.471  1.00  0.00     0.049 A 
ATOM     45  N   UNL A   1      47.376  31.079  26.397  1.00  0.00    -0.248 NA
ATOM     46  C   UNL A   1      45.417  29.894  26.849  1.00  0.00     0.031 C 
ATOM     47  C   UNL A   1      49.661  27.229  26.489  1.00  0.00     0.029 A 
ATOM     48  N   UNL A   1      49.814  29.449  26.248  1.00  0.00    -0.354 N 
ATOM     49  C   UNL A   1      46.304  31.962  26.455  1.00  0.00     0.074 A 
ATOM     50  C   UNL A   1      45.117  31.175  26.704  1.00  0.00     0.031 C 
ATOM     51  C   UNL A   1      50.952  27.525  26.251  1.00  0.00     0.029 A 
ATOM     52  C   UNL A   1      51.084  28.965  26.031  1.00  0.00     0.049 A 
ATOM     53  H   UNL A   1      49.595  30.408  26.245  1.00  0.00     0.167 HD
ATOM     54  C   UNL A   1      46.304  33.309  26.322  1.00  0.00     0.034 A 
ATOM     55  C   UNL A   1      52.211  29.608  25.665  1.00  0.00     0.034 A 
ATOM     56  C   UNL A   1      47.486  34.091  26.083  1.00  0.00     0.049 A 
ATOM     57  C   UNL A   1      52.180  31.107  25.481  1.00  0.00     0.074 A 
ATOM     58  C   UNL A   1      47.597  35.465  25.970  1.00  0.00     0.029 A 
ATOM     59  N   UNL A   1      48.756  33.570  25.902  1.00  0.00    -0.354 N 
ATOM     60  N   UNL A   1      51.179  31.939  25.635  1.00  0.00    -0.248 NA
ATOM     61  C   UNL A   1      53.444  31.757  25.100  1.00  0.00     0.031 C 
ATOM     62  C   UNL A   1      48.930  35.771  25.681  1.00  0.00     0.029 A 
ATOM     63  C   UNL A   1      49.657  34.591  25.663  1.00  0.00     0.049 A 
ATOM     64  H   UNL A   1      48.984  32.612  25.938  1.00  0.00     0.167 HD
ATOM     65  C   UNL A   1      51.700  33.211  25.413  1.00  0.00     0.074 A 
ATOM     66  C   UNL A   1      53.109  33.040  25.127  1.00  0.00     0.031 C 
ATOM     67  C   UNL A   1      51.068  34.411  25.432  1.00  0.00     0.034 A 
BRANCH  54  68
ATOM     68  C   UNL A   1      44.983  34.022  26.436  1.00  0.00     0.023 A 
ATOM     69  C   UNL A   1      44.207  34.254  25.282  1.00  0.00     0.012 A 
ATOM     70  C   UNL A   1      44.490  34.426  27.693  1.00  0.00     0.148 A 
ATOM     71  C   UNL A   1      42.977  34.907  25.373  1.00  0.00     0.002 A 
ATOM     72  C   UNL A   1      43.244  35.032  27.781  1.00  0.00     0.091 A 
ATOM     73  F   UNL A   1      45.255  34.220  28.774  1.00  0.00    -0.205 F 
ATOM     74  C   UNL A   1      42.492  35.286  26.621  1.00  0.00     0.022 A 
BRANCH  72  75
ATOM     75  S   UNL A   1      42.494  35.483  29.349  1.00  0.00     0.127 S 
ATOM     76  O   UNL A   1      43.506  36.377  29.913  1.00  0.00    -0.237 OA
ATOM     77  O   UNL A   1      41.264  36.148  28.921  1.00  0.00    -0.237 OA
ATOM     78  O   UNL A   1      42.293  34.235  30.074  1.00  0.00    -0.744 OA
ENDBRANCH  72  75
ENDBRANCH  54  68
BRANCH  55  79
ATOM     79  C   UNL A   1      53.476  28.846  25.457  1.00  0.00     0.023 A 
ATOM     80  C   UNL A   1      54.188  28.356  26.569  1.00  0.00     0.012 A 
ATOM     81  C   UNL A   1      53.976  28.606  24.162  1.00  0.00     0.148 A 
ATOM     82  C   UNL A   1      55.392  27.670  26.397  1.00  0.00     0.002 A 
ATOM     83  C   UNL A   1      55.144  27.872  23.995  1.00  0.00     0.091 A 
ATOM     84  F   UNL A   1      53.294  29.096  23.118  1.00  0.00    -0.205 F 
ATOM     85  C   UNL A   1      55.865  27.420  25.112  1.00  0.00     0.022 A 
BRANCH  83  86
ATOM     86  S   UNL A   1      55.760  27.391  22.378  1.00  0.00     0.127 S 
ATOM     87  O   UNL A   1      56.021  28.688  21.759  1.00  0.00    -0.237 OA
ATOM     88  O   UNL A   1      56.955  26.624  22.731  1.00  0.00    -0.237 OA
ATOM     89  O   UNL A   1      54.698  26.603  21.769  1.00  0.00    -0.744 OA
ENDBRANCH  83  86
ENDBRANCH  55  79
BRANCH  67  90
ATOM     90  C   UNL A   1      51.895  35.649  25.194  1.00  0.00     0.023 A 
ATOM     91  C   UNL A   1      52.289  35.999  23.887  1.00  0.00     0.012 A 
ATOM     92  C   UNL A   1      52.213  36.509  26.265  1.00  0.00     0.148 A 
ATOM     93  C   UNL A   1      53.018  37.166  23.655  1.00  0.00     0.002 A 
ATOM     94  C   UNL A   1      52.892  37.697  26.019  1.00  0.00     0.091 A 
ATOM     95  F   UNL A   1      51.843  36.153  27.503  1.00  0.00    -0.205 F 
ATOM     96  C   UNL A   1      53.309  38.020  24.717  1.00  0.00     0.022 A 
BRANCH  94  97
ATOM     97  S   UNL A   1      53.221  38.905  27.307  1.00  0.00     0.127 S 
ATOM     98  O   UNL A   1      53.984  39.918  26.578  1.00  0.00    -0.237 OA
ATOM     99  O   UNL A   1      51.872  39.319  27.694  1.00  0.00    -0.237 OA
ATOM    100  O   UNL A   1      53.958  38.198  28.344  1.00  0.00    -0.744 OA
ENDBRANCH  94  97
ENDBRANCH  67  90
ENDBRANCH  41  42
ENDBRANCH  34  36
ENDBRANCH  33  34
ENDBRANCH  32  33
ENDBRANCH  31  32
ENDBRANCH  30  31
ENDBRANCH  29  30
ENDBRANCH  28  29
ENDBRANCH   1  28
TORSDOF 26
ENDMDL
