MODEL 1
REMARK VINA RESULT:      -8.6      0.000      0.000
REMARK SMILES O=C(OCCOCCOCCOCCOC(=O)c1cc(-c2ccc(C(F)(F)F)cc2)cc([N+](=O)[O-])c1)c1ccc(-c2c3nc(c(-c4cccc(S(=O)(=O)[O-])c4F)c4ccc([nH]4)c(-c4cccc(S(=O)(=O)[O-])c4F)c4nc(c(-c5cccc(S(=O)(=O)[O-])c5F)c5ccc2[nH]5)C=C4)C=C3)cc1
REMARK SMILES IDX 8 1 7 2 6 3 5 4 4 5 3 6 2 7 1 8 37 9 38 10 99 11 39 12 98 13
REMARK SMILES IDX 40 14 41 15 42 16 92 17 43 18 97 19 91 20 93 21 44 22 96 23
REMARK SMILES IDX 90 24 89 25 45 27 77 28 57 29 76 30 58 31 61 32 75 33 94 34
REMARK SMILES IDX 59 35 60 36 74 38 95 39 62 40 46 41 47 42 55 43 48 44 50 45
REMARK SMILES IDX 56 46 49 47 51 48 52 49 53 50 54 51 78 52 79 53 87 54 80 55
REMARK SMILES IDX 82 56 88 57 81 58 83 59 84 60 85 61 86 62 63 63 64 64 72 65
REMARK SMILES IDX 65 66 67 67 73 68 66 69 68 70 69 71 70 72 71 73 9 74 10 75
REMARK SMILES IDX 11 76 12 77 13 78 14 79 15 80 16 81 17 82 18 83 19 84 36 85
REMARK SMILES IDX 20 86 32 87 31 88 21 89 22 90 30 91 23 92 29 93 24 94 25 95
REMARK SMILES IDX 26 96 27 97 28 98 33 99 34 100 35 101
REMARK H PARENT 93 26 61 37
REMARK Flexibility Score: inf
ROOT
ATOM      1  C   UNL A   1      37.658  32.798  37.286  1.00  0.00     0.188 C 
ENDROOT
BRANCH   1   2
ATOM      2  C   UNL A   1      37.379  31.844  38.452  1.00  0.00     0.188 C 
BRANCH   2   3
ATOM      3  O   UNL A   1      38.018  32.298  39.634  1.00  0.00    -0.376 OA
BRANCH   3   4
ATOM      4  C   UNL A   1      39.189  33.095  39.596  1.00  0.00     0.202 C 
BRANCH   4   5
ATOM      5  C   UNL A   1      39.118  34.523  40.131  1.00  0.00     0.261 C 
BRANCH   5   6
ATOM      6  O   UNL A   1      40.068  35.459  39.582  1.00  0.00    -0.460 OA
BRANCH   6   7
ATOM      7  C   UNL A   1      40.106  36.051  38.359  1.00  0.00     0.338 C 
ATOM      8  O   UNL A   1      39.652  37.184  38.228  1.00  0.00    -0.246 OA
BRANCH   7   9
ATOM      9  C   UNL A   1      40.682  35.370  37.175  1.00  0.00     0.060 A 
ATOM     10  C   UNL A   1      39.929  35.059  36.057  1.00  0.00     0.016 A 
ATOM     11  C   UNL A   1      42.053  35.111  37.119  1.00  0.00     0.016 A 
ATOM     12  C   UNL A   1      40.400  34.257  35.051  1.00  0.00     0.010 A 
ATOM     13  C   UNL A   1      42.597  34.454  36.007  1.00  0.00     0.010 A 
ATOM     14  C   UNL A   1      41.750  33.968  35.001  1.00  0.00    -0.014 A 
BRANCH  14  15
ATOM     15  C   UNL A   1      42.165  33.048  33.934  1.00  0.00     0.031 A 
ATOM     16  C   UNL A   1      42.535  33.642  32.614  1.00  0.00     0.074 A 
ATOM     17  C   UNL A   1      42.405  31.755  34.231  1.00  0.00     0.049 A 
ATOM     18  N   UNL A   1      42.913  33.043  31.523  1.00  0.00    -0.248 NA
ATOM     19  C   UNL A   1      42.494  35.114  32.512  1.00  0.00     0.031 C 
ATOM     20  C   UNL A   1      42.216  31.136  35.552  1.00  0.00     0.029 A 
ATOM     21  N   UNL A   1      42.899  30.738  33.463  1.00  0.00    -0.354 N 
ATOM     22  C   UNL A   1      43.094  34.054  30.590  1.00  0.00     0.074 A 
ATOM     23  C   UNL A   1      42.796  35.308  31.239  1.00  0.00     0.031 C 
ATOM     24  C   UNL A   1      42.605  29.854  35.501  1.00  0.00     0.029 A 
ATOM     25  C   UNL A   1      42.966  29.535  34.130  1.00  0.00     0.049 A 
ATOM     26  H   UNL A   1      43.179  30.853  32.526  1.00  0.00     0.167 HD
ATOM     27  C   UNL A   1      43.474  33.933  29.301  1.00  0.00     0.034 A 
ATOM     28  C   UNL A   1      43.227  28.304  33.655  1.00  0.00     0.034 A 
ATOM     29  C   UNL A   1      43.771  32.668  28.695  1.00  0.00     0.049 A 
ATOM     30  C   UNL A   1      43.548  28.189  32.192  1.00  0.00     0.074 A 
ATOM     31  C   UNL A   1      44.091  32.392  27.382  1.00  0.00     0.029 A 
ATOM     32  N   UNL A   1      43.779  31.459  29.380  1.00  0.00    -0.354 N 
ATOM     33  N   UNL A   1      43.676  29.144  31.299  1.00  0.00    -0.248 NA
ATOM     34  C   UNL A   1      43.772  26.839  31.669  1.00  0.00     0.031 C 
ATOM     35  C   UNL A   1      44.262  31.008  27.265  1.00  0.00     0.029 A 
ATOM     36  C   UNL A   1      44.095  30.430  28.516  1.00  0.00     0.049 A 
ATOM     37  H   UNL A   1      43.588  31.352  30.339  1.00  0.00     0.167 HD
ATOM     38  C   UNL A   1      44.019  28.513  30.113  1.00  0.00     0.074 A 
ATOM     39  C   UNL A   1      44.116  27.097  30.415  1.00  0.00     0.031 C 
ATOM     40  C   UNL A   1      44.217  29.040  28.880  1.00  0.00     0.034 A 
BRANCH  27  41
ATOM     41  C   UNL A   1      43.526  35.189  28.481  1.00  0.00     0.023 A 
ATOM     42  C   UNL A   1      42.353  35.710  27.897  1.00  0.00     0.012 A 
ATOM     43  C   UNL A   1      44.755  35.840  28.267  1.00  0.00     0.148 A 
ATOM     44  C   UNL A   1      42.410  36.845  27.088  1.00  0.00     0.002 A 
ATOM     45  C   UNL A   1      44.796  36.997  27.500  1.00  0.00     0.091 A 
ATOM     46  F   UNL A   1      45.862  35.304  28.800  1.00  0.00    -0.205 F 
ATOM     47  C   UNL A   1      43.628  37.493  26.899  1.00  0.00     0.022 A 
BRANCH  45  48
ATOM     48  S   UNL A   1      46.304  37.936  27.245  1.00  0.00     0.127 S 
ATOM     49  O   UNL A   1      45.785  39.181  26.680  1.00  0.00    -0.237 OA
ATOM     50  O   UNL A   1      46.819  38.053  28.609  1.00  0.00    -0.237 OA
ATOM     51  O   UNL A   1      47.128  37.145  26.343  1.00  0.00    -0.744 OA
ENDBRANCH  45  48
ENDBRANCH  27  41
BRANCH  28  52
ATOM     52  C   UNL A   1      43.121  27.104  34.535  1.00  0.00     0.023 A 
ATOM     53  C   UNL A   1      41.867  26.524  34.801  1.00  0.00     0.012 A 
ATOM     54  C   UNL A   1      44.270  26.545  35.135  1.00  0.00     0.148 A 
ATOM     55  C   UNL A   1      41.752  25.448  35.683  1.00  0.00     0.002 A 
ATOM     56  C   UNL A   1      44.157  25.435  35.963  1.00  0.00     0.091 A 
ATOM     57  F   UNL A   1      45.458  27.116  34.890  1.00  0.00    -0.205 F 
ATOM     58  C   UNL A   1      42.896  24.898  36.257  1.00  0.00     0.022 A 
BRANCH  56  59
ATOM     59  S   UNL A   1      45.591  24.592  36.639  1.00  0.00     0.127 S 
ATOM     60  O   UNL A   1      45.120  24.221  37.971  1.00  0.00    -0.237 OA
ATOM     61  O   UNL A   1      45.755  23.475  35.708  1.00  0.00    -0.237 OA
ATOM     62  O   UNL A   1      46.674  25.566  36.598  1.00  0.00    -0.744 OA
ENDBRANCH  56  59
ENDBRANCH  28  52
BRANCH  40  63
ATOM     63  C   UNL A   1      44.602  28.081  27.790  1.00  0.00     0.023 A 
ATOM     64  C   UNL A   1      45.948  27.968  27.393  1.00  0.00     0.012 A 
ATOM     65  C   UNL A   1      43.627  27.252  27.205  1.00  0.00     0.148 A 
ATOM     66  C   UNL A   1      46.312  27.072  26.391  1.00  0.00     0.002 A 
ATOM     67  C   UNL A   1      44.008  26.319  26.252  1.00  0.00     0.091 A 
ATOM     68  F   UNL A   1      42.350  27.394  27.588  1.00  0.00    -0.205 F 
ATOM     69  C   UNL A   1      45.345  26.240  25.831  1.00  0.00     0.022 A 
BRANCH  67  70
ATOM     70  S   UNL A   1      42.851  25.132  25.564  1.00  0.00     0.127 S 
ATOM     71  O   UNL A   1      41.902  26.007  24.876  1.00  0.00    -0.237 OA
ATOM     72  O   UNL A   1      43.708  24.345  24.677  1.00  0.00    -0.237 OA
ATOM     73  O   UNL A   1      42.312  24.392  26.696  1.00  0.00    -0.744 OA
ENDBRANCH  67  70
ENDBRANCH  40  63
ENDBRANCH  14  15
ENDBRANCH   7   9
ENDBRANCH   6   7
ENDBRANCH   5   6
ENDBRANCH   4   5
ENDBRANCH   3   4
ENDBRANCH   2   3
ENDBRANCH   1   2
BRANCH   1  74
ATOM     74  O   UNL A   1      37.088  32.419  36.033  1.00  0.00    -0.377 OA
BRANCH  74  75
ATOM     75  C   UNL A   1      37.913  31.619  35.186  1.00  0.00     0.188 C 
BRANCH  75  76
ATOM     76  C   UNL A   1      37.474  31.365  33.717  1.00  0.00     0.188 C 
BRANCH  76  77
ATOM     77  O   UNL A   1      38.119  30.259  33.115  1.00  0.00    -0.376 OA
BRANCH  77  78
ATOM     78  C   UNL A   1      39.447  30.446  32.648  1.00  0.00     0.202 C 
BRANCH  78  79
ATOM     79  C   UNL A   1      39.811  30.113  31.185  1.00  0.00     0.261 C 
BRANCH  79  80
ATOM     80  O   UNL A   1      38.856  30.456  30.162  1.00  0.00    -0.460 OA
BRANCH  80  81
ATOM     81  C   UNL A   1      37.980  29.521  29.738  1.00  0.00     0.338 C 
ATOM     82  O   UNL A   1      38.108  28.309  29.772  1.00  0.00    -0.246 OA
BRANCH  81  83
ATOM     83  C   UNL A   1      36.713  30.220  29.407  1.00  0.00     0.067 A 
ATOM     84  C   UNL A   1      36.343  31.369  30.138  1.00  0.00     0.025 A 
ATOM     85  C   UNL A   1      35.950  29.800  28.318  1.00  0.00     0.101 A 
ATOM     86  C   UNL A   1      35.248  32.158  29.739  1.00  0.00    -0.011 A 
ATOM     87  C   UNL A   1      34.805  30.531  27.979  1.00  0.00     0.270 A 
ATOM     88  C   UNL A   1      34.473  31.716  28.656  1.00  0.00     0.094 A 
BRANCH  86  89
ATOM     89  C   UNL A   1      34.863  33.370  30.474  1.00  0.00    -0.018 A 
ATOM     90  C   UNL A   1      33.926  34.296  29.984  1.00  0.00     0.009 A 
ATOM     91  C   UNL A   1      35.421  33.601  31.737  1.00  0.00     0.009 A 
ATOM     92  C   UNL A   1      33.563  35.420  30.744  1.00  0.00     0.014 A 
ATOM     93  C   UNL A   1      35.062  34.717  32.496  1.00  0.00     0.014 A 
ATOM     94  C   UNL A   1      34.128  35.640  32.011  1.00  0.00     0.056 A 
BRANCH  94  95
ATOM     95  C   UNL A   1      33.738  36.845  32.838  1.00  0.00     0.416 C 
ATOM     96  F   UNL A   1      34.308  37.997  32.392  1.00  0.00    -0.166 F 
ATOM     97  F   UNL A   1      32.393  37.065  32.837  1.00  0.00    -0.166 F 
ATOM     98  F   UNL A   1      34.091  36.736  34.151  1.00  0.00    -0.166 F 
ENDBRANCH  94  95
ENDBRANCH  86  89
BRANCH  87  99
ATOM     99  N   UNL A   1      33.905  30.022  26.938  1.00  0.00     0.062 N 
ATOM    100  O   UNL A   1      32.739  30.444  26.928  1.00  0.00    -0.258 OA
ATOM    101  O   UNL A   1      34.350  29.174  26.152  1.00  0.00    -0.258 OA
ENDBRANCH  87  99
ENDBRANCH  81  83
ENDBRANCH  80  81
ENDBRANCH  79  80
ENDBRANCH  78  79
ENDBRANCH  77  78
ENDBRANCH  76  77
ENDBRANCH  75  76
ENDBRANCH  74  75
ENDBRANCH   1  74
TORSDOF 26
ENDMDL
MODEL 2
REMARK VINA RESULT:      -8.2      2.689      3.785
REMARK SMILES O=C(OCCOCCOCCOCCOC(=O)c1cc(-c2ccc(C(F)(F)F)cc2)cc([N+](=O)[O-])c1)c1ccc(-c2c3nc(c(-c4cccc(S(=O)(=O)[O-])c4F)c4ccc([nH]4)c(-c4cccc(S(=O)(=O)[O-])c4F)c4nc(c(-c5cccc(S(=O)(=O)[O-])c5F)c5ccc2[nH]5)C=C4)C=C3)cc1
REMARK SMILES IDX 8 1 7 2 6 3 5 4 4 5 3 6 2 7 1 8 37 9 38 10 99 11 39 12 98 13
REMARK SMILES IDX 40 14 41 15 42 16 92 17 43 18 97 19 91 20 93 21 44 22 96 23
REMARK SMILES IDX 90 24 89 25 45 27 77 28 57 29 76 30 58 31 61 32 75 33 94 34
REMARK SMILES IDX 59 35 60 36 74 38 95 39 62 40 46 41 47 42 55 43 48 44 50 45
REMARK SMILES IDX 56 46 49 47 51 48 52 49 53 50 54 51 78 52 79 53 87 54 80 55
REMARK SMILES IDX 82 56 88 57 81 58 83 59 84 60 85 61 86 62 63 63 64 64 72 65
REMARK SMILES IDX 65 66 67 67 73 68 66 69 68 70 69 71 70 72 71 73 9 74 10 75
REMARK SMILES IDX 11 76 12 77 13 78 14 79 15 80 16 81 17 82 18 83 19 84 36 85
REMARK SMILES IDX 20 86 32 87 31 88 21 89 22 90 30 91 23 92 29 93 24 94 25 95
REMARK SMILES IDX 26 96 27 97 28 98 33 99 34 100 35 101
REMARK H PARENT 93 26 61 37
REMARK Flexibility Score: inf
ROOT
ATOM      1  C   UNL A   1      37.891  31.743  37.242  1.00  0.00     0.188 C 
ENDROOT
BRANCH   1   2
ATOM      2  C   UNL A   1      37.222  33.036  37.720  1.00  0.00     0.188 C 
BRANCH   2   3
ATOM      3  O   UNL A   1      37.551  33.299  39.074  1.00  0.00    -0.376 OA
BRANCH   3   4
ATOM      4  C   UNL A   1      38.857  33.093  39.583  1.00  0.00     0.202 C 
BRANCH   4   5
ATOM      5  C   UNL A   1      39.646  34.301  40.083  1.00  0.00     0.261 C 
BRANCH   5   6
ATOM      6  O   UNL A   1      39.285  35.578  39.515  1.00  0.00    -0.460 OA
BRANCH   6   7
ATOM      7  C   UNL A   1      39.828  36.254  38.469  1.00  0.00     0.338 C 
ATOM      8  O   UNL A   1      39.818  37.481  38.479  1.00  0.00    -0.246 OA
BRANCH   7   9
ATOM      9  C   UNL A   1      40.437  35.554  37.313  1.00  0.00     0.060 A 
ATOM     10  C   UNL A   1      39.742  35.308  36.142  1.00  0.00     0.016 A 
ATOM     11  C   UNL A   1      41.789  35.206  37.343  1.00  0.00     0.016 A 
ATOM     12  C   UNL A   1      40.226  34.492  35.154  1.00  0.00     0.010 A 
ATOM     13  C   UNL A   1      42.362  34.530  36.257  1.00  0.00     0.010 A 
ATOM     14  C   UNL A   1      41.555  34.115  35.189  1.00  0.00    -0.014 A 
BRANCH  14  15
ATOM     15  C   UNL A   1      41.981  33.185  34.134  1.00  0.00     0.031 A 
ATOM     16  C   UNL A   1      42.357  33.766  32.810  1.00  0.00     0.074 A 
ATOM     17  C   UNL A   1      42.224  31.896  34.447  1.00  0.00     0.049 A 
ATOM     18  N   UNL A   1      42.744  33.157  31.728  1.00  0.00    -0.248 NA
ATOM     19  C   UNL A   1      42.311  35.237  32.691  1.00  0.00     0.031 C 
ATOM     20  C   UNL A   1      42.029  31.292  35.774  1.00  0.00     0.029 A 
ATOM     21  N   UNL A   1      42.726  30.873  33.694  1.00  0.00    -0.354 N 
ATOM     22  C   UNL A   1      42.926  34.158  30.785  1.00  0.00     0.074 A 
ATOM     23  C   UNL A   1      42.620  35.418  31.419  1.00  0.00     0.031 C 
ATOM     24  C   UNL A   1      42.422  30.010  35.739  1.00  0.00     0.029 A 
ATOM     25  C   UNL A   1      42.793  29.678  34.373  1.00  0.00     0.049 A 
ATOM     26  H   UNL A   1      43.012  30.979  32.757  1.00  0.00     0.167 HD
ATOM     27  C   UNL A   1      43.315  34.024  29.500  1.00  0.00     0.034 A 
ATOM     28  C   UNL A   1      43.062  28.443  33.915  1.00  0.00     0.034 A 
ATOM     29  C   UNL A   1      43.621  32.753  28.910  1.00  0.00     0.049 A 
ATOM     30  C   UNL A   1      43.393  28.313  32.454  1.00  0.00     0.074 A 
ATOM     31  C   UNL A   1      43.950  32.465  27.602  1.00  0.00     0.029 A 
ATOM     32  N   UNL A   1      43.629  31.553  29.608  1.00  0.00    -0.354 N 
ATOM     33  N   UNL A   1      43.523  29.258  31.552  1.00  0.00    -0.248 NA
ATOM     34  C   UNL A   1      43.625  26.958  31.948  1.00  0.00     0.031 C 
ATOM     35  C   UNL A   1      44.127  31.080  27.502  1.00  0.00     0.029 A 
ATOM     36  C   UNL A   1      43.954  30.515  28.758  1.00  0.00     0.049 A 
ATOM     37  H   UNL A   1      43.432  31.455  30.567  1.00  0.00     0.167 HD
ATOM     38  C   UNL A   1      43.876  28.616  30.375  1.00  0.00     0.074 A 
ATOM     39  C   UNL A   1      43.976  27.203  30.693  1.00  0.00     0.031 C 
ATOM     40  C   UNL A   1      44.079  29.130  29.138  1.00  0.00     0.034 A 
BRANCH  27  41
ATOM     41  C   UNL A   1      43.367  35.271  28.666  1.00  0.00     0.023 A 
ATOM     42  C   UNL A   1      42.241  35.682  27.924  1.00  0.00     0.012 A 
ATOM     43  C   UNL A   1      44.554  36.024  28.599  1.00  0.00     0.148 A 
ATOM     44  C   UNL A   1      42.307  36.809  27.105  1.00  0.00     0.002 A 
ATOM     45  C   UNL A   1      44.597  37.172  27.819  1.00  0.00     0.091 A 
ATOM     46  F   UNL A   1      45.623  35.592  29.283  1.00  0.00    -0.205 F 
ATOM     47  C   UNL A   1      43.480  37.559  27.061  1.00  0.00     0.022 A 
BRANCH  45  48
ATOM     48  S   UNL A   1      46.041  38.236  27.742  1.00  0.00     0.127 S 
ATOM     49  O   UNL A   1      45.636  39.211  26.729  1.00  0.00    -0.237 OA
ATOM     50  O   UNL A   1      46.100  38.762  29.105  1.00  0.00    -0.237 OA
ATOM     51  O   UNL A   1      47.156  37.381  27.364  1.00  0.00    -0.744 OA
ENDBRANCH  45  48
ENDBRANCH  27  41
BRANCH  28  52
ATOM     52  C   UNL A   1      42.956  27.252  34.807  1.00  0.00     0.023 A 
ATOM     53  C   UNL A   1      41.734  26.566  34.935  1.00  0.00     0.012 A 
ATOM     54  C   UNL A   1      44.067  26.809  35.555  1.00  0.00     0.148 A 
ATOM     55  C   UNL A   1      41.606  25.497  35.826  1.00  0.00     0.002 A 
ATOM     56  C   UNL A   1      43.951  25.706  36.392  1.00  0.00     0.091 A 
ATOM     57  F   UNL A   1      45.222  27.480  35.440  1.00  0.00    -0.205 F 
ATOM     58  C   UNL A   1      42.716  25.062  36.547  1.00  0.00     0.022 A 
BRANCH  56  59
ATOM     59  S   UNL A   1      45.361  25.007  37.259  1.00  0.00     0.127 S 
ATOM     60  O   UNL A   1      45.296  25.701  38.543  1.00  0.00    -0.237 OA
ATOM     61  O   UNL A   1      45.014  23.586  37.306  1.00  0.00    -0.237 OA
ATOM     62  O   UNL A   1      46.521  25.311  36.431  1.00  0.00    -0.744 OA
ENDBRANCH  56  59
ENDBRANCH  28  52
BRANCH  40  63
ATOM     63  C   UNL A   1      44.475  28.160  28.061  1.00  0.00     0.023 A 
ATOM     64  C   UNL A   1      45.835  27.966  27.751  1.00  0.00     0.012 A 
ATOM     65  C   UNL A   1      43.491  27.401  27.401  1.00  0.00     0.148 A 
ATOM     66  C   UNL A   1      46.207  27.061  26.761  1.00  0.00     0.002 A 
ATOM     67  C   UNL A   1      43.875  26.456  26.461  1.00  0.00     0.091 A 
ATOM     68  F   UNL A   1      42.203  27.619  27.702  1.00  0.00    -0.205 F 
ATOM     69  C   UNL A   1      45.229  26.297  26.126  1.00  0.00     0.022 A 
BRANCH  67  70
ATOM     70  S   UNL A   1      42.694  25.353  25.681  1.00  0.00     0.127 S 
ATOM     71  O   UNL A   1      42.052  24.736  26.841  1.00  0.00    -0.237 OA
ATOM     72  O   UNL A   1      41.846  26.286  24.938  1.00  0.00    -0.237 OA
ATOM     73  O   UNL A   1      43.476  24.452  24.846  1.00  0.00    -0.744 OA
ENDBRANCH  67  70
ENDBRANCH  40  63
ENDBRANCH  14  15
ENDBRANCH   7   9
ENDBRANCH   6   7
ENDBRANCH   5   6
ENDBRANCH   4   5
ENDBRANCH   3   4
ENDBRANCH   2   3
ENDBRANCH   1   2
BRANCH   1  74
ATOM     74  O   UNL A   1      38.692  31.865  36.066  1.00  0.00    -0.377 OA
BRANCH  74  75
ATOM     75  C   UNL A   1      38.059  31.505  34.839  1.00  0.00     0.188 C 
BRANCH  75  76
ATOM     76  C   UNL A   1      38.766  30.503  33.884  1.00  0.00     0.188 C 
BRANCH  76  77
ATOM     77  O   UNL A   1      38.411  30.667  32.525  1.00  0.00    -0.376 OA
BRANCH  77  78
ATOM     78  C   UNL A   1      37.039  30.540  32.183  1.00  0.00     0.202 C 
BRANCH  78  79
ATOM     79  C   UNL A   1      36.610  29.628  31.012  1.00  0.00     0.261 C 
BRANCH  79  80
ATOM     80  O   UNL A   1      37.235  29.843  29.732  1.00  0.00    -0.460 OA
BRANCH  80  81
ATOM     81  C   UNL A   1      37.282  31.092  29.223  1.00  0.00     0.338 C 
ATOM     82  O   UNL A   1      38.270  31.778  29.017  1.00  0.00    -0.246 OA
BRANCH  81  83
ATOM     83  C   UNL A   1      35.917  31.427  28.745  1.00  0.00     0.067 A 
ATOM     84  C   UNL A   1      35.202  30.486  27.973  1.00  0.00     0.025 A 
ATOM     85  C   UNL A   1      35.313  32.620  29.141  1.00  0.00     0.101 A 
ATOM     86  C   UNL A   1      33.847  30.692  27.655  1.00  0.00    -0.011 A 
ATOM     87  C   UNL A   1      33.994  32.868  28.744  1.00  0.00     0.270 A 
ATOM     88  C   UNL A   1      33.254  31.904  28.039  1.00  0.00     0.094 A 
BRANCH  86  89
ATOM     89  C   UNL A   1      33.081  29.713  26.873  1.00  0.00    -0.018 A 
ATOM     90  C   UNL A   1      33.011  28.351  27.211  1.00  0.00     0.009 A 
ATOM     91  C   UNL A   1      32.355  30.156  25.760  1.00  0.00     0.009 A 
ATOM     92  C   UNL A   1      32.232  27.462  26.451  1.00  0.00     0.014 A 
ATOM     93  C   UNL A   1      31.579  29.275  25.003  1.00  0.00     0.014 A 
ATOM     94  C   UNL A   1      31.506  27.919  25.339  1.00  0.00     0.056 A 
BRANCH  94  95
ATOM     95  C   UNL A   1      30.660  26.970  24.519  1.00  0.00     0.416 C 
ATOM     96  F   UNL A   1      29.610  27.587  23.915  1.00  0.00    -0.166 F 
ATOM     97  F   UNL A   1      31.368  26.368  23.522  1.00  0.00    -0.166 F 
ATOM     98  F   UNL A   1      30.123  25.953  25.253  1.00  0.00    -0.166 F 
ENDBRANCH  94  95
ENDBRANCH  86  89
BRANCH  87  99
ATOM     99  N   UNL A   1      33.392  34.178  29.017  1.00  0.00     0.062 N 
ATOM    100  O   UNL A   1      33.598  34.686  30.129  1.00  0.00    -0.258 OA
ATOM    101  O   UNL A   1      32.684  34.684  28.136  1.00  0.00    -0.258 OA
ENDBRANCH  87  99
ENDBRANCH  81  83
ENDBRANCH  80  81
ENDBRANCH  79  80
ENDBRANCH  78  79
ENDBRANCH  77  78
ENDBRANCH  76  77
ENDBRANCH  75  76
ENDBRANCH  74  75
ENDBRANCH   1  74
TORSDOF 26
ENDMDL
MODEL 3
REMARK VINA RESULT:      -7.8      4.065      7.236
REMARK SMILES O=C(OCCOCCOCCOCCOC(=O)c1cc(-c2ccc(C(F)(F)F)cc2)cc([N+](=O)[O-])c1)c1ccc(-c2c3nc(c(-c4cccc(S(=O)(=O)[O-])c4F)c4ccc([nH]4)c(-c4cccc(S(=O)(=O)[O-])c4F)c4nc(c(-c5cccc(S(=O)(=O)[O-])c5F)c5ccc2[nH]5)C=C4)C=C3)cc1
REMARK SMILES IDX 8 1 7 2 6 3 5 4 4 5 3 6 2 7 1 8 37 9 38 10 99 11 39 12 98 13
REMARK SMILES IDX 40 14 41 15 42 16 92 17 43 18 97 19 91 20 93 21 44 22 96 23
REMARK SMILES IDX 90 24 89 25 45 27 77 28 57 29 76 30 58 31 61 32 75 33 94 34
REMARK SMILES IDX 59 35 60 36 74 38 95 39 62 40 46 41 47 42 55 43 48 44 50 45
REMARK SMILES IDX 56 46 49 47 51 48 52 49 53 50 54 51 78 52 79 53 87 54 80 55
REMARK SMILES IDX 82 56 88 57 81 58 83 59 84 60 85 61 86 62 63 63 64 64 72 65
REMARK SMILES IDX 65 66 67 67 73 68 66 69 68 70 69 71 70 72 71 73 9 74 10 75
REMARK SMILES IDX 11 76 12 77 13 78 14 79 15 80 16 81 17 82 18 83 19 84 36 85
REMARK SMILES IDX 20 86 32 87 31 88 21 89 22 90 30 91 23 92 29 93 24 94 25 95
REMARK SMILES IDX 26 96 27 97 28 98 33 99 34 100 35 101
REMARK H PARENT 93 26 61 37
REMARK Flexibility Score: inf
ROOT
ATOM      1  C   UNL A   1      40.471  36.878  42.048  1.00  0.00     0.188 C 
ENDROOT
BRANCH   1   2
ATOM      2  C   UNL A   1      39.762  36.676  40.705  1.00  0.00     0.188 C 
BRANCH   2   3
ATOM      3  O   UNL A   1      40.498  37.281  39.655  1.00  0.00    -0.376 OA
BRANCH   3   4
ATOM      4  C   UNL A   1      40.361  36.867  38.306  1.00  0.00     0.202 C 
BRANCH   4   5
ATOM      5  C   UNL A   1      41.563  36.233  37.611  1.00  0.00     0.261 C 
BRANCH   5   6
ATOM      6  O   UNL A   1      42.603  35.723  38.471  1.00  0.00    -0.460 OA
BRANCH   6   7
ATOM      7  C   UNL A   1      42.919  34.441  38.795  1.00  0.00     0.338 C 
ATOM      8  O   UNL A   1      43.213  34.172  39.956  1.00  0.00    -0.246 OA
BRANCH   7   9
ATOM      9  C   UNL A   1      42.915  33.353  37.788  1.00  0.00     0.060 A 
ATOM     10  C   UNL A   1      43.987  33.116  36.946  1.00  0.00     0.016 A 
ATOM     11  C   UNL A   1      41.844  32.459  37.732  1.00  0.00     0.016 A 
ATOM     12  C   UNL A   1      43.915  32.252  35.886  1.00  0.00     0.010 A 
ATOM     13  C   UNL A   1      41.832  31.440  36.770  1.00  0.00     0.010 A 
ATOM     14  C   UNL A   1      42.845  31.383  35.802  1.00  0.00    -0.014 A 
BRANCH  14  15
ATOM     15  C   UNL A   1      42.804  30.536  34.602  1.00  0.00     0.031 A 
ATOM     16  C   UNL A   1      41.936  30.983  33.470  1.00  0.00     0.074 A 
ATOM     17  C   UNL A   1      43.690  29.529  34.472  1.00  0.00     0.049 A 
ATOM     18  N   UNL A   1      41.721  30.405  32.325  1.00  0.00    -0.248 NA
ATOM     19  C   UNL A   1      41.228  32.266  33.641  1.00  0.00     0.031 C 
ATOM     20  C   UNL A   1      44.684  29.134  35.483  1.00  0.00     0.029 A 
ATOM     21  N   UNL A   1      43.933  28.681  33.428  1.00  0.00    -0.354 N 
ATOM     22  C   UNL A   1      40.809  31.217  31.667  1.00  0.00     0.074 A 
ATOM     23  C   UNL A   1      40.515  32.335  32.530  1.00  0.00     0.031 C 
ATOM     24  C   UNL A   1      45.435  28.134  34.999  1.00  0.00     0.029 A 
ATOM     25  C   UNL A   1      44.911  27.751  33.699  1.00  0.00     0.049 A 
ATOM     26  H   UNL A   1      43.457  28.731  32.568  1.00  0.00     0.167 HD
ATOM     27  C   UNL A   1      40.268  31.032  30.444  1.00  0.00     0.034 A 
ATOM     28  C   UNL A   1      45.285  26.669  32.993  1.00  0.00     0.034 A 
ATOM     29  C   UNL A   1      40.595  29.911  29.613  1.00  0.00     0.049 A 
ATOM     30  C   UNL A   1      44.591  26.435  31.681  1.00  0.00     0.074 A 
ATOM     31  C   UNL A   1      40.063  29.559  28.389  1.00  0.00     0.029 A 
ATOM     32  N   UNL A   1      41.549  28.954  29.934  1.00  0.00    -0.354 N 
ATOM     33  N   UNL A   1      43.695  27.181  31.078  1.00  0.00    -0.248 NA
ATOM     34  C   UNL A   1      44.960  25.222  30.945  1.00  0.00     0.031 C 
ATOM     35  C   UNL A   1      40.676  28.367  27.984  1.00  0.00     0.029 A 
ATOM     36  C   UNL A   1      41.622  28.006  28.934  1.00  0.00     0.049 A 
ATOM     37  H   UNL A   1      42.093  28.952  30.755  1.00  0.00     0.167 HD
ATOM     38  C   UNL A   1      43.410  26.544  29.881  1.00  0.00     0.074 A 
ATOM     39  C   UNL A   1      44.259  25.369  29.830  1.00  0.00     0.031 C 
ATOM     40  C   UNL A   1      42.517  26.876  28.916  1.00  0.00     0.034 A 
BRANCH  27  41
ATOM     41  C   UNL A   1      39.244  32.031  29.990  1.00  0.00     0.023 A 
ATOM     42  C   UNL A   1      39.629  33.344  29.650  1.00  0.00     0.012 A 
ATOM     43  C   UNL A   1      37.886  31.668  29.927  1.00  0.00     0.148 A 
ATOM     44  C   UNL A   1      38.671  34.288  29.282  1.00  0.00     0.002 A 
ATOM     45  C   UNL A   1      36.944  32.600  29.514  1.00  0.00     0.091 A 
ATOM     46  F   UNL A   1      37.540  30.426  30.293  1.00  0.00    -0.205 F 
ATOM     47  C   UNL A   1      37.331  33.914  29.205  1.00  0.00     0.022 A 
BRANCH  45  48
ATOM     48  S   UNL A   1      35.204  32.200  29.325  1.00  0.00     0.127 S 
ATOM     49  O   UNL A   1      34.769  32.108  30.719  1.00  0.00    -0.237 OA
ATOM     50  O   UNL A   1      34.703  33.370  28.606  1.00  0.00    -0.237 OA
ATOM     51  O   UNL A   1      35.153  30.951  28.580  1.00  0.00    -0.744 OA
ENDBRANCH  45  48
ENDBRANCH  27  41
BRANCH  28  52
ATOM     52  C   UNL A   1      46.290  25.708  33.535  1.00  0.00     0.023 A 
ATOM     53  C   UNL A   1      47.654  25.851  33.218  1.00  0.00     0.012 A 
ATOM     54  C   UNL A   1      45.891  24.629  34.351  1.00  0.00     0.148 A 
ATOM     55  C   UNL A   1      48.590  24.913  33.659  1.00  0.00     0.002 A 
ATOM     56  C   UNL A   1      46.835  23.735  34.840  1.00  0.00     0.091 A 
ATOM     57  F   UNL A   1      44.587  24.492  34.633  1.00  0.00    -0.205 F 
ATOM     58  C   UNL A   1      48.183  23.861  34.475  1.00  0.00     0.022 A 
BRANCH  56  59
ATOM     59  S   UNL A   1      46.411  22.428  35.997  1.00  0.00     0.127 S 
ATOM     60  O   UNL A   1      47.141  21.291  35.444  1.00  0.00    -0.237 OA
ATOM     61  O   UNL A   1      46.944  22.952  37.255  1.00  0.00    -0.237 OA
ATOM     62  O   UNL A   1      44.958  22.329  35.961  1.00  0.00    -0.744 OA
ENDBRANCH  56  59
ENDBRANCH  28  52
BRANCH  40  63
ATOM     63  C   UNL A   1      42.458  25.977  27.714  1.00  0.00     0.023 A 
ATOM     64  C   UNL A   1      43.235  26.271  26.576  1.00  0.00     0.012 A 
ATOM     65  C   UNL A   1      41.673  24.811  27.743  1.00  0.00     0.148 A 
ATOM     66  C   UNL A   1      43.192  25.436  25.462  1.00  0.00     0.002 A 
ATOM     67  C   UNL A   1      41.685  23.952  26.655  1.00  0.00     0.091 A 
ATOM     68  F   UNL A   1      40.929  24.566  28.832  1.00  0.00    -0.205 F 
ATOM     69  C   UNL A   1      42.428  24.271  25.507  1.00  0.00     0.022 A 
BRANCH  67  70
ATOM     70  S   UNL A   1      40.823  22.377  26.672  1.00  0.00     0.127 S 
ATOM     71  O   UNL A   1      39.449  22.788  26.389  1.00  0.00    -0.237 OA
ATOM     72  O   UNL A   1      41.481  21.655  25.584  1.00  0.00    -0.237 OA
ATOM     73  O   UNL A   1      41.047  21.811  27.995  1.00  0.00    -0.744 OA
ENDBRANCH  67  70
ENDBRANCH  40  63
ENDBRANCH  14  15
ENDBRANCH   7   9
ENDBRANCH   6   7
ENDBRANCH   5   6
ENDBRANCH   4   5
ENDBRANCH   3   4
ENDBRANCH   2   3
ENDBRANCH   1   2
BRANCH   1  74
ATOM     74  O   UNL A   1      39.614  36.960  43.188  1.00  0.00    -0.377 OA
BRANCH  74  75
ATOM     75  C   UNL A   1      40.266  37.053  44.454  1.00  0.00     0.188 C 
BRANCH  75  76
ATOM     76  C   UNL A   1      39.883  36.053  45.581  1.00  0.00     0.188 C 
BRANCH  76  77
ATOM     77  O   UNL A   1      40.695  34.896  45.613  1.00  0.00    -0.376 OA
BRANCH  77  78
ATOM     78  C   UNL A   1      40.193  33.721  44.993  1.00  0.00     0.202 C 
BRANCH  78  79
ATOM     79  C   UNL A   1      40.962  33.068  43.824  1.00  0.00     0.261 C 
BRANCH  79  80
ATOM     80  O   UNL A   1      40.654  33.511  42.488  1.00  0.00    -0.460 OA
BRANCH  80  81
ATOM     81  C   UNL A   1      40.489  32.595  41.511  1.00  0.00     0.338 C 
ATOM     82  O   UNL A   1      41.186  31.622  41.275  1.00  0.00    -0.246 OA
BRANCH  81  83
ATOM     83  C   UNL A   1      39.169  32.852  40.882  1.00  0.00     0.067 A 
ATOM     84  C   UNL A   1      39.108  33.197  39.515  1.00  0.00     0.025 A 
ATOM     85  C   UNL A   1      37.998  32.656  41.614  1.00  0.00     0.101 A 
ATOM     86  C   UNL A   1      37.874  33.273  38.844  1.00  0.00    -0.011 A 
ATOM     87  C   UNL A   1      36.767  32.824  40.970  1.00  0.00     0.270 A 
ATOM     88  C   UNL A   1      36.700  33.095  39.592  1.00  0.00     0.094 A 
BRANCH  86  89
ATOM     89  C   UNL A   1      37.792  33.608  37.416  1.00  0.00    -0.018 A 
ATOM     90  C   UNL A   1      38.876  34.129  36.689  1.00  0.00     0.009 A 
ATOM     91  C   UNL A   1      36.594  33.364  36.732  1.00  0.00     0.009 A 
ATOM     92  C   UNL A   1      38.756  34.396  35.315  1.00  0.00     0.014 A 
ATOM     93  C   UNL A   1      36.472  33.628  35.366  1.00  0.00     0.014 A 
ATOM     94  C   UNL A   1      37.551  34.145  34.640  1.00  0.00     0.056 A 
BRANCH  94  95
ATOM     95  C   UNL A   1      37.416  34.424  33.159  1.00  0.00     0.416 C 
ATOM     96  F   UNL A   1      36.449  35.339  32.881  1.00  0.00    -0.166 F 
ATOM     97  F   UNL A   1      38.565  34.914  32.614  1.00  0.00    -0.166 F 
ATOM     98  F   UNL A   1      37.105  33.317  32.426  1.00  0.00    -0.166 F 
ENDBRANCH  94  95
ENDBRANCH  86  89
BRANCH  87  99
ATOM     99  N   UNL A   1      35.528  32.775  41.753  1.00  0.00     0.062 N 
ATOM    100  O   UNL A   1      34.853  31.737  41.697  1.00  0.00    -0.258 OA
ATOM    101  O   UNL A   1      35.210  33.784  42.396  1.00  0.00    -0.258 OA
ENDBRANCH  87  99
ENDBRANCH  81  83
ENDBRANCH  80  81
ENDBRANCH  79  80
ENDBRANCH  78  79
ENDBRANCH  77  78
ENDBRANCH  76  77
ENDBRANCH  75  76
ENDBRANCH  74  75
ENDBRANCH   1  74
TORSDOF 26
ENDMDL
