MODEL 1
REMARK VINA RESULT:     -11.2      0.000      0.000
REMARK SMILES O=C(OCCOCCOCCOCCOC(=O)c1ccc([C@@H]2CC(O)=Nc3c2ncn3-c2cccc(Cl)c2)cc1)c1ccc(-c2c3nc(c(-c4cccc(S(=O)(=O)[O-])c4F)c4ccc([nH]4)c(-c4cccc(S(=O)(=O)[O-])c4F)c4nc(c(-c5cccc(S(=O)(=O)[O-])c5F)c5ccc2[nH]5)C=C4)C=C3)cc1
REMARK SMILES IDX 8 1 7 2 6 3 5 4 4 5 3 6 2 7 1 8 41 9 42 10 103 11 43 12
REMARK SMILES IDX 102 13 44 14 45 15 46 16 96 17 47 18 101 19 95 20 97 21
REMARK SMILES IDX 48 22 100 23 94 24 93 25 49 27 81 28 61 29 80 30 62 31 65 32
REMARK SMILES IDX 79 33 98 34 63 35 64 36 78 38 99 39 66 40 50 41 51 42 59 43
REMARK SMILES IDX 52 44 54 45 60 46 53 47 55 48 56 49 57 50 58 51 82 52 83 53
REMARK SMILES IDX 91 54 84 55 86 56 92 57 85 58 87 59 88 60 89 61 90 62 67 63
REMARK SMILES IDX 68 64 76 65 69 66 71 67 77 68 70 69 72 70 73 71 74 72 75 73
REMARK SMILES IDX 9 74 10 75 11 76 12 77 13 78 14 79 15 80 16 81 17 82 18 83
REMARK SMILES IDX 19 84 40 85 20 86 39 87 21 88 22 89 23 90 28 91 24 92 27 93
REMARK SMILES IDX 29 94 26 95 31 96 30 97 25 98 32 100 33 101 38 102 34 103
REMARK SMILES IDX 36 104 35 105 37 106
REMARK H PARENT 97 26 65 37 25 99
REMARK Flexibility Score: inf
ROOT
ATOM      1  C   UNL A   1      39.360  22.339  26.105  1.00  0.00     0.188 C 
ENDROOT
BRANCH   1   2
ATOM      2  C   UNL A   1      40.159  21.851  27.322  1.00  0.00     0.188 C 
BRANCH   2   3
ATOM      3  O   UNL A   1      40.748  20.566  27.486  1.00  0.00    -0.376 OA
BRANCH   3   4
ATOM      4  C   UNL A   1      40.889  19.524  26.551  1.00  0.00     0.202 C 
BRANCH   4   5
ATOM      5  C   UNL A   1      42.242  18.871  26.261  1.00  0.00     0.261 C 
BRANCH   5   6
ATOM      6  O   UNL A   1      42.884  19.217  25.040  1.00  0.00    -0.460 OA
BRANCH   6   7
ATOM      7  C   UNL A   1      44.116  19.741  24.854  1.00  0.00     0.338 C 
ATOM      8  O   UNL A   1      45.034  18.981  24.550  1.00  0.00    -0.246 OA
BRANCH   7   9
ATOM      9  C   UNL A   1      44.444  21.161  25.146  1.00  0.00     0.060 A 
ATOM     10  C   UNL A   1      45.700  21.632  25.538  1.00  0.00     0.016 A 
ATOM     11  C   UNL A   1      43.369  22.067  25.061  1.00  0.00     0.016 A 
ATOM     12  C   UNL A   1      45.865  22.935  25.950  1.00  0.00     0.010 A 
ATOM     13  C   UNL A   1      43.523  23.380  25.478  1.00  0.00     0.010 A 
ATOM     14  C   UNL A   1      44.751  23.758  26.016  1.00  0.00    -0.014 A 
BRANCH  14  15
ATOM     15  C   UNL A   1      44.877  24.879  26.930  1.00  0.00     0.031 A 
ATOM     16  C   UNL A   1      46.057  25.761  26.783  1.00  0.00     0.074 A 
ATOM     17  C   UNL A   1      43.935  25.022  27.883  1.00  0.00     0.049 A 
ATOM     18  N   UNL A   1      46.941  26.069  27.680  1.00  0.00    -0.248 NA
ATOM     19  C   UNL A   1      46.330  26.308  25.448  1.00  0.00     0.031 C 
ATOM     20  C   UNL A   1      42.652  24.311  27.977  1.00  0.00     0.029 A 
ATOM     21  N   UNL A   1      43.848  25.955  28.868  1.00  0.00    -0.354 N 
ATOM     22  C   UNL A   1      47.753  27.028  27.081  1.00  0.00     0.074 A 
ATOM     23  C   UNL A   1      47.422  27.035  25.678  1.00  0.00     0.031 C 
ATOM     24  C   UNL A   1      41.808  25.036  28.734  1.00  0.00     0.029 A 
ATOM     25  C   UNL A   1      42.538  26.165  29.276  1.00  0.00     0.049 A 
ATOM     26  H   UNL A   1      44.624  26.427  29.250  1.00  0.00     0.167 HD
ATOM     27  C   UNL A   1      48.477  27.924  27.802  1.00  0.00     0.034 A 
ATOM     28  C   UNL A   1      42.058  27.270  29.885  1.00  0.00     0.034 A 
ATOM     29  C   UNL A   1      48.703  27.511  29.157  1.00  0.00     0.049 A 
ATOM     30  C   UNL A   1      43.199  27.972  30.511  1.00  0.00     0.074 A 
ATOM     31  C   UNL A   1      49.334  26.448  29.768  1.00  0.00     0.029 A 
ATOM     32  N   UNL A   1      47.971  28.127  30.140  1.00  0.00    -0.354 N 
ATOM     33  N   UNL A   1      43.893  27.483  31.504  1.00  0.00    -0.248 NA
ATOM     34  C   UNL A   1      43.838  29.050  29.778  1.00  0.00     0.031 C 
ATOM     35  C   UNL A   1      48.598  26.214  30.965  1.00  0.00     0.029 A 
ATOM     36  C   UNL A   1      47.565  27.152  31.012  1.00  0.00     0.049 A 
ATOM     37  H   UNL A   1      47.775  29.090  30.207  1.00  0.00     0.167 HD
ATOM     38  C   UNL A   1      45.198  27.887  31.255  1.00  0.00     0.074 A 
ATOM     39  C   UNL A   1      45.077  28.953  30.265  1.00  0.00     0.031 C 
ATOM     40  C   UNL A   1      46.265  27.127  31.650  1.00  0.00     0.034 A 
BRANCH  27  41
ATOM     41  C   UNL A   1      48.708  29.342  27.352  1.00  0.00     0.023 A 
ATOM     42  C   UNL A   1      50.027  29.838  27.324  1.00  0.00     0.012 A 
ATOM     43  C   UNL A   1      47.661  30.280  27.198  1.00  0.00     0.148 A 
ATOM     44  C   UNL A   1      50.288  31.203  27.156  1.00  0.00     0.002 A 
ATOM     45  C   UNL A   1      47.928  31.618  26.942  1.00  0.00     0.091 A 
ATOM     46  F   UNL A   1      46.395  29.914  27.432  1.00  0.00    -0.205 F 
ATOM     47  C   UNL A   1      49.239  32.093  26.945  1.00  0.00     0.022 A 
BRANCH  45  48
ATOM     48  S   UNL A   1      46.587  32.755  26.584  1.00  0.00     0.127 S 
ATOM     49  O   UNL A   1      47.296  33.858  25.942  1.00  0.00    -0.237 OA
ATOM     50  O   UNL A   1      45.736  31.964  25.695  1.00  0.00    -0.237 OA
ATOM     51  O   UNL A   1      45.988  33.031  27.885  1.00  0.00    -0.744 OA
ENDBRANCH  45  48
ENDBRANCH  27  41
BRANCH  28  52
ATOM     52  C   UNL A   1      40.731  27.881  29.658  1.00  0.00     0.023 A 
ATOM     53  C   UNL A   1      40.190  27.920  28.364  1.00  0.00     0.012 A 
ATOM     54  C   UNL A   1      39.901  28.258  30.744  1.00  0.00     0.148 A 
ATOM     55  C   UNL A   1      38.865  28.322  28.154  1.00  0.00     0.002 A 
ATOM     56  C   UNL A   1      38.598  28.688  30.528  1.00  0.00     0.091 A 
ATOM     57  F   UNL A   1      40.358  28.112  31.995  1.00  0.00    -0.205 F 
ATOM     58  C   UNL A   1      38.072  28.711  29.233  1.00  0.00     0.022 A 
BRANCH  56  59
ATOM     59  S   UNL A   1      37.541  29.229  31.878  1.00  0.00     0.127 S 
ATOM     60  O   UNL A   1      36.261  29.441  31.200  1.00  0.00    -0.237 OA
ATOM     61  O   UNL A   1      37.575  28.077  32.774  1.00  0.00    -0.237 OA
ATOM     62  O   UNL A   1      38.150  30.452  32.388  1.00  0.00    -0.744 OA
ENDBRANCH  56  59
ENDBRANCH  28  52
BRANCH  40  63
ATOM     63  C   UNL A   1      46.001  25.947  32.560  1.00  0.00     0.023 A 
ATOM     64  C   UNL A   1      45.284  24.822  32.100  1.00  0.00     0.012 A 
ATOM     65  C   UNL A   1      46.644  25.872  33.808  1.00  0.00     0.148 A 
ATOM     66  C   UNL A   1      45.182  23.664  32.872  1.00  0.00     0.002 A 
ATOM     67  C   UNL A   1      46.577  24.700  34.557  1.00  0.00     0.091 A 
ATOM     68  F   UNL A   1      47.343  26.937  34.229  1.00  0.00    -0.205 F 
ATOM     69  C   UNL A   1      45.839  23.597  34.097  1.00  0.00     0.022 A 
BRANCH  67  70
ATOM     70  S   UNL A   1      47.508  24.492  36.080  1.00  0.00     0.127 S 
ATOM     71  O   UNL A   1      48.756  25.187  35.774  1.00  0.00    -0.237 OA
ATOM     72  O   UNL A   1      46.659  25.167  37.064  1.00  0.00    -0.237 OA
ATOM     73  O   UNL A   1      47.621  23.054  36.283  1.00  0.00    -0.744 OA
ENDBRANCH  67  70
ENDBRANCH  40  63
ENDBRANCH  14  15
ENDBRANCH   7   9
ENDBRANCH   6   7
ENDBRANCH   5   6
ENDBRANCH   4   5
ENDBRANCH   3   4
ENDBRANCH   2   3
ENDBRANCH   1   2
BRANCH   1  74
ATOM     74  O   UNL A   1      38.103  21.718  25.893  1.00  0.00    -0.377 OA
BRANCH  74  75
ATOM     75  C   UNL A   1      37.250  22.408  25.012  1.00  0.00     0.188 C 
BRANCH  75  76
ATOM     76  C   UNL A   1      36.134  23.214  25.709  1.00  0.00     0.188 C 
BRANCH  76  77
ATOM     77  O   UNL A   1      35.040  22.589  26.363  1.00  0.00    -0.376 OA
BRANCH  77  78
ATOM     78  C   UNL A   1      34.640  21.277  26.012  1.00  0.00     0.202 C 
BRANCH  78  79
ATOM     79  C   UNL A   1      33.461  21.096  25.045  1.00  0.00     0.261 C 
BRANCH  79  80
ATOM     80  O   UNL A   1      33.700  21.498  23.689  1.00  0.00    -0.460 OA
BRANCH  80  81
ATOM     81  C   UNL A   1      32.604  21.871  22.976  1.00  0.00     0.338 C 
ATOM     82  O   UNL A   1      31.962  21.203  22.197  1.00  0.00    -0.246 OA
BRANCH  81  83
ATOM     83  C   UNL A   1      32.175  23.212  23.432  1.00  0.00     0.060 A 
ATOM     84  C   UNL A   1      30.803  23.470  23.514  1.00  0.00     0.016 A 
ATOM     85  C   UNL A   1      33.096  24.198  23.787  1.00  0.00     0.016 A 
ATOM     86  C   UNL A   1      30.351  24.701  23.980  1.00  0.00     0.005 A 
ATOM     87  C   UNL A   1      32.637  25.458  24.191  1.00  0.00     0.005 A 
ATOM     88  C   UNL A   1      31.260  25.726  24.299  1.00  0.00    -0.038 A 
BRANCH  88  89
ATOM     89  C   UNL A   1      30.668  27.101  24.583  1.00  0.00     0.081 C 
ATOM     90  C   UNL A   1      30.812  27.995  23.333  1.00  0.00     0.111 C 
ATOM     91  C   UNL A   1      31.345  27.712  25.748  1.00  0.00     0.093 A 
ATOM     92  C   UNL A   1      31.979  28.967  23.397  1.00  0.00     0.188 C 
ATOM     93  C   UNL A   1      32.163  28.811  25.606  1.00  0.00     0.164 A 
ATOM     94  N   UNL A   1      31.283  27.287  27.044  1.00  0.00    -0.238 NA
ATOM     95  N   UNL A   1      32.565  29.415  24.460  1.00  0.00    -0.198 NA
ATOM     96  N   UNL A   1      32.644  29.071  26.876  1.00  0.00    -0.283 N 
ATOM     97  C   UNL A   1      32.108  28.090  27.688  1.00  0.00     0.206 A 
BRANCH  92  98
ATOM     98  O   UNL A   1      32.371  29.443  22.200  1.00  0.00    -0.496 OA
ATOM     99  H   UNL A   1      33.222  29.235  21.869  1.00  0.00     0.294 HD
ENDBRANCH  92  98
BRANCH  96 100
ATOM    100  C   UNL A   1      33.525  30.107  27.261  1.00  0.00     0.050 A 
ATOM    101  C   UNL A   1      34.894  29.849  27.400  1.00  0.00     0.027 A 
ATOM    102  C   UNL A   1      33.024  31.397  27.483  1.00  0.00     0.047 A 
ATOM    103  C   UNL A   1      35.764  30.895  27.715  1.00  0.00     0.004 A 
ATOM    104  C   UNL A   1      33.896  32.420  27.844  1.00  0.00     0.043 A 
ATOM    105  C   UNL A   1      35.265  32.179  27.945  1.00  0.00     0.020 A 
ATOM    106  Cl  UNL A   1      33.278  33.991  28.182  1.00  0.00    -0.084 Cl
ENDBRANCH  96 100
ENDBRANCH  88  89
ENDBRANCH  81  83
ENDBRANCH  80  81
ENDBRANCH  79  80
ENDBRANCH  78  79
ENDBRANCH  77  78
ENDBRANCH  76  77
ENDBRANCH  75  76
ENDBRANCH  74  75
ENDBRANCH   1  74
TORSDOF 26
ENDMDL
MODEL 2
REMARK VINA RESULT:     -11.2      4.003      8.334
REMARK SMILES O=C(OCCOCCOCCOCCOC(=O)c1ccc([C@@H]2CC(O)=Nc3c2ncn3-c2cccc(Cl)c2)cc1)c1ccc(-c2c3nc(c(-c4cccc(S(=O)(=O)[O-])c4F)c4ccc([nH]4)c(-c4cccc(S(=O)(=O)[O-])c4F)c4nc(c(-c5cccc(S(=O)(=O)[O-])c5F)c5ccc2[nH]5)C=C4)C=C3)cc1
REMARK SMILES IDX 8 1 7 2 6 3 5 4 4 5 3 6 2 7 1 8 41 9 42 10 103 11 43 12
REMARK SMILES IDX 102 13 44 14 45 15 46 16 96 17 47 18 101 19 95 20 97 21
REMARK SMILES IDX 48 22 100 23 94 24 93 25 49 27 81 28 61 29 80 30 62 31 65 32
REMARK SMILES IDX 79 33 98 34 63 35 64 36 78 38 99 39 66 40 50 41 51 42 59 43
REMARK SMILES IDX 52 44 54 45 60 46 53 47 55 48 56 49 57 50 58 51 82 52 83 53
REMARK SMILES IDX 91 54 84 55 86 56 92 57 85 58 87 59 88 60 89 61 90 62 67 63
REMARK SMILES IDX 68 64 76 65 69 66 71 67 77 68 70 69 72 70 73 71 74 72 75 73
REMARK SMILES IDX 9 74 10 75 11 76 12 77 13 78 14 79 15 80 16 81 17 82 18 83
REMARK SMILES IDX 19 84 40 85 20 86 39 87 21 88 22 89 23 90 28 91 24 92 27 93
REMARK SMILES IDX 29 94 26 95 31 96 30 97 25 98 32 100 33 101 38 102 34 103
REMARK SMILES IDX 36 104 35 105 37 106
REMARK H PARENT 97 26 65 37 25 99
REMARK Flexibility Score: inf
ROOT
ATOM      1  C   UNL A   1      36.823  18.841  24.672  1.00  0.00     0.188 C 
ENDROOT
BRANCH   1   2
ATOM      2  C   UNL A   1      37.659  20.084  25.010  1.00  0.00     0.188 C 
BRANCH   2   3
ATOM      3  O   UNL A   1      37.292  21.439  24.772  1.00  0.00    -0.376 OA
BRANCH   3   4
ATOM      4  C   UNL A   1      36.944  22.442  25.693  1.00  0.00     0.202 C 
BRANCH   4   5
ATOM      5  C   UNL A   1      37.785  23.709  25.871  1.00  0.00     0.261 C 
BRANCH   5   6
ATOM      6  O   UNL A   1      39.064  23.564  26.475  1.00  0.00    -0.460 OA
BRANCH   6   7
ATOM      7  C   UNL A   1      39.988  24.516  26.732  1.00  0.00     0.338 C 
ATOM      8  O   UNL A   1      41.162  24.283  26.444  1.00  0.00    -0.246 OA
BRANCH   7   9
ATOM      9  C   UNL A   1      39.679  25.763  27.478  1.00  0.00     0.060 A 
ATOM     10  C   UNL A   1      39.877  27.059  26.995  1.00  0.00     0.016 A 
ATOM     11  C   UNL A   1      39.201  25.587  28.791  1.00  0.00     0.016 A 
ATOM     12  C   UNL A   1      39.722  28.149  27.822  1.00  0.00     0.010 A 
ATOM     13  C   UNL A   1      39.046  26.678  29.633  1.00  0.00     0.010 A 
ATOM     14  C   UNL A   1      39.414  27.934  29.157  1.00  0.00    -0.014 A 
BRANCH  14  15
ATOM     15  C   UNL A   1      39.790  29.015  30.048  1.00  0.00     0.031 A 
ATOM     16  C   UNL A   1      38.745  29.993  30.429  1.00  0.00     0.074 A 
ATOM     17  C   UNL A   1      41.077  29.087  30.442  1.00  0.00     0.049 A 
ATOM     18  N   UNL A   1      38.768  31.281  30.288  1.00  0.00    -0.248 NA
ATOM     19  C   UNL A   1      37.484  29.461  30.962  1.00  0.00     0.031 C 
ATOM     20  C   UNL A   1      42.118  28.065  30.264  1.00  0.00     0.029 A 
ATOM     21  N   UNL A   1      41.680  30.012  31.234  1.00  0.00    -0.354 N 
ATOM     22  C   UNL A   1      37.617  31.739  30.924  1.00  0.00     0.074 A 
ATOM     23  C   UNL A   1      36.803  30.582  31.195  1.00  0.00     0.031 C 
ATOM     24  C   UNL A   1      43.088  28.269  31.174  1.00  0.00     0.029 A 
ATOM     25  C   UNL A   1      42.796  29.499  31.883  1.00  0.00     0.049 A 
ATOM     26  H   UNL A   1      41.364  30.939  31.337  1.00  0.00     0.167 HD
ATOM     27  C   UNL A   1      37.503  33.007  31.402  1.00  0.00     0.034 A 
ATOM     28  C   UNL A   1      43.347  29.972  33.020  1.00  0.00     0.034 A 
ATOM     29  C   UNL A   1      38.428  33.925  30.801  1.00  0.00     0.049 A 
ATOM     30  C   UNL A   1      42.928  31.383  33.172  1.00  0.00     0.074 A 
ATOM     31  C   UNL A   1      38.664  34.385  29.523  1.00  0.00     0.029 A 
ATOM     32  N   UNL A   1      39.510  34.316  31.547  1.00  0.00    -0.354 N 
ATOM     33  N   UNL A   1      43.296  32.338  32.360  1.00  0.00    -0.248 NA
ATOM     34  C   UNL A   1      41.769  31.678  33.996  1.00  0.00     0.031 C 
ATOM     35  C   UNL A   1      40.067  34.627  29.466  1.00  0.00     0.029 A 
ATOM     36  C   UNL A   1      40.599  34.302  30.716  1.00  0.00     0.049 A 
ATOM     37  H   UNL A   1      39.505  34.563  32.500  1.00  0.00     0.167 HD
ATOM     38  C   UNL A   1      42.184  33.165  32.263  1.00  0.00     0.074 A 
ATOM     39  C   UNL A   1      41.336  32.785  33.389  1.00  0.00     0.031 C 
ATOM     40  C   UNL A   1      41.921  33.870  31.120  1.00  0.00     0.034 A 
BRANCH  27  41
ATOM     41  C   UNL A   1      36.755  33.341  32.664  1.00  0.00     0.023 A 
ATOM     42  C   UNL A   1      35.603  34.149  32.576  1.00  0.00     0.012 A 
ATOM     43  C   UNL A   1      37.280  33.105  33.955  1.00  0.00     0.148 A 
ATOM     44  C   UNL A   1      35.007  34.696  33.718  1.00  0.00     0.002 A 
ATOM     45  C   UNL A   1      36.634  33.576  35.091  1.00  0.00     0.091 A 
ATOM     46  F   UNL A   1      38.485  32.536  34.094  1.00  0.00    -0.205 F 
ATOM     47  C   UNL A   1      35.511  34.394  34.979  1.00  0.00     0.022 A 
BRANCH  45  48
ATOM     48  S   UNL A   1      37.227  33.120  36.722  1.00  0.00     0.127 S 
ATOM     49  O   UNL A   1      38.404  33.972  36.859  1.00  0.00    -0.237 OA
ATOM     50  O   UNL A   1      36.096  33.484  37.578  1.00  0.00    -0.237 OA
ATOM     51  O   UNL A   1      37.464  31.684  36.635  1.00  0.00    -0.744 OA
ENDBRANCH  45  48
ENDBRANCH  27  41
BRANCH  28  52
ATOM     52  C   UNL A   1      43.931  29.158  34.108  1.00  0.00     0.023 A 
ATOM     53  C   UNL A   1      45.265  29.359  34.493  1.00  0.00     0.012 A 
ATOM     54  C   UNL A   1      43.122  28.311  34.906  1.00  0.00     0.148 A 
ATOM     55  C   UNL A   1      45.781  28.735  35.636  1.00  0.00     0.002 A 
ATOM     56  C   UNL A   1      43.646  27.668  36.020  1.00  0.00     0.091 A 
ATOM     57  F   UNL A   1      41.815  28.203  34.625  1.00  0.00    -0.205 F 
ATOM     58  C   UNL A   1      44.975  27.886  36.395  1.00  0.00     0.022 A 
BRANCH  56  59
ATOM     59  S   UNL A   1      42.662  26.541  37.017  1.00  0.00     0.127 S 
ATOM     60  O   UNL A   1      42.813  25.279  36.291  1.00  0.00    -0.237 OA
ATOM     61  O   UNL A   1      43.349  26.592  38.304  1.00  0.00    -0.237 OA
ATOM     62  O   UNL A   1      41.306  27.077  36.994  1.00  0.00    -0.744 OA
ENDBRANCH  56  59
ENDBRANCH  28  52
BRANCH  40  63
ATOM     63  C   UNL A   1      42.983  33.904  30.044  1.00  0.00     0.023 A 
ATOM     64  C   UNL A   1      43.191  32.798  29.193  1.00  0.00     0.012 A 
ATOM     65  C   UNL A   1      43.635  35.114  29.746  1.00  0.00     0.148 A 
ATOM     66  C   UNL A   1      44.046  32.880  28.093  1.00  0.00     0.002 A 
ATOM     67  C   UNL A   1      44.454  35.206  28.624  1.00  0.00     0.091 A 
ATOM     68  F   UNL A   1      43.415  36.169  30.545  1.00  0.00    -0.205 F 
ATOM     69  C   UNL A   1      44.670  34.089  27.801  1.00  0.00     0.022 A 
BRANCH  67  70
ATOM     70  S   UNL A   1      45.182  36.766  28.106  1.00  0.00     0.127 S 
ATOM     71  O   UNL A   1      45.660  36.451  26.762  1.00  0.00    -0.237 OA
ATOM     72  O   UNL A   1      44.037  37.679  28.148  1.00  0.00    -0.237 OA
ATOM     73  O   UNL A   1      46.215  37.067  29.088  1.00  0.00    -0.744 OA
ENDBRANCH  67  70
ENDBRANCH  40  63
ENDBRANCH  14  15
ENDBRANCH   7   9
ENDBRANCH   6   7
ENDBRANCH   5   6
ENDBRANCH   4   5
ENDBRANCH   3   4
ENDBRANCH   2   3
ENDBRANCH   1   2
BRANCH   1  74
ATOM     74  O   UNL A   1      35.417  18.991  24.761  1.00  0.00    -0.377 OA
BRANCH  74  75
ATOM     75  C   UNL A   1      34.681  17.864  24.350  1.00  0.00     0.188 C 
BRANCH  75  76
ATOM     76  C   UNL A   1      33.362  17.650  25.123  1.00  0.00     0.188 C 
BRANCH  76  77
ATOM     77  O   UNL A   1      32.268  18.549  25.024  1.00  0.00    -0.376 OA
BRANCH  77  78
ATOM     78  C   UNL A   1      32.376  19.878  25.504  1.00  0.00     0.202 C 
BRANCH  78  79
ATOM     79  C   UNL A   1      32.767  20.991  24.521  1.00  0.00     0.261 C 
BRANCH  79  80
ATOM     80  O   UNL A   1      31.975  21.076  23.328  1.00  0.00    -0.460 OA
BRANCH  80  81
ATOM     81  C   UNL A   1      32.314  22.064  22.457  1.00  0.00     0.338 C 
ATOM     82  O   UNL A   1      32.703  21.947  21.318  1.00  0.00    -0.246 OA
BRANCH  81  83
ATOM     83  C   UNL A   1      31.958  23.369  23.058  1.00  0.00     0.060 A 
ATOM     84  C   UNL A   1      30.604  23.654  23.253  1.00  0.00     0.016 A 
ATOM     85  C   UNL A   1      32.931  24.294  23.437  1.00  0.00     0.016 A 
ATOM     86  C   UNL A   1      30.222  24.850  23.855  1.00  0.00     0.005 A 
ATOM     87  C   UNL A   1      32.540  25.524  23.980  1.00  0.00     0.005 A 
ATOM     88  C   UNL A   1      31.181  25.818  24.202  1.00  0.00    -0.038 A 
BRANCH  88  89
ATOM     89  C   UNL A   1      30.654  27.176  24.646  1.00  0.00     0.081 C 
ATOM     90  C   UNL A   1      30.698  28.161  23.458  1.00  0.00     0.111 C 
ATOM     91  C   UNL A   1      31.455  27.684  25.781  1.00  0.00     0.093 A 
ATOM     92  C   UNL A   1      31.888  29.105  23.479  1.00  0.00     0.188 C 
ATOM     93  C   UNL A   1      32.282  28.777  25.642  1.00  0.00     0.164 A 
ATOM     94  N   UNL A   1      31.509  27.162  27.041  1.00  0.00    -0.238 NA
ATOM     95  N   UNL A   1      32.586  29.461  24.511  1.00  0.00    -0.198 NA
ATOM     96  N   UNL A   1      32.890  28.930  26.874  1.00  0.00    -0.283 N 
ATOM     97  C   UNL A   1      32.412  27.899  27.659  1.00  0.00     0.206 A 
BRANCH  92  98
ATOM     98  O   UNL A   1      32.174  29.666  22.289  1.00  0.00    -0.496 OA
ATOM     99  H   UNL A   1      31.841  29.287  21.500  1.00  0.00     0.294 HD
ENDBRANCH  92  98
BRANCH  96 100
ATOM    100  C   UNL A   1      33.829  29.919  27.247  1.00  0.00     0.050 A 
ATOM    101  C   UNL A   1      35.191  29.599  27.327  1.00  0.00     0.027 A 
ATOM    102  C   UNL A   1      33.394  31.223  27.516  1.00  0.00     0.047 A 
ATOM    103  C   UNL A   1      36.116  30.599  27.631  1.00  0.00     0.004 A 
ATOM    104  C   UNL A   1      34.322  32.199  27.865  1.00  0.00     0.043 A 
ATOM    105  C   UNL A   1      35.683  31.898  27.908  1.00  0.00     0.020 A 
ATOM    106  Cl  UNL A   1      33.787  33.787  28.260  1.00  0.00    -0.084 Cl
ENDBRANCH  96 100
ENDBRANCH  88  89
ENDBRANCH  81  83
ENDBRANCH  80  81
ENDBRANCH  79  80
ENDBRANCH  78  79
ENDBRANCH  77  78
ENDBRANCH  76  77
ENDBRANCH  75  76
ENDBRANCH  74  75
ENDBRANCH   1  74
TORSDOF 26
ENDMDL
MODEL 3
REMARK VINA RESULT:     -11.0      3.950      8.067
REMARK SMILES O=C(OCCOCCOCCOCCOC(=O)c1ccc([C@@H]2CC(O)=Nc3c2ncn3-c2cccc(Cl)c2)cc1)c1ccc(-c2c3nc(c(-c4cccc(S(=O)(=O)[O-])c4F)c4ccc([nH]4)c(-c4cccc(S(=O)(=O)[O-])c4F)c4nc(c(-c5cccc(S(=O)(=O)[O-])c5F)c5ccc2[nH]5)C=C4)C=C3)cc1
REMARK SMILES IDX 8 1 7 2 6 3 5 4 4 5 3 6 2 7 1 8 41 9 42 10 103 11 43 12
REMARK SMILES IDX 102 13 44 14 45 15 46 16 96 17 47 18 101 19 95 20 97 21
REMARK SMILES IDX 48 22 100 23 94 24 93 25 49 27 81 28 61 29 80 30 62 31 65 32
REMARK SMILES IDX 79 33 98 34 63 35 64 36 78 38 99 39 66 40 50 41 51 42 59 43
REMARK SMILES IDX 52 44 54 45 60 46 53 47 55 48 56 49 57 50 58 51 82 52 83 53
REMARK SMILES IDX 91 54 84 55 86 56 92 57 85 58 87 59 88 60 89 61 90 62 67 63
REMARK SMILES IDX 68 64 76 65 69 66 71 67 77 68 70 69 72 70 73 71 74 72 75 73
REMARK SMILES IDX 9 74 10 75 11 76 12 77 13 78 14 79 15 80 16 81 17 82 18 83
REMARK SMILES IDX 19 84 40 85 20 86 39 87 21 88 22 89 23 90 28 91 24 92 27 93
REMARK SMILES IDX 29 94 26 95 31 96 30 97 25 98 32 100 33 101 38 102 34 103
REMARK SMILES IDX 36 104 35 105 37 106
REMARK H PARENT 97 26 65 37 25 99
REMARK Flexibility Score: inf
ROOT
ATOM      1  C   UNL A   1      36.746  18.845  24.618  1.00  0.00     0.188 C 
ENDROOT
BRANCH   1   2
ATOM      2  C   UNL A   1      37.741  19.935  25.044  1.00  0.00     0.188 C 
BRANCH   2   3
ATOM      3  O   UNL A   1      37.609  21.334  24.817  1.00  0.00    -0.376 OA
BRANCH   3   4
ATOM      4  C   UNL A   1      37.188  22.344  25.700  1.00  0.00     0.202 C 
BRANCH   4   5
ATOM      5  C   UNL A   1      38.000  23.623  25.919  1.00  0.00     0.261 C 
BRANCH   5   6
ATOM      6  O   UNL A   1      39.238  23.499  26.608  1.00  0.00    -0.460 OA
BRANCH   6   7
ATOM      7  C   UNL A   1      40.161  24.454  26.859  1.00  0.00     0.338 C 
ATOM      8  O   UNL A   1      41.344  24.193  26.642  1.00  0.00    -0.246 OA
BRANCH   7   9
ATOM      9  C   UNL A   1      39.834  25.742  27.522  1.00  0.00     0.060 A 
ATOM     10  C   UNL A   1      40.104  27.008  26.997  1.00  0.00     0.016 A 
ATOM     11  C   UNL A   1      39.254  25.642  28.802  1.00  0.00     0.016 A 
ATOM     12  C   UNL A   1      39.920  28.141  27.758  1.00  0.00     0.010 A 
ATOM     13  C   UNL A   1      39.069  26.775  29.579  1.00  0.00     0.010 A 
ATOM     14  C   UNL A   1      39.507  27.997  29.075  1.00  0.00    -0.014 A 
BRANCH  14  15
ATOM     15  C   UNL A   1      39.846  29.110  29.942  1.00  0.00     0.031 A 
ATOM     16  C   UNL A   1      38.825  30.161  30.151  1.00  0.00     0.074 A 
ATOM     17  C   UNL A   1      41.086  29.140  30.470  1.00  0.00     0.049 A 
ATOM     18  N   UNL A   1      38.936  31.435  29.943  1.00  0.00    -0.248 NA
ATOM     19  C   UNL A   1      37.486  29.727  30.570  1.00  0.00     0.031 C 
ATOM     20  C   UNL A   1      42.080  28.057  30.464  1.00  0.00     0.029 A 
ATOM     21  N   UNL A   1      41.653  30.080  31.272  1.00  0.00    -0.354 N 
ATOM     22  C   UNL A   1      37.752  31.990  30.422  1.00  0.00     0.074 A 
ATOM     23  C   UNL A   1      36.848  30.894  30.665  1.00  0.00     0.031 C 
ATOM     24  C   UNL A   1      42.957  28.267  31.463  1.00  0.00     0.029 A 
ATOM     25  C   UNL A   1      42.661  29.550  32.067  1.00  0.00     0.049 A 
ATOM     26  H   UNL A   1      41.381  31.026  31.289  1.00  0.00     0.167 HD
ATOM     27  C   UNL A   1      37.660  33.288  30.814  1.00  0.00     0.034 A 
ATOM     28  C   UNL A   1      43.114  30.064  33.231  1.00  0.00     0.034 A 
ATOM     29  C   UNL A   1      38.695  34.119  30.269  1.00  0.00     0.049 A 
ATOM     30  C   UNL A   1      42.763  31.500  33.257  1.00  0.00     0.074 A 
ATOM     31  C   UNL A   1      39.092  34.489  29.002  1.00  0.00     0.029 A 
ATOM     32  N   UNL A   1      39.712  34.500  31.107  1.00  0.00    -0.354 N 
ATOM     33  N   UNL A   1      43.269  32.384  32.440  1.00  0.00    -0.248 NA
ATOM     34  C   UNL A   1      41.541  31.903  33.932  1.00  0.00     0.031 C 
ATOM     35  C   UNL A   1      40.505  34.654  29.087  1.00  0.00     0.029 A 
ATOM     36  C   UNL A   1      40.881  34.380  30.404  1.00  0.00     0.049 A 
ATOM     37  H   UNL A   1      39.619  34.804  32.039  1.00  0.00     0.167 HD
ATOM     38  C   UNL A   1      42.223  33.259  32.176  1.00  0.00     0.074 A 
ATOM     39  C   UNL A   1      41.239  32.993  33.221  1.00  0.00     0.031 C 
ATOM     40  C   UNL A   1      42.125  33.907  30.974  1.00  0.00     0.034 A 
BRANCH  27  41
ATOM     41  C   UNL A   1      36.802  33.736  31.966  1.00  0.00     0.023 A 
ATOM     42  C   UNL A   1      37.072  33.225  33.252  1.00  0.00     0.012 A 
ATOM     43  C   UNL A   1      35.588  34.440  31.793  1.00  0.00     0.148 A 
ATOM     44  C   UNL A   1      36.173  33.404  34.310  1.00  0.00     0.002 A 
ATOM     45  C   UNL A   1      34.743  34.691  32.866  1.00  0.00     0.091 A 
ATOM     46  F   UNL A   1      35.169  34.758  30.561  1.00  0.00    -0.205 F 
ATOM     47  C   UNL A   1      35.016  34.154  34.123  1.00  0.00     0.022 A 
BRANCH  45  48
ATOM     48  S   UNL A   1      33.295  35.729  32.653  1.00  0.00     0.127 S 
ATOM     49  O   UNL A   1      33.495  36.734  33.692  1.00  0.00    -0.237 OA
ATOM     50  O   UNL A   1      33.457  36.214  31.282  1.00  0.00    -0.237 OA
ATOM     51  O   UNL A   1      32.168  34.820  32.830  1.00  0.00    -0.744 OA
ENDBRANCH  45  48
ENDBRANCH  27  41
BRANCH  28  52
ATOM     52  C   UNL A   1      43.531  29.288  34.419  1.00  0.00     0.023 A 
ATOM     53  C   UNL A   1      44.711  29.627  35.097  1.00  0.00     0.012 A 
ATOM     54  C   UNL A   1      42.668  28.331  35.009  1.00  0.00     0.148 A 
ATOM     55  C   UNL A   1      45.027  29.031  36.324  1.00  0.00     0.002 A 
ATOM     56  C   UNL A   1      43.001  27.718  36.211  1.00  0.00     0.091 A 
ATOM     57  F   UNL A   1      41.480  28.084  34.440  1.00  0.00    -0.205 F 
ATOM     58  C   UNL A   1      44.177  28.074  36.878  1.00  0.00     0.022 A 
BRANCH  56  59
ATOM     59  S   UNL A   1      41.958  26.456  36.955  1.00  0.00     0.127 S 
ATOM     60  O   UNL A   1      42.716  26.099  38.154  1.00  0.00    -0.237 OA
ATOM     61  O   UNL A   1      40.723  27.192  37.209  1.00  0.00    -0.237 OA
ATOM     62  O   UNL A   1      41.872  25.386  35.968  1.00  0.00    -0.744 OA
ENDBRANCH  56  59
ENDBRANCH  28  52
BRANCH  40  63
ATOM     63  C   UNL A   1      43.297  33.821  30.021  1.00  0.00     0.023 A 
ATOM     64  C   UNL A   1      44.366  34.737  30.100  1.00  0.00     0.012 A 
ATOM     65  C   UNL A   1      43.431  32.700  29.182  1.00  0.00     0.148 A 
ATOM     66  C   UNL A   1      45.525  34.565  29.343  1.00  0.00     0.002 A 
ATOM     67  C   UNL A   1      44.606  32.507  28.461  1.00  0.00     0.091 A 
ATOM     68  F   UNL A   1      42.420  31.820  29.130  1.00  0.00    -0.205 F 
ATOM     69  C   UNL A   1      45.651  33.442  28.531  1.00  0.00     0.022 A 
BRANCH  67  70
ATOM     70  S   UNL A   1      44.895  31.016  27.500  1.00  0.00     0.127 S 
ATOM     71  O   UNL A   1      44.728  29.966  28.502  1.00  0.00    -0.237 OA
ATOM     72  O   UNL A   1      43.831  31.076  26.495  1.00  0.00    -0.237 OA
ATOM     73  O   UNL A   1      46.238  31.153  26.949  1.00  0.00    -0.744 OA
ENDBRANCH  67  70
ENDBRANCH  40  63
ENDBRANCH  14  15
ENDBRANCH   7   9
ENDBRANCH   6   7
ENDBRANCH   5   6
ENDBRANCH   4   5
ENDBRANCH   3   4
ENDBRANCH   2   3
ENDBRANCH   1   2
BRANCH   1  74
ATOM     74  O   UNL A   1      35.373  19.145  24.804  1.00  0.00    -0.377 OA
BRANCH  74  75
ATOM     75  C   UNL A   1      34.489  18.166  24.315  1.00  0.00     0.188 C 
BRANCH  75  76
ATOM     76  C   UNL A   1      33.222  17.968  25.175  1.00  0.00     0.188 C 
BRANCH  76  77
ATOM     77  O   UNL A   1      32.128  18.872  25.135  1.00  0.00    -0.376 OA
BRANCH  77  78
ATOM     78  C   UNL A   1      32.271  20.203  25.598  1.00  0.00     0.202 C 
BRANCH  78  79
ATOM     79  C   UNL A   1      32.796  21.271  24.629  1.00  0.00     0.261 C 
BRANCH  79  80
ATOM     80  O   UNL A   1      32.262  21.223  23.298  1.00  0.00    -0.460 OA
BRANCH  80  81
ATOM     81  C   UNL A   1      32.563  22.278  22.496  1.00  0.00     0.338 C 
ATOM     82  O   UNL A   1      33.024  22.253  21.377  1.00  0.00    -0.246 OA
BRANCH  81  83
ATOM     83  C   UNL A   1      32.066  23.517  23.135  1.00  0.00     0.060 A 
ATOM     84  C   UNL A   1      30.703  23.809  23.028  1.00  0.00     0.016 A 
ATOM     85  C   UNL A   1      32.912  24.373  23.839  1.00  0.00     0.016 A 
ATOM     86  C   UNL A   1      30.180  24.940  23.650  1.00  0.00     0.005 A 
ATOM     87  C   UNL A   1      32.395  25.544  24.407  1.00  0.00     0.005 A 
ATOM     88  C   UNL A   1      31.021  25.841  24.325  1.00  0.00    -0.038 A 
BRANCH  88  89
ATOM     89  C   UNL A   1      30.394  27.154  24.777  1.00  0.00     0.081 C 
ATOM     90  C   UNL A   1      30.314  28.128  23.582  1.00  0.00     0.111 C 
ATOM     91  C   UNL A   1      31.187  27.740  25.881  1.00  0.00     0.093 A 
ATOM     92  C   UNL A   1      31.419  29.170  23.556  1.00  0.00     0.188 C 
ATOM     93  C   UNL A   1      31.913  28.898  25.706  1.00  0.00     0.164 A 
ATOM     94  N   UNL A   1      31.328  27.236  27.142  1.00  0.00    -0.238 NA
ATOM     95  N   UNL A   1      32.119  29.594  24.560  1.00  0.00    -0.198 NA
ATOM     96  N   UNL A   1      32.546  29.114  26.916  1.00  0.00    -0.283 N 
ATOM     97  C   UNL A   1      32.185  28.053  27.723  1.00  0.00     0.206 A 
BRANCH  92  98
ATOM     98  O   UNL A   1      31.616  29.742  22.353  1.00  0.00    -0.496 OA
ATOM     99  H   UNL A   1      31.042  29.543  21.640  1.00  0.00     0.294 HD
ENDBRANCH  92  98
BRANCH  96 100
ATOM    100  C   UNL A   1      33.410  30.182  27.249  1.00  0.00     0.050 A 
ATOM    101  C   UNL A   1      34.792  29.969  27.330  1.00  0.00     0.027 A 
ATOM    102  C   UNL A   1      32.878  31.458  27.478  1.00  0.00     0.047 A 
ATOM    103  C   UNL A   1      35.640  31.046  27.595  1.00  0.00     0.004 A 
ATOM    104  C   UNL A   1      33.731  32.513  27.789  1.00  0.00     0.043 A 
ATOM    105  C   UNL A   1      35.111  32.317  27.831  1.00  0.00     0.020 A 
ATOM    106  Cl  UNL A   1      33.079  34.069  28.135  1.00  0.00    -0.084 Cl
ENDBRANCH  96 100
ENDBRANCH  88  89
ENDBRANCH  81  83
ENDBRANCH  80  81
ENDBRANCH  79  80
ENDBRANCH  78  79
ENDBRANCH  77  78
ENDBRANCH  76  77
ENDBRANCH  75  76
ENDBRANCH  74  75
ENDBRANCH   1  74
TORSDOF 26
ENDMDL
