MODEL 1
REMARK VINA RESULT:      -9.3      0.000      0.000
REMARK SMILES Cc1ccc(C(=O)N[C@@H]2C=C[C@H](C(=O)OCCOCCOCCOCCOC(=O)c3ccc(-c4c5nc(c(-c6cccc(S(=O)(=O)[O-])c6F)c6ccc([nH]6)c(-c6cccc(S(=O)(=O)[O-])c6F)c6nc(c(-c7cccc(S(=O)(=O)[O-])c7F)c7ccc4[nH]7)C=C6)C=C5)cc3)C2)c(F)c1
REMARK SMILES IDX 22 1 21 2 20 3 19 4 18 5 17 6 16 7 15 8 13 9 14 10 12 11
REMARK SMILES IDX 9 12 10 13 93 14 11 15 8 16 6 17 7 18 5 20 1 21 2 22 3 23
REMARK SMILES IDX 96 24 4 25 94 26 95 27 23 28 24 29 25 30 26 31 27 32 28 33
REMARK SMILES IDX 29 34 30 35 31 36 92 37 32 38 91 39 33 40 34 41 35 42 85 43
REMARK SMILES IDX 36 44 90 45 84 46 86 47 37 48 89 49 83 50 82 51 38 53 70 54
REMARK SMILES IDX 50 55 69 56 51 57 54 58 68 59 87 60 52 61 53 62 67 64 88 65
REMARK SMILES IDX 55 66 39 67 40 68 48 69 41 70 43 71 49 72 42 73 44 74 45 75
REMARK SMILES IDX 46 76 47 77 71 78 72 79 80 80 73 81 75 82 81 83 74 84 76 85
REMARK SMILES IDX 77 86 78 87 79 88 56 89 57 90 65 91 58 92 60 93 66 94 59 95
REMARK SMILES IDX 61 96 62 97 63 98 64 99
REMARK H PARENT 8 19 86 52 54 63
REMARK Flexibility Score: inf
ROOT
ATOM      1  C   UNL A   1      36.747  33.625  30.781  1.00  0.00     0.188 C 
ENDROOT
BRANCH   1   2
ATOM      2  O   UNL A   1      37.129  34.347  29.622  1.00  0.00    -0.377 OA
BRANCH   2   3
ATOM      3  C   UNL A   1      36.719  33.733  28.419  1.00  0.00     0.188 C 
BRANCH   3   4
ATOM      4  C   UNL A   1      35.287  33.174  28.447  1.00  0.00     0.188 C 
BRANCH   4   5
ATOM      5  O   UNL A   1      34.871  32.229  27.482  1.00  0.00    -0.376 OA
BRANCH   5   6
ATOM      6  C   UNL A   1      34.239  31.018  27.857  1.00  0.00     0.202 C 
BRANCH   6   7
ATOM      7  C   UNL A   1      33.516  30.089  26.866  1.00  0.00     0.261 C 
BRANCH   7   8
ATOM      8  O   UNL A   1      32.135  29.792  27.102  1.00  0.00    -0.463 OA
BRANCH   8   9
ATOM      9  C   UNL A   1      31.791  28.479  27.056  1.00  0.00     0.312 C 
ATOM     10  O   UNL A   1      31.151  27.899  27.924  1.00  0.00    -0.252 OA
BRANCH   9  11
ATOM     11  C   UNL A   1      32.397  27.825  25.810  1.00  0.00     0.124 C 
ATOM     12  C   UNL A   1      31.775  25.488  25.242  1.00  0.00     0.106 C 
ATOM     13  C   UNL A   1      33.071  25.571  25.975  1.00  0.00    -0.006 C 
ATOM     14  C   UNL A   1      31.437  26.962  24.983  1.00  0.00     0.048 C 
ATOM     15  C   UNL A   1      33.440  26.832  26.218  1.00  0.00    -0.014 C 
BRANCH  12  16
ATOM     16  N   UNL A   1      30.794  24.748  26.014  1.00  0.00    -0.346 N 
ATOM     17  C   UNL A   1      30.886  23.575  26.743  1.00  0.00     0.254 C 
ATOM     18  O   UNL A   1      29.946  23.287  27.481  1.00  0.00    -0.269 OA
ATOM     19  H   UNL A   1      29.898  25.156  26.022  1.00  0.00     0.164 HD
BRANCH  17  20
ATOM     20  C   UNL A   1      32.018  22.616  26.578  1.00  0.00     0.075 A 
ATOM     21  C   UNL A   1      35.894  21.147  25.501  1.00  0.00     0.044 C 
ATOM     22  C   UNL A   1      34.486  21.417  25.945  1.00  0.00    -0.048 A 
ATOM     23  C   UNL A   1      34.214  21.828  27.248  1.00  0.00     0.004 A 
ATOM     24  C   UNL A   1      33.438  21.401  25.026  1.00  0.00     0.043 A 
ATOM     25  C   UNL A   1      32.961  22.358  27.573  1.00  0.00     0.017 A 
ATOM     26  C   UNL A   1      32.230  22.035  25.324  1.00  0.00     0.136 A 
ATOM     27  F   UNL A   1      31.338  22.147  24.330  1.00  0.00    -0.206 F 
ENDBRANCH  17  20
ENDBRANCH  12  16
ENDBRANCH   9  11
ENDBRANCH   8   9
ENDBRANCH   7   8
ENDBRANCH   6   7
ENDBRANCH   5   6
ENDBRANCH   4   5
ENDBRANCH   3   4
ENDBRANCH   2   3
ENDBRANCH   1   2
BRANCH   1  28
ATOM     28  C   UNL A   1      37.906  33.274  31.729  1.00  0.00     0.188 C 
BRANCH  28  29
ATOM     29  O   UNL A   1      37.687  32.642  32.981  1.00  0.00    -0.376 OA
BRANCH  29  30
ATOM     30  C   UNL A   1      36.666  31.696  33.223  1.00  0.00     0.202 C 
BRANCH  30  31
ATOM     31  C   UNL A   1      35.893  30.991  32.106  1.00  0.00     0.261 C 
BRANCH  31  32
ATOM     32  O   UNL A   1      36.394  29.696  31.783  1.00  0.00    -0.460 OA
BRANCH  32  33
ATOM     33  C   UNL A   1      37.414  29.713  30.898  1.00  0.00     0.338 C 
ATOM     34  O   UNL A   1      37.430  30.236  29.792  1.00  0.00    -0.246 OA
BRANCH  33  35
ATOM     35  C   UNL A   1      38.623  29.213  31.559  1.00  0.00     0.060 A 
ATOM     36  C   UNL A   1      39.730  30.069  31.573  1.00  0.00     0.016 A 
ATOM     37  C   UNL A   1      38.677  27.941  32.136  1.00  0.00     0.016 A 
ATOM     38  C   UNL A   1      40.921  29.642  32.125  1.00  0.00     0.010 A 
ATOM     39  C   UNL A   1      39.891  27.495  32.658  1.00  0.00     0.010 A 
ATOM     40  C   UNL A   1      41.020  28.331  32.602  1.00  0.00    -0.014 A 
BRANCH  40  41
ATOM     41  C   UNL A   1      42.379  27.792  32.779  1.00  0.00     0.031 A 
ATOM     42  C   UNL A   1      43.177  27.496  31.541  1.00  0.00     0.074 A 
ATOM     43  C   UNL A   1      42.914  27.689  34.005  1.00  0.00     0.049 A 
ATOM     44  N   UNL A   1      44.415  27.101  31.434  1.00  0.00    -0.248 NA
ATOM     45  C   UNL A   1      42.491  27.679  30.249  1.00  0.00     0.031 C 
ATOM     46  C   UNL A   1      42.221  27.991  35.256  1.00  0.00     0.029 A 
ATOM     47  N   UNL A   1      44.166  27.295  34.393  1.00  0.00    -0.354 N 
ATOM     48  C   UNL A   1      44.646  26.956  30.073  1.00  0.00     0.074 A 
ATOM     49  C   UNL A   1      43.422  27.302  29.388  1.00  0.00     0.031 C 
ATOM     50  C   UNL A   1      43.053  27.743  36.282  1.00  0.00     0.029 A 
ATOM     51  C   UNL A   1      44.321  27.243  35.756  1.00  0.00     0.049 A 
ATOM     52  H   UNL A   1      44.884  27.071  33.758  1.00  0.00     0.167 HD
ATOM     53  C   UNL A   1      45.783  26.573  29.451  1.00  0.00     0.034 A 
ATOM     54  C   UNL A   1      45.366  26.809  36.486  1.00  0.00     0.034 A 
ATOM     55  C   UNL A   1      46.995  26.249  30.150  1.00  0.00     0.049 A 
ATOM     56  C   UNL A   1      46.612  26.367  35.767  1.00  0.00     0.074 A 
ATOM     57  C   UNL A   1      48.221  25.894  29.620  1.00  0.00     0.029 A 
ATOM     58  N   UNL A   1      47.124  26.221  31.529  1.00  0.00    -0.354 N 
ATOM     59  N   UNL A   1      46.853  26.335  34.477  1.00  0.00    -0.248 NA
ATOM     60  C   UNL A   1      47.741  25.935  36.600  1.00  0.00     0.031 C 
ATOM     61  C   UNL A   1      49.079  25.599  30.683  1.00  0.00     0.029 A 
ATOM     62  C   UNL A   1      48.404  25.826  31.873  1.00  0.00     0.049 A 
ATOM     63  H   UNL A   1      46.412  26.447  32.169  1.00  0.00     0.167 HD
ATOM     64  C   UNL A   1      48.171  25.912  34.346  1.00  0.00     0.074 A 
ATOM     65  C   UNL A   1      48.681  25.725  35.690  1.00  0.00     0.031 C 
ATOM     66  C   UNL A   1      48.894  25.686  33.220  1.00  0.00     0.034 A 
BRANCH  53  67
ATOM     67  C   UNL A   1      45.764  26.460  27.952  1.00  0.00     0.023 A 
ATOM     68  C   UNL A   1      45.977  27.598  27.148  1.00  0.00     0.012 A 
ATOM     69  C   UNL A   1      45.591  25.203  27.342  1.00  0.00     0.148 A 
ATOM     70  C   UNL A   1      45.996  27.487  25.757  1.00  0.00     0.002 A 
ATOM     71  C   UNL A   1      45.661  25.092  25.961  1.00  0.00     0.091 A 
ATOM     72  F   UNL A   1      45.357  24.141  28.127  1.00  0.00    -0.205 F 
ATOM     73  C   UNL A   1      45.853  26.235  25.166  1.00  0.00     0.022 A 
BRANCH  71  74
ATOM     74  S   UNL A   1      45.568  23.514  25.112  1.00  0.00     0.127 S 
ATOM     75  O   UNL A   1      46.348  23.783  23.904  1.00  0.00    -0.237 OA
ATOM     76  O   UNL A   1      46.215  22.615  26.068  1.00  0.00    -0.237 OA
ATOM     77  O   UNL A   1      44.153  23.256  24.890  1.00  0.00    -0.744 OA
ENDBRANCH  71  74
ENDBRANCH  53  67
BRANCH  54  78
ATOM     78  C   UNL A   1      45.270  26.766  37.971  1.00  0.00     0.023 A 
ATOM     79  C   UNL A   1      45.001  25.552  38.631  1.00  0.00     0.012 A 
ATOM     80  C   UNL A   1      45.455  27.937  38.733  1.00  0.00     0.148 A 
ATOM     81  C   UNL A   1      44.877  25.514  40.021  1.00  0.00     0.002 A 
ATOM     82  C   UNL A   1      45.392  27.880  40.119  1.00  0.00     0.091 A 
ATOM     83  F   UNL A   1      45.694  29.086  38.085  1.00  0.00    -0.205 F 
ATOM     84  C   UNL A   1      45.082  26.674  40.765  1.00  0.00     0.022 A 
BRANCH  82  85
ATOM     85  S   UNL A   1      45.774  29.297  41.154  1.00  0.00     0.127 S 
ATOM     86  O   UNL A   1      44.677  30.206  40.835  1.00  0.00    -0.237 OA
ATOM     87  O   UNL A   1      45.724  28.713  42.494  1.00  0.00    -0.237 OA
ATOM     88  O   UNL A   1      47.102  29.737  40.744  1.00  0.00    -0.744 OA
ENDBRANCH  82  85
ENDBRANCH  54  78
BRANCH  66  89
ATOM     89  C   UNL A   1      50.325  25.253  33.391  1.00  0.00     0.023 A 
ATOM     90  C   UNL A   1      51.327  26.207  33.658  1.00  0.00     0.012 A 
ATOM     91  C   UNL A   1      50.663  23.886  33.354  1.00  0.00     0.148 A 
ATOM     92  C   UNL A   1      52.650  25.810  33.841  1.00  0.00     0.002 A 
ATOM     93  C   UNL A   1      51.972  23.494  33.595  1.00  0.00     0.091 A 
ATOM     94  F   UNL A   1      49.697  22.996  33.086  1.00  0.00    -0.205 F 
ATOM     95  C   UNL A   1      52.971  24.455  33.821  1.00  0.00     0.022 A 
BRANCH  93  96
ATOM     96  S   UNL A   1      52.456  21.768  33.694  1.00  0.00     0.127 S 
ATOM     97  O   UNL A   1      53.848  21.823  33.249  1.00  0.00    -0.237 OA
ATOM     98  O   UNL A   1      52.281  21.479  35.118  1.00  0.00    -0.237 OA
ATOM     99  O   UNL A   1      51.549  21.043  32.814  1.00  0.00    -0.744 OA
ENDBRANCH  93  96
ENDBRANCH  66  89
ENDBRANCH  40  41
ENDBRANCH  33  35
ENDBRANCH  32  33
ENDBRANCH  31  32
ENDBRANCH  30  31
ENDBRANCH  29  30
ENDBRANCH  28  29
ENDBRANCH   1  28
TORSDOF 25
ENDMDL
MODEL 2
REMARK VINA RESULT:      -9.2      1.787      2.941
REMARK SMILES Cc1ccc(C(=O)N[C@@H]2C=C[C@H](C(=O)OCCOCCOCCOCCOC(=O)c3ccc(-c4c5nc(c(-c6cccc(S(=O)(=O)[O-])c6F)c6ccc([nH]6)c(-c6cccc(S(=O)(=O)[O-])c6F)c6nc(c(-c7cccc(S(=O)(=O)[O-])c7F)c7ccc4[nH]7)C=C6)C=C5)cc3)C2)c(F)c1
REMARK SMILES IDX 22 1 21 2 20 3 19 4 18 5 17 6 16 7 15 8 13 9 14 10 12 11
REMARK SMILES IDX 9 12 10 13 93 14 11 15 8 16 6 17 7 18 5 20 1 21 2 22 3 23
REMARK SMILES IDX 96 24 4 25 94 26 95 27 23 28 24 29 25 30 26 31 27 32 28 33
REMARK SMILES IDX 29 34 30 35 31 36 92 37 32 38 91 39 33 40 34 41 35 42 85 43
REMARK SMILES IDX 36 44 90 45 84 46 86 47 37 48 89 49 83 50 82 51 38 53 70 54
REMARK SMILES IDX 50 55 69 56 51 57 54 58 68 59 87 60 52 61 53 62 67 64 88 65
REMARK SMILES IDX 55 66 39 67 40 68 48 69 41 70 43 71 49 72 42 73 44 74 45 75
REMARK SMILES IDX 46 76 47 77 71 78 72 79 80 80 73 81 75 82 81 83 74 84 76 85
REMARK SMILES IDX 77 86 78 87 79 88 56 89 57 90 65 91 58 92 60 93 66 94 59 95
REMARK SMILES IDX 61 96 62 97 63 98 64 99
REMARK H PARENT 8 19 86 52 54 63
REMARK Flexibility Score: inf
ROOT
ATOM      1  C   UNL A   1      35.395  29.962  27.398  1.00  0.00     0.188 C 
ENDROOT
BRANCH   1   2
ATOM      2  O   UNL A   1      34.120  29.383  27.177  1.00  0.00    -0.377 OA
BRANCH   2   3
ATOM      3  C   UNL A   1      34.050  28.617  25.994  1.00  0.00     0.188 C 
BRANCH   3   4
ATOM      4  C   UNL A   1      33.007  29.110  24.978  1.00  0.00     0.188 C 
BRANCH   4   5
ATOM      5  O   UNL A   1      32.918  28.513  23.700  1.00  0.00    -0.376 OA
BRANCH   5   6
ATOM      6  C   UNL A   1      31.823  27.687  23.344  1.00  0.00     0.202 C 
BRANCH   6   7
ATOM      7  C   UNL A   1      30.568  27.509  24.216  1.00  0.00     0.261 C 
BRANCH   7   8
ATOM      8  O   UNL A   1      29.746  26.358  23.993  1.00  0.00    -0.463 OA
BRANCH   8   9
ATOM      9  C   UNL A   1      30.354  25.153  24.141  1.00  0.00     0.312 C 
ATOM     10  O   UNL A   1      30.375  24.277  23.286  1.00  0.00    -0.252 OA
BRANCH   9  11
ATOM     11  C   UNL A   1      30.926  25.029  25.557  1.00  0.00     0.124 C 
ATOM     12  C   UNL A   1      31.547  22.785  26.423  1.00  0.00     0.106 C 
ATOM     13  C   UNL A   1      30.195  23.217  26.877  1.00  0.00    -0.006 C 
ATOM     14  C   UNL A   1      32.084  24.038  25.718  1.00  0.00     0.048 C 
ATOM     15  C   UNL A   1      29.889  24.453  26.471  1.00  0.00    -0.014 C 
BRANCH  12  16
ATOM     16  N   UNL A   1      31.456  21.594  25.597  1.00  0.00    -0.346 N 
ATOM     17  C   UNL A   1      32.427  20.797  25.018  1.00  0.00     0.254 C 
ATOM     18  O   UNL A   1      32.072  19.718  24.545  1.00  0.00    -0.269 OA
ATOM     19  H   UNL A   1      30.535  21.300  25.416  1.00  0.00     0.164 HD
BRANCH  17  20
ATOM     20  C   UNL A   1      33.842  21.246  24.855  1.00  0.00     0.075 A 
ATOM     21  C   UNL A   1      37.313  23.734  25.175  1.00  0.00     0.044 C 
ATOM     22  C   UNL A   1      36.246  22.709  24.919  1.00  0.00    -0.048 A 
ATOM     23  C   UNL A   1      36.033  21.661  25.812  1.00  0.00     0.004 A 
ATOM     24  C   UNL A   1      35.355  22.864  23.859  1.00  0.00     0.043 A 
ATOM     25  C   UNL A   1      34.869  20.891  25.731  1.00  0.00     0.017 A 
ATOM     26  C   UNL A   1      34.142  22.171  23.852  1.00  0.00     0.136 A 
ATOM     27  F   UNL A   1      33.253  22.508  22.907  1.00  0.00    -0.206 F 
ENDBRANCH  17  20
ENDBRANCH  12  16
ENDBRANCH   9  11
ENDBRANCH   8   9
ENDBRANCH   7   8
ENDBRANCH   6   7
ENDBRANCH   5   6
ENDBRANCH   4   5
ENDBRANCH   3   4
ENDBRANCH   2   3
ENDBRANCH   1   2
BRANCH   1  28
ATOM     28  C   UNL A   1      36.033  29.612  28.753  1.00  0.00     0.188 C 
BRANCH  28  29
ATOM     29  O   UNL A   1      37.185  30.284  29.237  1.00  0.00    -0.376 OA
BRANCH  29  30
ATOM     30  C   UNL A   1      37.144  31.447  30.038  1.00  0.00     0.202 C 
BRANCH  30  31
ATOM     31  C   UNL A   1      36.362  31.538  31.350  1.00  0.00     0.261 C 
BRANCH  31  32
ATOM     32  O   UNL A   1      36.726  30.549  32.310  1.00  0.00    -0.460 OA
BRANCH  32  33
ATOM     33  C   UNL A   1      37.680  30.957  33.175  1.00  0.00     0.338 C 
ATOM     34  O   UNL A   1      37.518  31.520  34.250  1.00  0.00    -0.246 OA
BRANCH  33  35
ATOM     35  C   UNL A   1      38.969  30.400  32.755  1.00  0.00     0.060 A 
ATOM     36  C   UNL A   1      39.123  29.014  32.878  1.00  0.00     0.016 A 
ATOM     37  C   UNL A   1      39.999  31.208  32.267  1.00  0.00     0.016 A 
ATOM     38  C   UNL A   1      40.331  28.427  32.559  1.00  0.00     0.010 A 
ATOM     39  C   UNL A   1      41.232  30.620  31.981  1.00  0.00     0.010 A 
ATOM     40  C   UNL A   1      41.404  29.239  32.178  1.00  0.00    -0.014 A 
BRANCH  40  41
ATOM     41  C   UNL A   1      42.748  28.641  32.262  1.00  0.00     0.031 A 
ATOM     42  C   UNL A   1      43.296  27.984  31.028  1.00  0.00     0.074 A 
ATOM     43  C   UNL A   1      43.490  28.794  33.369  1.00  0.00     0.049 A 
ATOM     44  N   UNL A   1      44.476  27.467  30.825  1.00  0.00    -0.248 NA
ATOM     45  C   UNL A   1      42.397  27.906  29.861  1.00  0.00     0.031 C 
ATOM     46  C   UNL A   1      43.047  29.452  34.598  1.00  0.00     0.029 A 
ATOM     47  N   UNL A   1      44.772  28.398  33.635  1.00  0.00    -0.354 N 
ATOM     48  C   UNL A   1      44.451  26.975  29.527  1.00  0.00     0.074 A 
ATOM     49  C   UNL A   1      43.141  27.249  28.985  1.00  0.00     0.031 C 
ATOM     50  C   UNL A   1      44.039  29.389  35.503  1.00  0.00     0.029 A 
ATOM     51  C   UNL A   1      45.168  28.666  34.922  1.00  0.00     0.049 A 
ATOM     52  H   UNL A   1      45.353  27.963  32.970  1.00  0.00     0.167 HD
ATOM     53  C   UNL A   1      45.440  26.353  28.846  1.00  0.00     0.034 A 
ATOM     54  C   UNL A   1      46.307  28.333  35.559  1.00  0.00     0.034 A 
ATOM     55  C   UNL A   1      46.742  26.104  29.397  1.00  0.00     0.049 A 
ATOM     56  C   UNL A   1      47.383  27.621  34.783  1.00  0.00     0.074 A 
ATOM     57  C   UNL A   1      47.836  25.523  28.784  1.00  0.00     0.029 A 
ATOM     58  N   UNL A   1      47.116  26.401  30.698  1.00  0.00    -0.354 N 
ATOM     59  N   UNL A   1      47.386  27.254  33.522  1.00  0.00    -0.248 NA
ATOM     60  C   UNL A   1      48.623  27.308  35.502  1.00  0.00     0.031 C 
ATOM     61  C   UNL A   1      48.857  25.422  29.732  1.00  0.00     0.029 A 
ATOM     62  C   UNL A   1      48.418  25.991  30.918  1.00  0.00     0.049 A 
ATOM     63  H   UNL A   1      46.541  26.839  31.366  1.00  0.00     0.167 HD
ATOM     64  C   UNL A   1      48.638  26.698  33.290  1.00  0.00     0.074 A 
ATOM     65  C   UNL A   1      49.374  26.800  34.535  1.00  0.00     0.031 C 
ATOM     66  C   UNL A   1      49.136  26.141  32.157  1.00  0.00     0.034 A 
BRANCH  53  67
ATOM     67  C   UNL A   1      45.146  25.880  27.450  1.00  0.00     0.023 A 
ATOM     68  C   UNL A   1      45.387  26.723  26.346  1.00  0.00     0.012 A 
ATOM     69  C   UNL A   1      44.683  24.569  27.233  1.00  0.00     0.148 A 
ATOM     70  C   UNL A   1      45.149  26.271  25.047  1.00  0.00     0.002 A 
ATOM     71  C   UNL A   1      44.496  24.110  25.937  1.00  0.00     0.091 A 
ATOM     72  F   UNL A   1      44.430  23.798  28.300  1.00  0.00    -0.205 F 
ATOM     73  C   UNL A   1      44.719  24.963  24.843  1.00  0.00     0.022 A 
BRANCH  71  74
ATOM     74  S   UNL A   1      44.021  22.419  25.569  1.00  0.00     0.127 S 
ATOM     75  O   UNL A   1      43.864  22.466  24.116  1.00  0.00    -0.237 OA
ATOM     76  O   UNL A   1      45.187  21.667  26.032  1.00  0.00    -0.237 OA
ATOM     77  O   UNL A   1      42.797  22.170  26.316  1.00  0.00    -0.744 OA
ENDBRANCH  71  74
ENDBRANCH  53  67
BRANCH  54  78
ATOM     78  C   UNL A   1      46.479  28.662  37.000  1.00  0.00     0.023 A 
ATOM     79  C   UNL A   1      47.055  29.886  37.387  1.00  0.00     0.012 A 
ATOM     80  C   UNL A   1      46.060  27.754  37.994  1.00  0.00     0.148 A 
ATOM     81  C   UNL A   1      47.247  30.183  38.738  1.00  0.00     0.002 A 
ATOM     82  C   UNL A   1      46.198  28.082  39.335  1.00  0.00     0.091 A 
ATOM     83  F   UNL A   1      45.529  26.586  37.605  1.00  0.00    -0.205 F 
ATOM     84  C   UNL A   1      46.811  29.287  39.711  1.00  0.00     0.022 A 
BRANCH  82  85
ATOM     85  S   UNL A   1      45.543  27.046  40.647  1.00  0.00     0.127 S 
ATOM     86  O   UNL A   1      46.385  25.857  40.540  1.00  0.00    -0.237 OA
ATOM     87  O   UNL A   1      45.784  27.869  41.832  1.00  0.00    -0.237 OA
ATOM     88  O   UNL A   1      44.133  26.854  40.331  1.00  0.00    -0.744 OA
ENDBRANCH  82  85
ENDBRANCH  54  78
BRANCH  66  89
ATOM     89  C   UNL A   1      50.555  25.639  32.197  1.00  0.00     0.023 A 
ATOM     90  C   UNL A   1      51.626  26.525  31.973  1.00  0.00     0.012 A 
ATOM     91  C   UNL A   1      50.822  24.296  32.527  1.00  0.00     0.148 A 
ATOM     92  C   UNL A   1      52.943  26.071  32.032  1.00  0.00     0.002 A 
ATOM     93  C   UNL A   1      52.137  23.865  32.641  1.00  0.00     0.091 A 
ATOM     94  F   UNL A   1      49.788  23.466  32.724  1.00  0.00    -0.205 F 
ATOM     95  C   UNL A   1      53.198  24.746  32.377  1.00  0.00     0.022 A 
BRANCH  93  96
ATOM     96  S   UNL A   1      52.562  22.207  33.184  1.00  0.00     0.127 S 
ATOM     97  O   UNL A   1      52.008  21.390  32.105  1.00  0.00    -0.237 OA
ATOM     98  O   UNL A   1      54.024  22.259  33.222  1.00  0.00    -0.237 OA
ATOM     99  O   UNL A   1      51.928  22.034  34.485  1.00  0.00    -0.744 OA
ENDBRANCH  93  96
ENDBRANCH  66  89
ENDBRANCH  40  41
ENDBRANCH  33  35
ENDBRANCH  32  33
ENDBRANCH  31  32
ENDBRANCH  30  31
ENDBRANCH  29  30
ENDBRANCH  28  29
ENDBRANCH   1  28
TORSDOF 25
ENDMDL
MODEL 3
REMARK VINA RESULT:      -9.2      6.784     11.618
REMARK SMILES Cc1ccc(C(=O)N[C@@H]2C=C[C@H](C(=O)OCCOCCOCCOCCOC(=O)c3ccc(-c4c5nc(c(-c6cccc(S(=O)(=O)[O-])c6F)c6ccc([nH]6)c(-c6cccc(S(=O)(=O)[O-])c6F)c6nc(c(-c7cccc(S(=O)(=O)[O-])c7F)c7ccc4[nH]7)C=C6)C=C5)cc3)C2)c(F)c1
REMARK SMILES IDX 22 1 21 2 20 3 19 4 18 5 17 6 16 7 15 8 13 9 14 10 12 11
REMARK SMILES IDX 9 12 10 13 93 14 11 15 8 16 6 17 7 18 5 20 1 21 2 22 3 23
REMARK SMILES IDX 96 24 4 25 94 26 95 27 23 28 24 29 25 30 26 31 27 32 28 33
REMARK SMILES IDX 29 34 30 35 31 36 92 37 32 38 91 39 33 40 34 41 35 42 85 43
REMARK SMILES IDX 36 44 90 45 84 46 86 47 37 48 89 49 83 50 82 51 38 53 70 54
REMARK SMILES IDX 50 55 69 56 51 57 54 58 68 59 87 60 52 61 53 62 67 64 88 65
REMARK SMILES IDX 55 66 39 67 40 68 48 69 41 70 43 71 49 72 42 73 44 74 45 75
REMARK SMILES IDX 46 76 47 77 71 78 72 79 80 80 73 81 75 82 81 83 74 84 76 85
REMARK SMILES IDX 77 86 78 87 79 88 56 89 57 90 65 91 58 92 60 93 66 94 59 95
REMARK SMILES IDX 61 96 62 97 63 98 64 99
REMARK H PARENT 8 19 86 52 54 63
REMARK Flexibility Score: inf
ROOT
ATOM      1  C   UNL A   1      41.255  20.594  26.872  1.00  0.00     0.188 C 
ENDROOT
BRANCH   1   2
ATOM      2  O   UNL A   1      40.703  21.658  27.629  1.00  0.00    -0.377 OA
BRANCH   2   3
ATOM      3  C   UNL A   1      40.668  22.883  26.928  1.00  0.00     0.188 C 
BRANCH   3   4
ATOM      4  C   UNL A   1      39.294  23.574  26.925  1.00  0.00     0.188 C 
BRANCH   4   5
ATOM      5  O   UNL A   1      38.322  23.227  25.959  1.00  0.00    -0.376 OA
BRANCH   5   6
ATOM      6  C   UNL A   1      38.012  21.874  25.675  1.00  0.00     0.202 C 
BRANCH   6   7
ATOM      7  C   UNL A   1      36.972  21.438  24.628  1.00  0.00     0.261 C 
BRANCH   7   8
ATOM      8  O   UNL A   1      35.840  20.682  25.072  1.00  0.00    -0.463 OA
BRANCH   8   9
ATOM      9  C   UNL A   1      34.747  21.401  25.435  1.00  0.00     0.312 C 
ATOM     10  O   UNL A   1      34.315  21.476  26.578  1.00  0.00    -0.252 OA
BRANCH   9  11
ATOM     11  C   UNL A   1      34.096  22.021  24.194  1.00  0.00     0.124 C 
ATOM     12  C   UNL A   1      31.875  23.112  24.406  1.00  0.00     0.106 C 
ATOM     13  C   UNL A   1      31.776  21.712  23.904  1.00  0.00    -0.006 C 
ATOM     14  C   UNL A   1      33.389  23.362  24.420  1.00  0.00     0.048 C 
ATOM     15  C   UNL A   1      32.975  21.149  23.723  1.00  0.00    -0.014 C 
BRANCH  12  16
ATOM     16  N   UNL A   1      31.208  23.248  25.688  1.00  0.00    -0.346 N 
ATOM     17  C   UNL A   1      30.386  24.235  26.201  1.00  0.00     0.254 C 
ATOM     18  O   UNL A   1      29.781  23.989  27.243  1.00  0.00    -0.269 OA
ATOM     19  H   UNL A   1      31.371  22.499  26.306  1.00  0.00     0.164 HD
BRANCH  17  20
ATOM     20  C   UNL A   1      30.299  25.599  25.600  1.00  0.00     0.075 A 
ATOM     21  C   UNL A   1      31.042  28.834  22.894  1.00  0.00     0.044 C 
ATOM     22  C   UNL A   1      30.642  27.873  23.975  1.00  0.00    -0.048 A 
ATOM     23  C   UNL A   1      29.514  27.066  23.834  1.00  0.00     0.004 A 
ATOM     24  C   UNL A   1      31.468  27.664  25.078  1.00  0.00     0.043 A 
ATOM     25  C   UNL A   1      29.313  25.979  24.690  1.00  0.00     0.017 A 
ATOM     26  C   UNL A   1      31.326  26.513  25.857  1.00  0.00     0.136 A 
ATOM     27  F   UNL A   1      32.269  26.280  26.780  1.00  0.00    -0.206 F 
ENDBRANCH  17  20
ENDBRANCH  12  16
ENDBRANCH   9  11
ENDBRANCH   8   9
ENDBRANCH   7   8
ENDBRANCH   6   7
ENDBRANCH   5   6
ENDBRANCH   4   5
ENDBRANCH   3   4
ENDBRANCH   2   3
ENDBRANCH   1   2
BRANCH   1  28
ATOM     28  C   UNL A   1      42.726  20.789  26.468  1.00  0.00     0.188 C 
BRANCH  28  29
ATOM     29  O   UNL A   1      43.118  20.963  25.115  1.00  0.00    -0.376 OA
BRANCH  29  30
ATOM     30  C   UNL A   1      43.488  22.204  24.551  1.00  0.00     0.202 C 
BRANCH  30  31
ATOM     31  C   UNL A   1      43.928  23.409  25.386  1.00  0.00     0.261 C 
BRANCH  31  32
ATOM     32  O   UNL A   1      44.445  24.490  24.614  1.00  0.00    -0.460 OA
BRANCH  32  33
ATOM     33  C   UNL A   1      45.526  25.084  25.166  1.00  0.00     0.338 C 
ATOM     34  O   UNL A   1      46.701  24.913  24.868  1.00  0.00    -0.246 OA
BRANCH  33  35
ATOM     35  C   UNL A   1      45.075  26.175  26.034  1.00  0.00     0.060 A 
ATOM     36  C   UNL A   1      44.462  27.265  25.403  1.00  0.00     0.016 A 
ATOM     37  C   UNL A   1      45.255  26.142  27.419  1.00  0.00     0.016 A 
ATOM     38  C   UNL A   1      44.067  28.356  26.150  1.00  0.00     0.010 A 
ATOM     39  C   UNL A   1      44.891  27.260  28.168  1.00  0.00     0.010 A 
ATOM     40  C   UNL A   1      44.345  28.382  27.520  1.00  0.00    -0.014 A 
BRANCH  40  41
ATOM     41  C   UNL A   1      44.300  29.698  28.180  1.00  0.00     0.031 A 
ATOM     42  C   UNL A   1      43.017  30.099  28.849  1.00  0.00     0.074 A 
ATOM     43  C   UNL A   1      45.409  30.447  28.274  1.00  0.00     0.049 A 
ATOM     44  N   UNL A   1      42.756  31.159  29.563  1.00  0.00    -0.248 NA
ATOM     45  C   UNL A   1      41.875  29.176  28.703  1.00  0.00     0.031 C 
ATOM     46  C   UNL A   1      46.705  30.114  27.685  1.00  0.00     0.029 A 
ATOM     47  N   UNL A   1      45.615  31.647  28.899  1.00  0.00    -0.354 N 
ATOM     48  C   UNL A   1      41.419  31.049  29.921  1.00  0.00     0.074 A 
ATOM     49  C   UNL A   1      40.917  29.823  29.347  1.00  0.00     0.031 C 
ATOM     50  C   UNL A   1      47.570  31.107  27.955  1.00  0.00     0.029 A 
ATOM     51  C   UNL A   1      46.879  32.149  28.711  1.00  0.00     0.049 A 
ATOM     52  H   UNL A   1      44.926  32.105  29.432  1.00  0.00     0.167 HD
ATOM     53  C   UNL A   1      40.679  31.896  30.670  1.00  0.00     0.034 A 
ATOM     54  C   UNL A   1      47.399  33.332  29.086  1.00  0.00     0.034 A 
ATOM     55  C   UNL A   1      41.202  33.103  31.247  1.00  0.00     0.049 A 
ATOM     56  C   UNL A   1      46.545  34.268  29.900  1.00  0.00     0.074 A 
ATOM     57  C   UNL A   1      40.557  34.014  32.061  1.00  0.00     0.029 A 
ATOM     58  N   UNL A   1      42.490  33.576  31.050  1.00  0.00    -0.354 N 
ATOM     59  N   UNL A   1      45.313  34.103  30.322  1.00  0.00    -0.248 NA
ATOM     60  C   UNL A   1      47.160  35.532  30.319  1.00  0.00     0.031 C 
ATOM     61  C   UNL A   1      41.441  35.066  32.314  1.00  0.00     0.029 A 
ATOM     62  C   UNL A   1      42.653  34.782  31.704  1.00  0.00     0.049 A 
ATOM     63  H   UNL A   1      43.185  33.120  30.522  1.00  0.00     0.167 HD
ATOM     64  C   UNL A   1      45.018  35.228  31.084  1.00  0.00     0.074 A 
ATOM     65  C   UNL A   1      46.211  36.052  31.084  1.00  0.00     0.031 C 
ATOM     66  C   UNL A   1      43.865  35.560  31.718  1.00  0.00     0.034 A 
BRANCH  53  67
ATOM     67  C   UNL A   1      39.230  31.564  30.887  1.00  0.00     0.023 A 
ATOM     68  C   UNL A   1      38.840  30.734  31.957  1.00  0.00     0.012 A 
ATOM     69  C   UNL A   1      38.245  32.131  30.055  1.00  0.00     0.148 A 
ATOM     70  C   UNL A   1      37.491  30.455  32.181  1.00  0.00     0.002 A 
ATOM     71  C   UNL A   1      36.903  31.889  30.314  1.00  0.00     0.091 A 
ATOM     72  F   UNL A   1      38.642  32.890  29.024  1.00  0.00    -0.205 F 
ATOM     73  C   UNL A   1      36.524  31.043  31.370  1.00  0.00     0.022 A 
BRANCH  71  74
ATOM     74  S   UNL A   1      35.583  32.664  29.376  1.00  0.00     0.127 S 
ATOM     75  O   UNL A   1      34.405  32.274  30.149  1.00  0.00    -0.237 OA
ATOM     76  O   UNL A   1      35.934  34.081  29.470  1.00  0.00    -0.237 OA
ATOM     77  O   UNL A   1      35.657  32.103  28.035  1.00  0.00    -0.744 OA
ENDBRANCH  71  74
ENDBRANCH  53  67
BRANCH  54  78
ATOM     78  C   UNL A   1      48.786  33.697  28.688  1.00  0.00     0.023 A 
ATOM     79  C   UNL A   1      49.883  33.278  29.464  1.00  0.00     0.012 A 
ATOM     80  C   UNL A   1      49.018  34.459  27.526  1.00  0.00     0.148 A 
ATOM     81  C   UNL A   1      51.182  33.646  29.112  1.00  0.00     0.002 A 
ATOM     82  C   UNL A   1      50.318  34.770  27.147  1.00  0.00     0.091 A 
ATOM     83  F   UNL A   1      47.960  34.863  26.809  1.00  0.00    -0.205 F 
ATOM     84  C   UNL A   1      51.401  34.383  27.950  1.00  0.00     0.022 A 
BRANCH  82  85
ATOM     85  S   UNL A   1      50.692  35.597  25.599  1.00  0.00     0.127 S 
ATOM     86  O   UNL A   1      52.148  35.488  25.544  1.00  0.00    -0.237 OA
ATOM     87  O   UNL A   1      49.973  34.768  24.632  1.00  0.00    -0.237 OA
ATOM     88  O   UNL A   1      50.163  36.948  25.736  1.00  0.00    -0.744 OA
ENDBRANCH  82  85
ENDBRANCH  54  78
BRANCH  66  89
ATOM     89  C   UNL A   1      43.850  36.847  32.499  1.00  0.00     0.023 A 
ATOM     90  C   UNL A   1      44.084  36.835  33.888  1.00  0.00     0.012 A 
ATOM     91  C   UNL A   1      43.669  38.077  31.836  1.00  0.00     0.148 A 
ATOM     92  C   UNL A   1      44.094  38.026  34.612  1.00  0.00     0.002 A 
ATOM     93  C   UNL A   1      43.738  39.262  32.556  1.00  0.00     0.091 A 
ATOM     94  F   UNL A   1      43.435  38.065  30.517  1.00  0.00    -0.205 F 
ATOM     95  C   UNL A   1      43.933  39.238  33.946  1.00  0.00     0.022 A 
BRANCH  93  96
ATOM     96  S   UNL A   1      43.649  40.873  31.767  1.00  0.00     0.127 S 
ATOM     97  O   UNL A   1      42.468  40.723  30.919  1.00  0.00    -0.237 OA
ATOM     98  O   UNL A   1      43.471  41.768  32.910  1.00  0.00    -0.237 OA
ATOM     99  O   UNL A   1      44.909  41.043  31.055  1.00  0.00    -0.744 OA
ENDBRANCH  93  96
ENDBRANCH  66  89
ENDBRANCH  40  41
ENDBRANCH  33  35
ENDBRANCH  32  33
ENDBRANCH  31  32
ENDBRANCH  30  31
ENDBRANCH  29  30
ENDBRANCH  28  29
ENDBRANCH   1  28
TORSDOF 25
ENDMDL
