MODEL 1
REMARK VINA RESULT:      -7.5      0.000      0.000
REMARK SMILES C/C(=N\NC(N)=S)c1nnn(-c2ccc(C(=O)OCCOCCOCCOCCOC(=O)c3ccc(-c4c5nc(c(-c6cccc(S(=O)(=O)[O-])c6F)c6ccc([nH]6)c(-c6cccc(S(=O)(=O)[O-])c6F)c6nc(c(-c7cccc(S(=O)(=O)[O-])c7F)c7ccc4[nH]7)C=C6)C=C5)cc3)cc2)c1C
REMARK SMILES IDX 23 1 22 2 21 3 20 4 19 5 18 6 16 7 17 8 15 9 12 10 13 11
REMARK SMILES IDX 97 12 14 13 96 14 11 15 8 16 9 17 98 18 10 19 99 20 2 21
REMARK SMILES IDX 1 22 3 23 4 24 5 26 7 27 6 28 24 31 25 32 26 33 27 34 28 35
REMARK SMILES IDX 29 36 30 37 31 38 32 39 33 40 34 41 95 42 35 43 94 44 36 45
REMARK SMILES IDX 37 46 38 47 88 48 39 49 93 50 87 51 89 52 40 53 92 54 86 55
REMARK SMILES IDX 85 56 41 58 73 59 53 60 72 61 54 62 57 63 71 64 90 65 55 66
REMARK SMILES IDX 56 67 70 69 91 70 58 71 42 72 43 73 51 74 44 75 46 76 52 77
REMARK SMILES IDX 45 78 47 79 48 80 49 81 50 82 74 83 75 84 83 85 76 86 78 87
REMARK SMILES IDX 84 88 77 89 79 90 80 91 81 92 82 93 59 94 60 95 68 96 61 97
REMARK SMILES IDX 63 98 69 99 62 100 64 101 65 102 66 103 67 104
REMARK H PARENT 4 25 6 29 6 30 89 57 57 68
REMARK Flexibility Score: inf
ROOT
ATOM      1  C   UNL A   1      42.352  43.305  34.309  1.00  0.00     0.188 C 
ENDROOT
BRANCH   1   2
ATOM      2  C   UNL A   1      42.109  44.537  33.407  1.00  0.00     0.188 C 
BRANCH   2   3
ATOM      3  O   UNL A   1      42.629  44.625  32.084  1.00  0.00    -0.376 OA
BRANCH   3   4
ATOM      4  C   UNL A   1      44.019  44.688  31.811  1.00  0.00     0.202 C 
BRANCH   4   5
ATOM      5  C   UNL A   1      44.792  43.559  31.111  1.00  0.00     0.261 C 
BRANCH   5   6
ATOM      6  O   UNL A   1      44.261  43.101  29.873  1.00  0.00    -0.460 OA
BRANCH   6   7
ATOM      7  C   UNL A   1      45.119  42.423  29.082  1.00  0.00     0.338 C 
ATOM      8  O   UNL A   1      46.012  41.673  29.429  1.00  0.00    -0.246 OA
BRANCH   7   9
ATOM      9  C   UNL A   1      44.703  42.624  27.676  1.00  0.00     0.060 A 
ATOM     10  C   UNL A   1      44.138  42.803  24.984  1.00  0.00     0.067 A 
ATOM     11  C   UNL A   1      43.608  41.731  25.705  1.00  0.00     0.029 A 
ATOM     12  C   UNL A   1      44.793  43.865  25.621  1.00  0.00     0.029 A 
ATOM     13  C   UNL A   1      43.921  41.634  27.060  1.00  0.00     0.018 A 
ATOM     14  C   UNL A   1      45.076  43.776  26.977  1.00  0.00     0.018 A 
BRANCH  10  15
ATOM     15  N   UNL A   1      44.331  42.652  23.597  1.00  0.00    -0.217 N 
ATOM     16  C   UNL A   1      44.096  42.876  21.447  1.00  0.00     0.132 A 
ATOM     17  N   UNL A   1      45.376  42.461  21.713  1.00  0.00    -0.128 NA
ATOM     18  C   UNL A   1      43.426  43.076  22.635  1.00  0.00     0.071 A 
ATOM     19  N   UNL A   1      45.536  42.431  23.033  1.00  0.00    -0.061 NA
ATOM     20  C   UNL A   1      42.131  43.739  22.931  1.00  0.00     0.069 C 
BRANCH  16  21
ATOM     21  C   UNL A   1      43.647  43.257  20.122  1.00  0.00     0.087 C 
ATOM     22  C   UNL A   1      44.635  44.018  19.279  1.00  0.00     0.071 C 
ATOM     23  N   UNL A   1      42.446  42.873  19.813  1.00  0.00    -0.176 NA
BRANCH  23  24
ATOM     24  N   UNL A   1      41.884  43.098  18.592  1.00  0.00    -0.254 N 
ATOM     25  H   UNL A   1      42.036  42.394  17.921  1.00  0.00     0.193 HD
BRANCH  24  26
ATOM     26  C   UNL A   1      41.134  44.175  18.162  1.00  0.00     0.184 C 
ATOM     27  S   UNL A   1      41.603  45.579  17.406  1.00  0.00    -0.040 S 
BRANCH  26  28
ATOM     28  N   UNL A   1      39.801  44.003  18.425  1.00  0.00    -0.375 N 
ATOM     29  H   UNL A   1      39.188  43.736  17.703  1.00  0.00     0.159 HD
ATOM     30  H   UNL A   1      39.456  44.146  19.335  1.00  0.00     0.159 HD
ENDBRANCH  26  28
ENDBRANCH  24  26
ENDBRANCH  23  24
ENDBRANCH  16  21
ENDBRANCH  10  15
ENDBRANCH   7   9
ENDBRANCH   6   7
ENDBRANCH   5   6
ENDBRANCH   4   5
ENDBRANCH   3   4
ENDBRANCH   2   3
ENDBRANCH   1   2
BRANCH   1  31
ATOM     31  O   UNL A   1      42.442  42.086  33.596  1.00  0.00    -0.377 OA
BRANCH  31  32
ATOM     32  C   UNL A   1      43.632  41.327  33.801  1.00  0.00     0.188 C 
BRANCH  32  33
ATOM     33  C   UNL A   1      44.026  40.240  32.764  1.00  0.00     0.188 C 
BRANCH  33  34
ATOM     34  O   UNL A   1      43.026  39.944  31.799  1.00  0.00    -0.376 OA
BRANCH  34  35
ATOM     35  C   UNL A   1      43.303  39.628  30.446  1.00  0.00     0.202 C 
BRANCH  35  36
ATOM     36  C   UNL A   1      43.581  38.179  30.059  1.00  0.00     0.261 C 
BRANCH  36  37
ATOM     37  O   UNL A   1      43.566  37.963  28.668  1.00  0.00    -0.460 OA
BRANCH  37  38
ATOM     38  C   UNL A   1      44.788  37.866  28.109  1.00  0.00     0.338 C 
ATOM     39  O   UNL A   1      45.606  38.752  27.971  1.00  0.00    -0.246 OA
BRANCH  38  40
ATOM     40  C   UNL A   1      44.927  36.494  27.613  1.00  0.00     0.060 A 
ATOM     41  C   UNL A   1      43.731  35.825  27.377  1.00  0.00     0.016 A 
ATOM     42  C   UNL A   1      46.156  35.833  27.791  1.00  0.00     0.016 A 
ATOM     43  C   UNL A   1      43.702  34.495  27.693  1.00  0.00     0.010 A 
ATOM     44  C   UNL A   1      46.126  34.505  28.104  1.00  0.00     0.010 A 
ATOM     45  C   UNL A   1      44.876  33.911  28.183  1.00  0.00    -0.014 A 
BRANCH  45  46
ATOM     46  C   UNL A   1      44.747  32.637  28.834  1.00  0.00     0.031 A 
ATOM     47  C   UNL A   1      45.016  31.522  27.919  1.00  0.00     0.074 A 
ATOM     48  C   UNL A   1      44.435  32.544  30.139  1.00  0.00     0.049 A 
ATOM     49  N   UNL A   1      44.147  30.726  27.395  1.00  0.00    -0.248 NA
ATOM     50  C   UNL A   1      46.363  31.432  27.340  1.00  0.00     0.031 C 
ATOM     51  C   UNL A   1      44.417  33.597  31.159  1.00  0.00     0.029 A 
ATOM     52  N   UNL A   1      44.198  31.420  30.856  1.00  0.00    -0.354 N 
ATOM     53  C   UNL A   1      44.893  29.867  26.603  1.00  0.00     0.074 A 
ATOM     54  C   UNL A   1      46.183  30.481  26.425  1.00  0.00     0.031 C 
ATOM     55  C   UNL A   1      44.458  33.021  32.383  1.00  0.00     0.029 A 
ATOM     56  C   UNL A   1      44.363  31.579  32.223  1.00  0.00     0.049 A 
ATOM     57  H   UNL A   1      43.932  30.566  30.444  1.00  0.00     0.167 HD
ATOM     58  C   UNL A   1      44.494  28.587  26.395  1.00  0.00     0.034 A 
ATOM     59  C   UNL A   1      44.531  30.574  33.116  1.00  0.00     0.034 A 
ATOM     60  C   UNL A   1      43.120  28.382  26.764  1.00  0.00     0.049 A 
ATOM     61  C   UNL A   1      44.019  29.332  32.483  1.00  0.00     0.074 A 
ATOM     62  C   UNL A   1      41.914  28.905  26.344  1.00  0.00     0.029 A 
ATOM     63  N   UNL A   1      42.889  27.829  28.002  1.00  0.00    -0.354 N 
ATOM     64  N   UNL A   1      42.762  29.150  32.185  1.00  0.00    -0.248 NA
ATOM     65  C   UNL A   1      44.960  28.500  31.748  1.00  0.00     0.031 C 
ATOM     66  C   UNL A   1      41.138  29.043  27.532  1.00  0.00     0.029 A 
ATOM     67  C   UNL A   1      41.886  28.547  28.601  1.00  0.00     0.049 A 
ATOM     68  H   UNL A   1      43.360  27.056  28.389  1.00  0.00     0.167 HD
ATOM     69  C   UNL A   1      42.785  28.544  30.934  1.00  0.00     0.074 A 
ATOM     70  C   UNL A   1      44.158  28.071  30.767  1.00  0.00     0.031 C 
ATOM     71  C   UNL A   1      41.779  28.748  30.031  1.00  0.00     0.034 A 
BRANCH  58  72
ATOM     72  C   UNL A   1      45.455  27.448  26.215  1.00  0.00     0.023 A 
ATOM     73  C   UNL A   1      45.201  26.535  25.175  1.00  0.00     0.012 A 
ATOM     74  C   UNL A   1      46.441  27.097  27.166  1.00  0.00     0.148 A 
ATOM     75  C   UNL A   1      45.888  25.321  25.095  1.00  0.00     0.002 A 
ATOM     76  C   UNL A   1      47.184  25.934  27.031  1.00  0.00     0.091 A 
ATOM     77  F   UNL A   1      46.574  27.812  28.289  1.00  0.00    -0.205 F 
ATOM     78  C   UNL A   1      46.892  25.026  26.012  1.00  0.00     0.022 A 
BRANCH  76  79
ATOM     79  S   UNL A   1      48.526  25.546  28.159  1.00  0.00     0.127 S 
ATOM     80  O   UNL A   1      49.083  24.342  27.549  1.00  0.00    -0.237 OA
ATOM     81  O   UNL A   1      49.362  26.742  28.051  1.00  0.00    -0.237 OA
ATOM     82  O   UNL A   1      47.899  25.376  29.463  1.00  0.00    -0.744 OA
ENDBRANCH  76  79
ENDBRANCH  58  72
BRANCH  59  83
ATOM     83  C   UNL A   1      45.427  30.553  34.296  1.00  0.00     0.023 A 
ATOM     84  C   UNL A   1      46.782  30.905  34.158  1.00  0.00     0.012 A 
ATOM     85  C   UNL A   1      44.893  30.450  35.602  1.00  0.00     0.148 A 
ATOM     86  C   UNL A   1      47.577  31.158  35.284  1.00  0.00     0.002 A 
ATOM     87  C   UNL A   1      45.688  30.692  36.717  1.00  0.00     0.091 A 
ATOM     88  F   UNL A   1      43.585  30.202  35.746  1.00  0.00    -0.205 F 
ATOM     89  C   UNL A   1      47.029  31.058  36.561  1.00  0.00     0.022 A 
BRANCH  87  90
ATOM     90  S   UNL A   1      45.043  30.601  38.393  1.00  0.00     0.127 S 
ATOM     91  O   UNL A   1      44.072  31.696  38.398  1.00  0.00    -0.237 OA
ATOM     92  O   UNL A   1      44.459  29.263  38.420  1.00  0.00    -0.237 OA
ATOM     93  O   UNL A   1      46.185  30.808  39.273  1.00  0.00    -0.744 OA
ENDBRANCH  87  90
ENDBRANCH  59  83
BRANCH  71  94
ATOM     94  C   UNL A   1      40.541  29.470  30.511  1.00  0.00     0.023 A 
ATOM     95  C   UNL A   1      39.475  28.800  31.151  1.00  0.00     0.012 A 
ATOM     96  C   UNL A   1      40.530  30.873  30.471  1.00  0.00     0.148 A 
ATOM     97  C   UNL A   1      38.413  29.514  31.715  1.00  0.00     0.002 A 
ATOM     98  C   UNL A   1      39.497  31.580  31.073  1.00  0.00     0.091 A 
ATOM     99  F   UNL A   1      41.555  31.497  29.870  1.00  0.00    -0.205 F 
ATOM    100  C   UNL A   1      38.430  30.905  31.687  1.00  0.00     0.022 A 
BRANCH  98 101
ATOM    101  S   UNL A   1      39.525  33.371  31.180  1.00  0.00     0.127 S 
ATOM    102  O   UNL A   1      39.795  33.756  29.796  1.00  0.00    -0.237 OA
ATOM    103  O   UNL A   1      38.172  33.680  31.647  1.00  0.00    -0.237 OA
ATOM    104  O   UNL A   1      40.573  33.699  32.139  1.00  0.00    -0.744 OA
ENDBRANCH  98 101
ENDBRANCH  71  94
ENDBRANCH  45  46
ENDBRANCH  38  40
ENDBRANCH  37  38
ENDBRANCH  36  37
ENDBRANCH  35  36
ENDBRANCH  34  35
ENDBRANCH  33  34
ENDBRANCH  32  33
ENDBRANCH  31  32
ENDBRANCH   1  31
TORSDOF 28
ENDMDL
MODEL 2
REMARK VINA RESULT:      -7.3      5.897     12.860
REMARK SMILES C/C(=N\NC(N)=S)c1nnn(-c2ccc(C(=O)OCCOCCOCCOCCOC(=O)c3ccc(-c4c5nc(c(-c6cccc(S(=O)(=O)[O-])c6F)c6ccc([nH]6)c(-c6cccc(S(=O)(=O)[O-])c6F)c6nc(c(-c7cccc(S(=O)(=O)[O-])c7F)c7ccc4[nH]7)C=C6)C=C5)cc3)cc2)c1C
REMARK SMILES IDX 23 1 22 2 21 3 20 4 19 5 18 6 16 7 17 8 15 9 12 10 13 11
REMARK SMILES IDX 97 12 14 13 96 14 11 15 8 16 9 17 98 18 10 19 99 20 2 21
REMARK SMILES IDX 1 22 3 23 4 24 5 26 7 27 6 28 24 31 25 32 26 33 27 34 28 35
REMARK SMILES IDX 29 36 30 37 31 38 32 39 33 40 34 41 95 42 35 43 94 44 36 45
REMARK SMILES IDX 37 46 38 47 88 48 39 49 93 50 87 51 89 52 40 53 92 54 86 55
REMARK SMILES IDX 85 56 41 58 73 59 53 60 72 61 54 62 57 63 71 64 90 65 55 66
REMARK SMILES IDX 56 67 70 69 91 70 58 71 42 72 43 73 51 74 44 75 46 76 52 77
REMARK SMILES IDX 45 78 47 79 48 80 49 81 50 82 74 83 75 84 83 85 76 86 78 87
REMARK SMILES IDX 84 88 77 89 79 90 80 91 81 92 82 93 59 94 60 95 68 96 61 97
REMARK SMILES IDX 63 98 69 99 62 100 64 101 65 102 66 103 67 104
REMARK H PARENT 4 25 6 29 6 30 89 57 57 68
REMARK Flexibility Score: inf
ROOT
ATOM      1  C   UNL A   1      36.932  22.514  24.555  1.00  0.00     0.188 C 
ENDROOT
BRANCH   1   2
ATOM      2  C   UNL A   1      36.453  22.916  23.140  1.00  0.00     0.188 C 
BRANCH   2   3
ATOM      3  O   UNL A   1      35.262  23.666  22.926  1.00  0.00    -0.376 OA
BRANCH   3   4
ATOM      4  C   UNL A   1      34.462  24.156  23.989  1.00  0.00     0.202 C 
BRANCH   4   5
ATOM      5  C   UNL A   1      32.933  24.276  23.906  1.00  0.00     0.261 C 
BRANCH   5   6
ATOM      6  O   UNL A   1      32.408  25.588  23.747  1.00  0.00    -0.460 OA
BRANCH   6   7
ATOM      7  C   UNL A   1      31.378  25.909  24.558  1.00  0.00     0.338 C 
ATOM      8  O   UNL A   1      30.409  25.227  24.832  1.00  0.00    -0.246 OA
BRANCH   7   9
ATOM      9  C   UNL A   1      31.688  27.206  25.202  1.00  0.00     0.060 A 
ATOM     10  C   UNL A   1      32.547  29.538  26.394  1.00  0.00     0.067 A 
ATOM     11  C   UNL A   1      32.635  29.430  25.004  1.00  0.00     0.029 A 
ATOM     12  C   UNL A   1      31.881  28.577  27.165  1.00  0.00     0.029 A 
ATOM     13  C   UNL A   1      32.223  28.237  24.413  1.00  0.00     0.018 A 
ATOM     14  C   UNL A   1      31.447  27.403  26.565  1.00  0.00     0.018 A 
BRANCH  10  15
ATOM     15  N   UNL A   1      33.422  30.419  27.057  1.00  0.00    -0.217 N 
ATOM     16  C   UNL A   1      34.171  32.124  28.180  1.00  0.00     0.132 A 
ATOM     17  N   UNL A   1      35.045  31.076  28.328  1.00  0.00    -0.128 NA
ATOM     18  C   UNL A   1      33.089  31.712  27.432  1.00  0.00     0.071 A 
ATOM     19  N   UNL A   1      34.522  30.013  27.726  1.00  0.00    -0.061 NA
ATOM     20  C   UNL A   1      31.772  32.348  27.182  1.00  0.00     0.069 C 
BRANCH  16  21
ATOM     21  C   UNL A   1      34.299  33.370  28.912  1.00  0.00     0.087 C 
ATOM     22  C   UNL A   1      34.366  34.624  28.082  1.00  0.00     0.071 C 
ATOM     23  N   UNL A   1      34.320  33.252  30.205  1.00  0.00    -0.176 NA
BRANCH  23  24
ATOM     24  N   UNL A   1      34.382  34.321  31.047  1.00  0.00    -0.254 N 
ATOM     25  H   UNL A   1      34.384  35.203  30.611  1.00  0.00     0.193 HD
BRANCH  24  26
ATOM     26  C   UNL A   1      34.445  34.342  32.427  1.00  0.00     0.184 C 
ATOM     27  S   UNL A   1      35.634  34.910  33.440  1.00  0.00    -0.040 S 
BRANCH  26  28
ATOM     28  N   UNL A   1      33.324  33.798  32.995  1.00  0.00    -0.375 N 
ATOM     29  H   UNL A   1      33.404  33.228  33.793  1.00  0.00     0.159 HD
ATOM     30  H   UNL A   1      32.438  33.979  32.606  1.00  0.00     0.159 HD
ENDBRANCH  26  28
ENDBRANCH  24  26
ENDBRANCH  23  24
ENDBRANCH  16  21
ENDBRANCH  10  15
ENDBRANCH   7   9
ENDBRANCH   6   7
ENDBRANCH   5   6
ENDBRANCH   4   5
ENDBRANCH   3   4
ENDBRANCH   2   3
ENDBRANCH   1   2
BRANCH   1  31
ATOM     31  O   UNL A   1      37.376  21.173  24.645  1.00  0.00    -0.377 OA
BRANCH  31  32
ATOM     32  C   UNL A   1      38.532  20.950  25.449  1.00  0.00     0.188 C 
BRANCH  32  33
ATOM     33  C   UNL A   1      39.068  22.105  26.340  1.00  0.00     0.188 C 
BRANCH  33  34
ATOM     34  O   UNL A   1      40.446  22.403  26.168  1.00  0.00    -0.376 OA
BRANCH  34  35
ATOM     35  C   UNL A   1      41.362  22.550  27.239  1.00  0.00     0.202 C 
BRANCH  35  36
ATOM     36  C   UNL A   1      41.367  23.844  28.046  1.00  0.00     0.261 C 
BRANCH  36  37
ATOM     37  O   UNL A   1      41.301  25.000  27.244  1.00  0.00    -0.460 OA
BRANCH  37  38
ATOM     38  C   UNL A   1      40.196  25.745  27.437  1.00  0.00     0.338 C 
ATOM     39  O   UNL A   1      39.044  25.419  27.235  1.00  0.00    -0.246 OA
BRANCH  38  40
ATOM     40  C   UNL A   1      40.642  27.075  27.862  1.00  0.00     0.060 A 
ATOM     41  C   UNL A   1      41.050  27.919  26.835  1.00  0.00     0.016 A 
ATOM     42  C   UNL A   1      41.008  27.267  29.207  1.00  0.00     0.016 A 
ATOM     43  C   UNL A   1      42.121  28.728  27.098  1.00  0.00     0.010 A 
ATOM     44  C   UNL A   1      42.075  28.075  29.468  1.00  0.00     0.010 A 
ATOM     45  C   UNL A   1      42.689  28.671  28.376  1.00  0.00    -0.014 A 
BRANCH  45  46
ATOM     46  C   UNL A   1      43.999  29.239  28.534  1.00  0.00     0.031 A 
ATOM     47  C   UNL A   1      45.056  28.294  28.156  1.00  0.00     0.074 A 
ATOM     48  C   UNL A   1      44.170  30.502  28.963  1.00  0.00     0.049 A 
ATOM     49  N   UNL A   1      45.838  27.651  28.954  1.00  0.00    -0.248 NA
ATOM     50  C   UNL A   1      45.089  27.840  26.760  1.00  0.00     0.031 C 
ATOM     51  C   UNL A   1      43.174  31.571  29.099  1.00  0.00     0.029 A 
ATOM     52  N   UNL A   1      45.336  31.133  29.238  1.00  0.00    -0.354 N 
ATOM     53  C   UNL A   1      46.638  26.886  28.118  1.00  0.00     0.074 A 
ATOM     54  C   UNL A   1      45.992  26.862  26.832  1.00  0.00     0.031 C 
ATOM     55  C   UNL A   1      43.817  32.761  29.157  1.00  0.00     0.029 A 
ATOM     56  C   UNL A   1      45.249  32.516  29.202  1.00  0.00     0.049 A 
ATOM     57  H   UNL A   1      46.170  30.653  29.445  1.00  0.00     0.167 HD
ATOM     58  C   UNL A   1      47.912  26.575  28.466  1.00  0.00     0.034 A 
ATOM     59  C   UNL A   1      46.299  33.366  29.093  1.00  0.00     0.034 A 
ATOM     60  C   UNL A   1      48.162  26.803  29.863  1.00  0.00     0.049 A 
ATOM     61  C   UNL A   1      47.513  32.623  29.515  1.00  0.00     0.074 A 
ATOM     62  C   UNL A   1      47.640  26.301  31.037  1.00  0.00     0.029 A 
ATOM     63  N   UNL A   1      48.787  27.982  30.193  1.00  0.00    -0.354 N 
ATOM     64  N   UNL A   1      47.702  32.200  30.735  1.00  0.00    -0.248 NA
ATOM     65  C   UNL A   1      48.285  31.935  28.492  1.00  0.00     0.031 C 
ATOM     66  C   UNL A   1      47.582  27.417  31.922  1.00  0.00     0.029 A 
ATOM     67  C   UNL A   1      48.123  28.524  31.264  1.00  0.00     0.049 A 
ATOM     68  H   UNL A   1      49.571  28.370  29.741  1.00  0.00     0.167 HD
ATOM     69  C   UNL A   1      48.238  30.926  30.584  1.00  0.00     0.074 A 
ATOM     70  C   UNL A   1      48.674  30.862  29.190  1.00  0.00     0.031 C 
ATOM     71  C   UNL A   1      48.003  29.946  31.507  1.00  0.00     0.034 A 
BRANCH  58  72
ATOM     72  C   UNL A   1      49.021  26.424  27.466  1.00  0.00     0.023 A 
ATOM     73  C   UNL A   1      49.732  25.210  27.454  1.00  0.00     0.012 A 
ATOM     74  C   UNL A   1      49.554  27.501  26.719  1.00  0.00     0.148 A 
ATOM     75  C   UNL A   1      50.927  25.079  26.742  1.00  0.00     0.002 A 
ATOM     76  C   UNL A   1      50.690  27.339  25.940  1.00  0.00     0.091 A 
ATOM     77  F   UNL A   1      49.050  28.731  26.864  1.00  0.00    -0.205 F 
ATOM     78  C   UNL A   1      51.398  26.137  25.970  1.00  0.00     0.022 A 
BRANCH  76  79
ATOM     79  S   UNL A   1      51.297  28.660  24.887  1.00  0.00     0.127 S 
ATOM     80  O   UNL A   1      50.855  29.844  25.617  1.00  0.00    -0.237 OA
ATOM     81  O   UNL A   1      52.740  28.418  24.908  1.00  0.00    -0.237 OA
ATOM     82  O   UNL A   1      50.677  28.435  23.588  1.00  0.00    -0.744 OA
ENDBRANCH  76  79
ENDBRANCH  58  72
BRANCH  59  83
ATOM     83  C   UNL A   1      46.368  34.622  28.310  1.00  0.00     0.023 A 
ATOM     84  C   UNL A   1      46.711  34.583  26.946  1.00  0.00     0.012 A 
ATOM     85  C   UNL A   1      45.836  35.824  28.831  1.00  0.00     0.148 A 
ATOM     86  C   UNL A   1      46.520  35.702  26.124  1.00  0.00     0.002 A 
ATOM     87  C   UNL A   1      45.657  36.935  28.015  1.00  0.00     0.091 A 
ATOM     88  F   UNL A   1      45.424  35.848  30.105  1.00  0.00    -0.205 F 
ATOM     89  C   UNL A   1      45.988  36.875  26.657  1.00  0.00     0.022 A 
BRANCH  87  90
ATOM     90  S   UNL A   1      44.957  38.474  28.629  1.00  0.00     0.127 S 
ATOM     91  O   UNL A   1      43.560  38.099  28.848  1.00  0.00    -0.237 OA
ATOM     92  O   UNL A   1      45.731  38.693  29.847  1.00  0.00    -0.237 OA
ATOM     93  O   UNL A   1      45.156  39.455  27.570  1.00  0.00    -0.744 OA
ENDBRANCH  87  90
ENDBRANCH  59  83
BRANCH  71  94
ATOM     94  C   UNL A   1      47.332  30.347  32.800  1.00  0.00     0.023 A 
ATOM     95  C   UNL A   1      48.056  30.844  33.906  1.00  0.00     0.012 A 
ATOM     96  C   UNL A   1      45.929  30.384  32.839  1.00  0.00     0.148 A 
ATOM     97  C   UNL A   1      47.395  31.345  35.032  1.00  0.00     0.002 A 
ATOM     98  C   UNL A   1      45.276  30.924  33.941  1.00  0.00     0.091 A 
ATOM     99  F   UNL A   1      45.254  29.919  31.778  1.00  0.00    -0.205 F 
ATOM    100  C   UNL A   1      46.005  31.396  35.044  1.00  0.00     0.022 A 
BRANCH  98 101
ATOM    101  S   UNL A   1      43.494  31.133  33.964  1.00  0.00     0.127 S 
ATOM    102  O   UNL A   1      43.026  29.753  34.066  1.00  0.00    -0.237 OA
ATOM    103  O   UNL A   1      43.287  31.940  35.168  1.00  0.00    -0.237 OA
ATOM    104  O   UNL A   1      43.155  31.820  32.724  1.00  0.00    -0.744 OA
ENDBRANCH  98 101
ENDBRANCH  71  94
ENDBRANCH  45  46
ENDBRANCH  38  40
ENDBRANCH  37  38
ENDBRANCH  36  37
ENDBRANCH  35  36
ENDBRANCH  34  35
ENDBRANCH  33  34
ENDBRANCH  32  33
ENDBRANCH  31  32
ENDBRANCH   1  31
TORSDOF 28
ENDMDL
MODEL 3
REMARK VINA RESULT:      -7.3      6.482     12.769
REMARK SMILES C/C(=N\NC(N)=S)c1nnn(-c2ccc(C(=O)OCCOCCOCCOCCOC(=O)c3ccc(-c4c5nc(c(-c6cccc(S(=O)(=O)[O-])c6F)c6ccc([nH]6)c(-c6cccc(S(=O)(=O)[O-])c6F)c6nc(c(-c7cccc(S(=O)(=O)[O-])c7F)c7ccc4[nH]7)C=C6)C=C5)cc3)cc2)c1C
REMARK SMILES IDX 23 1 22 2 21 3 20 4 19 5 18 6 16 7 17 8 15 9 12 10 13 11
REMARK SMILES IDX 97 12 14 13 96 14 11 15 8 16 9 17 98 18 10 19 99 20 2 21
REMARK SMILES IDX 1 22 3 23 4 24 5 26 7 27 6 28 24 31 25 32 26 33 27 34 28 35
REMARK SMILES IDX 29 36 30 37 31 38 32 39 33 40 34 41 95 42 35 43 94 44 36 45
REMARK SMILES IDX 37 46 38 47 88 48 39 49 93 50 87 51 89 52 40 53 92 54 86 55
REMARK SMILES IDX 85 56 41 58 73 59 53 60 72 61 54 62 57 63 71 64 90 65 55 66
REMARK SMILES IDX 56 67 70 69 91 70 58 71 42 72 43 73 51 74 44 75 46 76 52 77
REMARK SMILES IDX 45 78 47 79 48 80 49 81 50 82 74 83 75 84 83 85 76 86 78 87
REMARK SMILES IDX 84 88 77 89 79 90 80 91 81 92 82 93 59 94 60 95 68 96 61 97
REMARK SMILES IDX 63 98 69 99 62 100 64 101 65 102 66 103 67 104
REMARK H PARENT 4 25 6 29 6 30 89 57 57 68
REMARK Flexibility Score: inf
ROOT
ATOM      1  C   UNL A   1      36.967  22.537  24.581  1.00  0.00     0.188 C 
ENDROOT
BRANCH   1   2
ATOM      2  C   UNL A   1      36.475  22.878  23.155  1.00  0.00     0.188 C 
BRANCH   2   3
ATOM      3  O   UNL A   1      35.244  23.551  22.916  1.00  0.00    -0.376 OA
BRANCH   3   4
ATOM      4  C   UNL A   1      34.421  24.037  23.963  1.00  0.00     0.202 C 
BRANCH   4   5
ATOM      5  C   UNL A   1      32.894  24.171  23.842  1.00  0.00     0.261 C 
BRANCH   5   6
ATOM      6  O   UNL A   1      32.378  25.494  23.775  1.00  0.00    -0.460 OA
BRANCH   6   7
ATOM      7  C   UNL A   1      31.528  25.842  24.764  1.00  0.00     0.338 C 
ATOM      8  O   UNL A   1      30.583  25.204  25.188  1.00  0.00    -0.246 OA
BRANCH   7   9
ATOM      9  C   UNL A   1      32.025  27.095  25.377  1.00  0.00     0.060 A 
ATOM     10  C   UNL A   1      33.198  29.282  26.575  1.00  0.00     0.067 A 
ATOM     11  C   UNL A   1      33.516  29.002  25.244  1.00  0.00     0.029 A 
ATOM     12  C   UNL A   1      32.181  28.593  27.248  1.00  0.00     0.029 A 
ATOM     13  C   UNL A   1      32.939  27.879  24.655  1.00  0.00     0.018 A 
ATOM     14  C   UNL A   1      31.589  27.493  26.644  1.00  0.00     0.018 A 
BRANCH  10  15
ATOM     15  N   UNL A   1      34.125  30.005  27.351  1.00  0.00    -0.217 N 
ATOM     16  C   UNL A   1      34.994  31.529  28.635  1.00  0.00     0.132 A 
ATOM     17  N   UNL A   1      35.724  30.375  28.760  1.00  0.00    -0.128 NA
ATOM     18  C   UNL A   1      33.923  31.303  27.796  1.00  0.00     0.071 A 
ATOM     19  N   UNL A   1      35.120  29.424  28.053  1.00  0.00    -0.061 NA
ATOM     20  C   UNL A   1      32.711  32.111  27.512  1.00  0.00     0.069 C 
BRANCH  16  21
ATOM     21  C   UNL A   1      35.219  32.701  29.460  1.00  0.00     0.087 C 
ATOM     22  C   UNL A   1      35.735  33.924  28.750  1.00  0.00     0.071 C 
ATOM     23  N   UNL A   1      34.925  32.557  30.717  1.00  0.00    -0.176 NA
BRANCH  23  24
ATOM     24  N   UNL A   1      35.025  33.569  31.623  1.00  0.00    -0.254 N 
ATOM     25  H   UNL A   1      35.431  34.400  31.286  1.00  0.00     0.193 HD
BRANCH  24  26
ATOM     26  C   UNL A   1      34.639  33.593  32.949  1.00  0.00     0.184 C 
ATOM     27  S   UNL A   1      35.541  33.812  34.328  1.00  0.00    -0.040 S 
BRANCH  26  28
ATOM     28  N   UNL A   1      33.290  33.406  33.089  1.00  0.00    -0.375 N 
ATOM     29  H   UNL A   1      32.929  33.035  33.926  1.00  0.00     0.159 HD
ATOM     30  H   UNL A   1      32.681  33.642  32.353  1.00  0.00     0.159 HD
ENDBRANCH  26  28
ENDBRANCH  24  26
ENDBRANCH  23  24
ENDBRANCH  16  21
ENDBRANCH  10  15
ENDBRANCH   7   9
ENDBRANCH   6   7
ENDBRANCH   5   6
ENDBRANCH   4   5
ENDBRANCH   3   4
ENDBRANCH   2   3
ENDBRANCH   1   2
BRANCH   1  31
ATOM     31  O   UNL A   1      37.538  21.246  24.692  1.00  0.00    -0.377 OA
BRANCH  31  32
ATOM     32  C   UNL A   1      38.660  21.132  25.563  1.00  0.00     0.188 C 
BRANCH  32  33
ATOM     33  C   UNL A   1      39.086  22.360  26.413  1.00  0.00     0.188 C 
BRANCH  33  34
ATOM     34  O   UNL A   1      40.427  22.786  26.219  1.00  0.00    -0.376 OA
BRANCH  34  35
ATOM     35  C   UNL A   1      41.273  23.233  27.264  1.00  0.00     0.202 C 
BRANCH  35  36
ATOM     36  C   UNL A   1      41.032  24.604  27.888  1.00  0.00     0.261 C 
BRANCH  36  37
ATOM     37  O   UNL A   1      41.853  25.612  27.349  1.00  0.00    -0.460 OA
BRANCH  37  38
ATOM     38  C   UNL A   1      41.233  26.418  26.465  1.00  0.00     0.338 C 
ATOM     39  O   UNL A   1      40.723  26.099  25.411  1.00  0.00    -0.246 OA
BRANCH  38  40
ATOM     40  C   UNL A   1      41.360  27.788  26.969  1.00  0.00     0.060 A 
ATOM     41  C   UNL A   1      42.587  28.397  26.730  1.00  0.00     0.016 A 
ATOM     42  C   UNL A   1      40.463  28.229  27.959  1.00  0.00     0.016 A 
ATOM     43  C   UNL A   1      43.074  29.201  27.723  1.00  0.00     0.010 A 
ATOM     44  C   UNL A   1      40.949  29.033  28.948  1.00  0.00     0.010 A 
ATOM     45  C   UNL A   1      42.290  29.378  28.869  1.00  0.00    -0.014 A 
BRANCH  45  46
ATOM     46  C   UNL A   1      42.943  29.917  30.029  1.00  0.00     0.031 A 
ATOM     47  C   UNL A   1      43.382  28.864  30.952  1.00  0.00     0.074 A 
ATOM     48  C   UNL A   1      43.119  31.241  30.184  1.00  0.00     0.049 A 
ATOM     49  N   UNL A   1      42.841  28.549  32.079  1.00  0.00    -0.248 NA
ATOM     50  C   UNL A   1      44.382  27.907  30.458  1.00  0.00     0.031 C 
ATOM     51  C   UNL A   1      42.950  32.314  29.198  1.00  0.00     0.029 A 
ATOM     52  N   UNL A   1      43.634  31.889  31.256  1.00  0.00    -0.354 N 
ATOM     53  C   UNL A   1      43.608  27.496  32.552  1.00  0.00     0.074 A 
ATOM     54  C   UNL A   1      44.371  27.002  31.436  1.00  0.00     0.031 C 
ATOM     55  C   UNL A   1      43.613  33.412  29.630  1.00  0.00     0.029 A 
ATOM     56  C   UNL A   1      44.121  33.155  30.967  1.00  0.00     0.049 A 
ATOM     57  H   UNL A   1      43.661  31.497  32.158  1.00  0.00     0.167 HD
ATOM     58  C   UNL A   1      43.774  27.297  33.884  1.00  0.00     0.034 A 
ATOM     59  C   UNL A   1      44.980  33.861  31.742  1.00  0.00     0.034 A 
ATOM     60  C   UNL A   1      42.818  28.036  34.663  1.00  0.00     0.049 A 
ATOM     61  C   UNL A   1      44.904  33.295  33.113  1.00  0.00     0.074 A 
ATOM     62  C   UNL A   1      41.441  28.042  34.760  1.00  0.00     0.029 A 
ATOM     63  N   UNL A   1      43.245  29.229  35.196  1.00  0.00    -0.354 N 
ATOM     64  N   UNL A   1      43.832  33.367  33.855  1.00  0.00    -0.248 NA
ATOM     65  C   UNL A   1      45.840  32.241  33.472  1.00  0.00     0.031 C 
ATOM     66  C   UNL A   1      41.088  29.413  34.923  1.00  0.00     0.029 A 
ATOM     67  C   UNL A   1      42.265  30.163  34.974  1.00  0.00     0.049 A 
ATOM     68  H   UNL A   1      44.103  29.387  35.654  1.00  0.00     0.167 HD
ATOM     69  C   UNL A   1      43.737  32.114  34.451  1.00  0.00     0.074 A 
ATOM     70  C   UNL A   1      45.053  31.505  34.266  1.00  0.00     0.031 C 
ATOM     71  C   UNL A   1      42.523  31.573  34.768  1.00  0.00     0.034 A 
BRANCH  58  72
ATOM     72  C   UNL A   1      45.032  26.737  34.479  1.00  0.00     0.023 A 
ATOM     73  C   UNL A   1      44.912  25.640  35.353  1.00  0.00     0.012 A 
ATOM     74  C   UNL A   1      46.286  27.388  34.418  1.00  0.00     0.148 A 
ATOM     75  C   UNL A   1      45.987  25.222  36.140  1.00  0.00     0.002 A 
ATOM     76  C   UNL A   1      47.376  26.913  35.131  1.00  0.00     0.091 A 
ATOM     77  F   UNL A   1      46.403  28.558  33.779  1.00  0.00    -0.205 F 
ATOM     78  C   UNL A   1      47.225  25.846  36.018  1.00  0.00     0.022 A 
BRANCH  76  79
ATOM     79  S   UNL A   1      49.002  27.653  34.957  1.00  0.00     0.127 S 
ATOM     80  O   UNL A   1      48.706  29.066  35.169  1.00  0.00    -0.237 OA
ATOM     81  O   UNL A   1      49.742  27.003  36.040  1.00  0.00    -0.237 OA
ATOM     82  O   UNL A   1      49.456  27.282  33.623  1.00  0.00    -0.744 OA
ENDBRANCH  76  79
ENDBRANCH  58  72
BRANCH  59  83
ATOM     83  C   UNL A   1      46.105  34.716  31.297  1.00  0.00     0.023 A 
ATOM     84  C   UNL A   1      47.327  34.131  30.916  1.00  0.00     0.012 A 
ATOM     85  C   UNL A   1      45.893  36.081  30.991  1.00  0.00     0.148 A 
ATOM     86  C   UNL A   1      48.301  34.878  30.240  1.00  0.00     0.002 A 
ATOM     87  C   UNL A   1      46.866  36.820  30.329  1.00  0.00     0.091 A 
ATOM     88  F   UNL A   1      44.702  36.626  31.269  1.00  0.00    -0.205 F 
ATOM     89  C   UNL A   1      48.069  36.219  29.942  1.00  0.00     0.022 A 
BRANCH  87  90
ATOM     90  S   UNL A   1      46.626  38.548  29.892  1.00  0.00     0.127 S 
ATOM     91  O   UNL A   1      45.525  38.463  28.932  1.00  0.00    -0.237 OA
ATOM     92  O   UNL A   1      46.273  39.139  31.180  1.00  0.00    -0.237 OA
ATOM     93  O   UNL A   1      47.889  38.996  29.319  1.00  0.00    -0.744 OA
ENDBRANCH  87  90
ENDBRANCH  59  83
BRANCH  71  94
ATOM     94  C   UNL A   1      41.306  32.462  34.653  1.00  0.00     0.023 A 
ATOM     95  C   UNL A   1      40.969  33.414  35.640  1.00  0.00     0.012 A 
ATOM     96  C   UNL A   1      40.588  32.457  33.446  1.00  0.00     0.148 A 
ATOM     97  C   UNL A   1      39.925  34.322  35.437  1.00  0.00     0.002 A 
ATOM     98  C   UNL A   1      39.582  33.391  33.230  1.00  0.00     0.091 A 
ATOM     99  F   UNL A   1      40.926  31.555  32.513  1.00  0.00    -0.205 F 
ATOM    100  C   UNL A   1      39.240  34.319  34.226  1.00  0.00     0.022 A 
BRANCH  98 101
ATOM    101  S   UNL A   1      38.748  33.518  31.646  1.00  0.00     0.127 S 
ATOM    102  O   UNL A   1      39.871  33.589  30.714  1.00  0.00    -0.237 OA
ATOM    103  O   UNL A   1      37.985  32.270  31.591  1.00  0.00    -0.237 OA
ATOM    104  O   UNL A   1      37.921  34.716  31.724  1.00  0.00    -0.744 OA
ENDBRANCH  98 101
ENDBRANCH  71  94
ENDBRANCH  45  46
ENDBRANCH  38  40
ENDBRANCH  37  38
ENDBRANCH  36  37
ENDBRANCH  35  36
ENDBRANCH  34  35
ENDBRANCH  33  34
ENDBRANCH  32  33
ENDBRANCH  31  32
ENDBRANCH   1  31
TORSDOF 28
ENDMDL
