MODEL 1
REMARK VINA RESULT:      -7.5      0.000      0.000
REMARK SMILES N#CCCn1cc(C(=O)OCCOCCOCCOCCOC(=O)c2ccc(-c3c4nc(c(-c5cccc(S(=O)(=O)[O-])c5F)c5ccc([nH]5)c(-c5cccc(S(=O)(=O)[O-])c5F)c5nc(c(-c6cccc(S(=O)(=O)[O-])c6F)c6ccc3[nH]6)C=C5)C=C4)cc2)c(-c2cccc([N+](=O)[O-])c2)n1
REMARK SMILES IDX 16 1 15 2 14 3 13 4 12 5 11 6 10 7 8 8 9 9 7 10 5 11 6 12
REMARK SMILES IDX 98 13 88 14 4 15 3 16 2 17 1 18 89 19 90 20 97 21 91 22
REMARK SMILES IDX 93 23 92 24 94 25 95 26 96 27 17 28 18 29 19 30 20 31 21 32
REMARK SMILES IDX 22 33 23 34 24 35 25 36 26 37 87 38 27 39 86 40 28 41 29 42
REMARK SMILES IDX 30 43 80 44 31 45 85 46 79 47 81 48 32 49 84 50 78 51 77 52
REMARK SMILES IDX 33 54 65 55 45 56 64 57 46 58 49 59 63 60 82 61 47 62 48 63
REMARK SMILES IDX 62 65 83 66 50 67 34 68 35 69 43 70 36 71 38 72 44 73 37 74
REMARK SMILES IDX 39 75 40 76 41 77 42 78 66 79 67 80 75 81 68 82 70 83 76 84
REMARK SMILES IDX 69 85 71 86 72 87 73 88 74 89 51 90 52 91 60 92 53 93 55 94
REMARK SMILES IDX 61 95 54 96 56 97 57 98 58 99 59 100
REMARK H PARENT 81 53 49 64
REMARK Flexibility Score: inf
ROOT
ATOM      1  O   UNL A   1      45.227  22.656  26.978  1.00  0.00    -0.377 OA
ENDROOT
BRANCH   1   2
ATOM      2  C   UNL A   1      45.297  24.063  27.032  1.00  0.00     0.188 C 
BRANCH   2   3
ATOM      3  C   UNL A   1      45.682  24.844  25.757  1.00  0.00     0.188 C 
BRANCH   3   4
ATOM      4  O   UNL A   1      46.923  24.529  25.178  1.00  0.00    -0.376 OA
BRANCH   4   5
ATOM      5  C   UNL A   1      47.802  25.511  24.690  1.00  0.00     0.202 C 
BRANCH   5   6
ATOM      6  C   UNL A   1      49.017  26.078  25.442  1.00  0.00     0.261 C 
BRANCH   6   7
ATOM      7  O   UNL A   1      50.188  26.426  24.703  1.00  0.00    -0.460 OA
BRANCH   7   8
ATOM      8  C   UNL A   1      51.210  27.033  25.377  1.00  0.00     0.342 C 
ATOM      9  O   UNL A   1      51.078  27.954  26.160  1.00  0.00    -0.246 OA
BRANCH   8  10
ATOM     10  C   UNL A   1      52.463  26.329  25.149  1.00  0.00     0.106 A 
ATOM     11  N   UNL A   1      54.242  25.065  25.422  1.00  0.00    -0.270 N 
ATOM     12  C   UNL A   1      53.072  25.442  26.012  1.00  0.00     0.125 A 
ATOM     13  N   UNL A   1      54.467  25.682  24.246  1.00  0.00    -0.172 NA
ATOM     14  C   UNL A   1      53.386  26.460  24.066  1.00  0.00     0.107 A 
BRANCH  11  15
ATOM     15  C   UNL A   1      55.140  24.015  25.884  1.00  0.00     0.159 C 
BRANCH  15  16
ATOM     16  C   UNL A   1      56.388  24.503  26.616  1.00  0.00     0.144 C 
BRANCH  16  17
ATOM     17  C   UNL A   1      56.027  24.866  28.047  1.00  0.00     0.064 C 
ATOM     18  N   UNL A   1      55.728  25.166  29.234  1.00  0.00    -0.198 NA
ENDBRANCH  16  17
ENDBRANCH  15  16
ENDBRANCH  11  15
BRANCH  14  19
ATOM     19  C   UNL A   1      53.282  27.348  22.912  1.00  0.00     0.010 A 
ATOM     20  C   UNL A   1      53.441  26.851  21.609  1.00  0.00     0.011 A 
ATOM     21  C   UNL A   1      53.084  28.715  23.105  1.00  0.00     0.096 A 
ATOM     22  C   UNL A   1      53.514  27.719  20.515  1.00  0.00     0.008 A 
ATOM     23  C   UNL A   1      53.102  29.576  21.998  1.00  0.00     0.270 A 
ATOM     24  C   UNL A   1      53.352  29.089  20.707  1.00  0.00     0.085 A 
BRANCH  23  25
ATOM     25  N   UNL A   1      52.845  31.006  22.194  1.00  0.00     0.062 N 
ATOM     26  O   UNL A   1      51.681  31.357  22.440  1.00  0.00    -0.258 OA
ATOM     27  O   UNL A   1      53.809  31.783  22.122  1.00  0.00    -0.258 OA
ENDBRANCH  23  25
ENDBRANCH  14  19
ENDBRANCH   8  10
ENDBRANCH   7   8
ENDBRANCH   6   7
ENDBRANCH   5   6
ENDBRANCH   4   5
ENDBRANCH   3   4
ENDBRANCH   2   3
ENDBRANCH   1   2
BRANCH   1  28
ATOM     28  C   UNL A   1      44.754  21.992  25.817  1.00  0.00     0.188 C 
BRANCH  28  29
ATOM     29  C   UNL A   1      43.284  21.526  25.624  1.00  0.00     0.188 C 
BRANCH  29  30
ATOM     30  O   UNL A   1      42.875  20.350  26.296  1.00  0.00    -0.376 OA
BRANCH  30  31
ATOM     31  C   UNL A   1      41.550  20.016  26.657  1.00  0.00     0.202 C 
BRANCH  31  32
ATOM     32  C   UNL A   1      40.369  20.894  26.274  1.00  0.00     0.261 C 
BRANCH  32  33
ATOM     33  O   UNL A   1      39.980  21.769  27.299  1.00  0.00    -0.460 OA
BRANCH  33  34
ATOM     34  C   UNL A   1      39.474  22.932  26.845  1.00  0.00     0.338 C 
ATOM     35  O   UNL A   1      38.338  23.150  26.470  1.00  0.00    -0.246 OA
BRANCH  34  36
ATOM     36  C   UNL A   1      40.579  23.885  26.785  1.00  0.00     0.060 A 
ATOM     37  C   UNL A   1      41.507  23.771  27.818  1.00  0.00     0.016 A 
ATOM     38  C   UNL A   1      40.306  25.085  26.117  1.00  0.00     0.016 A 
ATOM     39  C   UNL A   1      41.890  24.934  28.430  1.00  0.00     0.010 A 
ATOM     40  C   UNL A   1      40.626  26.234  26.769  1.00  0.00     0.010 A 
ATOM     41  C   UNL A   1      41.330  26.128  27.965  1.00  0.00    -0.014 A 
BRANCH  41  42
ATOM     42  C   UNL A   1      41.630  27.342  28.672  1.00  0.00     0.031 A 
ATOM     43  C   UNL A   1      42.923  27.879  28.199  1.00  0.00     0.074 A 
ATOM     44  C   UNL A   1      40.737  27.889  29.520  1.00  0.00     0.049 A 
ATOM     45  N   UNL A   1      44.051  27.869  28.830  1.00  0.00    -0.248 NA
ATOM     46  C   UNL A   1      43.052  28.175  26.756  1.00  0.00     0.031 C 
ATOM     47  C   UNL A   1      39.347  27.476  29.753  1.00  0.00     0.029 A 
ATOM     48  N   UNL A   1      40.830  29.032  30.244  1.00  0.00    -0.354 N 
ATOM     49  C   UNL A   1      44.938  28.466  27.940  1.00  0.00     0.074 A 
ATOM     50  C   UNL A   1      44.374  28.299  26.634  1.00  0.00     0.031 C 
ATOM     51  C   UNL A   1      38.671  28.502  30.320  1.00  0.00     0.029 A 
ATOM     52  C   UNL A   1      39.598  29.591  30.577  1.00  0.00     0.049 A 
ATOM     53  H   UNL A   1      41.690  29.431  30.509  1.00  0.00     0.167 HD
ATOM     54  C   UNL A   1      45.803  29.415  28.385  1.00  0.00     0.034 A 
ATOM     55  C   UNL A   1      39.368  30.887  30.919  1.00  0.00     0.034 A 
ATOM     56  C   UNL A   1      45.968  29.318  29.817  1.00  0.00     0.049 A 
ATOM     57  C   UNL A   1      40.679  31.489  31.265  1.00  0.00     0.074 A 
ATOM     58  C   UNL A   1      46.348  28.318  30.691  1.00  0.00     0.029 A 
ATOM     59  N   UNL A   1      45.299  30.253  30.570  1.00  0.00    -0.354 N 
ATOM     60  N   UNL A   1      41.383  31.133  32.302  1.00  0.00    -0.248 NA
ATOM     61  C   UNL A   1      41.425  32.130  30.193  1.00  0.00     0.031 C 
ATOM     62  C   UNL A   1      45.517  28.490  31.838  1.00  0.00     0.029 A 
ATOM     63  C   UNL A   1      44.735  29.630  31.650  1.00  0.00     0.049 A 
ATOM     64  H   UNL A   1      45.235  31.213  30.365  1.00  0.00     0.167 HD
ATOM     65  C   UNL A   1      42.682  31.045  31.817  1.00  0.00     0.074 A 
ATOM     66  C   UNL A   1      42.663  31.769  30.544  1.00  0.00     0.031 C 
ATOM     67  C   UNL A   1      43.555  30.125  32.327  1.00  0.00     0.034 A 
BRANCH  54  68
ATOM     68  C   UNL A   1      46.109  30.700  27.634  1.00  0.00     0.023 A 
ATOM     69  C   UNL A   1      47.474  31.033  27.500  1.00  0.00     0.012 A 
ATOM     70  C   UNL A   1      45.176  31.720  27.310  1.00  0.00     0.148 A 
ATOM     71  C   UNL A   1      47.885  32.320  27.144  1.00  0.00     0.002 A 
ATOM     72  C   UNL A   1      45.587  32.976  26.887  1.00  0.00     0.091 A 
ATOM     73  F   UNL A   1      43.873  31.547  27.519  1.00  0.00    -0.205 F 
ATOM     74  C   UNL A   1      46.943  33.294  26.835  1.00  0.00     0.022 A 
BRANCH  72  75
ATOM     75  S   UNL A   1      44.405  34.262  26.447  1.00  0.00     0.127 S 
ATOM     76  O   UNL A   1      43.710  33.645  25.322  1.00  0.00    -0.237 OA
ATOM     77  O   UNL A   1      43.620  34.371  27.678  1.00  0.00    -0.237 OA
ATOM     78  O   UNL A   1      45.194  35.446  26.135  1.00  0.00    -0.744 OA
ENDBRANCH  72  75
ENDBRANCH  54  68
BRANCH  55  79
ATOM     79  C   UNL A   1      38.184  31.744  30.647  1.00  0.00     0.023 A 
ATOM     80  C   UNL A   1      37.606  31.752  29.358  1.00  0.00     0.012 A 
ATOM     81  C   UNL A   1      37.448  32.328  31.701  1.00  0.00     0.148 A 
ATOM     82  C   UNL A   1      36.331  32.293  29.137  1.00  0.00     0.002 A 
ATOM     83  C   UNL A   1      36.187  32.875  31.475  1.00  0.00     0.091 A 
ATOM     84  F   UNL A   1      37.938  32.261  32.944  1.00  0.00    -0.205 F 
ATOM     85  C   UNL A   1      35.619  32.848  30.197  1.00  0.00     0.022 A 
BRANCH  83  86
ATOM     86  S   UNL A   1      35.203  33.585  32.803  1.00  0.00     0.127 S 
ATOM     87  O   UNL A   1      35.488  32.674  33.911  1.00  0.00    -0.237 OA
ATOM     88  O   UNL A   1      35.790  34.916  32.938  1.00  0.00    -0.237 OA
ATOM     89  O   UNL A   1      33.821  33.550  32.339  1.00  0.00    -0.744 OA
ENDBRANCH  83  86
ENDBRANCH  55  79
BRANCH  67  90
ATOM     90  C   UNL A   1      43.169  29.428  33.608  1.00  0.00     0.023 A 
ATOM     91  C   UNL A   1      42.321  28.299  33.655  1.00  0.00     0.012 A 
ATOM     92  C   UNL A   1      43.785  29.861  34.791  1.00  0.00     0.148 A 
ATOM     93  C   UNL A   1      42.070  27.644  34.866  1.00  0.00     0.002 A 
ATOM     94  C   UNL A   1      43.569  29.182  35.982  1.00  0.00     0.091 A 
ATOM     95  F   UNL A   1      44.591  30.932  34.729  1.00  0.00    -0.205 F 
ATOM     96  C   UNL A   1      42.703  28.080  36.028  1.00  0.00     0.022 A 
BRANCH  94  97
ATOM     97  S   UNL A   1      44.445  29.641  37.477  1.00  0.00     0.127 S 
ATOM     98  O   UNL A   1      44.348  28.419  38.272  1.00  0.00    -0.237 OA
ATOM     99  O   UNL A   1      45.788  29.942  36.977  1.00  0.00    -0.237 OA
ATOM    100  O   UNL A   1      43.740  30.799  38.011  1.00  0.00    -0.744 OA
ENDBRANCH  94  97
ENDBRANCH  67  90
ENDBRANCH  41  42
ENDBRANCH  34  36
ENDBRANCH  33  34
ENDBRANCH  32  33
ENDBRANCH  31  32
ENDBRANCH  30  31
ENDBRANCH  29  30
ENDBRANCH  28  29
ENDBRANCH   1  28
TORSDOF 28
ENDMDL
MODEL 2
REMARK VINA RESULT:      -7.3      6.661     16.603
REMARK SMILES N#CCCn1cc(C(=O)OCCOCCOCCOCCOC(=O)c2ccc(-c3c4nc(c(-c5cccc(S(=O)(=O)[O-])c5F)c5ccc([nH]5)c(-c5cccc(S(=O)(=O)[O-])c5F)c5nc(c(-c6cccc(S(=O)(=O)[O-])c6F)c6ccc3[nH]6)C=C5)C=C4)cc2)c(-c2cccc([N+](=O)[O-])c2)n1
REMARK SMILES IDX 16 1 15 2 14 3 13 4 12 5 11 6 10 7 8 8 9 9 7 10 5 11 6 12
REMARK SMILES IDX 98 13 88 14 4 15 3 16 2 17 1 18 89 19 90 20 97 21 91 22
REMARK SMILES IDX 93 23 92 24 94 25 95 26 96 27 17 28 18 29 19 30 20 31 21 32
REMARK SMILES IDX 22 33 23 34 24 35 25 36 26 37 87 38 27 39 86 40 28 41 29 42
REMARK SMILES IDX 30 43 80 44 31 45 85 46 79 47 81 48 32 49 84 50 78 51 77 52
REMARK SMILES IDX 33 54 65 55 45 56 64 57 46 58 49 59 63 60 82 61 47 62 48 63
REMARK SMILES IDX 62 65 83 66 50 67 34 68 35 69 43 70 36 71 38 72 44 73 37 74
REMARK SMILES IDX 39 75 40 76 41 77 42 78 66 79 67 80 75 81 68 82 70 83 76 84
REMARK SMILES IDX 69 85 71 86 72 87 73 88 74 89 51 90 52 91 60 92 53 93 55 94
REMARK SMILES IDX 61 95 54 96 56 97 57 98 58 99 59 100
REMARK H PARENT 81 53 49 64
REMARK Flexibility Score: inf
ROOT
ATOM      1  O   UNL A   1      38.466  29.544  28.510  1.00  0.00    -0.377 OA
ENDROOT
BRANCH   1   2
ATOM      2  C   UNL A   1      37.358  30.083  27.824  1.00  0.00     0.188 C 
BRANCH   2   3
ATOM      3  C   UNL A   1      35.963  30.012  28.479  1.00  0.00     0.188 C 
BRANCH   3   4
ATOM      4  O   UNL A   1      34.859  30.044  27.609  1.00  0.00    -0.376 OA
BRANCH   4   5
ATOM      5  C   UNL A   1      34.228  28.878  27.144  1.00  0.00     0.202 C 
BRANCH   5   6
ATOM      6  C   UNL A   1      32.776  28.783  26.647  1.00  0.00     0.261 C 
BRANCH   6   7
ATOM      7  O   UNL A   1      32.412  29.448  25.438  1.00  0.00    -0.460 OA
BRANCH   7   8
ATOM      8  C   UNL A   1      32.363  28.706  24.291  1.00  0.00     0.342 C 
ATOM      9  O   UNL A   1      33.305  28.106  23.809  1.00  0.00    -0.246 OA
BRANCH   8  10
ATOM     10  C   UNL A   1      30.995  28.604  23.805  1.00  0.00     0.106 A 
ATOM     11  N   UNL A   1      28.965  29.107  23.123  1.00  0.00    -0.270 N 
ATOM     12  C   UNL A   1      30.162  29.654  23.480  1.00  0.00     0.125 A 
ATOM     13  N   UNL A   1      28.941  27.765  23.235  1.00  0.00    -0.172 NA
ATOM     14  C   UNL A   1      30.177  27.442  23.653  1.00  0.00     0.107 A 
BRANCH  11  15
ATOM     15  C   UNL A   1      27.834  29.816  22.543  1.00  0.00     0.159 C 
BRANCH  15  16
ATOM     16  C   UNL A   1      28.154  30.647  21.301  1.00  0.00     0.144 C 
BRANCH  16  17
ATOM     17  C   UNL A   1      28.120  32.124  21.658  1.00  0.00     0.064 C 
ATOM     18  N   UNL A   1      28.093  33.349  21.953  1.00  0.00    -0.198 NA
ENDBRANCH  16  17
ENDBRANCH  15  16
ENDBRANCH  11  15
BRANCH  14  19
ATOM     19  C   UNL A   1      30.533  26.060  23.954  1.00  0.00     0.010 A 
ATOM     20  C   UNL A   1      30.867  25.166  22.925  1.00  0.00     0.011 A 
ATOM     21  C   UNL A   1      30.482  25.600  25.271  1.00  0.00     0.096 A 
ATOM     22  C   UNL A   1      31.040  23.803  23.187  1.00  0.00     0.008 A 
ATOM     23  C   UNL A   1      30.711  24.243  25.536  1.00  0.00     0.270 A 
ATOM     24  C   UNL A   1      30.955  23.335  24.496  1.00  0.00     0.085 A 
BRANCH  23  25
ATOM     25  N   UNL A   1      30.706  23.770  26.924  1.00  0.00     0.062 N 
ATOM     26  O   UNL A   1      29.657  23.274  27.362  1.00  0.00    -0.258 OA
ATOM     27  O   UNL A   1      31.755  23.875  27.575  1.00  0.00    -0.258 OA
ENDBRANCH  23  25
ENDBRANCH  14  19
ENDBRANCH   8  10
ENDBRANCH   7   8
ENDBRANCH   6   7
ENDBRANCH   5   6
ENDBRANCH   4   5
ENDBRANCH   3   4
ENDBRANCH   2   3
ENDBRANCH   1   2
BRANCH   1  28
ATOM     28  C   UNL A   1      39.012  28.288  28.143  1.00  0.00     0.188 C 
BRANCH  28  29
ATOM     29  C   UNL A   1      40.536  27.980  28.119  1.00  0.00     0.188 C 
BRANCH  29  30
ATOM     30  O   UNL A   1      40.950  26.687  28.517  1.00  0.00    -0.376 OA
BRANCH  30  31
ATOM     31  C   UNL A   1      42.271  26.299  28.837  1.00  0.00     0.202 C 
BRANCH  31  32
ATOM     32  C   UNL A   1      43.450  27.242  28.658  1.00  0.00     0.261 C 
BRANCH  32  33
ATOM     33  O   UNL A   1      44.671  26.677  29.055  1.00  0.00    -0.460 OA
BRANCH  33  34
ATOM     34  C   UNL A   1      45.580  26.617  28.063  1.00  0.00     0.338 C 
ATOM     35  O   UNL A   1      45.697  25.753  27.216  1.00  0.00    -0.246 OA
BRANCH  34  36
ATOM     36  C   UNL A   1      46.487  27.747  28.245  1.00  0.00     0.060 A 
ATOM     37  C   UNL A   1      46.625  28.573  27.131  1.00  0.00     0.016 A 
ATOM     38  C   UNL A   1      47.490  27.568  29.206  1.00  0.00     0.016 A 
ATOM     39  C   UNL A   1      47.900  28.928  26.785  1.00  0.00     0.010 A 
ATOM     40  C   UNL A   1      48.762  27.856  28.824  1.00  0.00     0.010 A 
ATOM     41  C   UNL A   1      48.947  28.444  27.575  1.00  0.00    -0.014 A 
BRANCH  41  42
ATOM     42  C   UNL A   1      50.297  28.708  27.156  1.00  0.00     0.031 A 
ATOM     43  C   UNL A   1      50.705  30.046  27.635  1.00  0.00     0.074 A 
ATOM     44  C   UNL A   1      51.030  27.759  26.542  1.00  0.00     0.049 A 
ATOM     45  N   UNL A   1      50.848  31.118  26.928  1.00  0.00    -0.248 NA
ATOM     46  C   UNL A   1      50.646  30.297  29.090  1.00  0.00     0.031 C 
ATOM     47  C   UNL A   1      50.684  26.348  26.334  1.00  0.00     0.029 A 
ATOM     48  N   UNL A   1      52.313  27.815  26.107  1.00  0.00    -0.354 N 
ATOM     49  C   UNL A   1      51.215  32.085  27.857  1.00  0.00     0.074 A 
ATOM     50  C   UNL A   1      50.738  31.626  29.128  1.00  0.00     0.031 C 
ATOM     51  C   UNL A   1      51.815  25.647  26.088  1.00  0.00     0.029 A 
ATOM     52  C   UNL A   1      52.935  26.571  26.022  1.00  0.00     0.049 A 
ATOM     53  H   UNL A   1      52.765  28.658  25.874  1.00  0.00     0.167 HD
ATOM     54  C   UNL A   1      52.244  32.930  27.582  1.00  0.00     0.034 A 
ATOM     55  C   UNL A   1      54.274  26.339  26.020  1.00  0.00     0.034 A 
ATOM     56  C   UNL A   1      52.494  32.975  26.159  1.00  0.00     0.049 A 
ATOM     57  C   UNL A   1      54.944  27.629  25.720  1.00  0.00     0.074 A 
ATOM     58  C   UNL A   1      51.733  33.264  25.042  1.00  0.00     0.029 A 
ATOM     59  N   UNL A   1      53.581  32.265  25.710  1.00  0.00    -0.354 N 
ATOM     60  N   UNL A   1      54.847  28.239  24.573  1.00  0.00    -0.248 NA
ATOM     61  C   UNL A   1      55.309  28.471  26.848  1.00  0.00     0.031 C 
ATOM     62  C   UNL A   1      52.175  32.346  24.044  1.00  0.00     0.029 A 
ATOM     63  C   UNL A   1      53.235  31.604  24.564  1.00  0.00     0.049 A 
ATOM     64  H   UNL A   1      54.464  32.236  26.144  1.00  0.00     0.167 HD
ATOM     65  C   UNL A   1      54.646  29.572  24.913  1.00  0.00     0.074 A 
ATOM     66  C   UNL A   1      55.044  29.670  26.318  1.00  0.00     0.031 C 
ATOM     67  C   UNL A   1      53.877  30.382  24.126  1.00  0.00     0.034 A 
BRANCH  54  68
ATOM     68  C   UNL A   1      53.311  33.320  28.590  1.00  0.00     0.023 A 
ATOM     69  C   UNL A   1      53.610  34.697  28.678  1.00  0.00     0.012 A 
ATOM     70  C   UNL A   1      54.216  32.435  29.232  1.00  0.00     0.148 A 
ATOM     71  C   UNL A   1      54.776  35.157  29.296  1.00  0.00     0.002 A 
ATOM     72  C   UNL A   1      55.336  32.901  29.907  1.00  0.00     0.091 A 
ATOM     73  F   UNL A   1      54.092  31.116  29.104  1.00  0.00    -0.205 F 
ATOM     74  C   UNL A   1      55.641  34.260  29.913  1.00  0.00     0.022 A 
BRANCH  72  75
ATOM     75  S   UNL A   1      56.470  31.782  30.748  1.00  0.00     0.127 S 
ATOM     76  O   UNL A   1      57.440  32.718  31.309  1.00  0.00    -0.237 OA
ATOM     77  O   UNL A   1      55.584  31.145  31.723  1.00  0.00    -0.237 OA
ATOM     78  O   UNL A   1      56.979  30.878  29.723  1.00  0.00    -0.744 OA
ENDBRANCH  72  75
ENDBRANCH  54  68
BRANCH  55  79
ATOM     79  C   UNL A   1      55.041  25.198  26.588  1.00  0.00     0.023 A 
ATOM     80  C   UNL A   1      55.638  24.254  25.723  1.00  0.00     0.012 A 
ATOM     81  C   UNL A   1      55.433  25.186  27.945  1.00  0.00     0.148 A 
ATOM     82  C   UNL A   1      56.609  23.355  26.187  1.00  0.00     0.002 A 
ATOM     83  C   UNL A   1      56.389  24.284  28.404  1.00  0.00     0.091 A 
ATOM     84  F   UNL A   1      54.943  26.122  28.766  1.00  0.00    -0.205 F 
ATOM     85  C   UNL A   1      56.990  23.375  27.526  1.00  0.00     0.022 A 
BRANCH  83  86
ATOM     86  S   UNL A   1      56.945  24.271  30.115  1.00  0.00     0.127 S 
ATOM     87  O   UNL A   1      57.676  25.536  30.205  1.00  0.00    -0.237 OA
ATOM     88  O   UNL A   1      55.681  24.241  30.846  1.00  0.00    -0.237 OA
ATOM     89  O   UNL A   1      57.783  23.086  30.255  1.00  0.00    -0.744 OA
ENDBRANCH  83  86
ENDBRANCH  55  79
BRANCH  67  90
ATOM     90  C   UNL A   1      53.508  29.880  22.753  1.00  0.00     0.023 A 
ATOM     91  C   UNL A   1      54.398  29.883  21.656  1.00  0.00     0.012 A 
ATOM     92  C   UNL A   1      52.253  29.271  22.603  1.00  0.00     0.148 A 
ATOM     93  C   UNL A   1      54.024  29.322  20.430  1.00  0.00     0.002 A 
ATOM     94  C   UNL A   1      51.903  28.675  21.399  1.00  0.00     0.091 A 
ATOM     95  F   UNL A   1      51.420  29.270  23.655  1.00  0.00    -0.205 F 
ATOM     96  C   UNL A   1      52.780  28.708  20.305  1.00  0.00     0.022 A 
BRANCH  94  97
ATOM     97  S   UNL A   1      50.359  27.782  21.227  1.00  0.00     0.127 S 
ATOM     98  O   UNL A   1      50.487  26.754  22.257  1.00  0.00    -0.237 OA
ATOM     99  O   UNL A   1      49.362  28.815  21.514  1.00  0.00    -0.237 OA
ATOM    100  O   UNL A   1      50.329  27.298  19.853  1.00  0.00    -0.744 OA
ENDBRANCH  94  97
ENDBRANCH  67  90
ENDBRANCH  41  42
ENDBRANCH  34  36
ENDBRANCH  33  34
ENDBRANCH  32  33
ENDBRANCH  31  32
ENDBRANCH  30  31
ENDBRANCH  29  30
ENDBRANCH  28  29
ENDBRANCH   1  28
TORSDOF 28
ENDMDL
MODEL 3
REMARK VINA RESULT:      -7.2      5.856     13.405
REMARK SMILES N#CCCn1cc(C(=O)OCCOCCOCCOCCOC(=O)c2ccc(-c3c4nc(c(-c5cccc(S(=O)(=O)[O-])c5F)c5ccc([nH]5)c(-c5cccc(S(=O)(=O)[O-])c5F)c5nc(c(-c6cccc(S(=O)(=O)[O-])c6F)c6ccc3[nH]6)C=C5)C=C4)cc2)c(-c2cccc([N+](=O)[O-])c2)n1
REMARK SMILES IDX 16 1 15 2 14 3 13 4 12 5 11 6 10 7 8 8 9 9 7 10 5 11 6 12
REMARK SMILES IDX 98 13 88 14 4 15 3 16 2 17 1 18 89 19 90 20 97 21 91 22
REMARK SMILES IDX 93 23 92 24 94 25 95 26 96 27 17 28 18 29 19 30 20 31 21 32
REMARK SMILES IDX 22 33 23 34 24 35 25 36 26 37 87 38 27 39 86 40 28 41 29 42
REMARK SMILES IDX 30 43 80 44 31 45 85 46 79 47 81 48 32 49 84 50 78 51 77 52
REMARK SMILES IDX 33 54 65 55 45 56 64 57 46 58 49 59 63 60 82 61 47 62 48 63
REMARK SMILES IDX 62 65 83 66 50 67 34 68 35 69 43 70 36 71 38 72 44 73 37 74
REMARK SMILES IDX 39 75 40 76 41 77 42 78 66 79 67 80 75 81 68 82 70 83 76 84
REMARK SMILES IDX 69 85 71 86 72 87 73 88 74 89 51 90 52 91 60 92 53 93 55 94
REMARK SMILES IDX 61 95 54 96 56 97 57 98 58 99 59 100
REMARK H PARENT 81 53 49 64
REMARK Flexibility Score: inf
ROOT
ATOM      1  O   UNL A   1      38.841  29.010  28.916  1.00  0.00    -0.377 OA
ENDROOT
BRANCH   1   2
ATOM      2  C   UNL A   1      37.956  29.565  27.967  1.00  0.00     0.188 C 
BRANCH   2   3
ATOM      3  C   UNL A   1      36.588  30.099  28.440  1.00  0.00     0.188 C 
BRANCH   3   4
ATOM      4  O   UNL A   1      35.665  30.437  27.436  1.00  0.00    -0.376 OA
BRANCH   4   5
ATOM      5  C   UNL A   1      34.275  30.379  27.635  1.00  0.00     0.202 C 
BRANCH   5   6
ATOM      6  C   UNL A   1      33.208  30.461  26.531  1.00  0.00     0.261 C 
BRANCH   6   7
ATOM      7  O   UNL A   1      33.173  29.450  25.524  1.00  0.00    -0.460 OA
BRANCH   7   8
ATOM      8  C   UNL A   1      32.181  28.513  25.594  1.00  0.00     0.342 C 
ATOM      9  O   UNL A   1      31.350  28.445  26.480  1.00  0.00    -0.246 OA
BRANCH   8  10
ATOM     10  C   UNL A   1      32.158  27.700  24.388  1.00  0.00     0.106 A 
ATOM     11  N   UNL A   1      32.761  26.397  22.722  1.00  0.00    -0.270 N 
ATOM     12  C   UNL A   1      33.203  26.952  23.885  1.00  0.00     0.125 A 
ATOM     13  N   UNL A   1      31.506  26.766  22.401  1.00  0.00    -0.172 NA
ATOM     14  C   UNL A   1      31.124  27.565  23.411  1.00  0.00     0.107 A 
BRANCH  11  15
ATOM     15  C   UNL A   1      33.458  25.396  21.926  1.00  0.00     0.159 C 
BRANCH  15  16
ATOM     16  C   UNL A   1      32.928  23.971  22.065  1.00  0.00     0.144 C 
BRANCH  16  17
ATOM     17  C   UNL A   1      33.790  23.204  23.054  1.00  0.00     0.064 C 
ATOM     18  N   UNL A   1      34.506  22.567  23.874  1.00  0.00    -0.198 NA
ENDBRANCH  16  17
ENDBRANCH  15  16
ENDBRANCH  11  15
BRANCH  14  19
ATOM     19  C   UNL A   1      29.823  28.226  23.399  1.00  0.00     0.010 A 
ATOM     20  C   UNL A   1      28.651  27.503  23.673  1.00  0.00     0.011 A 
ATOM     21  C   UNL A   1      29.732  29.574  23.051  1.00  0.00     0.096 A 
ATOM     22  C   UNL A   1      27.392  28.086  23.494  1.00  0.00     0.008 A 
ATOM     23  C   UNL A   1      28.469  30.169  22.928  1.00  0.00     0.270 A 
ATOM     24  C   UNL A   1      27.296  29.422  23.113  1.00  0.00     0.085 A 
BRANCH  23  25
ATOM     25  N   UNL A   1      28.374  31.598  22.610  1.00  0.00     0.062 N 
ATOM     26  O   UNL A   1      27.664  32.306  23.339  1.00  0.00    -0.258 OA
ATOM     27  O   UNL A   1      29.024  32.020  21.643  1.00  0.00    -0.258 OA
ENDBRANCH  23  25
ENDBRANCH  14  19
ENDBRANCH   8  10
ENDBRANCH   7   8
ENDBRANCH   6   7
ENDBRANCH   5   6
ENDBRANCH   4   5
ENDBRANCH   3   4
ENDBRANCH   2   3
ENDBRANCH   1   2
BRANCH   1  28
ATOM     28  C   UNL A   1      39.828  28.068  28.530  1.00  0.00     0.188 C 
BRANCH  28  29
ATOM     29  C   UNL A   1      40.138  27.695  27.053  1.00  0.00     0.188 C 
BRANCH  29  30
ATOM     30  O   UNL A   1      40.036  26.333  26.684  1.00  0.00    -0.376 OA
BRANCH  30  31
ATOM     31  C   UNL A   1      41.017  25.581  26.000  1.00  0.00     0.202 C 
BRANCH  31  32
ATOM     32  C   UNL A   1      42.504  25.833  26.196  1.00  0.00     0.261 C 
BRANCH  32  33
ATOM     33  O   UNL A   1      43.064  25.051  27.217  1.00  0.00    -0.460 OA
BRANCH  33  34
ATOM     34  C   UNL A   1      42.700  25.445  28.453  1.00  0.00     0.338 C 
ATOM     35  O   UNL A   1      41.745  25.064  29.101  1.00  0.00    -0.246 OA
BRANCH  34  36
ATOM     36  C   UNL A   1      43.618  26.509  28.850  1.00  0.00     0.060 A 
ATOM     37  C   UNL A   1      43.824  26.623  30.223  1.00  0.00     0.016 A 
ATOM     38  C   UNL A   1      43.716  27.586  27.959  1.00  0.00     0.016 A 
ATOM     39  C   UNL A   1      43.762  27.885  30.750  1.00  0.00     0.010 A 
ATOM     40  C   UNL A   1      43.579  28.831  28.488  1.00  0.00     0.010 A 
ATOM     41  C   UNL A   1      43.509  28.944  29.874  1.00  0.00    -0.014 A 
BRANCH  41  42
ATOM     42  C   UNL A   1      43.322  30.257  30.427  1.00  0.00     0.031 A 
ATOM     43  C   UNL A   1      41.967  30.355  31.011  1.00  0.00     0.074 A 
ATOM     44  C   UNL A   1      44.337  31.142  30.470  1.00  0.00     0.049 A 
ATOM     45  N   UNL A   1      40.955  31.000  30.532  1.00  0.00    -0.248 NA
ATOM     46  C   UNL A   1      41.608  29.385  32.067  1.00  0.00     0.031 C 
ATOM     47  C   UNL A   1      45.747  30.910  30.135  1.00  0.00     0.029 A 
ATOM     48  N   UNL A   1      44.357  32.400  30.976  1.00  0.00    -0.354 N 
ATOM     49  C   UNL A   1      39.935  30.747  31.443  1.00  0.00     0.074 A 
ATOM     50  C   UNL A   1      40.284  29.528  32.111  1.00  0.00     0.031 C 
ATOM     51  C   UNL A   1      46.502  31.876  30.710  1.00  0.00     0.029 A 
ATOM     52  C   UNL A   1      45.624  32.835  31.358  1.00  0.00     0.049 A 
ATOM     53  H   UNL A   1      43.549  32.955  31.066  1.00  0.00     0.167 HD
ATOM     54  C   UNL A   1      39.149  31.768  31.877  1.00  0.00     0.034 A 
ATOM     55  C   UNL A   1      45.902  33.834  32.238  1.00  0.00     0.034 A 
ATOM     56  C   UNL A   1      39.216  32.883  30.960  1.00  0.00     0.049 A 
ATOM     57  C   UNL A   1      44.661  34.630  32.404  1.00  0.00     0.074 A 
ATOM     58  C   UNL A   1      38.985  33.052  29.609  1.00  0.00     0.029 A 
ATOM     59  N   UNL A   1      39.994  33.945  31.353  1.00  0.00    -0.354 N 
ATOM     60  N   UNL A   1      44.134  35.346  31.451  1.00  0.00    -0.248 NA
ATOM     61  C   UNL A   1      43.751  34.238  33.468  1.00  0.00     0.031 C 
ATOM     62  C   UNL A   1      39.988  33.966  29.171  1.00  0.00     0.029 A 
ATOM     63  C   UNL A   1      40.725  34.378  30.281  1.00  0.00     0.049 A 
ATOM     64  H   UNL A   1      40.021  34.331  32.258  1.00  0.00     0.167 HD
ATOM     65  C   UNL A   1      42.774  35.071  31.533  1.00  0.00     0.074 A 
ATOM     66  C   UNL A   1      42.586  34.469  32.854  1.00  0.00     0.031 C 
ATOM     67  C   UNL A   1      41.997  35.058  30.408  1.00  0.00     0.034 A 
BRANCH  54  68
ATOM     68  C   UNL A   1      38.722  31.951  33.324  1.00  0.00     0.023 A 
ATOM     69  C   UNL A   1      37.355  32.230  33.538  1.00  0.00     0.012 A 
ATOM     70  C   UNL A   1      39.588  32.148  34.430  1.00  0.00     0.148 A 
ATOM     71  C   UNL A   1      36.893  32.747  34.752  1.00  0.00     0.002 A 
ATOM     72  C   UNL A   1      39.114  32.594  35.657  1.00  0.00     0.091 A 
ATOM     73  F   UNL A   1      40.908  32.031  34.297  1.00  0.00    -0.205 F 
ATOM     74  C   UNL A   1      37.771  32.929  35.814  1.00  0.00     0.022 A 
BRANCH  72  75
ATOM     75  S   UNL A   1      40.207  32.816  37.071  1.00  0.00     0.127 S 
ATOM     76  O   UNL A   1      41.005  33.963  36.645  1.00  0.00    -0.237 OA
ATOM     77  O   UNL A   1      39.248  33.089  38.142  1.00  0.00    -0.237 OA
ATOM     78  O   UNL A   1      40.931  31.560  37.223  1.00  0.00    -0.744 OA
ENDBRANCH  72  75
ENDBRANCH  54  68
BRANCH  55  79
ATOM     79  C   UNL A   1      47.023  33.962  33.206  1.00  0.00     0.023 A 
ATOM     80  C   UNL A   1      47.828  35.123  33.196  1.00  0.00     0.012 A 
ATOM     81  C   UNL A   1      47.130  33.097  34.317  1.00  0.00     0.148 A 
ATOM     82  C   UNL A   1      48.683  35.423  34.266  1.00  0.00     0.002 A 
ATOM     83  C   UNL A   1      47.989  33.393  35.373  1.00  0.00     0.091 A 
ATOM     84  F   UNL A   1      46.320  32.035  34.388  1.00  0.00    -0.205 F 
ATOM     85  C   UNL A   1      48.758  34.562  35.359  1.00  0.00     0.022 A 
BRANCH  83  86
ATOM     86  S   UNL A   1      48.116  32.338  36.824  1.00  0.00     0.127 S 
ATOM     87  O   UNL A   1      48.566  31.074  36.240  1.00  0.00    -0.237 OA
ATOM     88  O   UNL A   1      49.122  33.036  37.621  1.00  0.00    -0.237 OA
ATOM     89  O   UNL A   1      46.778  32.287  37.401  1.00  0.00    -0.744 OA
ENDBRANCH  83  86
ENDBRANCH  55  79
BRANCH  67  90
ATOM     90  C   UNL A   1      42.586  35.632  29.144  1.00  0.00     0.023 A 
ATOM     91  C   UNL A   1      42.611  37.014  28.853  1.00  0.00     0.012 A 
ATOM     92  C   UNL A   1      43.247  34.747  28.279  1.00  0.00     0.148 A 
ATOM     93  C   UNL A   1      43.250  37.491  27.703  1.00  0.00     0.002 A 
ATOM     94  C   UNL A   1      43.919  35.229  27.164  1.00  0.00     0.091 A 
ATOM     95  F   UNL A   1      43.219  33.438  28.571  1.00  0.00    -0.205 F 
ATOM     96  C   UNL A   1      43.913  36.599  26.864  1.00  0.00     0.022 A 
BRANCH  94  97
ATOM     97  S   UNL A   1      44.874  34.131  26.118  1.00  0.00     0.127 S 
ATOM     98  O   UNL A   1      43.828  33.455  25.353  1.00  0.00    -0.237 OA
ATOM     99  O   UNL A   1      45.693  35.064  25.343  1.00  0.00    -0.237 OA
ATOM    100  O   UNL A   1      45.639  33.284  27.024  1.00  0.00    -0.744 OA
ENDBRANCH  94  97
ENDBRANCH  67  90
ENDBRANCH  41  42
ENDBRANCH  34  36
ENDBRANCH  33  34
ENDBRANCH  32  33
ENDBRANCH  31  32
ENDBRANCH  30  31
ENDBRANCH  29  30
ENDBRANCH  28  29
ENDBRANCH   1  28
TORSDOF 28
ENDMDL
