MODEL 1
REMARK VINA RESULT:      -8.1      0.000      0.000
REMARK SMILES C[C@H](Oc1cccc(/C=C2/SC(=S)N(c3ccc(Cl)c(Cl)c3)C2=O)c1)C(=O)OCCOCCOCCOCCOC(=O)c1ccc(-c2c3nc(c(-c4cccc(S(=O)(=O)[O-])c4F)c4ccc([nH]4)c(-c4cccc(S(=O)(=O)[O-])c4F)c4nc(c(-c5cccc(S(=O)(=O)[O-])c5F)c5ccc2[nH]5)C=C4)C=C3)cc1
REMARK SMILES IDX 33 1 32 2 31 3 30 4 29 5 28 6 26 7 27 8 2 9 1 10 3 11 4 12
REMARK SMILES IDX 5 13 25 14 6 15 8 16 7 17 9 18 10 19 11 20 23 21 12 22 14 23
REMARK SMILES IDX 24 24 13 25 15 26 16 27 22 28 17 29 20 30 18 31 21 32 19 33
REMARK SMILES IDX 34 34 35 35 36 36 37 37 38 38 39 39 40 40 41 41 42 42 43 43
REMARK SMILES IDX 44 44 105 45 45 46 104 47 46 48 47 49 48 50 98 51 49 52
REMARK SMILES IDX 103 53 97 54 99 55 50 56 102 57 96 58 95 59 51 61 83 62
REMARK SMILES IDX 63 63 82 64 64 65 67 66 81 67 100 68 65 69 66 70 80 72
REMARK SMILES IDX 101 73 68 74 52 75 53 76 61 77 54 78 56 79 62 80 55 81 57 82
REMARK SMILES IDX 58 83 59 84 60 85 84 86 85 87 93 88 86 89 88 90 94 91 87 92
REMARK SMILES IDX 89 93 90 94 91 95 92 96 69 97 70 98 78 99 71 100 73 101
REMARK SMILES IDX 79 102 72 103 74 104 75 105 76 106 77 107
REMARK H PARENT 99 60 67 71
REMARK Flexibility Score: inf
ROOT
ATOM      1  C   UNL A   1      38.657  29.482  29.160  1.00  0.00     0.188 C 
ENDROOT
BRANCH   1   2
ATOM      2  C   UNL A   1      39.562  28.253  29.378  1.00  0.00     0.188 C 
BRANCH   2   3
ATOM      3  O   UNL A   1      40.807  28.091  28.703  1.00  0.00    -0.376 OA
BRANCH   3   4
ATOM      4  C   UNL A   1      41.623  26.953  28.936  1.00  0.00     0.202 C 
BRANCH   4   5
ATOM      5  C   UNL A   1      41.599  25.781  27.953  1.00  0.00     0.261 C 
BRANCH   5   6
ATOM      6  O   UNL A   1      40.782  24.666  28.323  1.00  0.00    -0.461 OA
BRANCH   6   7
ATOM      7  C   UNL A   1      39.609  24.530  27.651  1.00  0.00     0.347 C 
ATOM      8  O   UNL A   1      38.685  25.339  27.684  1.00  0.00    -0.248 OA
BRANCH   7   9
ATOM      9  C   UNL A   1      39.500  23.173  26.941  1.00  0.00     0.279 C 
ATOM     10  C   UNL A   1      40.946  22.810  26.594  1.00  0.00     0.066 C 
BRANCH   9  11
ATOM     11  O   UNL A   1      38.628  23.185  25.810  1.00  0.00    -0.479 OA
BRANCH  11  12
ATOM     12  C   UNL A   1      37.760  22.138  25.621  1.00  0.00     0.121 A 
ATOM     13  C   UNL A   1      38.080  20.931  25.000  1.00  0.00     0.046 A 
ATOM     14  C   UNL A   1      36.441  22.341  26.055  1.00  0.00     0.054 A 
ATOM     15  C   UNL A   1      37.086  19.997  24.703  1.00  0.00     0.004 A 
ATOM     16  C   UNL A   1      35.435  21.393  25.782  1.00  0.00    -0.021 A 
ATOM     17  C   UNL A   1      35.766  20.233  25.080  1.00  0.00     0.008 A 
BRANCH  16  18
ATOM     18  C   UNL A   1      34.026  21.574  26.164  1.00  0.00     0.029 C 
ATOM     19  C   UNL A   1      33.262  22.630  25.855  1.00  0.00     0.081 C 
ATOM     20  S   UNL A   1      31.631  22.814  26.361  1.00  0.00    -0.054 SA
ATOM     21  C   UNL A   1      33.707  23.831  25.112  1.00  0.00     0.270 C 
ATOM     22  C   UNL A   1      31.572  24.507  25.852  1.00  0.00     0.152 C 
ATOM     23  N   UNL A   1      32.786  24.861  25.283  1.00  0.00    -0.261 N 
ATOM     24  O   UNL A   1      34.778  23.865  24.522  1.00  0.00    -0.268 OA
ATOM     25  S   UNL A   1      30.162  25.386  26.049  1.00  0.00    -0.051 S 
BRANCH  23  26
ATOM     26  C   UNL A   1      33.241  26.183  25.027  1.00  0.00     0.052 A 
ATOM     27  C   UNL A   1      33.823  26.949  26.053  1.00  0.00     0.028 A 
ATOM     28  C   UNL A   1      32.964  26.805  23.816  1.00  0.00     0.048 A 
ATOM     29  C   UNL A   1      33.828  28.336  25.990  1.00  0.00     0.024 A 
ATOM     30  C   UNL A   1      33.210  28.163  23.699  1.00  0.00     0.061 A 
ATOM     31  C   UNL A   1      33.331  28.936  24.850  1.00  0.00     0.059 A 
ATOM     32  Cl  UNL A   1      34.248  28.519  22.345  1.00  0.00    -0.083 Cl
ATOM     33  Cl  UNL A   1      32.004  30.037  25.199  1.00  0.00    -0.083 Cl
ENDBRANCH  23  26
ENDBRANCH  16  18
ENDBRANCH  11  12
ENDBRANCH   9  11
ENDBRANCH   7   9
ENDBRANCH   6   7
ENDBRANCH   5   6
ENDBRANCH   4   5
ENDBRANCH   3   4
ENDBRANCH   2   3
ENDBRANCH   1   2
BRANCH   1  34
ATOM     34  O   UNL A   1      38.614  30.383  30.249  1.00  0.00    -0.377 OA
BRANCH  34  35
ATOM     35  C   UNL A   1      37.992  31.636  29.989  1.00  0.00     0.188 C 
BRANCH  35  36
ATOM     36  C   UNL A   1      38.724  32.868  30.548  1.00  0.00     0.188 C 
BRANCH  36  37
ATOM     37  O   UNL A   1      38.298  33.205  31.870  1.00  0.00    -0.376 OA
BRANCH  37  38
ATOM     38  C   UNL A   1      39.049  32.633  32.936  1.00  0.00     0.202 C 
BRANCH  38  39
ATOM     39  C   UNL A   1      38.342  31.504  33.701  1.00  0.00     0.261 C 
BRANCH  39  40
ATOM     40  O   UNL A   1      38.007  31.769  35.077  1.00  0.00    -0.460 OA
BRANCH  40  41
ATOM     41  C   UNL A   1      37.222  32.828  35.380  1.00  0.00     0.338 C 
ATOM     42  O   UNL A   1      36.197  33.170  34.826  1.00  0.00    -0.246 OA
BRANCH  41  43
ATOM     43  C   UNL A   1      37.752  33.436  36.620  1.00  0.00     0.060 A 
ATOM     44  C   UNL A   1      38.897  34.251  36.593  1.00  0.00     0.016 A 
ATOM     45  C   UNL A   1      37.123  33.163  37.824  1.00  0.00     0.016 A 
ATOM     46  C   UNL A   1      39.430  34.785  37.783  1.00  0.00     0.010 A 
ATOM     47  C   UNL A   1      37.673  33.673  38.998  1.00  0.00     0.010 A 
ATOM     48  C   UNL A   1      38.839  34.481  39.010  1.00  0.00    -0.014 A 
BRANCH  48  49
ATOM     49  C   UNL A   1      39.438  34.815  40.351  1.00  0.00     0.031 A 
ATOM     50  C   UNL A   1      39.667  36.273  40.646  1.00  0.00     0.074 A 
ATOM     51  C   UNL A   1      39.983  33.902  41.187  1.00  0.00     0.049 A 
ATOM     52  N   UNL A   1      40.473  36.837  41.504  1.00  0.00    -0.248 NA
ATOM     53  C   UNL A   1      38.890  37.223  39.829  1.00  0.00     0.031 C 
ATOM     54  C   UNL A   1      39.843  32.457  41.101  1.00  0.00     0.029 A 
ATOM     55  N   UNL A   1      40.930  34.072  42.183  1.00  0.00    -0.354 N 
ATOM     56  C   UNL A   1      40.324  38.203  41.311  1.00  0.00     0.074 A 
ATOM     57  C   UNL A   1      39.412  38.379  40.201  1.00  0.00     0.031 C 
ATOM     58  C   UNL A   1      40.820  31.870  41.815  1.00  0.00     0.029 A 
ATOM     59  C   UNL A   1      41.611  32.904  42.474  1.00  0.00     0.049 A 
ATOM     60  H   UNL A   1      41.099  34.930  42.634  1.00  0.00     0.167 HD
ATOM     61  C   UNL A   1      40.843  39.224  42.030  1.00  0.00     0.034 A 
ATOM     62  C   UNL A   1      42.755  32.687  43.159  1.00  0.00     0.034 A 
ATOM     63  C   UNL A   1      41.699  39.051  43.169  1.00  0.00     0.049 A 
ATOM     64  C   UNL A   1      43.380  33.825  43.925  1.00  0.00     0.074 A 
ATOM     65  C   UNL A   1      42.138  40.003  44.070  1.00  0.00     0.029 A 
ATOM     66  N   UNL A   1      42.262  37.845  43.550  1.00  0.00    -0.354 N 
ATOM     67  N   UNL A   1      43.072  35.097  43.901  1.00  0.00    -0.248 NA
ATOM     68  C   UNL A   1      44.434  33.484  44.895  1.00  0.00     0.031 C 
ATOM     69  C   UNL A   1      42.988  39.376  44.986  1.00  0.00     0.029 A 
ATOM     70  C   UNL A   1      43.056  38.028  44.669  1.00  0.00     0.049 A 
ATOM     71  H   UNL A   1      42.119  36.985  43.094  1.00  0.00     0.167 HD
ATOM     72  C   UNL A   1      43.818  35.692  44.912  1.00  0.00     0.074 A 
ATOM     73  C   UNL A   1      44.625  34.647  45.507  1.00  0.00     0.031 C 
ATOM     74  C   UNL A   1      43.805  36.985  45.319  1.00  0.00     0.034 A 
BRANCH  61  75
ATOM     75  C   UNL A   1      40.419  40.614  41.642  1.00  0.00     0.023 A 
ATOM     76  C   UNL A   1      40.918  41.182  40.451  1.00  0.00     0.012 A 
ATOM     77  C   UNL A   1      39.538  41.358  42.447  1.00  0.00     0.148 A 
ATOM     78  C   UNL A   1      40.601  42.491  40.099  1.00  0.00     0.002 A 
ATOM     79  C   UNL A   1      39.182  42.643  42.062  1.00  0.00     0.091 A 
ATOM     80  F   UNL A   1      39.090  40.810  43.587  1.00  0.00    -0.205 F 
ATOM     81  C   UNL A   1      39.727  43.218  40.901  1.00  0.00     0.022 A 
BRANCH  79  82
ATOM     82  S   UNL A   1      37.994  43.626  42.981  1.00  0.00     0.127 S 
ATOM     83  O   UNL A   1      36.894  42.678  43.151  1.00  0.00    -0.237 OA
ATOM     84  O   UNL A   1      38.729  43.933  44.208  1.00  0.00    -0.237 OA
ATOM     85  O   UNL A   1      37.707  44.784  42.145  1.00  0.00    -0.744 OA
ENDBRANCH  79  82
ENDBRANCH  61  75
BRANCH  62  86
ATOM     86  C   UNL A   1      43.332  31.313  43.251  1.00  0.00     0.023 A 
ATOM     87  C   UNL A   1      42.980  30.493  44.341  1.00  0.00     0.012 A 
ATOM     88  C   UNL A   1      44.220  30.814  42.274  1.00  0.00     0.148 A 
ATOM     89  C   UNL A   1      43.518  29.212  44.473  1.00  0.00     0.002 A 
ATOM     90  C   UNL A   1      44.728  29.522  42.396  1.00  0.00     0.091 A 
ATOM     91  F   UNL A   1      44.551  31.611  41.249  1.00  0.00    -0.205 F 
ATOM     92  C   UNL A   1      44.386  28.726  43.500  1.00  0.00     0.022 A 
BRANCH  90  93
ATOM     93  S   UNL A   1      45.795  28.759  41.165  1.00  0.00     0.127 S 
ATOM     94  O   UNL A   1      46.478  27.733  41.949  1.00  0.00    -0.237 OA
ATOM     95  O   UNL A   1      44.817  28.251  40.203  1.00  0.00    -0.237 OA
ATOM     96  O   UNL A   1      46.647  29.824  40.658  1.00  0.00    -0.744 OA
ENDBRANCH  90  93
ENDBRANCH  62  86
BRANCH  74  97
ATOM     97  C   UNL A   1      44.609  37.367  46.533  1.00  0.00     0.023 A 
ATOM     98  C   UNL A   1      44.047  37.274  47.820  1.00  0.00     0.012 A 
ATOM     99  C   UNL A   1      45.974  37.700  46.397  1.00  0.00     0.148 A 
ATOM    100  C   UNL A   1      44.825  37.519  48.952  1.00  0.00     0.002 A 
ATOM    101  C   UNL A   1      46.755  37.895  47.530  1.00  0.00     0.091 A 
ATOM    102  F   UNL A   1      46.486  37.803  45.162  1.00  0.00    -0.205 F 
ATOM    103  C   UNL A   1      46.180  37.813  48.807  1.00  0.00     0.022 A 
BRANCH 101 104
ATOM    104  S   UNL A   1      48.528  38.175  47.444  1.00  0.00     0.127 S 
ATOM    105  O   UNL A   1      48.922  38.022  48.843  1.00  0.00    -0.237 OA
ATOM    106  O   UNL A   1      48.970  37.093  46.563  1.00  0.00    -0.237 OA
ATOM    107  O   UNL A   1      48.701  39.512  46.892  1.00  0.00    -0.744 OA
ENDBRANCH 101 104
ENDBRANCH  74  97
ENDBRANCH  48  49
ENDBRANCH  41  43
ENDBRANCH  40  41
ENDBRANCH  39  40
ENDBRANCH  38  39
ENDBRANCH  37  38
ENDBRANCH  36  37
ENDBRANCH  35  36
ENDBRANCH  34  35
ENDBRANCH   1  34
TORSDOF 27
ENDMDL
MODEL 2
REMARK VINA RESULT:      -8.0      4.867      5.972
REMARK SMILES C[C@H](Oc1cccc(/C=C2/SC(=S)N(c3ccc(Cl)c(Cl)c3)C2=O)c1)C(=O)OCCOCCOCCOCCOC(=O)c1ccc(-c2c3nc(c(-c4cccc(S(=O)(=O)[O-])c4F)c4ccc([nH]4)c(-c4cccc(S(=O)(=O)[O-])c4F)c4nc(c(-c5cccc(S(=O)(=O)[O-])c5F)c5ccc2[nH]5)C=C4)C=C3)cc1
REMARK SMILES IDX 33 1 32 2 31 3 30 4 29 5 28 6 26 7 27 8 2 9 1 10 3 11 4 12
REMARK SMILES IDX 5 13 25 14 6 15 8 16 7 17 9 18 10 19 11 20 23 21 12 22 14 23
REMARK SMILES IDX 24 24 13 25 15 26 16 27 22 28 17 29 20 30 18 31 21 32 19 33
REMARK SMILES IDX 34 34 35 35 36 36 37 37 38 38 39 39 40 40 41 41 42 42 43 43
REMARK SMILES IDX 44 44 105 45 45 46 104 47 46 48 47 49 48 50 98 51 49 52
REMARK SMILES IDX 103 53 97 54 99 55 50 56 102 57 96 58 95 59 51 61 83 62
REMARK SMILES IDX 63 63 82 64 64 65 67 66 81 67 100 68 65 69 66 70 80 72
REMARK SMILES IDX 101 73 68 74 52 75 53 76 61 77 54 78 56 79 62 80 55 81 57 82
REMARK SMILES IDX 58 83 59 84 60 85 84 86 85 87 93 88 86 89 88 90 94 91 87 92
REMARK SMILES IDX 89 93 90 94 91 95 92 96 69 97 70 98 78 99 71 100 73 101
REMARK SMILES IDX 79 102 72 103 74 104 75 105 76 106 77 107
REMARK H PARENT 99 60 67 71
REMARK Flexibility Score: inf
ROOT
ATOM      1  C   UNL A   1      38.552  29.299  29.678  1.00  0.00     0.188 C 
ENDROOT
BRANCH   1   2
ATOM      2  C   UNL A   1      39.530  28.114  29.804  1.00  0.00     0.188 C 
BRANCH   2   3
ATOM      3  O   UNL A   1      40.904  28.214  29.438  1.00  0.00    -0.376 OA
BRANCH   3   4
ATOM      4  C   UNL A   1      41.784  27.110  29.589  1.00  0.00     0.202 C 
BRANCH   4   5
ATOM      5  C   UNL A   1      41.939  26.096  28.454  1.00  0.00     0.261 C 
BRANCH   5   6
ATOM      6  O   UNL A   1      41.016  25.002  28.457  1.00  0.00    -0.461 OA
BRANCH   6   7
ATOM      7  C   UNL A   1      39.992  25.076  27.567  1.00  0.00     0.347 C 
ATOM      8  O   UNL A   1      39.531  26.121  27.115  1.00  0.00    -0.248 OA
BRANCH   7   9
ATOM      9  C   UNL A   1      39.368  23.702  27.284  1.00  0.00     0.279 C 
ATOM     10  C   UNL A   1      40.548  22.728  27.354  1.00  0.00     0.066 C 
BRANCH   9  11
ATOM     11  O   UNL A   1      38.650  23.641  26.051  1.00  0.00    -0.479 OA
BRANCH  11  12
ATOM     12  C   UNL A   1      37.837  22.562  25.801  1.00  0.00     0.121 A 
ATOM     13  C   UNL A   1      38.234  21.388  25.162  1.00  0.00     0.046 A 
ATOM     14  C   UNL A   1      36.495  22.696  26.188  1.00  0.00     0.054 A 
ATOM     15  C   UNL A   1      37.294  20.420  24.802  1.00  0.00     0.004 A 
ATOM     16  C   UNL A   1      35.543  21.713  25.852  1.00  0.00    -0.021 A 
ATOM     17  C   UNL A   1      35.952  20.588  25.133  1.00  0.00     0.008 A 
BRANCH  16  18
ATOM     18  C   UNL A   1      34.114  21.822  26.183  1.00  0.00     0.029 C 
ATOM     19  C   UNL A   1      33.315  22.850  25.868  1.00  0.00     0.081 C 
ATOM     20  S   UNL A   1      31.659  22.949  26.315  1.00  0.00    -0.054 SA
ATOM     21  C   UNL A   1      33.733  24.086  25.169  1.00  0.00     0.270 C 
ATOM     22  C   UNL A   1      31.542  24.649  25.841  1.00  0.00     0.152 C 
ATOM     23  N   UNL A   1      32.760  25.069  25.326  1.00  0.00    -0.261 N 
ATOM     24  O   UNL A   1      34.822  24.182  24.621  1.00  0.00    -0.268 OA
ATOM     25  S   UNL A   1      30.087  25.459  26.002  1.00  0.00    -0.051 S 
BRANCH  23  26
ATOM     26  C   UNL A   1      33.164  26.416  25.117  1.00  0.00     0.052 A 
ATOM     27  C   UNL A   1      33.721  27.166  26.168  1.00  0.00     0.028 A 
ATOM     28  C   UNL A   1      32.857  27.071  23.930  1.00  0.00     0.048 A 
ATOM     29  C   UNL A   1      33.673  28.554  26.155  1.00  0.00     0.024 A 
ATOM     30  C   UNL A   1      33.051  28.440  23.861  1.00  0.00     0.061 A 
ATOM     31  C   UNL A   1      33.148  29.175  25.039  1.00  0.00     0.059 A 
ATOM     32  Cl  UNL A   1      34.069  28.884  22.518  1.00  0.00    -0.083 Cl
ATOM     33  Cl  UNL A   1      31.782  30.212  25.432  1.00  0.00    -0.083 Cl
ENDBRANCH  23  26
ENDBRANCH  16  18
ENDBRANCH  11  12
ENDBRANCH   9  11
ENDBRANCH   7   9
ENDBRANCH   6   7
ENDBRANCH   5   6
ENDBRANCH   4   5
ENDBRANCH   3   4
ENDBRANCH   2   3
ENDBRANCH   1   2
BRANCH   1  34
ATOM     34  O   UNL A   1      38.544  30.177  30.786  1.00  0.00    -0.377 OA
BRANCH  34  35
ATOM     35  C   UNL A   1      37.411  31.030  30.889  1.00  0.00     0.188 C 
BRANCH  35  36
ATOM     36  C   UNL A   1      37.650  32.368  31.610  1.00  0.00     0.188 C 
BRANCH  36  37
ATOM     37  O   UNL A   1      37.294  32.315  32.993  1.00  0.00    -0.376 OA
BRANCH  37  38
ATOM     38  C   UNL A   1      38.360  32.481  33.923  1.00  0.00     0.202 C 
BRANCH  38  39
ATOM     39  C   UNL A   1      38.302  31.563  35.153  1.00  0.00     0.261 C 
BRANCH  39  40
ATOM     40  O   UNL A   1      38.519  32.186  36.433  1.00  0.00    -0.460 OA
BRANCH  40  41
ATOM     41  C   UNL A   1      37.723  33.208  36.821  1.00  0.00     0.338 C 
ATOM     42  O   UNL A   1      36.509  33.233  36.833  1.00  0.00    -0.246 OA
BRANCH  41  43
ATOM     43  C   UNL A   1      38.593  34.266  37.379  1.00  0.00     0.060 A 
ATOM     44  C   UNL A   1      39.088  35.298  36.564  1.00  0.00     0.016 A 
ATOM     45  C   UNL A   1      38.945  34.209  38.718  1.00  0.00     0.016 A 
ATOM     46  C   UNL A   1      39.958  36.274  37.087  1.00  0.00     0.010 A 
ATOM     47  C   UNL A   1      39.828  35.163  39.219  1.00  0.00     0.010 A 
ATOM     48  C   UNL A   1      40.364  36.206  38.420  1.00  0.00    -0.014 A 
BRANCH  48  49
ATOM     49  C   UNL A   1      41.447  37.058  39.027  1.00  0.00     0.031 A 
ATOM     50  C   UNL A   1      41.003  38.298  39.757  1.00  0.00     0.074 A 
ATOM     51  C   UNL A   1      42.765  36.910  38.767  1.00  0.00     0.049 A 
ATOM     52  N   UNL A   1      41.669  39.382  40.046  1.00  0.00    -0.248 NA
ATOM     53  C   UNL A   1      39.595  38.316  40.193  1.00  0.00     0.031 C 
ATOM     54  C   UNL A   1      43.397  35.773  38.116  1.00  0.00     0.029 A 
ATOM     55  N   UNL A   1      43.794  37.833  38.865  1.00  0.00    -0.354 N 
ATOM     56  C   UNL A   1      40.757  40.223  40.669  1.00  0.00     0.074 A 
ATOM     57  C   UNL A   1      39.474  39.554  40.643  1.00  0.00     0.031 C 
ATOM     58  C   UNL A   1      44.610  36.134  37.662  1.00  0.00     0.029 A 
ATOM     59  C   UNL A   1      44.873  37.513  38.061  1.00  0.00     0.049 A 
ATOM     60  H   UNL A   1      43.760  38.628  39.444  1.00  0.00     0.167 HD
ATOM     61  C   UNL A   1      40.973  41.415  41.270  1.00  0.00     0.034 A 
ATOM     62  C   UNL A   1      45.934  38.248  37.661  1.00  0.00     0.034 A 
ATOM     63  C   UNL A   1      42.256  42.052  41.351  1.00  0.00     0.049 A 
ATOM     64  C   UNL A   1      46.165  39.603  38.280  1.00  0.00     0.074 A 
ATOM     65  C   UNL A   1      42.620  43.168  42.082  1.00  0.00     0.029 A 
ATOM     66  N   UNL A   1      43.382  41.639  40.660  1.00  0.00    -0.354 N 
ATOM     67  N   UNL A   1      45.374  40.292  39.062  1.00  0.00    -0.248 NA
ATOM     68  C   UNL A   1      47.477  40.231  38.053  1.00  0.00     0.031 C 
ATOM     69  C   UNL A   1      43.964  43.445  41.814  1.00  0.00     0.029 A 
ATOM     70  C   UNL A   1      44.443  42.484  40.936  1.00  0.00     0.049 A 
ATOM     71  H   UNL A   1      43.424  40.860  40.060  1.00  0.00     0.167 HD
ATOM     72  C   UNL A   1      46.120  41.382  39.498  1.00  0.00     0.074 A 
ATOM     73  C   UNL A   1      47.417  41.283  38.862  1.00  0.00     0.031 C 
ATOM     74  C   UNL A   1      45.760  42.355  40.371  1.00  0.00     0.034 A 
BRANCH  61  75
ATOM     75  C   UNL A   1      39.798  42.054  41.958  1.00  0.00     0.023 A 
ATOM     76  C   UNL A   1      39.145  43.142  41.341  1.00  0.00     0.012 A 
ATOM     77  C   UNL A   1      39.342  41.588  43.204  1.00  0.00     0.148 A 
ATOM     78  C   UNL A   1      38.099  43.800  41.983  1.00  0.00     0.002 A 
ATOM     79  C   UNL A   1      38.263  42.215  43.813  1.00  0.00     0.091 A 
ATOM     80  F   UNL A   1      39.989  40.567  43.785  1.00  0.00    -0.205 F 
ATOM     81  C   UNL A   1      37.654  43.331  43.215  1.00  0.00     0.022 A 
BRANCH  79  82
ATOM     82  S   UNL A   1      37.560  41.629  45.357  1.00  0.00     0.127 S 
ATOM     83  O   UNL A   1      36.936  42.844  45.878  1.00  0.00    -0.237 OA
ATOM     84  O   UNL A   1      36.617  40.608  44.900  1.00  0.00    -0.237 OA
ATOM     85  O   UNL A   1      38.680  41.111  46.131  1.00  0.00    -0.744 OA
ENDBRANCH  79  82
ENDBRANCH  61  75
BRANCH  62  86
ATOM     86  C   UNL A   1      46.929  37.680  36.703  1.00  0.00     0.023 A 
ATOM     87  C   UNL A   1      47.996  36.907  37.200  1.00  0.00     0.012 A 
ATOM     88  C   UNL A   1      46.826  37.896  35.312  1.00  0.00     0.148 A 
ATOM     89  C   UNL A   1      48.958  36.380  36.337  1.00  0.00     0.002 A 
ATOM     90  C   UNL A   1      47.772  37.340  34.454  1.00  0.00     0.091 A 
ATOM     91  F   UNL A   1      45.810  38.641  34.858  1.00  0.00    -0.205 F 
ATOM     92  C   UNL A   1      48.843  36.592  34.967  1.00  0.00     0.022 A 
BRANCH  90  93
ATOM     93  S   UNL A   1      47.686  37.481  32.662  1.00  0.00     0.127 S 
ATOM     94  O   UNL A   1      48.840  36.692  32.239  1.00  0.00    -0.237 OA
ATOM     95  O   UNL A   1      46.386  36.872  32.382  1.00  0.00    -0.237 OA
ATOM     96  O   UNL A   1      47.765  38.904  32.368  1.00  0.00    -0.744 OA
ENDBRANCH  90  93
ENDBRANCH  62  86
BRANCH  74  97
ATOM     97  C   UNL A   1      46.795  43.363  40.794  1.00  0.00     0.023 A 
ATOM     98  C   UNL A   1      47.706  43.061  41.823  1.00  0.00     0.012 A 
ATOM     99  C   UNL A   1      46.937  44.569  40.075  1.00  0.00     0.148 A 
ATOM    100  C   UNL A   1      48.736  43.949  42.139  1.00  0.00     0.002 A 
ATOM    101  C   UNL A   1      47.994  45.425  40.362  1.00  0.00     0.091 A 
ATOM    102  F   UNL A   1      46.046  44.847  39.112  1.00  0.00    -0.205 F 
ATOM    103  C   UNL A   1      48.889  45.121  41.399  1.00  0.00     0.022 A 
BRANCH 101 104
ATOM    104  S   UNL A   1      48.329  46.903  39.397  1.00  0.00     0.127 S 
ATOM    105  O   UNL A   1      47.300  47.819  39.887  1.00  0.00    -0.237 OA
ATOM    106  O   UNL A   1      49.692  47.240  39.809  1.00  0.00    -0.237 OA
ATOM    107  O   UNL A   1      48.199  46.513  37.999  1.00  0.00    -0.744 OA
ENDBRANCH 101 104
ENDBRANCH  74  97
ENDBRANCH  48  49
ENDBRANCH  41  43
ENDBRANCH  40  41
ENDBRANCH  39  40
ENDBRANCH  38  39
ENDBRANCH  37  38
ENDBRANCH  36  37
ENDBRANCH  35  36
ENDBRANCH  34  35
ENDBRANCH   1  34
TORSDOF 27
ENDMDL
MODEL 3
REMARK VINA RESULT:      -7.8      9.824     17.107
REMARK SMILES C[C@H](Oc1cccc(/C=C2/SC(=S)N(c3ccc(Cl)c(Cl)c3)C2=O)c1)C(=O)OCCOCCOCCOCCOC(=O)c1ccc(-c2c3nc(c(-c4cccc(S(=O)(=O)[O-])c4F)c4ccc([nH]4)c(-c4cccc(S(=O)(=O)[O-])c4F)c4nc(c(-c5cccc(S(=O)(=O)[O-])c5F)c5ccc2[nH]5)C=C4)C=C3)cc1
REMARK SMILES IDX 33 1 32 2 31 3 30 4 29 5 28 6 26 7 27 8 2 9 1 10 3 11 4 12
REMARK SMILES IDX 5 13 25 14 6 15 8 16 7 17 9 18 10 19 11 20 23 21 12 22 14 23
REMARK SMILES IDX 24 24 13 25 15 26 16 27 22 28 17 29 20 30 18 31 21 32 19 33
REMARK SMILES IDX 34 34 35 35 36 36 37 37 38 38 39 39 40 40 41 41 42 42 43 43
REMARK SMILES IDX 44 44 105 45 45 46 104 47 46 48 47 49 48 50 98 51 49 52
REMARK SMILES IDX 103 53 97 54 99 55 50 56 102 57 96 58 95 59 51 61 83 62
REMARK SMILES IDX 63 63 82 64 64 65 67 66 81 67 100 68 65 69 66 70 80 72
REMARK SMILES IDX 101 73 68 74 52 75 53 76 61 77 54 78 56 79 62 80 55 81 57 82
REMARK SMILES IDX 58 83 59 84 60 85 84 86 85 87 93 88 86 89 88 90 94 91 87 92
REMARK SMILES IDX 89 93 90 94 91 95 92 96 69 97 70 98 78 99 71 100 73 101
REMARK SMILES IDX 79 102 72 103 74 104 75 105 76 106 77 107
REMARK H PARENT 99 60 67 71
REMARK Flexibility Score: inf
ROOT
ATOM      1  C   UNL A   1      51.061  18.430  40.224  1.00  0.00     0.188 C 
ENDROOT
BRANCH   1   2
ATOM      2  C   UNL A   1      50.706  19.196  41.515  1.00  0.00     0.188 C 
BRANCH   2   3
ATOM      3  O   UNL A   1      49.942  20.400  41.502  1.00  0.00    -0.376 OA
BRANCH   3   4
ATOM      4  C   UNL A   1      50.517  21.626  41.076  1.00  0.00     0.202 C 
BRANCH   4   5
ATOM      5  C   UNL A   1      49.873  22.416  39.934  1.00  0.00     0.261 C 
BRANCH   5   6
ATOM      6  O   UNL A   1      49.067  23.535  40.320  1.00  0.00    -0.461 OA
BRANCH   6   7
ATOM      7  C   UNL A   1      49.676  24.749  40.305  1.00  0.00     0.347 C 
ATOM      8  O   UNL A   1      50.851  24.947  40.600  1.00  0.00    -0.248 OA
BRANCH   7   9
ATOM      9  C   UNL A   1      48.691  25.889  40.007  1.00  0.00     0.279 C 
ATOM     10  C   UNL A   1      49.189  27.054  40.866  1.00  0.00     0.066 C 
BRANCH   9  11
ATOM     11  O   UNL A   1      47.325  25.545  40.248  1.00  0.00    -0.479 OA
BRANCH  11  12
ATOM     12  C   UNL A   1      46.354  26.026  39.405  1.00  0.00     0.121 A 
ATOM     13  C   UNL A   1      45.168  25.365  39.086  1.00  0.00     0.046 A 
ATOM     14  C   UNL A   1      46.621  27.260  38.793  1.00  0.00     0.054 A 
ATOM     15  C   UNL A   1      44.325  25.857  38.088  1.00  0.00     0.004 A 
ATOM     16  C   UNL A   1      45.763  27.777  37.802  1.00  0.00    -0.021 A 
ATOM     17  C   UNL A   1      44.627  27.051  37.439  1.00  0.00     0.008 A 
BRANCH  16  18
ATOM     18  C   UNL A   1      46.017  29.038  37.088  1.00  0.00     0.029 C 
ATOM     19  C   UNL A   1      46.644  29.157  35.910  1.00  0.00     0.081 C 
ATOM     20  S   UNL A   1      46.953  30.658  35.135  1.00  0.00    -0.054 SA
ATOM     21  C   UNL A   1      47.237  28.046  35.131  1.00  0.00     0.270 C 
ATOM     22  C   UNL A   1      48.043  29.923  33.951  1.00  0.00     0.152 C 
ATOM     23  N   UNL A   1      48.103  28.554  34.167  1.00  0.00    -0.261 N 
ATOM     24  O   UNL A   1      47.013  26.875  35.403  1.00  0.00    -0.268 OA
ATOM     25  S   UNL A   1      48.761  30.876  32.779  1.00  0.00    -0.051 S 
BRANCH  23  26
ATOM     26  C   UNL A   1      49.074  27.662  33.637  1.00  0.00     0.052 A 
ATOM     27  C   UNL A   1      48.844  26.998  32.418  1.00  0.00     0.028 A 
ATOM     28  C   UNL A   1      50.182  27.293  34.390  1.00  0.00     0.048 A 
ATOM     29  C   UNL A   1      49.496  25.808  32.122  1.00  0.00     0.024 A 
ATOM     30  C   UNL A   1      50.969  26.246  33.939  1.00  0.00     0.061 A 
ATOM     31  C   UNL A   1      50.444  25.348  33.015  1.00  0.00     0.059 A 
ATOM     32  Cl  UNL A   1      52.642  26.709  33.792  1.00  0.00    -0.083 Cl
ATOM     33  Cl  UNL A   1      50.071  23.735  33.611  1.00  0.00    -0.083 Cl
ENDBRANCH  23  26
ENDBRANCH  16  18
ENDBRANCH  11  12
ENDBRANCH   9  11
ENDBRANCH   7   9
ENDBRANCH   6   7
ENDBRANCH   5   6
ENDBRANCH   4   5
ENDBRANCH   3   4
ENDBRANCH   2   3
ENDBRANCH   1   2
BRANCH   1  34
ATOM     34  O   UNL A   1      50.322  18.820  39.084  1.00  0.00    -0.377 OA
BRANCH  34  35
ATOM     35  C   UNL A   1      51.054  18.885  37.867  1.00  0.00     0.188 C 
BRANCH  35  36
ATOM     36  C   UNL A   1      51.109  20.269  37.197  1.00  0.00     0.188 C 
BRANCH  36  37
ATOM     37  O   UNL A   1      50.147  20.408  36.149  1.00  0.00    -0.376 OA
BRANCH  37  38
ATOM     38  C   UNL A   1      48.992  21.183  36.456  1.00  0.00     0.202 C 
BRANCH  38  39
ATOM     39  C   UNL A   1      47.655  20.437  36.333  1.00  0.00     0.261 C 
BRANCH  39  40
ATOM     40  O   UNL A   1      46.466  21.250  36.287  1.00  0.00    -0.460 OA
BRANCH  40  41
ATOM     41  C   UNL A   1      45.534  21.016  35.336  1.00  0.00     0.338 C 
ATOM     42  O   UNL A   1      45.041  19.949  35.033  1.00  0.00    -0.246 OA
BRANCH  41  43
ATOM     43  C   UNL A   1      45.096  22.327  34.807  1.00  0.00     0.060 A 
ATOM     44  C   UNL A   1      43.851  22.469  34.172  1.00  0.00     0.016 A 
ATOM     45  C   UNL A   1      45.949  23.414  34.917  1.00  0.00     0.016 A 
ATOM     46  C   UNL A   1      43.460  23.707  33.624  1.00  0.00     0.010 A 
ATOM     47  C   UNL A   1      45.565  24.625  34.347  1.00  0.00     0.010 A 
ATOM     48  C   UNL A   1      44.325  24.800  33.679  1.00  0.00    -0.014 A 
BRANCH  48  49
ATOM     49  C   UNL A   1      44.108  26.098  32.948  1.00  0.00     0.031 A 
ATOM     50  C   UNL A   1      44.930  26.321  31.707  1.00  0.00     0.074 A 
ATOM     51  C   UNL A   1      43.413  27.144  33.449  1.00  0.00     0.049 A 
ATOM     52  N   UNL A   1      45.242  27.433  31.098  1.00  0.00    -0.248 NA
ATOM     53  C   UNL A   1      45.501  25.111  31.089  1.00  0.00     0.031 C 
ATOM     54  C   UNL A   1      42.532  27.125  34.606  1.00  0.00     0.029 A 
ATOM     55  N   UNL A   1      43.497  28.491  33.135  1.00  0.00    -0.354 N 
ATOM     56  C   UNL A   1      46.067  27.061  30.047  1.00  0.00     0.074 A 
ATOM     57  C   UNL A   1      46.272  25.632  30.150  1.00  0.00     0.031 C 
ATOM     58  C   UNL A   1      42.348  28.381  35.050  1.00  0.00     0.029 A 
ATOM     59  C   UNL A   1      43.040  29.305  34.156  1.00  0.00     0.049 A 
ATOM     60  H   UNL A   1      43.844  28.831  32.279  1.00  0.00     0.167 HD
ATOM     61  C   UNL A   1      46.560  27.822  29.043  1.00  0.00     0.034 A 
ATOM     62  C   UNL A   1      43.186  30.630  34.372  1.00  0.00     0.034 A 
ATOM     63  C   UNL A   1      46.309  29.228  28.904  1.00  0.00     0.049 A 
ATOM     64  C   UNL A   1      43.783  31.490  33.287  1.00  0.00     0.074 A 
ATOM     65  C   UNL A   1      46.612  30.057  27.839  1.00  0.00     0.029 A 
ATOM     66  N   UNL A   1      45.710  30.017  29.871  1.00  0.00    -0.354 N 
ATOM     67  N   UNL A   1      44.365  31.120  32.175  1.00  0.00    -0.248 NA
ATOM     68  C   UNL A   1      43.643  32.949  33.431  1.00  0.00     0.031 C 
ATOM     69  C   UNL A   1      46.217  31.356  28.173  1.00  0.00     0.029 A 
ATOM     70  C   UNL A   1      45.643  31.329  29.435  1.00  0.00     0.049 A 
ATOM     71  H   UNL A   1      45.380  29.694  30.740  1.00  0.00     0.167 HD
ATOM     72  C   UNL A   1      44.574  32.285  31.445  1.00  0.00     0.074 A 
ATOM     73  C   UNL A   1      44.090  33.382  32.258  1.00  0.00     0.031 C 
ATOM     74  C   UNL A   1      45.095  32.418  30.201  1.00  0.00     0.034 A 
BRANCH  61  75
ATOM     75  C   UNL A   1      47.351  27.115  27.978  1.00  0.00     0.023 A 
ATOM     76  C   UNL A   1      46.672  26.528  26.889  1.00  0.00     0.012 A 
ATOM     77  C   UNL A   1      48.753  27.026  28.048  1.00  0.00     0.148 A 
ATOM     78  C   UNL A   1      47.368  25.806  25.923  1.00  0.00     0.002 A 
ATOM     79  C   UNL A   1      49.445  26.351  27.051  1.00  0.00     0.091 A 
ATOM     80  F   UNL A   1      49.380  27.572  29.101  1.00  0.00    -0.205 F 
ATOM     81  C   UNL A   1      48.754  25.724  26.000  1.00  0.00     0.022 A 
BRANCH  79  82
ATOM     82  S   UNL A   1      51.238  26.269  27.015  1.00  0.00     0.127 S 
ATOM     83  O   UNL A   1      51.462  24.887  26.597  1.00  0.00    -0.237 OA
ATOM     84  O   UNL A   1      51.574  27.273  26.006  1.00  0.00    -0.237 OA
ATOM     85  O   UNL A   1      51.676  26.601  28.364  1.00  0.00    -0.744 OA
ENDBRANCH  79  82
ENDBRANCH  61  75
BRANCH  62  86
ATOM     86  C   UNL A   1      42.660  31.255  35.622  1.00  0.00     0.023 A 
ATOM     87  C   UNL A   1      43.542  31.492  36.694  1.00  0.00     0.012 A 
ATOM     88  C   UNL A   1      41.303  31.618  35.756  1.00  0.00     0.148 A 
ATOM     89  C   UNL A   1      43.082  32.052  37.886  1.00  0.00     0.002 A 
ATOM     90  C   UNL A   1      40.858  32.206  36.938  1.00  0.00     0.091 A 
ATOM     91  F   UNL A   1      40.476  31.378  34.729  1.00  0.00    -0.205 F 
ATOM     92  C   UNL A   1      41.744  32.413  38.006  1.00  0.00     0.022 A 
BRANCH  90  93
ATOM     93  S   UNL A   1      39.171  32.784  37.180  1.00  0.00     0.127 S 
ATOM     94  O   UNL A   1      38.414  31.535  37.146  1.00  0.00    -0.237 OA
ATOM     95  O   UNL A   1      39.262  33.414  38.496  1.00  0.00    -0.237 OA
ATOM     96  O   UNL A   1      38.901  33.704  36.085  1.00  0.00    -0.744 OA
ENDBRANCH  90  93
ENDBRANCH  62  86
BRANCH  74  97
ATOM     97  C   UNL A   1      45.097  33.781  29.561  1.00  0.00     0.023 A 
ATOM     98  C   UNL A   1      46.240  34.599  29.627  1.00  0.00     0.012 A 
ATOM     99  C   UNL A   1      43.995  34.194  28.783  1.00  0.00     0.148 A 
ATOM    100  C   UNL A   1      46.282  35.813  28.940  1.00  0.00     0.002 A 
ATOM    101  C   UNL A   1      44.062  35.380  28.062  1.00  0.00     0.091 A 
ATOM    102  F   UNL A   1      42.907  33.409  28.749  1.00  0.00    -0.205 F 
ATOM    103  C   UNL A   1      45.202  36.194  28.146  1.00  0.00     0.022 A 
BRANCH 101 104
ATOM    104  S   UNL A   1      42.763  35.900  26.935  1.00  0.00     0.127 S 
ATOM    105  O   UNL A   1      43.144  37.285  26.658  1.00  0.00    -0.237 OA
ATOM    106  O   UNL A   1      42.943  34.982  25.809  1.00  0.00    -0.237 OA
ATOM    107  O   UNL A   1      41.509  35.733  27.656  1.00  0.00    -0.744 OA
ENDBRANCH 101 104
ENDBRANCH  74  97
ENDBRANCH  48  49
ENDBRANCH  41  43
ENDBRANCH  40  41
ENDBRANCH  39  40
ENDBRANCH  38  39
ENDBRANCH  37  38
ENDBRANCH  36  37
ENDBRANCH  35  36
ENDBRANCH  34  35
ENDBRANCH   1  34
TORSDOF 27
ENDMDL
