MODEL 1
REMARK VINA RESULT:      -7.2      0.000      0.000
REMARK SMILES Cc1cc(C(=O)OCCOCCOCCOCCOC(=O)c2ccc(-c3c4nc(c(-c5cccc(S(=O)(=O)[O-])c5F)c5ccc([nH]5)c(-c5cccc(S(=O)(=O)[O-])c5F)c5nc(c(-c6cccc(S(=O)(=O)[O-])c6F)c6ccc3[nH]6)C=C5)C=C4)cc2)c(NC(=O)c2nc(C(C)(C)C)n[nH]2)s1
REMARK SMILES IDX 13 1 12 2 11 3 10 4 9 5 8 6 7 7 5 8 6 9 4 10 1 11 2 12 3 13
REMARK SMILES IDX 98 14 85 15 86 16 87 17 88 19 89 20 90 21 97 22 91 23 96 24
REMARK SMILES IDX 92 26 93 27 94 28 95 29 14 30 15 31 16 32 17 33 18 34 19 35
REMARK SMILES IDX 20 36 21 37 22 38 23 39 84 40 24 41 83 42 25 43 26 44 27 45
REMARK SMILES IDX 77 46 28 47 82 48 76 49 78 50 29 51 81 52 75 53 74 54 30 56
REMARK SMILES IDX 62 57 42 58 61 59 43 60 46 61 60 62 79 63 44 64 45 65 59 67
REMARK SMILES IDX 80 68 47 69 31 70 32 71 40 72 33 73 35 74 41 75 34 76 36 77
REMARK SMILES IDX 37 78 38 79 39 80 63 81 64 82 72 83 65 84 67 85 73 86 66 87
REMARK SMILES IDX 68 88 69 89 70 90 71 91 48 92 49 93 57 94 50 95 52 96 58 97
REMARK SMILES IDX 51 98 53 99 54 100 55 101 56 102
REMARK H PARENT 86 18 97 25 78 55 46 66
REMARK Flexibility Score: inf
ROOT
ATOM      1  O   UNL A   1      39.479  32.240  36.805  1.00  0.00    -0.377 OA
ENDROOT
BRANCH   1   2
ATOM      2  C   UNL A   1      39.086  32.893  35.607  1.00  0.00     0.188 C 
BRANCH   2   3
ATOM      3  C   UNL A   1      37.889  32.188  34.949  1.00  0.00     0.188 C 
BRANCH   3   4
ATOM      4  O   UNL A   1      37.324  32.940  33.875  1.00  0.00    -0.376 OA
BRANCH   4   5
ATOM      5  C   UNL A   1      37.857  34.237  33.640  1.00  0.00     0.202 C 
BRANCH   5   6
ATOM      6  C   UNL A   1      37.958  34.718  32.182  1.00  0.00     0.261 C 
BRANCH   6   7
ATOM      7  O   UNL A   1      38.825  33.978  31.304  1.00  0.00    -0.460 OA
BRANCH   7   8
ATOM      8  C   UNL A   1      38.305  33.297  30.260  1.00  0.00     0.341 C 
ATOM      9  O   UNL A   1      38.140  33.742  29.130  1.00  0.00    -0.246 OA
BRANCH   8  10
ATOM     10  C   UNL A   1      38.147  31.884  30.588  1.00  0.00     0.095 A 
ATOM     11  C   UNL A   1      39.354  28.715  32.292  1.00  0.00     0.056 C 
ATOM     12  C   UNL A   1      38.703  29.798  31.501  1.00  0.00     0.004 A 
ATOM     13  C   UNL A   1      38.987  31.144  31.491  1.00  0.00     0.033 A 
ATOM     14  S   UNL A   1      37.461  29.426  30.403  1.00  0.00    -0.122 S 
ATOM     15  C   UNL A   1      37.230  31.050  29.958  1.00  0.00     0.110 A 
BRANCH  15  16
ATOM     16  N   UNL A   1      36.339  31.420  28.960  1.00  0.00    -0.310 N 
ATOM     17  C   UNL A   1      35.056  31.935  29.011  1.00  0.00     0.293 C 
ATOM     18  H   UNL A   1      36.683  31.292  28.047  1.00  0.00     0.171 HD
ATOM     19  O   UNL A   1      34.353  31.760  28.012  1.00  0.00    -0.265 OA
BRANCH  17  20
ATOM     20  C   UNL A   1      34.622  32.735  30.129  1.00  0.00     0.214 A 
ATOM     21  N   UNL A   1      34.363  34.030  30.108  1.00  0.00    -0.207 NA
ATOM     22  N   UNL A   1      34.491  32.289  31.411  1.00  0.00    -0.255 N 
ATOM     23  C   UNL A   1      33.991  34.306  31.400  1.00  0.00     0.156 A 
ATOM     24  N   UNL A   1      34.093  33.265  32.240  1.00  0.00    -0.158 NA
ATOM     25  H   UNL A   1      34.666  31.363  31.694  1.00  0.00     0.192 HD
BRANCH  23  26
ATOM     26  C   UNL A   1      33.548  35.682  31.837  1.00  0.00     0.024 C 
ATOM     27  C   UNL A   1      34.590  36.268  32.806  1.00  0.00     0.019 C 
ATOM     28  C   UNL A   1      33.417  36.618  30.618  1.00  0.00     0.019 C 
ATOM     29  C   UNL A   1      32.179  35.636  32.545  1.00  0.00     0.019 C 
ENDBRANCH  23  26
ENDBRANCH  17  20
ENDBRANCH  15  16
ENDBRANCH   8  10
ENDBRANCH   7   8
ENDBRANCH   6   7
ENDBRANCH   5   6
ENDBRANCH   4   5
ENDBRANCH   3   4
ENDBRANCH   2   3
ENDBRANCH   1   2
BRANCH   1  30
ATOM     30  C   UNL A   1      39.044  32.849  38.017  1.00  0.00     0.188 C 
BRANCH  30  31
ATOM     31  C   UNL A   1      40.049  32.985  39.180  1.00  0.00     0.188 C 
BRANCH  31  32
ATOM     32  O   UNL A   1      39.425  32.974  40.469  1.00  0.00    -0.376 OA
BRANCH  32  33
ATOM     33  C   UNL A   1      39.728  34.073  41.324  1.00  0.00     0.202 C 
BRANCH  33  34
ATOM     34  C   UNL A   1      41.020  34.806  40.941  1.00  0.00     0.261 C 
BRANCH  34  35
ATOM     35  O   UNL A   1      40.819  36.069  40.287  1.00  0.00    -0.460 OA
BRANCH  35  36
ATOM     36  C   UNL A   1      41.922  36.717  39.854  1.00  0.00     0.338 C 
ATOM     37  O   UNL A   1      42.579  37.539  40.466  1.00  0.00    -0.246 OA
BRANCH  36  38
ATOM     38  C   UNL A   1      42.326  36.115  38.569  1.00  0.00     0.060 A 
ATOM     39  C   UNL A   1      41.349  35.923  37.584  1.00  0.00     0.016 A 
ATOM     40  C   UNL A   1      43.652  35.737  38.344  1.00  0.00     0.016 A 
ATOM     41  C   UNL A   1      41.690  35.301  36.383  1.00  0.00     0.010 A 
ATOM     42  C   UNL A   1      43.988  35.103  37.149  1.00  0.00     0.010 A 
ATOM     43  C   UNL A   1      43.001  34.847  36.182  1.00  0.00    -0.014 A 
BRANCH  43  44
ATOM     44  C   UNL A   1      43.303  33.930  35.062  1.00  0.00     0.031 A 
ATOM     45  C   UNL A   1      43.618  34.530  33.720  1.00  0.00     0.074 A 
ATOM     46  C   UNL A   1      43.259  32.596  35.220  1.00  0.00     0.049 A 
ATOM     47  N   UNL A   1      43.888  33.935  32.589  1.00  0.00    -0.248 NA
ATOM     48  C   UNL A   1      43.622  36.001  33.643  1.00  0.00     0.031 C 
ATOM     49  C   UNL A   1      42.947  31.902  36.468  1.00  0.00     0.029 A 
ATOM     50  N   UNL A   1      43.450  31.588  34.309  1.00  0.00    -0.354 N 
ATOM     51  C   UNL A   1      44.078  34.952  31.664  1.00  0.00     0.074 A 
ATOM     52  C   UNL A   1      43.876  36.205  32.359  1.00  0.00     0.031 C 
ATOM     53  C   UNL A   1      42.935  30.577  36.234  1.00  0.00     0.029 A 
ATOM     54  C   UNL A   1      43.226  30.333  34.823  1.00  0.00     0.049 A 
ATOM     55  H   UNL A   1      43.721  31.749  33.376  1.00  0.00     0.167 HD
ATOM     56  C   UNL A   1      44.409  34.857  30.357  1.00  0.00     0.034 A 
ATOM     57  C   UNL A   1      43.243  29.130  34.215  1.00  0.00     0.034 A 
ATOM     58  C   UNL A   1      44.617  33.614  29.668  1.00  0.00     0.049 A 
ATOM     59  C   UNL A   1      43.599  29.049  32.751  1.00  0.00     0.074 A 
ATOM     60  C   UNL A   1      45.003  33.411  28.356  1.00  0.00     0.029 A 
ATOM     61  N   UNL A   1      44.441  32.362  30.235  1.00  0.00    -0.354 N 
ATOM     62  N   UNL A   1      43.923  30.016  31.925  1.00  0.00    -0.248 NA
ATOM     63  C   UNL A   1      43.624  27.710  32.144  1.00  0.00     0.031 C 
ATOM     64  C   UNL A   1      45.046  32.032  28.125  1.00  0.00     0.029 A 
ATOM     65  C   UNL A   1      44.700  31.378  29.297  1.00  0.00     0.049 A 
ATOM     66  H   UNL A   1      44.171  32.196  31.167  1.00  0.00     0.167 HD
ATOM     67  C   UNL A   1      44.226  29.399  30.715  1.00  0.00     0.074 A 
ATOM     68  C   UNL A   1      44.062  27.975  30.920  1.00  0.00     0.031 C 
ATOM     69  C   UNL A   1      44.592  29.962  29.536  1.00  0.00     0.034 A 
BRANCH  56  70
ATOM     70  C   UNL A   1      44.604  36.140  29.599  1.00  0.00     0.023 A 
ATOM     71  C   UNL A   1      45.892  36.710  29.529  1.00  0.00     0.012 A 
ATOM     72  C   UNL A   1      43.532  36.766  28.935  1.00  0.00     0.148 A 
ATOM     73  C   UNL A   1      46.105  37.899  28.833  1.00  0.00     0.002 A 
ATOM     74  C   UNL A   1      43.760  37.932  28.213  1.00  0.00     0.091 A 
ATOM     75  F   UNL A   1      42.310  36.227  29.043  1.00  0.00    -0.205 F 
ATOM     76  C   UNL A   1      45.042  38.504  28.167  1.00  0.00     0.022 A 
BRANCH  74  77
ATOM     77  S   UNL A   1      42.463  38.746  27.273  1.00  0.00     0.127 S 
ATOM     78  O   UNL A   1      41.856  37.617  26.570  1.00  0.00    -0.237 OA
ATOM     79  O   UNL A   1      41.630  39.326  28.328  1.00  0.00    -0.237 OA
ATOM     80  O   UNL A   1      43.138  39.724  26.432  1.00  0.00    -0.744 OA
ENDBRANCH  74  77
ENDBRANCH  56  70
BRANCH  57  81
ATOM     81  C   UNL A   1      42.966  27.897  35.004  1.00  0.00     0.023 A 
ATOM     82  C   UNL A   1      41.662  27.367  35.023  1.00  0.00     0.012 A 
ATOM     83  C   UNL A   1      43.988  27.234  35.712  1.00  0.00     0.148 A 
ATOM     84  C   UNL A   1      41.374  26.213  35.752  1.00  0.00     0.002 A 
ATOM     85  C   UNL A   1      43.705  26.055  36.394  1.00  0.00     0.091 A 
ATOM     86  F   UNL A   1      45.218  27.764  35.699  1.00  0.00    -0.205 F 
ATOM     87  C   UNL A   1      42.396  25.551  36.428  1.00  0.00     0.022 A 
BRANCH  85  88
ATOM     88  S   UNL A   1      44.982  25.071  37.186  1.00  0.00     0.127 S 
ATOM     89  O   UNL A   1      44.478  24.969  38.553  1.00  0.00    -0.237 OA
ATOM     90  O   UNL A   1      44.931  23.829  36.415  1.00  0.00    -0.237 OA
ATOM     91  O   UNL A   1      46.217  25.826  37.021  1.00  0.00    -0.744 OA
ENDBRANCH  85  88
ENDBRANCH  57  81
BRANCH  69  92
ATOM     92  C   UNL A   1      44.870  29.044  28.375  1.00  0.00     0.023 A 
ATOM     93  C   UNL A   1      46.159  28.503  28.209  1.00  0.00     0.012 A 
ATOM     94  C   UNL A   1      43.833  28.641  27.510  1.00  0.00     0.148 A 
ATOM     95  C   UNL A   1      46.419  27.593  27.186  1.00  0.00     0.002 A 
ATOM     96  C   UNL A   1      44.088  27.700  26.520  1.00  0.00     0.091 A 
ATOM     97  F   UNL A   1      42.616  29.182  27.673  1.00  0.00    -0.205 F 
ATOM     98  C   UNL A   1      45.382  27.181  26.351  1.00  0.00     0.022 A 
BRANCH  96  99
ATOM     99  S   UNL A   1      42.790  27.046  25.465  1.00  0.00     0.127 S 
ATOM    100  O   UNL A   1      43.441  25.875  24.881  1.00  0.00    -0.237 OA
ATOM    101  O   UNL A   1      41.729  26.738  26.424  1.00  0.00    -0.237 OA
ATOM    102  O   UNL A   1      42.462  28.115  24.531  1.00  0.00    -0.744 OA
ENDBRANCH  96  99
ENDBRANCH  69  92
ENDBRANCH  43  44
ENDBRANCH  36  38
ENDBRANCH  35  36
ENDBRANCH  34  35
ENDBRANCH  33  34
ENDBRANCH  32  33
ENDBRANCH  31  32
ENDBRANCH  30  31
ENDBRANCH   1  30
TORSDOF 26
ENDMDL
MODEL 2
REMARK VINA RESULT:      -7.0      1.828      2.196
REMARK SMILES Cc1cc(C(=O)OCCOCCOCCOCCOC(=O)c2ccc(-c3c4nc(c(-c5cccc(S(=O)(=O)[O-])c5F)c5ccc([nH]5)c(-c5cccc(S(=O)(=O)[O-])c5F)c5nc(c(-c6cccc(S(=O)(=O)[O-])c6F)c6ccc3[nH]6)C=C5)C=C4)cc2)c(NC(=O)c2nc(C(C)(C)C)n[nH]2)s1
REMARK SMILES IDX 13 1 12 2 11 3 10 4 9 5 8 6 7 7 5 8 6 9 4 10 1 11 2 12 3 13
REMARK SMILES IDX 98 14 85 15 86 16 87 17 88 19 89 20 90 21 97 22 91 23 96 24
REMARK SMILES IDX 92 26 93 27 94 28 95 29 14 30 15 31 16 32 17 33 18 34 19 35
REMARK SMILES IDX 20 36 21 37 22 38 23 39 84 40 24 41 83 42 25 43 26 44 27 45
REMARK SMILES IDX 77 46 28 47 82 48 76 49 78 50 29 51 81 52 75 53 74 54 30 56
REMARK SMILES IDX 62 57 42 58 61 59 43 60 46 61 60 62 79 63 44 64 45 65 59 67
REMARK SMILES IDX 80 68 47 69 31 70 32 71 40 72 33 73 35 74 41 75 34 76 36 77
REMARK SMILES IDX 37 78 38 79 39 80 63 81 64 82 72 83 65 84 67 85 73 86 66 87
REMARK SMILES IDX 68 88 69 89 70 90 71 91 48 92 49 93 57 94 50 95 52 96 58 97
REMARK SMILES IDX 51 98 53 99 54 100 55 101 56 102
REMARK H PARENT 86 18 97 25 78 55 46 66
REMARK Flexibility Score: inf
ROOT
ATOM      1  O   UNL A   1      39.820  32.209  36.837  1.00  0.00    -0.377 OA
ENDROOT
BRANCH   1   2
ATOM      2  C   UNL A   1      39.736  32.804  35.551  1.00  0.00     0.188 C 
BRANCH   2   3
ATOM      3  C   UNL A   1      39.006  31.888  34.555  1.00  0.00     0.188 C 
BRANCH   3   4
ATOM      4  O   UNL A   1      39.117  32.338  33.204  1.00  0.00    -0.376 OA
BRANCH   4   5
ATOM      5  C   UNL A   1      40.080  33.350  32.934  1.00  0.00     0.202 C 
BRANCH   5   6
ATOM      6  C   UNL A   1      39.889  34.201  31.666  1.00  0.00     0.261 C 
BRANCH   6   7
ATOM      7  O   UNL A   1      39.888  33.509  30.404  1.00  0.00    -0.460 OA
BRANCH   7   8
ATOM      8  C   UNL A   1      38.835  33.632  29.568  1.00  0.00     0.341 C 
ATOM      9  O   UNL A   1      38.648  34.559  28.788  1.00  0.00    -0.246 OA
BRANCH   8  10
ATOM     10  C   UNL A   1      38.033  32.412  29.557  1.00  0.00     0.095 A 
ATOM     11  C   UNL A   1      37.586  28.727  30.343  1.00  0.00     0.056 C 
ATOM     12  C   UNL A   1      37.536  30.147  29.893  1.00  0.00     0.004 A 
ATOM     13  C   UNL A   1      38.406  31.172  30.185  1.00  0.00     0.033 A 
ATOM     14  S   UNL A   1      36.306  30.667  28.842  1.00  0.00    -0.122 S 
ATOM     15  C   UNL A   1      36.863  32.272  28.822  1.00  0.00     0.110 A 
BRANCH  15  16
ATOM     16  N   UNL A   1      36.280  33.243  28.018  1.00  0.00    -0.310 N 
ATOM     17  C   UNL A   1      35.197  34.081  28.219  1.00  0.00     0.293 C 
ATOM     18  H   UNL A   1      36.718  33.356  27.144  1.00  0.00     0.171 HD
ATOM     19  O   UNL A   1      34.643  34.516  27.206  1.00  0.00    -0.265 OA
BRANCH  17  20
ATOM     20  C   UNL A   1      34.827  34.510  29.545  1.00  0.00     0.214 A 
ATOM     21  N   UNL A   1      35.316  34.044  30.679  1.00  0.00    -0.207 NA
ATOM     22  N   UNL A   1      33.847  35.412  29.834  1.00  0.00    -0.255 N 
ATOM     23  C   UNL A   1      34.652  34.769  31.639  1.00  0.00     0.156 A 
ATOM     24  N   UNL A   1      33.712  35.595  31.156  1.00  0.00    -0.158 NA
ATOM     25  H   UNL A   1      33.304  35.874  29.156  1.00  0.00     0.192 HD
BRANCH  23  26
ATOM     26  C   UNL A   1      34.933  34.606  33.113  1.00  0.00     0.024 C 
ATOM     27  C   UNL A   1      34.345  33.271  33.600  1.00  0.00     0.019 C 
ATOM     28  C   UNL A   1      36.453  34.609  33.375  1.00  0.00     0.019 C 
ATOM     29  C   UNL A   1      34.313  35.753  33.936  1.00  0.00     0.019 C 
ENDBRANCH  23  26
ENDBRANCH  17  20
ENDBRANCH  15  16
ENDBRANCH   8  10
ENDBRANCH   7   8
ENDBRANCH   6   7
ENDBRANCH   5   6
ENDBRANCH   4   5
ENDBRANCH   3   4
ENDBRANCH   2   3
ENDBRANCH   1   2
BRANCH   1  30
ATOM     30  C   UNL A   1      39.438  33.037  37.932  1.00  0.00     0.188 C 
BRANCH  30  31
ATOM     31  C   UNL A   1      40.483  33.353  39.023  1.00  0.00     0.188 C 
BRANCH  31  32
ATOM     32  O   UNL A   1      39.898  33.755  40.265  1.00  0.00    -0.376 OA
BRANCH  32  33
ATOM     33  C   UNL A   1      40.433  34.935  40.860  1.00  0.00     0.202 C 
BRANCH  33  34
ATOM     34  C   UNL A   1      41.726  35.421  40.193  1.00  0.00     0.261 C 
BRANCH  34  35
ATOM     35  O   UNL A   1      41.582  36.618  39.413  1.00  0.00    -0.460 OA
BRANCH  35  36
ATOM     36  C   UNL A   1      42.706  37.134  38.870  1.00  0.00     0.338 C 
ATOM     37  O   UNL A   1      43.497  37.893  39.400  1.00  0.00    -0.246 OA
BRANCH  36  38
ATOM     38  C   UNL A   1      42.932  36.465  37.574  1.00  0.00     0.060 A 
ATOM     39  C   UNL A   1      41.837  36.272  36.722  1.00  0.00     0.016 A 
ATOM     40  C   UNL A   1      44.207  36.028  37.210  1.00  0.00     0.016 A 
ATOM     41  C   UNL A   1      42.009  35.589  35.518  1.00  0.00     0.010 A 
ATOM     42  C   UNL A   1      44.375  35.334  36.013  1.00  0.00     0.010 A 
ATOM     43  C   UNL A   1      43.270  35.077  35.183  1.00  0.00    -0.014 A 
BRANCH  43  44
ATOM     44  C   UNL A   1      43.404  34.104  34.077  1.00  0.00     0.031 A 
ATOM     45  C   UNL A   1      43.479  34.635  32.672  1.00  0.00     0.074 A 
ATOM     46  C   UNL A   1      43.417  32.781  34.309  1.00  0.00     0.049 A 
ATOM     47  N   UNL A   1      43.572  33.983  31.545  1.00  0.00    -0.248 NA
ATOM     48  C   UNL A   1      43.437  36.099  32.519  1.00  0.00     0.031 C 
ATOM     49  C   UNL A   1      43.331  32.152  35.625  1.00  0.00     0.029 A 
ATOM     50  N   UNL A   1      43.478  31.728  33.431  1.00  0.00    -0.354 N 
ATOM     51  C   UNL A   1      43.583  34.951  30.549  1.00  0.00     0.074 A 
ATOM     52  C   UNL A   1      43.470  36.237  31.203  1.00  0.00     0.031 C 
ATOM     53  C   UNL A   1      43.311  30.816  35.465  1.00  0.00     0.029 A 
ATOM     54  C   UNL A   1      43.371  30.500  34.040  1.00  0.00     0.049 A 
ATOM     55  H   UNL A   1      43.587  31.841  32.460  1.00  0.00     0.167 HD
ATOM     56  C   UNL A   1      43.695  34.789  29.212  1.00  0.00     0.034 A 
ATOM     57  C   UNL A   1      43.314  29.266  33.499  1.00  0.00     0.034 A 
ATOM     58  C   UNL A   1      43.815  33.513  28.563  1.00  0.00     0.049 A 
ATOM     59  C   UNL A   1      43.425  29.110  32.003  1.00  0.00     0.074 A 
ATOM     60  C   UNL A   1      43.984  33.244  27.217  1.00  0.00     0.029 A 
ATOM     61  N   UNL A   1      43.764  32.292  29.215  1.00  0.00    -0.354 N 
ATOM     62  N   UNL A   1      43.587  30.034  31.087  1.00  0.00    -0.248 NA
ATOM     63  C   UNL A   1      43.380  27.740  31.471  1.00  0.00     0.031 C 
ATOM     64  C   UNL A   1      44.020  31.856  27.053  1.00  0.00     0.029 A 
ATOM     65  C   UNL A   1      43.887  31.262  28.299  1.00  0.00     0.049 A 
ATOM     66  H   UNL A   1      43.656  32.173  30.186  1.00  0.00     0.167 HD
ATOM     67  C   UNL A   1      43.700  29.357  29.876  1.00  0.00     0.074 A 
ATOM     68  C   UNL A   1      43.604  27.944  30.178  1.00  0.00     0.031 C 
ATOM     69  C   UNL A   1      43.852  29.859  28.625  1.00  0.00     0.034 A 
BRANCH  56  70
ATOM     70  C   UNL A   1      43.733  36.031  28.367  1.00  0.00     0.023 A 
ATOM     71  C   UNL A   1      42.522  36.660  28.011  1.00  0.00     0.012 A 
ATOM     72  C   UNL A   1      44.955  36.592  27.949  1.00  0.00     0.148 A 
ATOM     73  C   UNL A   1      42.525  37.814  27.230  1.00  0.00     0.002 A 
ATOM     74  C   UNL A   1      44.951  37.763  27.200  1.00  0.00     0.091 A 
ATOM     75  F   UNL A   1      46.092  35.960  28.268  1.00  0.00    -0.205 F 
ATOM     76  C   UNL A   1      43.738  38.371  26.833  1.00  0.00     0.022 A 
BRANCH  74  77
ATOM     77  S   UNL A   1      46.466  38.585  26.698  1.00  0.00     0.127 S 
ATOM     78  O   UNL A   1      47.108  37.552  25.887  1.00  0.00    -0.237 OA
ATOM     79  O   UNL A   1      45.964  39.731  25.938  1.00  0.00    -0.237 OA
ATOM     80  O   UNL A   1      47.154  38.936  27.932  1.00  0.00    -0.744 OA
ENDBRANCH  74  77
ENDBRANCH  56  70
BRANCH  57  81
ATOM     81  C   UNL A   1      43.200  28.073  34.386  1.00  0.00     0.023 A 
ATOM     82  C   UNL A   1      41.931  27.523  34.643  1.00  0.00     0.012 A 
ATOM     83  C   UNL A   1      44.339  27.469  34.954  1.00  0.00     0.148 A 
ATOM     84  C   UNL A   1      41.793  26.405  35.468  1.00  0.00     0.002 A 
ATOM     85  C   UNL A   1      44.201  26.325  35.733  1.00  0.00     0.091 A 
ATOM     86  F   UNL A   1      45.537  28.019  34.715  1.00  0.00    -0.205 F 
ATOM     87  C   UNL A   1      42.927  25.801  36.004  1.00  0.00     0.022 A 
BRANCH  85  88
ATOM     88  S   UNL A   1      45.614  25.410  36.359  1.00  0.00     0.127 S 
ATOM     89  O   UNL A   1      46.190  26.358  37.309  1.00  0.00    -0.237 OA
ATOM     90  O   UNL A   1      44.975  24.241  36.965  1.00  0.00    -0.237 OA
ATOM     91  O   UNL A   1      46.430  25.105  35.192  1.00  0.00    -0.744 OA
ENDBRANCH  85  88
ENDBRANCH  57  81
BRANCH  69  92
ATOM     92  C   UNL A   1      43.955  28.883  27.483  1.00  0.00     0.023 A 
ATOM     93  C   UNL A   1      42.789  28.481  26.805  1.00  0.00     0.012 A 
ATOM     94  C   UNL A   1      45.212  28.445  27.020  1.00  0.00     0.148 A 
ATOM     95  C   UNL A   1      42.868  27.638  25.697  1.00  0.00     0.002 A 
ATOM     96  C   UNL A   1      45.287  27.640  25.889  1.00  0.00     0.091 A 
ATOM     97  F   UNL A   1      46.310  28.824  27.691  1.00  0.00    -0.205 F 
ATOM     98  C   UNL A   1      44.117  27.229  25.232  1.00  0.00     0.022 A 
BRANCH  96  99
ATOM     99  S   UNL A   1      46.858  27.148  25.169  1.00  0.00     0.127 S 
ATOM    100  O   UNL A   1      47.627  26.779  26.355  1.00  0.00    -0.237 OA
ATOM    101  O   UNL A   1      46.475  26.022  24.317  1.00  0.00    -0.237 OA
ATOM    102  O   UNL A   1      47.342  28.314  24.441  1.00  0.00    -0.744 OA
ENDBRANCH  96  99
ENDBRANCH  69  92
ENDBRANCH  43  44
ENDBRANCH  36  38
ENDBRANCH  35  36
ENDBRANCH  34  35
ENDBRANCH  33  34
ENDBRANCH  32  33
ENDBRANCH  31  32
ENDBRANCH  30  31
ENDBRANCH   1  30
TORSDOF 26
ENDMDL
MODEL 3
REMARK VINA RESULT:      -6.9      4.048     10.289
REMARK SMILES Cc1cc(C(=O)OCCOCCOCCOCCOC(=O)c2ccc(-c3c4nc(c(-c5cccc(S(=O)(=O)[O-])c5F)c5ccc([nH]5)c(-c5cccc(S(=O)(=O)[O-])c5F)c5nc(c(-c6cccc(S(=O)(=O)[O-])c6F)c6ccc3[nH]6)C=C5)C=C4)cc2)c(NC(=O)c2nc(C(C)(C)C)n[nH]2)s1
REMARK SMILES IDX 13 1 12 2 11 3 10 4 9 5 8 6 7 7 5 8 6 9 4 10 1 11 2 12 3 13
REMARK SMILES IDX 98 14 85 15 86 16 87 17 88 19 89 20 90 21 97 22 91 23 96 24
REMARK SMILES IDX 92 26 93 27 94 28 95 29 14 30 15 31 16 32 17 33 18 34 19 35
REMARK SMILES IDX 20 36 21 37 22 38 23 39 84 40 24 41 83 42 25 43 26 44 27 45
REMARK SMILES IDX 77 46 28 47 82 48 76 49 78 50 29 51 81 52 75 53 74 54 30 56
REMARK SMILES IDX 62 57 42 58 61 59 43 60 46 61 60 62 79 63 44 64 45 65 59 67
REMARK SMILES IDX 80 68 47 69 31 70 32 71 40 72 33 73 35 74 41 75 34 76 36 77
REMARK SMILES IDX 37 78 38 79 39 80 63 81 64 82 72 83 65 84 67 85 73 86 66 87
REMARK SMILES IDX 68 88 69 89 70 90 71 91 48 92 49 93 57 94 50 95 52 96 58 97
REMARK SMILES IDX 51 98 53 99 54 100 55 101 56 102
REMARK H PARENT 86 18 97 25 78 55 46 66
REMARK Flexibility Score: inf
ROOT
ATOM      1  O   UNL A   1      37.878  32.206  34.433  1.00  0.00    -0.377 OA
ENDROOT
BRANCH   1   2
ATOM      2  C   UNL A   1      39.071  31.463  34.228  1.00  0.00     0.188 C 
BRANCH   2   3
ATOM      3  C   UNL A   1      38.803  30.182  33.422  1.00  0.00     0.188 C 
BRANCH   3   4
ATOM      4  O   UNL A   1      39.600  29.079  33.853  1.00  0.00    -0.376 OA
BRANCH   4   5
ATOM      5  C   UNL A   1      40.961  29.346  34.170  1.00  0.00     0.202 C 
BRANCH   5   6
ATOM      6  C   UNL A   1      41.958  28.176  34.094  1.00  0.00     0.261 C 
BRANCH   6   7
ATOM      7  O   UNL A   1      42.134  27.385  35.283  1.00  0.00    -0.460 OA
BRANCH   7   8
ATOM      8  C   UNL A   1      42.925  26.290  35.252  1.00  0.00     0.341 C 
ATOM      9  O   UNL A   1      42.859  25.385  34.428  1.00  0.00    -0.246 OA
BRANCH   8  10
ATOM     10  C   UNL A   1      44.019  26.413  36.211  1.00  0.00     0.095 A 
ATOM     11  C   UNL A   1      45.347  27.409  39.623  1.00  0.00     0.056 C 
ATOM     12  C   UNL A   1      45.084  26.991  38.217  1.00  0.00     0.004 A 
ATOM     13  C   UNL A   1      43.875  26.819  37.583  1.00  0.00     0.033 A 
ATOM     14  S   UNL A   1      46.379  26.702  37.154  1.00  0.00    -0.122 S 
ATOM     15  C   UNL A   1      45.358  26.272  35.866  1.00  0.00     0.110 A 
BRANCH  15  16
ATOM     16  N   UNL A   1      45.852  25.986  34.600  1.00  0.00    -0.310 N 
ATOM     17  C   UNL A   1      46.397  24.835  34.058  1.00  0.00     0.293 C 
ATOM     18  H   UNL A   1      45.805  26.742  33.972  1.00  0.00     0.171 HD
ATOM     19  O   UNL A   1      47.135  24.984  33.081  1.00  0.00    -0.265 OA
BRANCH  17  20
ATOM     20  C   UNL A   1      46.015  23.533  34.545  1.00  0.00     0.214 A 
ATOM     21  N   UNL A   1      46.828  22.613  35.030  1.00  0.00    -0.207 NA
ATOM     22  N   UNL A   1      44.754  23.016  34.502  1.00  0.00    -0.255 N 
ATOM     23  C   UNL A   1      45.987  21.576  35.351  1.00  0.00     0.156 A 
ATOM     24  N   UNL A   1      44.707  21.775  35.006  1.00  0.00    -0.158 NA
ATOM     25  H   UNL A   1      43.972  23.496  34.145  1.00  0.00     0.192 HD
BRANCH  23  26
ATOM     26  C   UNL A   1      46.482  20.305  35.998  1.00  0.00     0.024 C 
ATOM     27  C   UNL A   1      45.734  19.102  35.397  1.00  0.00     0.019 C 
ATOM     28  C   UNL A   1      47.994  20.127  35.751  1.00  0.00     0.019 C 
ATOM     29  C   UNL A   1      46.254  20.321  37.523  1.00  0.00     0.019 C 
ENDBRANCH  23  26
ENDBRANCH  17  20
ENDBRANCH  15  16
ENDBRANCH   8  10
ENDBRANCH   7   8
ENDBRANCH   6   7
ENDBRANCH   5   6
ENDBRANCH   4   5
ENDBRANCH   3   4
ENDBRANCH   2   3
ENDBRANCH   1   2
BRANCH   1  30
ATOM     30  C   UNL A   1      36.893  32.097  33.410  1.00  0.00     0.188 C 
BRANCH  30  31
ATOM     31  C   UNL A   1      36.826  33.193  32.325  1.00  0.00     0.188 C 
BRANCH  31  32
ATOM     32  O   UNL A   1      35.841  32.933  31.321  1.00  0.00    -0.376 OA
BRANCH  32  33
ATOM     33  C   UNL A   1      35.961  33.680  30.112  1.00  0.00     0.202 C 
BRANCH  33  34
ATOM     34  C   UNL A   1      35.020  33.198  29.001  1.00  0.00     0.261 C 
BRANCH  34  35
ATOM     35  O   UNL A   1      34.430  31.910  29.236  1.00  0.00    -0.460 OA
BRANCH  35  36
ATOM     36  C   UNL A   1      34.654  30.955  28.306  1.00  0.00     0.338 C 
ATOM     37  O   UNL A   1      33.968  30.700  27.334  1.00  0.00    -0.246 OA
BRANCH  36  38
ATOM     38  C   UNL A   1      35.993  30.388  28.554  1.00  0.00     0.060 A 
ATOM     39  C   UNL A   1      36.283  29.888  29.831  1.00  0.00     0.016 A 
ATOM     40  C   UNL A   1      36.953  30.357  27.541  1.00  0.00     0.016 A 
ATOM     41  C   UNL A   1      37.559  29.402  30.111  1.00  0.00     0.010 A 
ATOM     42  C   UNL A   1      38.233  29.882  27.826  1.00  0.00     0.010 A 
ATOM     43  C   UNL A   1      38.551  29.441  29.122  1.00  0.00    -0.014 A 
BRANCH  43  44
ATOM     44  C   UNL A   1      39.967  29.217  29.485  1.00  0.00     0.031 A 
ATOM     45  C   UNL A   1      40.704  30.327  30.183  1.00  0.00     0.074 A 
ATOM     46  C   UNL A   1      40.596  28.073  29.168  1.00  0.00     0.049 A 
ATOM     47  N   UNL A   1      41.948  30.375  30.576  1.00  0.00    -0.248 NA
ATOM     48  C   UNL A   1      39.933  31.549  30.470  1.00  0.00     0.031 C 
ATOM     49  C   UNL A   1      39.990  26.937  28.477  1.00  0.00     0.029 A 
ATOM     50  N   UNL A   1      41.901  27.694  29.365  1.00  0.00    -0.354 N 
ATOM     51  C   UNL A   1      42.116  31.632  31.140  1.00  0.00     0.074 A 
ATOM     52  C   UNL A   1      40.851  32.325  31.024  1.00  0.00     0.031 C 
ATOM     53  C   UNL A   1      40.934  25.999  28.276  1.00  0.00     0.029 A 
ATOM     54  C   UNL A   1      42.207  26.473  28.813  1.00  0.00     0.049 A 
ATOM     55  H   UNL A   1      42.554  28.245  29.853  1.00  0.00     0.167 HD
ATOM     56  C   UNL A   1      43.218  32.160  31.720  1.00  0.00     0.034 A 
ATOM     57  C   UNL A   1      43.387  25.825  28.742  1.00  0.00     0.034 A 
ATOM     58  C   UNL A   1      44.471  31.470  31.843  1.00  0.00     0.049 A 
ATOM     59  C   UNL A   1      44.606  26.440  29.382  1.00  0.00     0.074 A 
ATOM     60  C   UNL A   1      45.633  31.899  32.458  1.00  0.00     0.029 A 
ATOM     61  N   UNL A   1      44.729  30.210  31.327  1.00  0.00    -0.354 N 
ATOM     62  N   UNL A   1      44.712  27.567  30.044  1.00  0.00    -0.248 NA
ATOM     63  C   UNL A   1      45.861  25.678  29.294  1.00  0.00     0.031 C 
ATOM     64  C   UNL A   1      46.601  30.901  32.300  1.00  0.00     0.029 A 
ATOM     65  C   UNL A   1      46.036  29.847  31.598  1.00  0.00     0.049 A 
ATOM     66  H   UNL A   1      44.079  29.655  30.839  1.00  0.00     0.167 HD
ATOM     67  C   UNL A   1      46.030  27.632  30.483  1.00  0.00     0.074 A 
ATOM     68  C   UNL A   1      46.682  26.423  30.024  1.00  0.00     0.031 C 
ATOM     69  C   UNL A   1      46.651  28.611  31.188  1.00  0.00     0.034 A 
BRANCH  56  70
ATOM     70  C   UNL A   1      43.097  33.541  32.302  1.00  0.00     0.023 A 
ATOM     71  C   UNL A   1      43.525  34.648  31.541  1.00  0.00     0.012 A 
ATOM     72  C   UNL A   1      42.541  33.749  33.578  1.00  0.00     0.148 A 
ATOM     73  C   UNL A   1      43.425  35.941  32.053  1.00  0.00     0.002 A 
ATOM     74  C   UNL A   1      42.411  35.044  34.066  1.00  0.00     0.091 A 
ATOM     75  F   UNL A   1      42.172  32.680  34.298  1.00  0.00    -0.205 F 
ATOM     76  C   UNL A   1      42.860  36.140  33.310  1.00  0.00     0.022 A 
BRANCH  74  77
ATOM     77  S   UNL A   1      41.638  35.399  35.648  1.00  0.00     0.127 S 
ATOM     78  O   UNL A   1      42.793  35.417  36.543  1.00  0.00    -0.237 OA
ATOM     79  O   UNL A   1      41.030  36.710  35.411  1.00  0.00    -0.237 OA
ATOM     80  O   UNL A   1      40.683  34.323  35.872  1.00  0.00    -0.744 OA
ENDBRANCH  74  77
ENDBRANCH  56  70
BRANCH  57  81
ATOM     81  C   UNL A   1      43.460  24.489  28.085  1.00  0.00     0.023 A 
ATOM     82  C   UNL A   1      42.910  23.368  28.736  1.00  0.00     0.012 A 
ATOM     83  C   UNL A   1      44.046  24.327  26.814  1.00  0.00     0.148 A 
ATOM     84  C   UNL A   1      42.963  22.105  28.145  1.00  0.00     0.002 A 
ATOM     85  C   UNL A   1      44.049  23.075  26.207  1.00  0.00     0.091 A 
ATOM     86  F   UNL A   1      44.582  25.401  26.219  1.00  0.00    -0.205 F 
ATOM     87  C   UNL A   1      43.521  21.960  26.878  1.00  0.00     0.022 A 
BRANCH  85  88
ATOM     88  S   UNL A   1      44.632  22.820  24.528  1.00  0.00     0.127 S 
ATOM     89  O   UNL A   1      43.378  22.699  23.789  1.00  0.00    -0.237 OA
ATOM     90  O   UNL A   1      45.381  24.052  24.276  1.00  0.00    -0.237 OA
ATOM     91  O   UNL A   1      45.458  21.621  24.578  1.00  0.00    -0.744 OA
ENDBRANCH  85  88
ENDBRANCH  57  81
BRANCH  69  92
ATOM     92  C   UNL A   1      48.103  28.414  31.537  1.00  0.00     0.023 A 
ATOM     93  C   UNL A   1      49.082  28.533  30.532  1.00  0.00     0.012 A 
ATOM     94  C   UNL A   1      48.502  28.211  32.873  1.00  0.00     0.148 A 
ATOM     95  C   UNL A   1      50.436  28.429  30.847  1.00  0.00     0.002 A 
ATOM     96  C   UNL A   1      49.855  28.153  33.186  1.00  0.00     0.091 A 
ATOM     97  F   UNL A   1      47.553  28.082  33.813  1.00  0.00    -0.205 F 
ATOM     98  C   UNL A   1      50.823  28.254  32.174  1.00  0.00     0.022 A 
BRANCH  96  99
ATOM     99  S   UNL A   1      50.439  28.024  34.880  1.00  0.00     0.127 S 
ATOM    100  O   UNL A   1      50.922  26.645  34.925  1.00  0.00    -0.237 OA
ATOM    101  O   UNL A   1      51.491  29.040  34.930  1.00  0.00    -0.237 OA
ATOM    102  O   UNL A   1      49.284  28.314  35.721  1.00  0.00    -0.744 OA
ENDBRANCH  96  99
ENDBRANCH  69  92
ENDBRANCH  43  44
ENDBRANCH  36  38
ENDBRANCH  35  36
ENDBRANCH  34  35
ENDBRANCH  33  34
ENDBRANCH  32  33
ENDBRANCH  31  32
ENDBRANCH  30  31
ENDBRANCH   1  30
TORSDOF 26
ENDMDL
