MODEL 1
REMARK VINA RESULT:      -9.5      0.000      0.000
REMARK SMILES O=C(OCCOCCOCCOCCOC(=O)c1ccnc(-n2cnnn2)c1)c1ccc(-c2c3nc(c(-c4cccc(S(=O)(=O)[O-])c4F)c4ccc([nH]4)c(-c4cccc(S(=O)(=O)[O-])c4F)c4nc(c(-c5cccc(S(=O)(=O)[O-])c5F)c5ccc2[nH]5)C=C4)C=C3)cc1
REMARK SMILES IDX 8 1 7 2 6 3 5 4 4 5 3 6 2 7 1 8 29 9 30 10 91 11 31 12 90 13
REMARK SMILES IDX 32 14 33 15 34 16 84 17 35 18 89 19 83 20 85 21 36 22 88 23
REMARK SMILES IDX 82 24 81 25 37 27 69 28 49 29 68 30 50 31 53 32 67 33 86 34
REMARK SMILES IDX 51 35 52 36 66 38 87 39 54 40 38 41 39 42 47 43 40 44 42 45
REMARK SMILES IDX 48 46 41 47 43 48 44 49 45 50 46 51 70 52 71 53 79 54 72 55
REMARK SMILES IDX 74 56 80 57 73 58 75 59 76 60 77 61 78 62 55 63 56 64 64 65
REMARK SMILES IDX 57 66 59 67 65 68 58 69 60 70 61 71 62 72 63 73 9 74 10 75
REMARK SMILES IDX 11 76 12 77 13 78 14 79 15 80 16 81 17 82 18 83 19 84 28 85
REMARK SMILES IDX 20 86 22 87 21 88 23 89 24 90 27 91 25 92 26 93
REMARK H PARENT 85 26 53 37
REMARK Flexibility Score: inf
ROOT
ATOM      1  C   UNL A   1      30.791  29.197  23.979  1.00  0.00     0.188 C 
ENDROOT
BRANCH   1   2
ATOM      2  C   UNL A   1      31.428  29.498  25.357  1.00  0.00     0.188 C 
BRANCH   2   3
ATOM      3  O   UNL A   1      32.703  30.069  25.620  1.00  0.00    -0.376 OA
BRANCH   3   4
ATOM      4  C   UNL A   1      33.800  29.695  26.426  1.00  0.00     0.202 C 
BRANCH   4   5
ATOM      5  C   UNL A   1      34.647  30.621  27.300  1.00  0.00     0.261 C 
BRANCH   5   6
ATOM      6  O   UNL A   1      35.178  30.013  28.462  1.00  0.00    -0.460 OA
BRANCH   6   7
ATOM      7  C   UNL A   1      36.400  30.249  28.984  1.00  0.00     0.338 C 
ATOM      8  O   UNL A   1      36.569  31.303  29.594  1.00  0.00    -0.246 OA
BRANCH   7   9
ATOM      9  C   UNL A   1      37.571  29.356  28.767  1.00  0.00     0.060 A 
ATOM     10  C   UNL A   1      37.894  28.209  29.506  1.00  0.00     0.016 A 
ATOM     11  C   UNL A   1      38.416  29.741  27.711  1.00  0.00     0.016 A 
ATOM     12  C   UNL A   1      39.131  27.639  29.404  1.00  0.00     0.010 A 
ATOM     13  C   UNL A   1      39.643  29.141  27.558  1.00  0.00     0.010 A 
ATOM     14  C   UNL A   1      40.017  28.206  28.513  1.00  0.00    -0.014 A 
BRANCH  14  15
ATOM     15  C   UNL A   1      41.401  27.894  28.749  1.00  0.00     0.031 A 
ATOM     16  C   UNL A   1      41.874  26.690  28.023  1.00  0.00     0.074 A 
ATOM     17  C   UNL A   1      42.055  28.721  29.589  1.00  0.00     0.049 A 
ATOM     18  N   UNL A   1      42.457  25.638  28.497  1.00  0.00    -0.248 NA
ATOM     19  C   UNL A   1      41.474  26.564  26.609  1.00  0.00     0.031 C 
ATOM     20  C   UNL A   1      41.578  29.996  30.154  1.00  0.00     0.029 A 
ATOM     21  N   UNL A   1      43.357  28.710  29.953  1.00  0.00    -0.354 N 
ATOM     22  C   UNL A   1      42.726  24.842  27.383  1.00  0.00     0.074 A 
ATOM     23  C   UNL A   1      41.924  25.349  26.306  1.00  0.00     0.031 C 
ATOM     24  C   UNL A   1      42.643  30.766  30.454  1.00  0.00     0.029 A 
ATOM     25  C   UNL A   1      43.842  29.985  30.226  1.00  0.00     0.049 A 
ATOM     26  H   UNL A   1      43.900  27.892  30.018  1.00  0.00     0.167 HD
ATOM     27  C   UNL A   1      43.820  24.036  27.345  1.00  0.00     0.034 A 
ATOM     28  C   UNL A   1      45.128  30.387  30.083  1.00  0.00     0.034 A 
ATOM     29  C   UNL A   1      44.272  23.691  28.665  1.00  0.00     0.049 A 
ATOM     30  C   UNL A   1      45.959  29.155  30.030  1.00  0.00     0.074 A 
ATOM     31  C   UNL A   1      43.709  23.025  29.734  1.00  0.00     0.029 A 
ATOM     32  N   UNL A   1      45.334  24.399  29.173  1.00  0.00    -0.354 N 
ATOM     33  N   UNL A   1      46.053  28.313  31.024  1.00  0.00    -0.248 NA
ATOM     34  C   UNL A   1      46.259  28.603  28.716  1.00  0.00     0.031 C 
ATOM     35  C   UNL A   1      44.152  23.741  30.883  1.00  0.00     0.029 A 
ATOM     36  C   UNL A   1      45.009  24.758  30.456  1.00  0.00     0.049 A 
ATOM     37  H   UNL A   1      46.173  24.610  28.703  1.00  0.00     0.167 HD
ATOM     38  C   UNL A   1      45.990  27.056  30.431  1.00  0.00     0.074 A 
ATOM     39  C   UNL A   1      46.211  27.299  29.004  1.00  0.00     0.031 C 
ATOM     40  C   UNL A   1      45.455  25.982  31.088  1.00  0.00     0.034 A 
BRANCH  27  41
ATOM     41  C   UNL A   1      44.709  23.914  26.130  1.00  0.00     0.023 A 
ATOM     42  C   UNL A   1      44.864  22.632  25.563  1.00  0.00     0.012 A 
ATOM     43  C   UNL A   1      45.617  24.916  25.706  1.00  0.00     0.148 A 
ATOM     44  C   UNL A   1      45.902  22.350  24.667  1.00  0.00     0.002 A 
ATOM     45  C   UNL A   1      46.599  24.651  24.762  1.00  0.00     0.091 A 
ATOM     46  F   UNL A   1      45.637  26.107  26.310  1.00  0.00    -0.205 F 
ATOM     47  C   UNL A   1      46.768  23.360  24.263  1.00  0.00     0.022 A 
BRANCH  45  48
ATOM     48  S   UNL A   1      47.716  25.937  24.189  1.00  0.00     0.127 S 
ATOM     49  O   UNL A   1      46.793  27.045  23.966  1.00  0.00    -0.237 OA
ATOM     50  O   UNL A   1      48.609  26.092  25.337  1.00  0.00    -0.237 OA
ATOM     51  O   UNL A   1      48.364  25.389  23.003  1.00  0.00    -0.744 OA
ENDBRANCH  45  48
ENDBRANCH  27  41
BRANCH  28  52
ATOM     52  C   UNL A   1      45.582  31.704  29.572  1.00  0.00     0.023 A 
ATOM     53  C   UNL A   1      46.468  32.485  30.336  1.00  0.00     0.012 A 
ATOM     54  C   UNL A   1      45.319  32.109  28.240  1.00  0.00     0.148 A 
ATOM     55  C   UNL A   1      47.069  33.628  29.792  1.00  0.00     0.002 A 
ATOM     56  C   UNL A   1      45.898  33.259  27.713  1.00  0.00     0.091 A 
ATOM     57  F   UNL A   1      44.570  31.321  27.457  1.00  0.00    -0.205 F 
ATOM     58  C   UNL A   1      46.784  34.017  28.484  1.00  0.00     0.022 A 
BRANCH  56  59
ATOM     59  S   UNL A   1      45.566  33.820  26.035  1.00  0.00     0.127 S 
ATOM     60  O   UNL A   1      44.662  34.948  26.267  1.00  0.00    -0.237 OA
ATOM     61  O   UNL A   1      46.899  34.189  25.568  1.00  0.00    -0.237 OA
ATOM     62  O   UNL A   1      44.945  32.689  25.353  1.00  0.00    -0.744 OA
ENDBRANCH  56  59
ENDBRANCH  28  52
BRANCH  40  63
ATOM     63  C   UNL A   1      45.050  26.160  32.535  1.00  0.00     0.023 A 
ATOM     64  C   UNL A   1      43.809  26.726  32.902  1.00  0.00     0.012 A 
ATOM     65  C   UNL A   1      45.831  25.554  33.529  1.00  0.00     0.148 A 
ATOM     66  C   UNL A   1      43.369  26.712  34.230  1.00  0.00     0.002 A 
ATOM     67  C   UNL A   1      45.371  25.501  34.841  1.00  0.00     0.091 A 
ATOM     68  F   UNL A   1      46.995  24.997  33.165  1.00  0.00    -0.205 F 
ATOM     69  C   UNL A   1      44.146  26.088  35.199  1.00  0.00     0.022 A 
BRANCH  67  70
ATOM     70  S   UNL A   1      46.252  24.591  36.111  1.00  0.00     0.127 S 
ATOM     71  O   UNL A   1      45.255  24.512  37.176  1.00  0.00    -0.237 OA
ATOM     72  O   UNL A   1      46.538  23.320  35.443  1.00  0.00    -0.237 OA
ATOM     73  O   UNL A   1      47.438  25.381  36.421  1.00  0.00    -0.744 OA
ENDBRANCH  67  70
ENDBRANCH  40  63
ENDBRANCH  14  15
ENDBRANCH   7   9
ENDBRANCH   6   7
ENDBRANCH   5   6
ENDBRANCH   4   5
ENDBRANCH   3   4
ENDBRANCH   2   3
ENDBRANCH   1   2
BRANCH   1  74
ATOM     74  O   UNL A   1      30.625  27.849  23.571  1.00  0.00    -0.377 OA
BRANCH  74  75
ATOM     75  C   UNL A   1      31.582  26.976  24.118  1.00  0.00     0.188 C 
BRANCH  75  76
ATOM     76  C   UNL A   1      30.984  25.605  24.483  1.00  0.00     0.188 C 
BRANCH  76  77
ATOM     77  O   UNL A   1      31.556  24.839  25.521  1.00  0.00    -0.376 OA
BRANCH  77  78
ATOM     78  C   UNL A   1      32.963  24.761  25.680  1.00  0.00     0.202 C 
BRANCH  78  79
ATOM     79  C   UNL A   1      33.776  23.446  25.698  1.00  0.00     0.261 C 
BRANCH  79  80
ATOM     80  O   UNL A   1      34.989  23.362  24.937  1.00  0.00    -0.460 OA
BRANCH  80  81
ATOM     81  C   UNL A   1      35.673  22.199  24.984  1.00  0.00     0.338 C 
ATOM     82  O   UNL A   1      35.354  21.123  24.502  1.00  0.00    -0.246 OA
BRANCH  81  83
ATOM     83  C   UNL A   1      37.002  22.479  25.568  1.00  0.00     0.065 A 
ATOM     84  C   UNL A   1      37.280  23.747  26.062  1.00  0.00     0.036 A 
ATOM     85  C   UNL A   1      37.988  21.484  25.580  1.00  0.00     0.065 A 
ATOM     86  C   UNL A   1      38.531  23.954  26.612  1.00  0.00     0.114 A 
ATOM     87  C   UNL A   1      39.230  21.806  26.108  1.00  0.00     0.157 A 
ATOM     88  N   UNL A   1      39.501  23.012  26.663  1.00  0.00    -0.237 NA
BRANCH  87  89
ATOM     89  N   UNL A   1      40.278  20.869  26.002  1.00  0.00    -0.182 N 
ATOM     90  C   UNL A   1      41.626  21.097  26.092  1.00  0.00     0.254 A 
ATOM     91  N   UNL A   1      40.076  19.548  25.817  1.00  0.00    -0.039 NA
ATOM     92  N   UNL A   1      42.264  19.968  25.886  1.00  0.00    -0.117 NA
ATOM     93  N   UNL A   1      41.288  19.019  25.697  1.00  0.00    -0.024 NA
ENDBRANCH  87  89
ENDBRANCH  81  83
ENDBRANCH  80  81
ENDBRANCH  79  80
ENDBRANCH  78  79
ENDBRANCH  77  78
ENDBRANCH  76  77
ENDBRANCH  75  76
ENDBRANCH  74  75
ENDBRANCH   1  74
TORSDOF 24
ENDMDL
MODEL 2
REMARK VINA RESULT:      -9.2      4.040      8.769
REMARK SMILES O=C(OCCOCCOCCOCCOC(=O)c1ccnc(-n2cnnn2)c1)c1ccc(-c2c3nc(c(-c4cccc(S(=O)(=O)[O-])c4F)c4ccc([nH]4)c(-c4cccc(S(=O)(=O)[O-])c4F)c4nc(c(-c5cccc(S(=O)(=O)[O-])c5F)c5ccc2[nH]5)C=C4)C=C3)cc1
REMARK SMILES IDX 8 1 7 2 6 3 5 4 4 5 3 6 2 7 1 8 29 9 30 10 91 11 31 12 90 13
REMARK SMILES IDX 32 14 33 15 34 16 84 17 35 18 89 19 83 20 85 21 36 22 88 23
REMARK SMILES IDX 82 24 81 25 37 27 69 28 49 29 68 30 50 31 53 32 67 33 86 34
REMARK SMILES IDX 51 35 52 36 66 38 87 39 54 40 38 41 39 42 47 43 40 44 42 45
REMARK SMILES IDX 48 46 41 47 43 48 44 49 45 50 46 51 70 52 71 53 79 54 72 55
REMARK SMILES IDX 74 56 80 57 73 58 75 59 76 60 77 61 78 62 55 63 56 64 64 65
REMARK SMILES IDX 57 66 59 67 65 68 58 69 60 70 61 71 62 72 63 73 9 74 10 75
REMARK SMILES IDX 11 76 12 77 13 78 14 79 15 80 16 81 17 82 18 83 19 84 28 85
REMARK SMILES IDX 20 86 22 87 21 88 23 89 24 90 27 91 25 92 26 93
REMARK H PARENT 85 26 53 37
REMARK Flexibility Score: inf
ROOT
ATOM      1  C   UNL A   1      34.125  33.686  28.446  1.00  0.00     0.188 C 
ENDROOT
BRANCH   1   2
ATOM      2  C   UNL A   1      34.375  33.821  29.966  1.00  0.00     0.188 C 
BRANCH   2   3
ATOM      3  O   UNL A   1      35.604  34.099  30.624  1.00  0.00    -0.376 OA
BRANCH   3   4
ATOM      4  C   UNL A   1      36.029  34.059  31.971  1.00  0.00     0.202 C 
BRANCH   4   5
ATOM      5  C   UNL A   1      35.827  32.907  32.956  1.00  0.00     0.261 C 
BRANCH   5   6
ATOM      6  O   UNL A   1      36.627  31.768  32.701  1.00  0.00    -0.460 OA
BRANCH   6   7
ATOM      7  C   UNL A   1      36.519  30.956  31.629  1.00  0.00     0.338 C 
ATOM      8  O   UNL A   1      35.391  30.611  31.281  1.00  0.00    -0.246 OA
BRANCH   7   9
ATOM      9  C   UNL A   1      37.691  30.376  30.917  1.00  0.00     0.060 A 
ATOM     10  C   UNL A   1      37.838  29.048  30.493  1.00  0.00     0.016 A 
ATOM     11  C   UNL A   1      38.736  31.285  30.670  1.00  0.00     0.016 A 
ATOM     12  C   UNL A   1      39.058  28.568  30.112  1.00  0.00     0.010 A 
ATOM     13  C   UNL A   1      39.956  30.827  30.234  1.00  0.00     0.010 A 
ATOM     14  C   UNL A   1      40.115  29.454  30.114  1.00  0.00    -0.014 A 
BRANCH  14  15
ATOM     15  C   UNL A   1      41.418  28.846  30.157  1.00  0.00     0.031 A 
ATOM     16  C   UNL A   1      41.948  28.667  31.531  1.00  0.00     0.074 A 
ATOM     17  C   UNL A   1      41.963  28.541  28.963  1.00  0.00     0.049 A 
ATOM     18  N   UNL A   1      43.075  29.067  32.020  1.00  0.00    -0.248 NA
ATOM     19  C   UNL A   1      41.015  28.134  32.541  1.00  0.00     0.031 C 
ATOM     20  C   UNL A   1      41.321  28.594  27.637  1.00  0.00     0.029 A 
ATOM     21  N   UNL A   1      43.135  27.923  28.695  1.00  0.00    -0.354 N 
ATOM     22  C   UNL A   1      43.087  28.595  33.333  1.00  0.00     0.074 A 
ATOM     23  C   UNL A   1      41.737  28.229  33.656  1.00  0.00     0.031 C 
ATOM     24  C   UNL A   1      41.944  27.724  26.816  1.00  0.00     0.029 A 
ATOM     25  C   UNL A   1      43.085  27.176  27.522  1.00  0.00     0.049 A 
ATOM     26  H   UNL A   1      43.933  27.993  29.266  1.00  0.00     0.167 HD
ATOM     27  C   UNL A   1      44.250  28.241  33.941  1.00  0.00     0.034 A 
ATOM     28  C   UNL A   1      43.822  26.071  27.259  1.00  0.00     0.034 A 
ATOM     29  C   UNL A   1      45.381  28.904  33.351  1.00  0.00     0.049 A 
ATOM     30  C   UNL A   1      44.961  26.077  28.213  1.00  0.00     0.074 A 
ATOM     31  C   UNL A   1      45.756  30.224  33.204  1.00  0.00     0.029 A 
ATOM     32  N   UNL A   1      46.128  28.192  32.446  1.00  0.00    -0.354 N 
ATOM     33  N   UNL A   1      45.877  27.009  28.226  1.00  0.00    -0.248 NA
ATOM     34  C   UNL A   1      44.795  25.350  29.465  1.00  0.00     0.031 C 
ATOM     35  C   UNL A   1      46.338  30.294  31.905  1.00  0.00     0.029 A 
ATOM     36  C   UNL A   1      46.345  29.006  31.364  1.00  0.00     0.049 A 
ATOM     37  H   UNL A   1      46.449  27.267  32.553  1.00  0.00     0.167 HD
ATOM     38  C   UNL A   1      46.087  27.281  29.575  1.00  0.00     0.074 A 
ATOM     39  C   UNL A   1      45.461  26.166  30.288  1.00  0.00     0.031 C 
ATOM     40  C   UNL A   1      46.461  28.525  30.003  1.00  0.00     0.034 A 
BRANCH  27  41
ATOM     41  C   UNL A   1      44.394  26.992  34.778  1.00  0.00     0.023 A 
ATOM     42  C   UNL A   1      45.029  27.117  36.031  1.00  0.00     0.012 A 
ATOM     43  C   UNL A   1      44.211  25.678  34.280  1.00  0.00     0.148 A 
ATOM     44  C   UNL A   1      45.506  25.998  36.722  1.00  0.00     0.002 A 
ATOM     45  C   UNL A   1      44.621  24.566  35.004  1.00  0.00     0.091 A 
ATOM     46  F   UNL A   1      43.765  25.483  33.036  1.00  0.00    -0.205 F 
ATOM     47  C   UNL A   1      45.299  24.722  36.212  1.00  0.00     0.022 A 
BRANCH  45  48
ATOM     48  S   UNL A   1      44.342  22.899  34.393  1.00  0.00     0.127 S 
ATOM     49  O   UNL A   1      42.903  22.915  34.153  1.00  0.00    -0.237 OA
ATOM     50  O   UNL A   1      45.174  22.877  33.190  1.00  0.00    -0.237 OA
ATOM     51  O   UNL A   1      44.809  22.014  35.454  1.00  0.00    -0.744 OA
ENDBRANCH  45  48
ENDBRANCH  27  41
BRANCH  28  52
ATOM     52  C   UNL A   1      43.351  24.853  26.553  1.00  0.00     0.023 A 
ATOM     53  C   UNL A   1      44.136  24.286  25.533  1.00  0.00     0.012 A 
ATOM     54  C   UNL A   1      42.234  24.116  27.019  1.00  0.00     0.148 A 
ATOM     55  C   UNL A   1      43.818  23.031  24.995  1.00  0.00     0.002 A 
ATOM     56  C   UNL A   1      41.908  22.882  26.464  1.00  0.00     0.091 A 
ATOM     57  F   UNL A   1      41.539  24.581  28.066  1.00  0.00    -0.205 F 
ATOM     58  C   UNL A   1      42.705  22.331  25.457  1.00  0.00     0.022 A 
BRANCH  56  59
ATOM     59  S   UNL A   1      40.480  21.931  27.010  1.00  0.00     0.127 S 
ATOM     60  O   UNL A   1      40.864  21.567  28.375  1.00  0.00    -0.237 OA
ATOM     61  O   UNL A   1      39.406  22.915  26.918  1.00  0.00    -0.237 OA
ATOM     62  O   UNL A   1      40.383  20.798  26.097  1.00  0.00    -0.744 OA
ENDBRANCH  56  59
ENDBRANCH  28  52
BRANCH  40  63
ATOM     63  C   UNL A   1      46.773  29.575  28.959  1.00  0.00     0.023 A 
ATOM     64  C   UNL A   1      48.026  29.638  28.309  1.00  0.00     0.012 A 
ATOM     65  C   UNL A   1      45.725  30.368  28.472  1.00  0.00     0.148 A 
ATOM     66  C   UNL A   1      48.237  30.488  27.219  1.00  0.00     0.002 A 
ATOM     67  C   UNL A   1      45.923  31.179  27.359  1.00  0.00     0.091 A 
ATOM     68  F   UNL A   1      44.533  30.280  29.079  1.00  0.00    -0.205 F 
ATOM     69  C   UNL A   1      47.180  31.251  26.736  1.00  0.00     0.022 A 
BRANCH  67  70
ATOM     70  S   UNL A   1      44.572  32.080  26.597  1.00  0.00     0.127 S 
ATOM     71  O   UNL A   1      45.223  32.681  25.436  1.00  0.00    -0.237 OA
ATOM     72  O   UNL A   1      43.623  31.011  26.283  1.00  0.00    -0.237 OA
ATOM     73  O   UNL A   1      44.098  33.020  27.606  1.00  0.00    -0.744 OA
ENDBRANCH  67  70
ENDBRANCH  40  63
ENDBRANCH  14  15
ENDBRANCH   7   9
ENDBRANCH   6   7
ENDBRANCH   5   6
ENDBRANCH   4   5
ENDBRANCH   3   4
ENDBRANCH   2   3
ENDBRANCH   1   2
BRANCH   1  74
ATOM     74  O   UNL A   1      35.137  33.129  27.622  1.00  0.00    -0.377 OA
BRANCH  74  75
ATOM     75  C   UNL A   1      35.444  31.794  27.941  1.00  0.00     0.188 C 
BRANCH  75  76
ATOM     76  C   UNL A   1      34.312  30.823  27.556  1.00  0.00     0.188 C 
BRANCH  76  77
ATOM     77  O   UNL A   1      34.497  29.432  27.697  1.00  0.00    -0.376 OA
BRANCH  77  78
ATOM     78  C   UNL A   1      34.052  28.532  26.695  1.00  0.00     0.202 C 
BRANCH  78  79
ATOM     79  C   UNL A   1      32.599  28.025  26.550  1.00  0.00     0.261 C 
BRANCH  79  80
ATOM     80  O   UNL A   1      32.361  26.620  26.377  1.00  0.00    -0.460 OA
BRANCH  80  81
ATOM     81  C   UNL A   1      31.144  26.248  25.927  1.00  0.00     0.338 C 
ATOM     82  O   UNL A   1      30.232  25.744  26.565  1.00  0.00    -0.246 OA
BRANCH  81  83
ATOM     83  C   UNL A   1      31.008  26.732  24.536  1.00  0.00     0.065 A 
ATOM     84  C   UNL A   1      31.933  26.336  23.579  1.00  0.00     0.036 A 
ATOM     85  C   UNL A   1      29.977  27.620  24.199  1.00  0.00     0.065 A 
ATOM     86  C   UNL A   1      31.752  26.802  22.291  1.00  0.00     0.114 A 
ATOM     87  C   UNL A   1      29.912  28.072  22.889  1.00  0.00     0.157 A 
ATOM     88  N   UNL A   1      30.757  27.642  21.921  1.00  0.00    -0.237 NA
BRANCH  87  89
ATOM     89  N   UNL A   1      28.974  29.072  22.560  1.00  0.00    -0.182 N 
ATOM     90  C   UNL A   1      29.041  29.990  21.546  1.00  0.00     0.254 A 
ATOM     91  N   UNL A   1      27.812  29.245  23.222  1.00  0.00    -0.039 NA
ATOM     92  N   UNL A   1      27.992  30.777  21.613  1.00  0.00    -0.117 NA
ATOM     93  N   UNL A   1      27.248  30.314  22.672  1.00  0.00    -0.024 NA
ENDBRANCH  87  89
ENDBRANCH  81  83
ENDBRANCH  80  81
ENDBRANCH  79  80
ENDBRANCH  78  79
ENDBRANCH  77  78
ENDBRANCH  76  77
ENDBRANCH  75  76
ENDBRANCH  74  75
ENDBRANCH   1  74
TORSDOF 24
ENDMDL
MODEL 3
REMARK VINA RESULT:      -9.2      2.018      2.868
REMARK SMILES O=C(OCCOCCOCCOCCOC(=O)c1ccnc(-n2cnnn2)c1)c1ccc(-c2c3nc(c(-c4cccc(S(=O)(=O)[O-])c4F)c4ccc([nH]4)c(-c4cccc(S(=O)(=O)[O-])c4F)c4nc(c(-c5cccc(S(=O)(=O)[O-])c5F)c5ccc2[nH]5)C=C4)C=C3)cc1
REMARK SMILES IDX 8 1 7 2 6 3 5 4 4 5 3 6 2 7 1 8 29 9 30 10 91 11 31 12 90 13
REMARK SMILES IDX 32 14 33 15 34 16 84 17 35 18 89 19 83 20 85 21 36 22 88 23
REMARK SMILES IDX 82 24 81 25 37 27 69 28 49 29 68 30 50 31 53 32 67 33 86 34
REMARK SMILES IDX 51 35 52 36 66 38 87 39 54 40 38 41 39 42 47 43 40 44 42 45
REMARK SMILES IDX 48 46 41 47 43 48 44 49 45 50 46 51 70 52 71 53 79 54 72 55
REMARK SMILES IDX 74 56 80 57 73 58 75 59 76 60 77 61 78 62 55 63 56 64 64 65
REMARK SMILES IDX 57 66 59 67 65 68 58 69 60 70 61 71 62 72 63 73 9 74 10 75
REMARK SMILES IDX 11 76 12 77 13 78 14 79 15 80 16 81 17 82 18 83 19 84 28 85
REMARK SMILES IDX 20 86 22 87 21 88 23 89 24 90 27 91 25 92 26 93
REMARK H PARENT 85 26 53 37
REMARK Flexibility Score: inf
ROOT
ATOM      1  C   UNL A   1      30.653  29.560  23.890  1.00  0.00     0.188 C 
ENDROOT
BRANCH   1   2
ATOM      2  C   UNL A   1      31.195  29.600  25.338  1.00  0.00     0.188 C 
BRANCH   2   3
ATOM      3  O   UNL A   1      32.322  30.317  25.825  1.00  0.00    -0.376 OA
BRANCH   3   4
ATOM      4  C   UNL A   1      33.485  29.953  26.540  1.00  0.00     0.202 C 
BRANCH   4   5
ATOM      5  C   UNL A   1      34.309  30.857  27.459  1.00  0.00     0.261 C 
BRANCH   5   6
ATOM      6  O   UNL A   1      35.147  30.166  28.366  1.00  0.00    -0.460 OA
BRANCH   6   7
ATOM      7  C   UNL A   1      36.425  30.488  28.655  1.00  0.00     0.338 C 
ATOM      8  O   UNL A   1      36.676  31.664  28.915  1.00  0.00    -0.246 OA
BRANCH   7   9
ATOM      9  C   UNL A   1      37.554  29.521  28.572  1.00  0.00     0.060 A 
ATOM     10  C   UNL A   1      37.842  28.493  29.481  1.00  0.00     0.016 A 
ATOM     11  C   UNL A   1      38.396  29.697  27.459  1.00  0.00     0.016 A 
ATOM     12  C   UNL A   1      39.051  27.860  29.458  1.00  0.00     0.010 A 
ATOM     13  C   UNL A   1      39.595  29.027  27.391  1.00  0.00     0.010 A 
ATOM     14  C   UNL A   1      39.946  28.240  28.479  1.00  0.00    -0.014 A 
BRANCH  14  15
ATOM     15  C   UNL A   1      41.319  27.908  28.748  1.00  0.00     0.031 A 
ATOM     16  C   UNL A   1      41.800  26.714  28.011  1.00  0.00     0.074 A 
ATOM     17  C   UNL A   1      41.957  28.713  29.621  1.00  0.00     0.049 A 
ATOM     18  N   UNL A   1      42.359  25.647  28.481  1.00  0.00    -0.248 NA
ATOM     19  C   UNL A   1      41.439  26.619  26.585  1.00  0.00     0.031 C 
ATOM     20  C   UNL A   1      41.477  29.982  30.198  1.00  0.00     0.029 A 
ATOM     21  N   UNL A   1      43.248  28.681  30.022  1.00  0.00    -0.354 N 
ATOM     22  C   UNL A   1      42.652  24.870  27.360  1.00  0.00     0.074 A 
ATOM     23  C   UNL A   1      41.885  25.405  26.271  1.00  0.00     0.031 C 
ATOM     24  C   UNL A   1      42.541  30.734  30.542  1.00  0.00     0.029 A 
ATOM     25  C   UNL A   1      43.738  29.946  30.333  1.00  0.00     0.049 A 
ATOM     26  H   UNL A   1      43.781  27.856  30.085  1.00  0.00     0.167 HD
ATOM     27  C   UNL A   1      43.738  24.053  27.337  1.00  0.00     0.034 A 
ATOM     28  C   UNL A   1      45.032  30.336  30.234  1.00  0.00     0.034 A 
ATOM     29  C   UNL A   1      44.149  23.678  28.662  1.00  0.00     0.049 A 
ATOM     30  C   UNL A   1      45.851  29.097  30.180  1.00  0.00     0.074 A 
ATOM     31  C   UNL A   1      43.550  22.997  29.702  1.00  0.00     0.029 A 
ATOM     32  N   UNL A   1      45.203  24.365  29.213  1.00  0.00    -0.354 N 
ATOM     33  N   UNL A   1      45.909  28.235  31.160  1.00  0.00    -0.248 NA
ATOM     34  C   UNL A   1      46.183  28.567  28.864  1.00  0.00     0.031 C 
ATOM     35  C   UNL A   1      43.967  23.687  30.876  1.00  0.00     0.029 A 
ATOM     36  C   UNL A   1      44.845  24.703  30.493  1.00  0.00     0.049 A 
ATOM     37  H   UNL A   1      46.057  24.576  28.771  1.00  0.00     0.167 HD
ATOM     38  C   UNL A   1      45.850  26.990  30.541  1.00  0.00     0.074 A 
ATOM     39  C   UNL A   1      46.113  27.258  29.126  1.00  0.00     0.031 C 
ATOM     40  C   UNL A   1      45.286  25.909  31.162  1.00  0.00     0.034 A 
BRANCH  27  41
ATOM     41  C   UNL A   1      44.660  23.945  26.145  1.00  0.00     0.023 A 
ATOM     42  C   UNL A   1      44.853  22.665  25.585  1.00  0.00     0.012 A 
ATOM     43  C   UNL A   1      45.560  24.963  25.742  1.00  0.00     0.148 A 
ATOM     44  C   UNL A   1      45.918  22.401  24.717  1.00  0.00     0.002 A 
ATOM     45  C   UNL A   1      46.570  24.714  24.824  1.00  0.00     0.091 A 
ATOM     46  F   UNL A   1      45.543  26.155  26.344  1.00  0.00    -0.205 F 
ATOM     47  C   UNL A   1      46.775  23.425  24.332  1.00  0.00     0.022 A 
BRANCH  45  48
ATOM     48  S   UNL A   1      47.678  26.019  24.277  1.00  0.00     0.127 S 
ATOM     49  O   UNL A   1      46.747  27.126  24.081  1.00  0.00    -0.237 OA
ATOM     50  O   UNL A   1      48.573  26.154  25.425  1.00  0.00    -0.237 OA
ATOM     51  O   UNL A   1      48.326  25.502  23.077  1.00  0.00    -0.744 OA
ENDBRANCH  45  48
ENDBRANCH  27  41
BRANCH  28  52
ATOM     52  C   UNL A   1      45.513  31.658  29.762  1.00  0.00     0.023 A 
ATOM     53  C   UNL A   1      46.547  32.315  30.452  1.00  0.00     0.012 A 
ATOM     54  C   UNL A   1      45.109  32.186  28.510  1.00  0.00     0.148 A 
ATOM     55  C   UNL A   1      47.157  33.457  29.915  1.00  0.00     0.002 A 
ATOM     56  C   UNL A   1      45.700  33.335  27.993  1.00  0.00     0.091 A 
ATOM     57  F   UNL A   1      44.207  31.514  27.782  1.00  0.00    -0.205 F 
ATOM     58  C   UNL A   1      46.733  33.969  28.689  1.00  0.00     0.022 A 
BRANCH  56  59
ATOM     59  S   UNL A   1      45.195  34.050  26.420  1.00  0.00     0.127 S 
ATOM     60  O   UNL A   1      46.051  35.234  26.337  1.00  0.00    -0.237 OA
ATOM     61  O   UNL A   1      45.531  32.984  25.481  1.00  0.00    -0.237 OA
ATOM     62  O   UNL A   1      43.774  34.350  26.557  1.00  0.00    -0.744 OA
ENDBRANCH  56  59
ENDBRANCH  28  52
BRANCH  40  63
ATOM     63  C   UNL A   1      44.842  26.064  32.600  1.00  0.00     0.023 A 
ATOM     64  C   UNL A   1      43.610  26.663  32.945  1.00  0.00     0.012 A 
ATOM     65  C   UNL A   1      45.570  25.405  33.601  1.00  0.00     0.148 A 
ATOM     66  C   UNL A   1      43.129  26.631  34.257  1.00  0.00     0.002 A 
ATOM     67  C   UNL A   1      45.068  25.334  34.896  1.00  0.00     0.091 A 
ATOM     68  F   UNL A   1      46.725  24.816  33.257  1.00  0.00    -0.205 F 
ATOM     69  C   UNL A   1      43.853  25.955  35.232  1.00  0.00     0.022 A 
BRANCH  67  70
ATOM     70  S   UNL A   1      45.876  24.361  36.167  1.00  0.00     0.127 S 
ATOM     71  O   UNL A   1      44.785  24.125  37.110  1.00  0.00    -0.237 OA
ATOM     72  O   UNL A   1      46.311  23.177  35.424  1.00  0.00    -0.237 OA
ATOM     73  O   UNL A   1      46.970  25.184  36.668  1.00  0.00    -0.744 OA
ENDBRANCH  67  70
ENDBRANCH  40  63
ENDBRANCH  14  15
ENDBRANCH   7   9
ENDBRANCH   6   7
ENDBRANCH   5   6
ENDBRANCH   4   5
ENDBRANCH   3   4
ENDBRANCH   2   3
ENDBRANCH   1   2
BRANCH   1  74
ATOM     74  O   UNL A   1      30.492  28.308  23.243  1.00  0.00    -0.377 OA
BRANCH  74  75
ATOM     75  C   UNL A   1      31.157  27.253  23.893  1.00  0.00     0.188 C 
BRANCH  75  76
ATOM     76  C   UNL A   1      30.212  26.085  24.232  1.00  0.00     0.188 C 
BRANCH  76  77
ATOM     77  O   UNL A   1      29.701  25.948  25.541  1.00  0.00    -0.376 OA
BRANCH  77  78
ATOM     78  C   UNL A   1      30.336  25.103  26.486  1.00  0.00     0.202 C 
BRANCH  78  79
ATOM     79  C   UNL A   1      30.105  23.579  26.599  1.00  0.00     0.261 C 
BRANCH  79  80
ATOM     80  O   UNL A   1      31.189  22.683  26.313  1.00  0.00    -0.460 OA
BRANCH  80  81
ATOM     81  C   UNL A   1      32.334  22.852  27.007  1.00  0.00     0.338 C 
ATOM     82  O   UNL A   1      32.547  22.578  28.178  1.00  0.00    -0.246 OA
BRANCH  81  83
ATOM     83  C   UNL A   1      33.387  23.258  26.051  1.00  0.00     0.065 A 
ATOM     84  C   UNL A   1      34.715  23.261  26.456  1.00  0.00     0.036 A 
ATOM     85  C   UNL A   1      33.040  23.677  24.760  1.00  0.00     0.065 A 
ATOM     86  C   UNL A   1      35.663  23.632  25.521  1.00  0.00     0.114 A 
ATOM     87  C   UNL A   1      34.061  24.080  23.912  1.00  0.00     0.157 A 
ATOM     88  N   UNL A   1      35.370  24.022  24.259  1.00  0.00    -0.237 NA
BRANCH  87  89
ATOM     89  N   UNL A   1      33.726  24.638  22.661  1.00  0.00    -0.182 N 
ATOM     90  C   UNL A   1      33.268  23.992  21.544  1.00  0.00     0.254 A 
ATOM     91  N   UNL A   1      33.793  25.959  22.398  1.00  0.00    -0.039 NA
ATOM     92  N   UNL A   1      33.127  24.865  20.573  1.00  0.00    -0.117 NA
ATOM     93  N   UNL A   1      33.476  26.080  21.114  1.00  0.00    -0.024 NA
ENDBRANCH  87  89
ENDBRANCH  81  83
ENDBRANCH  80  81
ENDBRANCH  79  80
ENDBRANCH  78  79
ENDBRANCH  77  78
ENDBRANCH  76  77
ENDBRANCH  75  76
ENDBRANCH  74  75
ENDBRANCH   1  74
TORSDOF 24
ENDMDL
