MODEL 1
REMARK VINA RESULT:     -10.6      0.000      0.000
REMARK SMILES Cc1ccc([C@H](C)[N@H+](CC(=O)OCCOCCOCCOCCOC(=O)c2ccc(-c3c4nc(c(-c5cccc(S(=O)(=O)[O-])c5F)c5ccc([nH]5)c(-c5cccc(S(=O)(=O)[O-])c5F)c5nc(c(-c6cccc(S(=O)(=O)[O-])c6F)c6ccc3[nH]6)C=C5)C=C4)cc2)CC(F)(F)F)cc1
REMARK SMILES IDX 18 1 17 2 16 3 15 4 14 5 13 6 12 7 10 8 11 9 9 10 8 11 6 13
REMARK SMILES IDX 7 14 5 15 1 16 2 17 3 18 96 19 4 20 95 21 90 22 91 23 92 24
REMARK SMILES IDX 93 25 94 26 19 27 20 28 21 29 22 30 23 31 24 32 25 33 26 34
REMARK SMILES IDX 27 35 28 36 89 37 29 38 88 39 30 40 31 41 32 42 82 43 33 44
REMARK SMILES IDX 87 45 81 46 83 47 34 48 86 49 80 50 79 51 35 53 67 54 47 55
REMARK SMILES IDX 66 56 48 57 51 58 65 59 84 60 49 61 50 62 64 64 85 65 52 66
REMARK SMILES IDX 36 67 37 68 45 69 38 70 40 71 46 72 39 73 41 74 42 75 43 76
REMARK SMILES IDX 44 77 68 78 69 79 77 80 70 81 72 82 78 83 71 84 73 85 74 86
REMARK SMILES IDX 75 87 76 88 53 89 54 90 62 91 55 92 57 93 63 94 56 95 58 96
REMARK SMILES IDX 59 97 60 98 61 99
REMARK H PARENT 8 12 83 52 51 63
REMARK Flexibility Score: inf
ROOT
ATOM      1  O   UNL A   1      39.851  29.122  27.358  1.00  0.00    -0.377 OA
ENDROOT
BRANCH   1   2
ATOM      2  C   UNL A   1      40.731  28.037  27.692  1.00  0.00     0.188 C 
BRANCH   2   3
ATOM      3  C   UNL A   1      40.074  26.541  27.325  1.00  0.00     0.188 C 
BRANCH   3   4
ATOM      4  O   UNL A   1      39.720  25.051  27.957  1.00  0.00    -0.376 OA
BRANCH   4   5
ATOM      5  C   UNL A   1      39.910  23.417  27.625  1.00  0.00     0.202 C 
BRANCH   5   6
ATOM      6  C   UNL A   1      39.762  22.527  26.026  1.00  0.00     0.261 C 
BRANCH   6   7
ATOM      7  O   UNL A   1      38.164  21.741  25.450  1.00  0.00    -0.459 OA
BRANCH   7   8
ATOM      8  C   UNL A   1      36.531  21.969  25.649  1.00  0.00     0.361 C 
ATOM      9  O   UNL A   1      35.852  20.938  25.745  1.00  0.00    -0.245 OA
BRANCH   8  10
ATOM     10  C   UNL A   1      35.622  23.631  25.472  1.00  0.00     0.387 C 
BRANCH  10  11
ATOM     11  N   UNL A   1      33.960  24.306  25.611  1.00  0.00    -0.312 N 
ATOM     12  H   UNL A   1      33.967  24.333  26.630  1.00  0.00     0.349 HD
BRANCH  11  13
ATOM     13  C   UNL A   1      33.076  25.867  25.683  1.00  0.00     0.212 C 
ATOM     14  C   UNL A   1      33.973  27.105  25.821  1.00  0.00     0.081 C 
BRANCH  13  15
ATOM     15  C   UNL A   1      31.823  26.448  24.617  1.00  0.00     0.009 A 
ATOM     16  C   UNL A   1      29.097  29.319  22.466  1.00  0.00     0.044 C 
ATOM     17  C   UNL A   1      29.889  28.214  23.110  1.00  0.00    -0.051 A 
ATOM     18  C   UNL A   1      31.231  28.354  23.009  1.00  0.00     0.004 A 
ATOM     19  C   UNL A   1      29.501  27.053  23.806  1.00  0.00     0.004 A 
ATOM     20  C   UNL A   1      32.083  27.492  23.732  1.00  0.00     0.010 A 
ATOM     21  C   UNL A   1      30.454  26.155  24.521  1.00  0.00     0.010 A 
ENDBRANCH  13  15
ENDBRANCH  11  13
BRANCH  11  22
ATOM     22  C   UNL A   1      33.292  23.518  24.488  1.00  0.00     0.380 C 
BRANCH  22  23
ATOM     23  C   UNL A   1      33.614  23.950  23.049  1.00  0.00     0.438 C 
ATOM     24  F   UNL A   1      34.394  25.047  22.985  1.00  0.00    -0.165 F 
ATOM     25  F   UNL A   1      34.297  22.950  22.430  1.00  0.00    -0.165 F 
ATOM     26  F   UNL A   1      32.495  24.161  22.326  1.00  0.00    -0.165 F 
ENDBRANCH  22  23
ENDBRANCH  11  22
ENDBRANCH  10  11
ENDBRANCH   8  10
ENDBRANCH   7   8
ENDBRANCH   6   7
ENDBRANCH   5   6
ENDBRANCH   4   5
ENDBRANCH   3   4
ENDBRANCH   2   3
ENDBRANCH   1   2
BRANCH   1  27
ATOM     27  C   UNL A   1      38.650  28.999  28.077  1.00  0.00     0.188 C 
BRANCH  27  28
ATOM     28  C   UNL A   1      37.461  29.688  27.406  1.00  0.00     0.188 C 
BRANCH  28  29
ATOM     29  O   UNL A   1      36.929  30.776  28.151  1.00  0.00    -0.376 OA
BRANCH  29  30
ATOM     30  C   UNL A   1      35.892  30.386  29.059  1.00  0.00     0.202 C 
BRANCH  30  31
ATOM     31  C   UNL A   1      36.272  30.225  30.610  1.00  0.00     0.261 C 
BRANCH  31  32
ATOM     32  O   UNL A   1      36.374  31.559  31.324  1.00  0.00    -0.460 OA
BRANCH  32  33
ATOM     33  C   UNL A   1      35.710  32.289  32.273  1.00  0.00     0.338 C 
ATOM     34  O   UNL A   1      34.504  32.559  32.269  1.00  0.00    -0.246 OA
BRANCH  33  35
ATOM     35  C   UNL A   1      36.621  32.776  33.425  1.00  0.00     0.060 A 
ATOM     36  C   UNL A   1      36.793  34.128  33.669  1.00  0.00     0.016 A 
ATOM     37  C   UNL A   1      37.369  31.976  34.289  1.00  0.00     0.016 A 
ATOM     38  C   UNL A   1      37.897  34.628  34.439  1.00  0.00     0.010 A 
ATOM     39  C   UNL A   1      38.533  32.482  34.976  1.00  0.00     0.010 A 
ATOM     40  C   UNL A   1      39.003  33.813  34.820  1.00  0.00    -0.014 A 
BRANCH  40  41
ATOM     41  C   UNL A   1      40.804  34.268  34.805  1.00  0.00     0.031 A 
ATOM     42  C   UNL A   1      40.615  35.210  36.215  1.00  0.00     0.074 A 
ATOM     43  C   UNL A   1      42.122  34.313  33.651  1.00  0.00     0.049 A 
ATOM     44  N   UNL A   1      41.010  36.454  36.320  1.00  0.00    -0.248 NA
ATOM     45  C   UNL A   1      39.720  34.953  37.369  1.00  0.00     0.031 C 
ATOM     46  C   UNL A   1      43.846  34.877  33.613  1.00  0.00     0.029 A 
ATOM     47  N   UNL A   1      42.333  34.263  32.186  1.00  0.00    -0.354 N 
ATOM     48  C   UNL A   1      41.092  36.705  37.637  1.00  0.00     0.074 A 
ATOM     49  C   UNL A   1      39.914  36.053  38.114  1.00  0.00     0.031 C 
ATOM     50  C   UNL A   1      44.467  34.928  32.436  1.00  0.00     0.029 A 
ATOM     51  C   UNL A   1      43.446  34.888  31.460  1.00  0.00     0.049 A 
ATOM     52  H   UNL A   1      41.669  33.769  31.653  1.00  0.00     0.167 HD
ATOM     53  C   UNL A   1      42.312  36.971  38.193  1.00  0.00     0.034 A 
ATOM     54  C   UNL A   1      43.493  35.734  30.354  1.00  0.00     0.034 A 
ATOM     55  C   UNL A   1      43.424  37.341  37.215  1.00  0.00     0.049 A 
ATOM     56  C   UNL A   1      43.781  37.156  30.951  1.00  0.00     0.074 A 
ATOM     57  C   UNL A   1      44.746  36.954  37.033  1.00  0.00     0.029 A 
ATOM     58  N   UNL A   1      43.192  38.166  36.092  1.00  0.00    -0.354 N 
ATOM     59  N   UNL A   1      44.191  37.355  32.196  1.00  0.00    -0.248 NA
ATOM     60  C   UNL A   1      43.573  38.431  30.289  1.00  0.00     0.031 C 
ATOM     61  C   UNL A   1      45.243  37.476  35.770  1.00  0.00     0.029 A 
ATOM     62  C   UNL A   1      44.249  38.216  35.138  1.00  0.00     0.049 A 
ATOM     63  H   UNL A   1      42.355  38.672  35.976  1.00  0.00     0.167 HD
ATOM     64  C   UNL A   1      44.075  38.657  32.597  1.00  0.00     0.074 A 
ATOM     65  C   UNL A   1      43.764  39.304  31.306  1.00  0.00     0.031 C 
ATOM     66  C   UNL A   1      44.168  39.120  33.913  1.00  0.00     0.034 A 
BRANCH  53  67
ATOM     67  C   UNL A   1      42.475  36.660  39.693  1.00  0.00     0.023 A 
ATOM     68  C   UNL A   1      42.571  37.724  40.598  1.00  0.00     0.012 A 
ATOM     69  C   UNL A   1      42.506  35.357  40.288  1.00  0.00     0.148 A 
ATOM     70  C   UNL A   1      42.596  37.506  41.990  1.00  0.00     0.002 A 
ATOM     71  C   UNL A   1      42.355  35.148  41.655  1.00  0.00     0.091 A 
ATOM     72  F   UNL A   1      42.845  34.280  39.569  1.00  0.00    -0.205 F 
ATOM     73  C   UNL A   1      42.423  36.228  42.522  1.00  0.00     0.022 A 
BRANCH  71  74
ATOM     74  S   UNL A   1      41.940  33.515  42.310  1.00  0.00     0.127 S 
ATOM     75  O   UNL A   1      43.204  32.793  42.198  1.00  0.00    -0.237 OA
ATOM     76  O   UNL A   1      41.531  33.818  43.683  1.00  0.00    -0.237 OA
ATOM     77  O   UNL A   1      40.853  33.020  41.468  1.00  0.00    -0.744 OA
ENDBRANCH  71  74
ENDBRANCH  53  67
BRANCH  54  78
ATOM     78  C   UNL A   1      43.023  35.232  28.880  1.00  0.00     0.023 A 
ATOM     79  C   UNL A   1      42.392  36.247  28.093  1.00  0.00     0.012 A 
ATOM     80  C   UNL A   1      43.525  34.124  28.090  1.00  0.00     0.148 A 
ATOM     81  C   UNL A   1      42.442  36.291  26.672  1.00  0.00     0.002 A 
ATOM     82  C   UNL A   1      43.628  34.208  26.647  1.00  0.00     0.091 A 
ATOM     83  F   UNL A   1      44.071  33.087  28.742  1.00  0.00    -0.205 F 
ATOM     84  C   UNL A   1      43.120  35.315  25.958  1.00  0.00     0.022 A 
BRANCH  82  85
ATOM     85  S   UNL A   1      44.657  33.119  25.558  1.00  0.00     0.127 S 
ATOM     86  O   UNL A   1      45.984  33.265  26.158  1.00  0.00    -0.237 OA
ATOM     87  O   UNL A   1      44.092  31.783  25.759  1.00  0.00    -0.237 OA
ATOM     88  O   UNL A   1      44.525  33.671  24.217  1.00  0.00    -0.744 OA
ENDBRANCH  82  85
ENDBRANCH  54  78
BRANCH  66  89
ATOM     89  C   UNL A   1      44.250  40.621  34.175  1.00  0.00     0.023 A 
ATOM     90  C   UNL A   1      43.119  41.450  34.030  1.00  0.00     0.012 A 
ATOM     91  C   UNL A   1      45.483  41.279  34.411  1.00  0.00     0.148 A 
ATOM     92  C   UNL A   1      43.186  42.833  34.227  1.00  0.00     0.002 A 
ATOM     93  C   UNL A   1      45.568  42.660  34.485  1.00  0.00     0.091 A 
ATOM     94  F   UNL A   1      46.595  40.574  34.612  1.00  0.00    -0.205 F 
ATOM     95  C   UNL A   1      44.414  43.442  34.442  1.00  0.00     0.022 A 
BRANCH  93  96
ATOM     96  S   UNL A   1      47.151  43.509  34.552  1.00  0.00     0.127 S 
ATOM     97  O   UNL A   1      47.730  42.952  35.776  1.00  0.00    -0.237 OA
ATOM     98  O   UNL A   1      47.779  43.055  33.313  1.00  0.00    -0.237 OA
ATOM     99  O   UNL A   1      46.854  44.933  34.617  1.00  0.00    -0.744 OA
ENDBRANCH  93  96
ENDBRANCH  66  89
ENDBRANCH  40  41
ENDBRANCH  33  35
ENDBRANCH  32  33
ENDBRANCH  31  32
ENDBRANCH  30  31
ENDBRANCH  29  30
ENDBRANCH  28  29
ENDBRANCH  27  28
ENDBRANCH   1  27
TORSDOF 28
ENDMDL
MODEL 2
REMARK VINA RESULT:     -10.1      4.602     14.960
REMARK SMILES Cc1ccc([C@H](C)[N@H+](CC(=O)OCCOCCOCCOCCOC(=O)c2ccc(-c3c4nc(c(-c5cccc(S(=O)(=O)[O-])c5F)c5ccc([nH]5)c(-c5cccc(S(=O)(=O)[O-])c5F)c5nc(c(-c6cccc(S(=O)(=O)[O-])c6F)c6ccc3[nH]6)C=C5)C=C4)cc2)CC(F)(F)F)cc1
REMARK SMILES IDX 18 1 17 2 16 3 15 4 14 5 13 6 12 7 10 8 11 9 9 10 8 11 6 13
REMARK SMILES IDX 7 14 5 15 1 16 2 17 3 18 96 19 4 20 95 21 90 22 91 23 92 24
REMARK SMILES IDX 93 25 94 26 19 27 20 28 21 29 22 30 23 31 24 32 25 33 26 34
REMARK SMILES IDX 27 35 28 36 89 37 29 38 88 39 30 40 31 41 32 42 82 43 33 44
REMARK SMILES IDX 87 45 81 46 83 47 34 48 86 49 80 50 79 51 35 53 67 54 47 55
REMARK SMILES IDX 66 56 48 57 51 58 65 59 84 60 49 61 50 62 64 64 85 65 52 66
REMARK SMILES IDX 36 67 37 68 45 69 38 70 40 71 46 72 39 73 41 74 42 75 43 76
REMARK SMILES IDX 44 77 68 78 69 79 77 80 70 81 72 82 78 83 71 84 73 85 74 86
REMARK SMILES IDX 75 87 76 88 53 89 54 90 62 91 55 92 57 93 63 94 56 95 58 96
REMARK SMILES IDX 59 97 60 98 61 99
REMARK H PARENT 8 12 83 52 51 63
REMARK Flexibility Score: inf
ROOT
ATOM      1  O   UNL A   1      45.072  33.850  26.225  1.00  0.00    -0.377 OA
ENDROOT
BRANCH   1   2
ATOM      2  C   UNL A   1      45.562  35.199  26.172  1.00  0.00     0.188 C 
BRANCH   2   3
ATOM      3  C   UNL A   1      46.170  35.720  27.642  1.00  0.00     0.188 C 
BRANCH   3   4
ATOM      4  O   UNL A   1      47.537  36.276  28.396  1.00  0.00    -0.376 OA
BRANCH   4   5
ATOM      5  C   UNL A   1      48.021  37.374  29.570  1.00  0.00     0.202 C 
BRANCH   5   6
ATOM      6  C   UNL A   1      47.574  37.450  31.349  1.00  0.00     0.261 C 
BRANCH   6   7
ATOM      7  O   UNL A   1      45.815  37.689  31.941  1.00  0.00    -0.459 OA
BRANCH   7   8
ATOM      8  C   UNL A   1      44.998  37.801  33.384  1.00  0.00     0.361 C 
ATOM      9  O   UNL A   1      45.684  38.110  34.366  1.00  0.00    -0.245 OA
BRANCH   8  10
ATOM     10  C   UNL A   1      43.203  37.242  33.678  1.00  0.00     0.387 C 
BRANCH  10  11
ATOM     11  N   UNL A   1      42.042  37.022  35.034  1.00  0.00    -0.312 N 
ATOM     12  H   UNL A   1      41.530  37.884  34.845  1.00  0.00     0.349 HD
BRANCH  11  13
ATOM     13  C   UNL A   1      40.449  36.288  35.418  1.00  0.00     0.212 C 
ATOM     14  C   UNL A   1      39.975  35.225  34.416  1.00  0.00     0.081 C 
BRANCH  13  15
ATOM     15  C   UNL A   1      39.907  35.618  36.935  1.00  0.00     0.009 A 
ATOM     16  C   UNL A   1      39.863  34.558  41.314  1.00  0.00     0.044 C 
ATOM     17  C   UNL A   1      39.721  34.785  39.833  1.00  0.00    -0.051 A 
ATOM     18  C   UNL A   1      39.811  36.081  39.454  1.00  0.00     0.004 A 
ATOM     19  C   UNL A   1      39.513  33.902  38.756  1.00  0.00     0.004 A 
ATOM     20  C   UNL A   1      39.886  36.407  38.083  1.00  0.00     0.010 A 
ATOM     21  C   UNL A   1      39.566  34.314  37.323  1.00  0.00     0.010 A 
ENDBRANCH  13  15
ENDBRANCH  11  13
BRANCH  11  22
ATOM     22  C   UNL A   1      43.003  36.464  36.079  1.00  0.00     0.380 C 
BRANCH  22  23
ATOM     23  C   UNL A   1      43.603  37.465  37.078  1.00  0.00     0.438 C 
ATOM     24  F   UNL A   1      42.983  37.460  38.274  1.00  0.00    -0.165 F 
ATOM     25  F   UNL A   1      44.901  37.134  37.310  1.00  0.00    -0.165 F 
ATOM     26  F   UNL A   1      43.605  38.722  36.588  1.00  0.00    -0.165 F 
ENDBRANCH  22  23
ENDBRANCH  11  22
ENDBRANCH  10  11
ENDBRANCH   8  10
ENDBRANCH   7   8
ENDBRANCH   6   7
ENDBRANCH   5   6
ENDBRANCH   4   5
ENDBRANCH   3   4
ENDBRANCH   2   3
ENDBRANCH   1   2
BRANCH   1  27
ATOM     27  C   UNL A   1      44.874  33.468  27.563  1.00  0.00     0.188 C 
BRANCH  27  28
ATOM     28  C   UNL A   1      45.311  32.033  27.863  1.00  0.00     0.188 C 
BRANCH  28  29
ATOM     29  O   UNL A   1      46.355  31.937  28.824  1.00  0.00    -0.376 OA
BRANCH  29  30
ATOM     30  C   UNL A   1      47.355  30.973  28.477  1.00  0.00     0.202 C 
BRANCH  30  31
ATOM     31  C   UNL A   1      48.230  31.239  27.158  1.00  0.00     0.261 C 
BRANCH  31  32
ATOM     32  O   UNL A   1      49.032  30.022  26.739  1.00  0.00    -0.460 OA
BRANCH  32  33
ATOM     33  C   UNL A   1      48.966  28.983  25.849  1.00  0.00     0.338 C 
ATOM     34  O   UNL A   1      49.833  28.679  25.021  1.00  0.00    -0.246 OA
BRANCH  33  35
ATOM     35  C   UNL A   1      47.660  28.161  25.959  1.00  0.00     0.060 A 
ATOM     36  C   UNL A   1      46.448  28.700  25.563  1.00  0.00     0.016 A 
ATOM     37  C   UNL A   1      47.532  26.869  26.470  1.00  0.00     0.016 A 
ATOM     38  C   UNL A   1      45.194  28.151  25.996  1.00  0.00     0.010 A 
ATOM     39  C   UNL A   1      46.276  26.379  26.988  1.00  0.00     0.010 A 
ATOM     40  C   UNL A   1      45.096  27.168  27.024  1.00  0.00    -0.014 A 
BRANCH  40  41
ATOM     41  C   UNL A   1      43.850  27.085  28.398  1.00  0.00     0.031 A 
ATOM     42  C   UNL A   1      42.640  26.553  27.320  1.00  0.00     0.074 A 
ATOM     43  C   UNL A   1      43.638  27.763  30.001  1.00  0.00     0.049 A 
ATOM     44  N   UNL A   1      41.460  27.112  27.213  1.00  0.00    -0.248 NA
ATOM     45  C   UNL A   1      42.798  25.669  26.140  1.00  0.00     0.031 C 
ATOM     46  C   UNL A   1      42.359  27.778  31.287  1.00  0.00     0.029 A 
ATOM     47  N   UNL A   1      44.189  28.851  30.840  1.00  0.00    -0.354 N 
ATOM     48  C   UNL A   1      40.673  26.198  26.620  1.00  0.00     0.074 A 
ATOM     49  C   UNL A   1      41.557  25.677  25.627  1.00  0.00     0.031 C 
ATOM     50  C   UNL A   1      42.506  28.615  32.312  1.00  0.00     0.029 A 
ATOM     51  C   UNL A   1      43.464  29.566  31.899  1.00  0.00     0.049 A 
ATOM     52  H   UNL A   1      45.122  29.119  30.674  1.00  0.00     0.167 HD
ATOM     53  C   UNL A   1      39.621  25.670  27.316  1.00  0.00     0.034 A 
ATOM     54  C   UNL A   1      43.272  30.922  32.159  1.00  0.00     0.034 A 
ATOM     55  C   UNL A   1      39.195  26.438  28.565  1.00  0.00     0.049 A 
ATOM     56  C   UNL A   1      41.805  31.215  31.689  1.00  0.00     0.074 A 
ATOM     57  C   UNL A   1      38.895  26.096  29.877  1.00  0.00     0.029 A 
ATOM     58  N   UNL A   1      39.167  27.849  28.605  1.00  0.00    -0.354 N 
ATOM     59  N   UNL A   1      40.921  30.264  31.420  1.00  0.00    -0.248 NA
ATOM     60  C   UNL A   1      41.232  32.518  31.404  1.00  0.00     0.031 C 
ATOM     61  C   UNL A   1      38.786  27.298  30.687  1.00  0.00     0.029 A 
ATOM     62  C   UNL A   1      38.999  28.423  29.898  1.00  0.00     0.049 A 
ATOM     63  H   UNL A   1      39.258  28.400  27.793  1.00  0.00     0.167 HD
ATOM     64  C   UNL A   1      39.831  30.723  30.734  1.00  0.00     0.074 A 
ATOM     65  C   UNL A   1      40.049  32.181  30.839  1.00  0.00     0.031 C 
ATOM     66  C   UNL A   1      38.879  29.932  30.085  1.00  0.00     0.034 A 
BRANCH  53  67
ATOM     67  C   UNL A   1      39.137  24.272  26.888  1.00  0.00     0.023 A 
ATOM     68  C   UNL A   1      37.932  24.158  26.186  1.00  0.00     0.012 A 
ATOM     69  C   UNL A   1      39.827  23.035  27.108  1.00  0.00     0.148 A 
ATOM     70  C   UNL A   1      37.500  22.923  25.660  1.00  0.00     0.002 A 
ATOM     71  C   UNL A   1      39.493  21.857  26.447  1.00  0.00     0.091 A 
ATOM     72  F   UNL A   1      40.730  22.915  28.090  1.00  0.00    -0.205 F 
ATOM     73  C   UNL A   1      38.308  21.788  25.732  1.00  0.00     0.022 A 
BRANCH  71  74
ATOM     74  S   UNL A   1      40.640  20.461  26.391  1.00  0.00     0.127 S 
ATOM     75  O   UNL A   1      39.901  19.469  25.616  1.00  0.00    -0.237 OA
ATOM     76  O   UNL A   1      41.801  21.031  25.703  1.00  0.00    -0.237 OA
ATOM     77  O   UNL A   1      40.898  20.109  27.785  1.00  0.00    -0.744 OA
ENDBRANCH  71  74
ENDBRANCH  53  67
BRANCH  54  78
ATOM     78  C   UNL A   1      44.512  31.891  32.574  1.00  0.00     0.023 A 
ATOM     79  C   UNL A   1      44.248  33.285  32.388  1.00  0.00     0.012 A 
ATOM     80  C   UNL A   1      45.606  31.631  33.490  1.00  0.00     0.148 A 
ATOM     81  C   UNL A   1      44.834  34.312  33.179  1.00  0.00     0.002 A 
ATOM     82  C   UNL A   1      46.150  32.676  34.334  1.00  0.00     0.091 A 
ATOM     83  F   UNL A   1      45.977  30.357  33.677  1.00  0.00    -0.205 F 
ATOM     84  C   UNL A   1      45.724  34.002  34.195  1.00  0.00     0.022 A 
BRANCH  82  85
ATOM     85  S   UNL A   1      47.181  32.429  35.854  1.00  0.00     0.127 S 
ATOM     86  O   UNL A   1      46.468  33.247  36.835  1.00  0.00    -0.237 OA
ATOM     87  O   UNL A   1      47.069  30.995  36.128  1.00  0.00    -0.237 OA
ATOM     88  O   UNL A   1      48.511  32.907  35.504  1.00  0.00    -0.744 OA
ENDBRANCH  82  85
ENDBRANCH  54  78
BRANCH  66  89
ATOM     89  C   UNL A   1      37.598  30.577  29.564  1.00  0.00     0.023 A 
ATOM     90  C   UNL A   1      37.284  30.569  28.190  1.00  0.00     0.012 A 
ATOM     91  C   UNL A   1      36.751  31.351  30.396  1.00  0.00     0.148 A 
ATOM     92  C   UNL A   1      36.134  31.191  27.691  1.00  0.00     0.002 A 
ATOM     93  C   UNL A   1      35.682  32.066  29.882  1.00  0.00     0.091 A 
ATOM     94  F   UNL A   1      36.941  31.375  31.715  1.00  0.00    -0.205 F 
ATOM     95  C   UNL A   1      35.339  31.952  28.535  1.00  0.00     0.022 A 
BRANCH  93  96
ATOM     96  S   UNL A   1      34.749  33.229  30.887  1.00  0.00     0.127 S 
ATOM     97  O   UNL A   1      33.807  33.773  29.907  1.00  0.00    -0.237 OA
ATOM     98  O   UNL A   1      34.156  32.342  31.885  1.00  0.00    -0.237 OA
ATOM     99  O   UNL A   1      35.711  34.195  31.401  1.00  0.00    -0.744 OA
ENDBRANCH  93  96
ENDBRANCH  66  89
ENDBRANCH  40  41
ENDBRANCH  33  35
ENDBRANCH  32  33
ENDBRANCH  31  32
ENDBRANCH  30  31
ENDBRANCH  29  30
ENDBRANCH  28  29
ENDBRANCH  27  28
ENDBRANCH   1  27
TORSDOF 28
ENDMDL
MODEL 3
REMARK VINA RESULT:      -9.6      6.513     16.338
REMARK SMILES Cc1ccc([C@H](C)[N@H+](CC(=O)OCCOCCOCCOCCOC(=O)c2ccc(-c3c4nc(c(-c5cccc(S(=O)(=O)[O-])c5F)c5ccc([nH]5)c(-c5cccc(S(=O)(=O)[O-])c5F)c5nc(c(-c6cccc(S(=O)(=O)[O-])c6F)c6ccc3[nH]6)C=C5)C=C4)cc2)CC(F)(F)F)cc1
REMARK SMILES IDX 18 1 17 2 16 3 15 4 14 5 13 6 12 7 10 8 11 9 9 10 8 11 6 13
REMARK SMILES IDX 7 14 5 15 1 16 2 17 3 18 96 19 4 20 95 21 90 22 91 23 92 24
REMARK SMILES IDX 93 25 94 26 19 27 20 28 21 29 22 30 23 31 24 32 25 33 26 34
REMARK SMILES IDX 27 35 28 36 89 37 29 38 88 39 30 40 31 41 32 42 82 43 33 44
REMARK SMILES IDX 87 45 81 46 83 47 34 48 86 49 80 50 79 51 35 53 67 54 47 55
REMARK SMILES IDX 66 56 48 57 51 58 65 59 84 60 49 61 50 62 64 64 85 65 52 66
REMARK SMILES IDX 36 67 37 68 45 69 38 70 40 71 46 72 39 73 41 74 42 75 43 76
REMARK SMILES IDX 44 77 68 78 69 79 77 80 70 81 72 82 78 83 71 84 73 85 74 86
REMARK SMILES IDX 75 87 76 88 53 89 54 90 62 91 55 92 57 93 63 94 56 95 58 96
REMARK SMILES IDX 59 97 60 98 61 99
REMARK H PARENT 8 12 83 52 51 63
REMARK Flexibility Score: inf
ROOT
ATOM      1  O   UNL A   1      49.093  39.836  30.019  1.00  0.00    -0.377 OA
ENDROOT
BRANCH   1   2
ATOM      2  C   UNL A   1      50.248  39.788  30.871  1.00  0.00     0.188 C 
BRANCH   2   3
ATOM      3  C   UNL A   1      50.283  41.043  31.977  1.00  0.00     0.188 C 
BRANCH   3   4
ATOM      4  O   UNL A   1      51.258  42.211  32.636  1.00  0.00    -0.376 OA
BRANCH   4   5
ATOM      5  C   UNL A   1      51.273  43.352  33.867  1.00  0.00     0.202 C 
BRANCH   5   6
ATOM      6  C   UNL A   1      50.285  44.888  34.045  1.00  0.00     0.261 C 
BRANCH   6   7
ATOM      7  O   UNL A   1      49.047  45.140  35.427  1.00  0.00    -0.459 OA
BRANCH   7   8
ATOM      8  C   UNL A   1      47.418  45.419  35.594  1.00  0.00     0.361 C 
ATOM      9  O   UNL A   1      47.065  46.603  35.514  1.00  0.00    -0.245 OA
BRANCH   8  10
ATOM     10  C   UNL A   1      46.132  44.131  36.150  1.00  0.00     0.387 C 
BRANCH  10  11
ATOM     11  N   UNL A   1      45.035  42.896  35.439  1.00  0.00    -0.312 N 
ATOM     12  H   UNL A   1      44.272  43.079  36.091  1.00  0.00     0.349 HD
BRANCH  11  13
ATOM     13  C   UNL A   1      43.767  42.695  34.183  1.00  0.00     0.212 C 
ATOM     14  C   UNL A   1      42.356  43.103  34.626  1.00  0.00     0.081 C 
BRANCH  13  15
ATOM     15  C   UNL A   1      43.795  43.241  32.526  1.00  0.00     0.009 A 
ATOM     16  C   UNL A   1      45.241  43.868  28.305  1.00  0.00     0.044 C 
ATOM     17  C   UNL A   1      44.615  43.795  29.671  1.00  0.00    -0.051 A 
ATOM     18  C   UNL A   1      44.473  42.539  30.156  1.00  0.00     0.004 A 
ATOM     19  C   UNL A   1      44.146  44.788  30.552  1.00  0.00     0.004 A 
ATOM     20  C   UNL A   1      44.079  42.346  31.496  1.00  0.00     0.010 A 
ATOM     21  C   UNL A   1      43.704  44.517  31.951  1.00  0.00     0.010 A 
ENDBRANCH  13  15
ENDBRANCH  11  13
BRANCH  11  22
ATOM     22  C   UNL A   1      46.062  41.806  35.151  1.00  0.00     0.380 C 
BRANCH  22  23
ATOM     23  C   UNL A   1      46.998  42.033  33.953  1.00  0.00     0.438 C 
ATOM     24  F   UNL A   1      46.750  43.181  33.294  1.00  0.00    -0.165 F 
ATOM     25  F   UNL A   1      48.279  42.111  34.402  1.00  0.00    -0.165 F 
ATOM     26  F   UNL A   1      46.954  41.005  33.081  1.00  0.00    -0.165 F 
ENDBRANCH  22  23
ENDBRANCH  11  22
ENDBRANCH  10  11
ENDBRANCH   8  10
ENDBRANCH   7   8
ENDBRANCH   6   7
ENDBRANCH   5   6
ENDBRANCH   4   5
ENDBRANCH   3   4
ENDBRANCH   2   3
ENDBRANCH   1   2
BRANCH   1  27
ATOM     27  C   UNL A   1      48.510  41.114  30.080  1.00  0.00     0.188 C 
BRANCH  27  28
ATOM     28  C   UNL A   1      48.579  41.883  28.760  1.00  0.00     0.188 C 
BRANCH  28  29
ATOM     29  O   UNL A   1      48.779  41.056  27.620  1.00  0.00    -0.376 OA
BRANCH  29  30
ATOM     30  C   UNL A   1      47.615  40.940  26.795  1.00  0.00     0.202 C 
BRANCH  30  31
ATOM     31  C   UNL A   1      47.095  39.465  26.431  1.00  0.00     0.261 C 
BRANCH  31  32
ATOM     32  O   UNL A   1      45.666  39.227  26.881  1.00  0.00    -0.460 OA
BRANCH  32  33
ATOM     33  C   UNL A   1      44.388  39.553  26.515  1.00  0.00     0.338 C 
ATOM     34  O   UNL A   1      44.067  40.416  25.689  1.00  0.00    -0.246 OA
BRANCH  33  35
ATOM     35  C   UNL A   1      43.307  38.716  27.239  1.00  0.00     0.060 A 
ATOM     36  C   UNL A   1      43.091  38.863  28.599  1.00  0.00     0.016 A 
ATOM     37  C   UNL A   1      42.487  37.744  26.667  1.00  0.00     0.016 A 
ATOM     38  C   UNL A   1      42.403  37.867  29.371  1.00  0.00     0.010 A 
ATOM     39  C   UNL A   1      41.887  36.696  27.459  1.00  0.00     0.010 A 
ATOM     40  C   UNL A   1      42.090  36.574  28.859  1.00  0.00    -0.014 A 
BRANCH  40  41
ATOM     41  C   UNL A   1      42.233  34.943  29.735  1.00  0.00     0.031 A 
ATOM     42  C   UNL A   1      43.622  34.538  28.831  1.00  0.00     0.074 A 
ATOM     43  C   UNL A   1      41.198  33.868  30.654  1.00  0.00     0.049 A 
ATOM     44  N   UNL A   1      43.763  33.414  28.173  1.00  0.00    -0.248 NA
ATOM     45  C   UNL A   1      44.693  35.445  28.353  1.00  0.00     0.031 C 
ATOM     46  C   UNL A   1      41.311  32.217  31.399  1.00  0.00     0.029 A 
ATOM     47  N   UNL A   1      39.757  33.651  30.916  1.00  0.00    -0.354 N 
ATOM     48  C   UNL A   1      45.084  33.271  27.967  1.00  0.00     0.074 A 
ATOM     49  C   UNL A   1      45.455  34.608  27.630  1.00  0.00     0.031 C 
ATOM     50  C   UNL A   1      40.192  31.650  31.847  1.00  0.00     0.029 A 
ATOM     51  C   UNL A   1      39.131  32.363  31.246  1.00  0.00     0.049 A 
ATOM     52  H   UNL A   1      39.167  34.438  30.865  1.00  0.00     0.167 HD
ATOM     53  C   UNL A   1      45.744  32.231  28.561  1.00  0.00     0.034 A 
ATOM     54  C   UNL A   1      38.035  31.685  30.716  1.00  0.00     0.034 A 
ATOM     55  C   UNL A   1      44.866  31.101  29.091  1.00  0.00     0.049 A 
ATOM     56  C   UNL A   1      38.657  30.553  29.827  1.00  0.00     0.074 A 
ATOM     57  C   UNL A   1      44.800  30.378  30.275  1.00  0.00     0.029 A 
ATOM     58  N   UNL A   1      43.730  30.641  28.391  1.00  0.00    -0.354 N 
ATOM     59  N   UNL A   1      39.934  30.199  29.884  1.00  0.00    -0.248 NA
ATOM     60  C   UNL A   1      37.982  29.802  28.784  1.00  0.00     0.031 C 
ATOM     61  C   UNL A   1      43.586  29.578  30.298  1.00  0.00     0.029 A 
ATOM     62  C   UNL A   1      42.872  29.767  29.119  1.00  0.00     0.049 A 
ATOM     63  H   UNL A   1      43.543  30.906  27.461  1.00  0.00     0.167 HD
ATOM     64  C   UNL A   1      40.326  29.432  28.822  1.00  0.00     0.074 A 
ATOM     65  C   UNL A   1      39.014  29.140  28.209  1.00  0.00     0.031 C 
ATOM     66  C   UNL A   1      41.645  29.137  28.468  1.00  0.00     0.034 A 
BRANCH  53  67
ATOM     67  C   UNL A   1      47.252  32.419  28.813  1.00  0.00     0.023 A 
ATOM     68  C   UNL A   1      47.668  33.051  29.991  1.00  0.00     0.012 A 
ATOM     69  C   UNL A   1      48.313  31.971  27.961  1.00  0.00     0.148 A 
ATOM     70  C   UNL A   1      49.031  33.141  30.336  1.00  0.00     0.002 A 
ATOM     71  C   UNL A   1      49.639  31.904  28.379  1.00  0.00     0.091 A 
ATOM     72  F   UNL A   1      48.102  31.747  26.658  1.00  0.00    -0.205 F 
ATOM     73  C   UNL A   1      50.011  32.513  29.567  1.00  0.00     0.022 A 
BRANCH  71  74
ATOM     74  S   UNL A   1      50.856  30.923  27.470  1.00  0.00     0.127 S 
ATOM     75  O   UNL A   1      50.174  30.657  26.207  1.00  0.00    -0.237 OA
ATOM     76  O   UNL A   1      51.991  31.842  27.367  1.00  0.00    -0.237 OA
ATOM     77  O   UNL A   1      51.119  29.753  28.305  1.00  0.00    -0.744 OA
ENDBRANCH  71  74
ENDBRANCH  53  67
BRANCH  54  78
ATOM     78  C   UNL A   1      36.524  32.274  30.855  1.00  0.00     0.023 A 
ATOM     79  C   UNL A   1      36.283  32.974  32.080  1.00  0.00     0.012 A 
ATOM     80  C   UNL A   1      35.573  32.601  29.811  1.00  0.00     0.148 A 
ATOM     81  C   UNL A   1      35.356  34.045  32.209  1.00  0.00     0.002 A 
ATOM     82  C   UNL A   1      34.676  33.733  29.932  1.00  0.00     0.091 A 
ATOM     83  F   UNL A   1      35.671  31.944  28.647  1.00  0.00    -0.205 F 
ATOM     84  C   UNL A   1      34.611  34.469  31.121  1.00  0.00     0.022 A 
BRANCH  82  85
ATOM     85  S   UNL A   1      33.766  34.560  28.546  1.00  0.00     0.127 S 
ATOM     86  O   UNL A   1      32.783  35.365  29.272  1.00  0.00    -0.237 OA
ATOM     87  O   UNL A   1      34.789  35.377  27.889  1.00  0.00    -0.237 OA
ATOM     88  O   UNL A   1      33.207  33.479  27.747  1.00  0.00    -0.744 OA
ENDBRANCH  82  85
ENDBRANCH  54  78
BRANCH  66  89
ATOM     89  C   UNL A   1      41.916  28.081  27.400  1.00  0.00     0.023 A 
ATOM     90  C   UNL A   1      42.157  28.444  26.060  1.00  0.00     0.012 A 
ATOM     91  C   UNL A   1      41.778  26.694  27.659  1.00  0.00     0.148 A 
ATOM     92  C   UNL A   1      42.367  27.487  25.061  1.00  0.00     0.002 A 
ATOM     93  C   UNL A   1      41.865  25.753  26.646  1.00  0.00     0.091 A 
ATOM     94  F   UNL A   1      41.600  26.256  28.904  1.00  0.00    -0.205 F 
ATOM     95  C   UNL A   1      42.208  26.139  25.351  1.00  0.00     0.022 A 
BRANCH  93  96
ATOM     96  S   UNL A   1      41.462  24.023  26.924  1.00  0.00     0.127 S 
ATOM     97  O   UNL A   1      40.004  24.039  26.796  1.00  0.00    -0.237 OA
ATOM     98  O   UNL A   1      42.170  23.377  25.821  1.00  0.00    -0.237 OA
ATOM     99  O   UNL A   1      41.949  23.694  28.256  1.00  0.00    -0.744 OA
ENDBRANCH  93  96
ENDBRANCH  66  89
ENDBRANCH  40  41
ENDBRANCH  33  35
ENDBRANCH  32  33
ENDBRANCH  31  32
ENDBRANCH  30  31
ENDBRANCH  29  30
ENDBRANCH  28  29
ENDBRANCH  27  28
ENDBRANCH   1  27
TORSDOF 28
ENDMDL
