MODEL 1
REMARK VINA RESULT:      -7.8      0.000      0.000
REMARK SMILES COCc1cc(N2CCCC[C@H]2C(=O)OCCOCCOCCOCCOC(=O)c2ccc(-c3c4nc(c(-c5cccc(S(=O)(=O)[O-])c5F)c5ccc([nH]5)c(-c5cccc(S(=O)(=O)[O-])c5F)c5nc(c(-c6cccc(S(=O)(=O)[O-])c6F)c6ccc3[nH]6)C=C5)C=C4)cc2)nc(-c2ccc(Cl)cc2)n1
REMARK SMILES IDX 21 1 20 2 19 3 18 4 17 5 16 6 15 7 13 8 14 9 12 10 7 11 8 12
REMARK SMILES IDX 9 13 11 14 10 15 6 16 4 17 5 18 102 19 94 20 93 21 3 22 2 23
REMARK SMILES IDX 1 24 95 25 96 26 101 27 97 28 100 29 98 30 99 31 22 32 23 33
REMARK SMILES IDX 24 34 25 35 26 36 27 37 28 38 29 39 30 40 31 41 92 42 32 43
REMARK SMILES IDX 91 44 33 45 34 46 35 47 85 48 36 49 90 50 84 51 86 52 37 53
REMARK SMILES IDX 89 54 83 55 82 56 38 58 70 59 50 60 69 61 51 62 54 63 68 64
REMARK SMILES IDX 87 65 52 66 53 67 67 69 88 70 55 71 39 72 40 73 48 74 41 75
REMARK SMILES IDX 43 76 49 77 42 78 44 79 45 80 46 81 47 82 71 83 72 84 80 85
REMARK SMILES IDX 73 86 75 87 81 88 74 89 76 90 77 91 78 92 79 93 56 94 57 95
REMARK SMILES IDX 65 96 58 97 60 98 66 99 59 100 61 101 62 102 63 103 64 104
REMARK H PARENT 86 57 54 68
REMARK Flexibility Score: inf
ROOT
ATOM      1  O   UNL A   1      34.792  36.533  32.906  1.00  0.00    -0.377 OA
ENDROOT
BRANCH   1   2
ATOM      2  C   UNL A   1      34.918  35.142  33.119  1.00  0.00     0.188 C 
BRANCH   2   3
ATOM      3  C   UNL A   1      35.891  34.392  32.210  1.00  0.00     0.188 C 
BRANCH   3   4
ATOM      4  O   UNL A   1      37.259  34.741  32.289  1.00  0.00    -0.376 OA
BRANCH   4   5
ATOM      5  C   UNL A   1      38.025  34.655  31.085  1.00  0.00     0.202 C 
BRANCH   5   6
ATOM      6  C   UNL A   1      39.556  34.481  31.179  1.00  0.00     0.261 C 
BRANCH   6   7
ATOM      7  O   UNL A   1      40.196  33.949  29.983  1.00  0.00    -0.462 OA
BRANCH   7   8
ATOM      8  C   UNL A   1      41.393  33.330  30.151  1.00  0.00     0.328 C 
ATOM      9  O   UNL A   1      41.478  32.193  30.615  1.00  0.00    -0.250 OA
BRANCH   8  10
ATOM     10  C   UNL A   1      42.656  34.145  29.726  1.00  0.00     0.193 C 
ATOM     11  N   UNL A   1      43.491  33.492  28.669  1.00  0.00    -0.343 N 
ATOM     12  C   UNL A   1      43.712  34.055  27.341  1.00  0.00     0.119 C 
ATOM     13  C   UNL A   1      43.699  35.569  27.308  1.00  0.00     0.022 C 
ATOM     14  C   UNL A   1      42.506  35.659  29.538  1.00  0.00     0.037 C 
ATOM     15  C   UNL A   1      42.564  36.179  28.110  1.00  0.00     0.005 C 
BRANCH  11  16
ATOM     16  C   UNL A   1      44.519  32.663  29.117  1.00  0.00     0.133 A 
ATOM     17  C   UNL A   1      46.181  32.110  30.710  1.00  0.00     0.072 A 
ATOM     18  C   UNL A   1      45.104  32.888  30.342  1.00  0.00     0.073 A 
ATOM     19  N   UNL A   1      46.588  31.070  29.951  1.00  0.00    -0.230 NA
ATOM     20  C   UNL A   1      45.914  30.875  28.802  1.00  0.00     0.161 A 
ATOM     21  N   UNL A   1      44.921  31.650  28.338  1.00  0.00    -0.211 NA
BRANCH  17  22
ATOM     22  C   UNL A   1      47.004  32.446  31.937  1.00  0.00     0.216 C 
BRANCH  22  23
ATOM     23  O   UNL A   1      47.558  31.305  32.603  1.00  0.00    -0.378 OA
ATOM     24  C   UNL A   1      48.959  31.430  32.845  1.00  0.00     0.195 C 
ENDBRANCH  22  23
ENDBRANCH  17  22
BRANCH  20  25
ATOM     25  C   UNL A   1      46.272  29.709  27.991  1.00  0.00     0.019 A 
ATOM     26  C   UNL A   1      46.429  28.443  28.582  1.00  0.00     0.013 A 
ATOM     27  C   UNL A   1      46.448  29.819  26.601  1.00  0.00     0.013 A 
ATOM     28  C   UNL A   1      46.760  27.325  27.811  1.00  0.00     0.021 A 
ATOM     29  C   UNL A   1      46.797  28.706  25.829  1.00  0.00     0.021 A 
ATOM     30  C   UNL A   1      46.951  27.465  26.439  1.00  0.00     0.041 A 
ATOM     31  Cl  UNL A   1      47.384  26.094  25.493  1.00  0.00    -0.084 Cl
ENDBRANCH  20  25
ENDBRANCH  11  16
ENDBRANCH   8  10
ENDBRANCH   7   8
ENDBRANCH   6   7
ENDBRANCH   5   6
ENDBRANCH   4   5
ENDBRANCH   3   4
ENDBRANCH   2   3
ENDBRANCH   1   2
BRANCH   1  32
ATOM     32  C   UNL A   1      33.584  37.074  32.397  1.00  0.00     0.188 C 
BRANCH  32  33
ATOM     33  C   UNL A   1      33.266  36.823  30.924  1.00  0.00     0.188 C 
BRANCH  33  34
ATOM     34  O   UNL A   1      32.523  35.644  30.585  1.00  0.00    -0.376 OA
BRANCH  34  35
ATOM     35  C   UNL A   1      32.724  35.030  29.314  1.00  0.00     0.202 C 
BRANCH  35  36
ATOM     36  C   UNL A   1      34.179  34.942  28.859  1.00  0.00     0.261 C 
BRANCH  36  37
ATOM     37  O   UNL A   1      34.298  34.177  27.654  1.00  0.00    -0.460 OA
BRANCH  37  38
ATOM     38  C   UNL A   1      34.006  32.865  27.784  1.00  0.00     0.338 C 
ATOM     39  O   UNL A   1      32.927  32.322  27.581  1.00  0.00    -0.246 OA
BRANCH  38  40
ATOM     40  C   UNL A   1      35.242  32.117  28.059  1.00  0.00     0.060 A 
ATOM     41  C   UNL A   1      35.126  30.782  28.466  1.00  0.00     0.016 A 
ATOM     42  C   UNL A   1      36.488  32.747  28.004  1.00  0.00     0.016 A 
ATOM     43  C   UNL A   1      36.248  30.097  28.912  1.00  0.00     0.010 A 
ATOM     44  C   UNL A   1      37.611  32.064  28.464  1.00  0.00     0.010 A 
ATOM     45  C   UNL A   1      37.475  30.765  28.983  1.00  0.00    -0.014 A 
BRANCH  45  46
ATOM     46  C   UNL A   1      38.529  30.214  29.858  1.00  0.00     0.031 A 
ATOM     47  C   UNL A   1      39.554  29.306  29.235  1.00  0.00     0.074 A 
ATOM     48  C   UNL A   1      38.589  30.540  31.158  1.00  0.00     0.049 A 
ATOM     49  N   UNL A   1      40.562  28.687  29.787  1.00  0.00    -0.248 NA
ATOM     50  C   UNL A   1      39.418  29.059  27.788  1.00  0.00     0.031 C 
ATOM     51  C   UNL A   1      37.666  31.439  31.847  1.00  0.00     0.029 A 
ATOM     52  N   UNL A   1      39.465  30.138  32.129  1.00  0.00    -0.354 N 
ATOM     53  C   UNL A   1      41.158  27.954  28.768  1.00  0.00     0.074 A 
ATOM     54  C   UNL A   1      40.384  28.183  27.569  1.00  0.00     0.031 C 
ATOM     55  C   UNL A   1      38.018  31.508  33.143  1.00  0.00     0.029 A 
ATOM     56  C   UNL A   1      39.169  30.639  33.373  1.00  0.00     0.049 A 
ATOM     57  H   UNL A   1      40.232  29.545  31.953  1.00  0.00     0.167 HD
ATOM     58  C   UNL A   1      42.263  27.174  28.820  1.00  0.00     0.034 A 
ATOM     59  C   UNL A   1      39.761  30.405  34.559  1.00  0.00     0.034 A 
ATOM     60  C   UNL A   1      43.024  26.960  30.019  1.00  0.00     0.049 A 
ATOM     61  C   UNL A   1      40.959  29.493  34.605  1.00  0.00     0.074 A 
ATOM     62  C   UNL A   1      44.170  26.206  30.193  1.00  0.00     0.029 A 
ATOM     63  N   UNL A   1      42.701  27.492  31.260  1.00  0.00    -0.354 N 
ATOM     64  N   UNL A   1      41.561  28.864  33.622  1.00  0.00    -0.248 NA
ATOM     65  C   UNL A   1      41.582  29.287  35.919  1.00  0.00     0.031 C 
ATOM     66  C   UNL A   1      44.517  26.252  31.547  1.00  0.00     0.029 A 
ATOM     67  C   UNL A   1      43.618  27.077  32.207  1.00  0.00     0.049 A 
ATOM     68  H   UNL A   1      41.931  28.079  31.439  1.00  0.00     0.167 HD
ATOM     69  C   UNL A   1      42.663  28.234  34.189  1.00  0.00     0.074 A 
ATOM     70  C   UNL A   1      42.646  28.562  35.601  1.00  0.00     0.031 C 
ATOM     71  C   UNL A   1      43.606  27.456  33.599  1.00  0.00     0.034 A 
BRANCH  58  72
ATOM     72  C   UNL A   1      42.694  26.501  27.541  1.00  0.00     0.023 A 
ATOM     73  C   UNL A   1      43.316  27.253  26.522  1.00  0.00     0.012 A 
ATOM     74  C   UNL A   1      42.475  25.125  27.342  1.00  0.00     0.148 A 
ATOM     75  C   UNL A   1      43.659  26.660  25.306  1.00  0.00     0.002 A 
ATOM     76  C   UNL A   1      42.870  24.528  26.150  1.00  0.00     0.091 A 
ATOM     77  F   UNL A   1      41.860  24.428  28.308  1.00  0.00    -0.205 F 
ATOM     78  C   UNL A   1      43.444  25.298  25.125  1.00  0.00     0.022 A 
BRANCH  76  79
ATOM     79  S   UNL A   1      42.709  22.765  25.853  1.00  0.00     0.127 S 
ATOM     80  O   UNL A   1      43.196  22.651  24.478  1.00  0.00    -0.237 OA
ATOM     81  O   UNL A   1      43.603  22.201  26.864  1.00  0.00    -0.237 OA
ATOM     82  O   UNL A   1      41.301  22.453  26.047  1.00  0.00    -0.744 OA
ENDBRANCH  76  79
ENDBRANCH  58  72
BRANCH  59  83
ATOM     83  C   UNL A   1      39.266  31.092  35.783  1.00  0.00     0.023 A 
ATOM     84  C   UNL A   1      38.255  30.485  36.554  1.00  0.00     0.012 A 
ATOM     85  C   UNL A   1      39.808  32.322  36.203  1.00  0.00     0.148 A 
ATOM     86  C   UNL A   1      37.775  31.104  37.707  1.00  0.00     0.002 A 
ATOM     87  C   UNL A   1      39.363  32.906  37.382  1.00  0.00     0.091 A 
ATOM     88  F   UNL A   1      40.765  32.882  35.450  1.00  0.00    -0.205 F 
ATOM     89  C   UNL A   1      38.334  32.308  38.126  1.00  0.00     0.022 A 
BRANCH  87  90
ATOM     90  S   UNL A   1      40.103  34.393  38.066  1.00  0.00     0.127 S 
ATOM     91  O   UNL A   1      40.461  35.133  36.859  1.00  0.00    -0.237 OA
ATOM     92  O   UNL A   1      38.988  34.956  38.827  1.00  0.00    -0.237 OA
ATOM     93  O   UNL A   1      41.223  33.941  38.880  1.00  0.00    -0.744 OA
ENDBRANCH  87  90
ENDBRANCH  59  83
BRANCH  71  94
ATOM     94  C   UNL A   1      44.740  26.962  34.460  1.00  0.00     0.023 A 
ATOM     95  C   UNL A   1      45.854  27.785  34.716  1.00  0.00     0.012 A 
ATOM     96  C   UNL A   1      44.661  25.694  35.070  1.00  0.00     0.148 A 
ATOM     97  C   UNL A   1      46.892  27.336  35.532  1.00  0.00     0.002 A 
ATOM     98  C   UNL A   1      45.671  25.277  35.927  1.00  0.00     0.091 A 
ATOM     99  F   UNL A   1      43.602  24.918  34.800  1.00  0.00    -0.205 F 
ATOM    100  C   UNL A   1      46.795  26.089  36.147  1.00  0.00     0.022 A 
BRANCH  98 101
ATOM    101  S   UNL A   1      45.578  23.735  36.843  1.00  0.00     0.127 S 
ATOM    102  O   UNL A   1      44.906  22.860  35.884  1.00  0.00    -0.237 OA
ATOM    103  O   UNL A   1      46.989  23.424  37.069  1.00  0.00    -0.237 OA
ATOM    104  O   UNL A   1      44.824  24.032  38.054  1.00  0.00    -0.744 OA
ENDBRANCH  98 101
ENDBRANCH  71  94
ENDBRANCH  45  46
ENDBRANCH  38  40
ENDBRANCH  37  38
ENDBRANCH  36  37
ENDBRANCH  35  36
ENDBRANCH  34  35
ENDBRANCH  33  34
ENDBRANCH  32  33
ENDBRANCH   1  32
TORSDOF 27
ENDMDL
MODEL 2
REMARK VINA RESULT:      -7.0      2.293      3.768
REMARK SMILES COCc1cc(N2CCCC[C@H]2C(=O)OCCOCCOCCOCCOC(=O)c2ccc(-c3c4nc(c(-c5cccc(S(=O)(=O)[O-])c5F)c5ccc([nH]5)c(-c5cccc(S(=O)(=O)[O-])c5F)c5nc(c(-c6cccc(S(=O)(=O)[O-])c6F)c6ccc3[nH]6)C=C5)C=C4)cc2)nc(-c2ccc(Cl)cc2)n1
REMARK SMILES IDX 21 1 20 2 19 3 18 4 17 5 16 6 15 7 13 8 14 9 12 10 7 11 8 12
REMARK SMILES IDX 9 13 11 14 10 15 6 16 4 17 5 18 102 19 94 20 93 21 3 22 2 23
REMARK SMILES IDX 1 24 95 25 96 26 101 27 97 28 100 29 98 30 99 31 22 32 23 33
REMARK SMILES IDX 24 34 25 35 26 36 27 37 28 38 29 39 30 40 31 41 92 42 32 43
REMARK SMILES IDX 91 44 33 45 34 46 35 47 85 48 36 49 90 50 84 51 86 52 37 53
REMARK SMILES IDX 89 54 83 55 82 56 38 58 70 59 50 60 69 61 51 62 54 63 68 64
REMARK SMILES IDX 87 65 52 66 53 67 67 69 88 70 55 71 39 72 40 73 48 74 41 75
REMARK SMILES IDX 43 76 49 77 42 78 44 79 45 80 46 81 47 82 71 83 72 84 80 85
REMARK SMILES IDX 73 86 75 87 81 88 74 89 76 90 77 91 78 92 79 93 56 94 57 95
REMARK SMILES IDX 65 96 58 97 60 98 66 99 59 100 61 101 62 102 63 103 64 104
REMARK H PARENT 86 57 54 68
REMARK Flexibility Score: inf
ROOT
ATOM      1  O   UNL A   1      34.062  36.769  31.885  1.00  0.00    -0.377 OA
ENDROOT
BRANCH   1   2
ATOM      2  C   UNL A   1      34.137  35.927  33.016  1.00  0.00     0.188 C 
BRANCH   2   3
ATOM      3  C   UNL A   1      35.484  35.258  33.288  1.00  0.00     0.188 C 
BRANCH   3   4
ATOM      4  O   UNL A   1      36.155  34.669  32.191  1.00  0.00    -0.376 OA
BRANCH   4   5
ATOM      5  C   UNL A   1      37.545  34.379  32.356  1.00  0.00     0.202 C 
BRANCH   5   6
ATOM      6  C   UNL A   1      38.498  34.562  31.156  1.00  0.00     0.261 C 
BRANCH   6   7
ATOM      7  O   UNL A   1      39.623  33.637  31.108  1.00  0.00    -0.462 OA
BRANCH   7   8
ATOM      8  C   UNL A   1      40.748  34.004  31.774  1.00  0.00     0.328 C 
ATOM      9  O   UNL A   1      40.755  34.944  32.570  1.00  0.00    -0.250 OA
BRANCH   8  10
ATOM     10  C   UNL A   1      42.032  33.170  31.470  1.00  0.00     0.193 C 
ATOM     11  N   UNL A   1      43.257  33.989  31.201  1.00  0.00    -0.343 N 
ATOM     12  C   UNL A   1      44.454  33.964  32.036  1.00  0.00     0.119 C 
ATOM     13  C   UNL A   1      44.705  32.630  32.707  1.00  0.00     0.022 C 
ATOM     14  C   UNL A   1      42.304  31.927  32.325  1.00  0.00     0.037 C 
ATOM     15  C   UNL A   1      43.457  32.017  33.314  1.00  0.00     0.005 C 
BRANCH  11  16
ATOM     16  C   UNL A   1      43.496  34.325  29.869  1.00  0.00     0.133 A 
ATOM     17  C   UNL A   1      43.978  33.705  27.636  1.00  0.00     0.072 A 
ATOM     18  C   UNL A   1      43.647  33.338  28.923  1.00  0.00     0.073 A 
ATOM     19  N   UNL A   1      44.038  35.003  27.270  1.00  0.00    -0.230 NA
ATOM     20  C   UNL A   1      43.806  35.905  28.241  1.00  0.00     0.161 A 
ATOM     21  N   UNL A   1      43.573  35.620  29.532  1.00  0.00    -0.211 NA
BRANCH  17  22
ATOM     22  C   UNL A   1      44.373  32.666  26.606  1.00  0.00     0.216 C 
BRANCH  22  23
ATOM     23  O   UNL A   1      45.631  32.919  25.970  1.00  0.00    -0.378 OA
ATOM     24  C   UNL A   1      46.711  32.206  26.572  1.00  0.00     0.195 C 
ENDBRANCH  22  23
ENDBRANCH  17  22
BRANCH  20  25
ATOM     25  C   UNL A   1      43.782  37.320  27.866  1.00  0.00     0.019 A 
ATOM     26  C   UNL A   1      42.830  38.195  28.417  1.00  0.00     0.013 A 
ATOM     27  C   UNL A   1      44.721  37.846  26.961  1.00  0.00     0.013 A 
ATOM     28  C   UNL A   1      42.809  39.549  28.070  1.00  0.00     0.021 A 
ATOM     29  C   UNL A   1      44.693  39.196  26.597  1.00  0.00     0.021 A 
ATOM     30  C   UNL A   1      43.736  40.040  27.154  1.00  0.00     0.041 A 
ATOM     31  Cl  UNL A   1      43.695  41.701  26.705  1.00  0.00    -0.084 Cl
ENDBRANCH  20  25
ENDBRANCH  11  16
ENDBRANCH   8  10
ENDBRANCH   7   8
ENDBRANCH   6   7
ENDBRANCH   5   6
ENDBRANCH   4   5
ENDBRANCH   3   4
ENDBRANCH   2   3
ENDBRANCH   1   2
BRANCH   1  32
ATOM     32  C   UNL A   1      33.016  36.610  30.940  1.00  0.00     0.188 C 
BRANCH  32  33
ATOM     33  C   UNL A   1      33.072  35.385  30.029  1.00  0.00     0.188 C 
BRANCH  33  34
ATOM     34  O   UNL A   1      33.545  34.151  30.586  1.00  0.00    -0.376 OA
BRANCH  34  35
ATOM     35  C   UNL A   1      34.086  33.154  29.722  1.00  0.00     0.202 C 
BRANCH  35  36
ATOM     36  C   UNL A   1      34.922  33.687  28.561  1.00  0.00     0.261 C 
BRANCH  36  37
ATOM     37  O   UNL A   1      34.629  32.982  27.348  1.00  0.00    -0.460 OA
BRANCH  37  38
ATOM     38  C   UNL A   1      34.342  31.673  27.508  1.00  0.00     0.338 C 
ATOM     39  O   UNL A   1      33.293  31.105  27.229  1.00  0.00    -0.246 OA
BRANCH  38  40
ATOM     40  C   UNL A   1      35.555  30.957  27.929  1.00  0.00     0.060 A 
ATOM     41  C   UNL A   1      35.400  29.782  28.676  1.00  0.00     0.016 A 
ATOM     42  C   UNL A   1      36.823  31.484  27.672  1.00  0.00     0.016 A 
ATOM     43  C   UNL A   1      36.510  29.177  29.249  1.00  0.00     0.010 A 
ATOM     44  C   UNL A   1      37.935  30.885  28.259  1.00  0.00     0.010 A 
ATOM     45  C   UNL A   1      37.767  29.775  29.104  1.00  0.00    -0.014 A 
BRANCH  45  46
ATOM     46  C   UNL A   1      38.834  29.414  30.058  1.00  0.00     0.031 A 
ATOM     47  C   UNL A   1      39.931  28.508  29.574  1.00  0.00     0.074 A 
ATOM     48  C   UNL A   1      38.841  29.908  31.306  1.00  0.00     0.049 A 
ATOM     49  N   UNL A   1      40.966  28.036  30.216  1.00  0.00    -0.248 NA
ATOM     50  C   UNL A   1      39.847  28.068  28.169  1.00  0.00     0.031 C 
ATOM     51  C   UNL A   1      37.844  30.821  31.859  1.00  0.00     0.029 A 
ATOM     52  N   UNL A   1      39.719  29.695  32.334  1.00  0.00    -0.354 N 
ATOM     53  C   UNL A   1      41.633  27.221  29.309  1.00  0.00     0.074 A 
ATOM     54  C   UNL A   1      40.874  27.240  28.079  1.00  0.00     0.031 C 
ATOM     55  C   UNL A   1      38.159  31.080  33.140  1.00  0.00     0.029 A 
ATOM     56  C   UNL A   1      39.360  30.329  33.498  1.00  0.00     0.049 A 
ATOM     57  H   UNL A   1      40.527  29.139  32.248  1.00  0.00     0.167 HD
ATOM     58  C   UNL A   1      42.786  26.533  29.478  1.00  0.00     0.034 A 
ATOM     59  C   UNL A   1      39.938  30.291  34.713  1.00  0.00     0.034 A 
ATOM     60  C   UNL A   1      43.530  26.527  30.707  1.00  0.00     0.049 A 
ATOM     61  C   UNL A   1      41.193  29.477  34.894  1.00  0.00     0.074 A 
ATOM     62  C   UNL A   1      44.720  25.883  30.994  1.00  0.00     0.029 A 
ATOM     63  N   UNL A   1      43.144  27.190  31.863  1.00  0.00    -0.354 N 
ATOM     64  N   UNL A   1      41.859  28.771  34.010  1.00  0.00    -0.248 NA
ATOM     65  C   UNL A   1      41.797  29.486  36.233  1.00  0.00     0.031 C 
ATOM     66  C   UNL A   1      45.031  26.126  32.335  1.00  0.00     0.029 A 
ATOM     67  C   UNL A   1      44.064  26.964  32.870  1.00  0.00     0.049 A 
ATOM     68  H   UNL A   1      42.332  27.740  31.953  1.00  0.00     0.167 HD
ATOM     69  C   UNL A   1      42.987  28.297  34.671  1.00  0.00     0.074 A 
ATOM     70  C   UNL A   1      42.914  28.801  36.028  1.00  0.00     0.031 C 
ATOM     71  C   UNL A   1      43.993  27.517  34.200  1.00  0.00     0.034 A 
BRANCH  58  72
ATOM     72  C   UNL A   1      43.291  25.732  28.304  1.00  0.00     0.023 A 
ATOM     73  C   UNL A   1      44.238  26.294  27.422  1.00  0.00     0.012 A 
ATOM     74  C   UNL A   1      42.822  24.427  28.067  1.00  0.00     0.148 A 
ATOM     75  C   UNL A   1      44.665  25.594  26.293  1.00  0.00     0.002 A 
ATOM     76  C   UNL A   1      43.293  23.713  26.970  1.00  0.00     0.091 A 
ATOM     77  F   UNL A   1      41.904  23.915  28.898  1.00  0.00    -0.205 F 
ATOM     78  C   UNL A   1      44.199  24.302  26.073  1.00  0.00     0.022 A 
BRANCH  76  79
ATOM     79  S   UNL A   1      42.815  22.013  26.647  1.00  0.00     0.127 S 
ATOM     80  O   UNL A   1      41.721  22.190  25.693  1.00  0.00    -0.237 OA
ATOM     81  O   UNL A   1      44.039  21.453  26.074  1.00  0.00    -0.237 OA
ATOM     82  O   UNL A   1      42.437  21.451  27.936  1.00  0.00    -0.744 OA
ENDBRANCH  76  79
ENDBRANCH  58  72
BRANCH  59  83
ATOM     83  C   UNL A   1      39.369  31.093  35.830  1.00  0.00     0.023 A 
ATOM     84  C   UNL A   1      38.346  30.541  36.625  1.00  0.00     0.012 A 
ATOM     85  C   UNL A   1      39.854  32.382  36.128  1.00  0.00     0.148 A 
ATOM     86  C   UNL A   1      37.797  31.268  37.680  1.00  0.00     0.002 A 
ATOM     87  C   UNL A   1      39.340  33.078  37.214  1.00  0.00     0.091 A 
ATOM     88  F   UNL A   1      40.825  32.888  35.355  1.00  0.00    -0.205 F 
ATOM     89  C   UNL A   1      38.299  32.531  37.981  1.00  0.00     0.022 A 
BRANCH  87  90
ATOM     90  S   UNL A   1      40.003  34.658  37.753  1.00  0.00     0.127 S 
ATOM     91  O   UNL A   1      41.403  34.327  38.003  1.00  0.00    -0.237 OA
ATOM     92  O   UNL A   1      39.767  35.496  36.576  1.00  0.00    -0.237 OA
ATOM     93  O   UNL A   1      39.228  35.035  38.927  1.00  0.00    -0.744 OA
ENDBRANCH  87  90
ENDBRANCH  59  83
BRANCH  71  94
ATOM     94  C   UNL A   1      45.136  27.217  35.135  1.00  0.00     0.023 A 
ATOM     95  C   UNL A   1      46.182  28.145  35.307  1.00  0.00     0.012 A 
ATOM     96  C   UNL A   1      45.133  26.030  35.895  1.00  0.00     0.148 A 
ATOM     97  C   UNL A   1      47.228  27.877  36.190  1.00  0.00     0.002 A 
ATOM     98  C   UNL A   1      46.148  25.797  36.814  1.00  0.00     0.091 A 
ATOM     99  F   UNL A   1      44.140  25.150  35.705  1.00  0.00    -0.205 F 
ATOM    100  C   UNL A   1      47.205  26.711  36.951  1.00  0.00     0.022 A 
BRANCH  98 101
ATOM    101  S   UNL A   1      46.141  24.375  37.912  1.00  0.00     0.127 S 
ATOM    102  O   UNL A   1      46.100  23.266  36.961  1.00  0.00    -0.237 OA
ATOM    103  O   UNL A   1      47.413  24.525  38.619  1.00  0.00    -0.237 OA
ATOM    104  O   UNL A   1      44.962  24.522  38.753  1.00  0.00    -0.744 OA
ENDBRANCH  98 101
ENDBRANCH  71  94
ENDBRANCH  45  46
ENDBRANCH  38  40
ENDBRANCH  37  38
ENDBRANCH  36  37
ENDBRANCH  35  36
ENDBRANCH  34  35
ENDBRANCH  33  34
ENDBRANCH  32  33
ENDBRANCH   1  32
TORSDOF 27
ENDMDL
MODEL 3
REMARK VINA RESULT:      -6.6      3.838     11.787
REMARK SMILES COCc1cc(N2CCCC[C@H]2C(=O)OCCOCCOCCOCCOC(=O)c2ccc(-c3c4nc(c(-c5cccc(S(=O)(=O)[O-])c5F)c5ccc([nH]5)c(-c5cccc(S(=O)(=O)[O-])c5F)c5nc(c(-c6cccc(S(=O)(=O)[O-])c6F)c6ccc3[nH]6)C=C5)C=C4)cc2)nc(-c2ccc(Cl)cc2)n1
REMARK SMILES IDX 21 1 20 2 19 3 18 4 17 5 16 6 15 7 13 8 14 9 12 10 7 11 8 12
REMARK SMILES IDX 9 13 11 14 10 15 6 16 4 17 5 18 102 19 94 20 93 21 3 22 2 23
REMARK SMILES IDX 1 24 95 25 96 26 101 27 97 28 100 29 98 30 99 31 22 32 23 33
REMARK SMILES IDX 24 34 25 35 26 36 27 37 28 38 29 39 30 40 31 41 92 42 32 43
REMARK SMILES IDX 91 44 33 45 34 46 35 47 85 48 36 49 90 50 84 51 86 52 37 53
REMARK SMILES IDX 89 54 83 55 82 56 38 58 70 59 50 60 69 61 51 62 54 63 68 64
REMARK SMILES IDX 87 65 52 66 53 67 67 69 88 70 55 71 39 72 40 73 48 74 41 75
REMARK SMILES IDX 43 76 49 77 42 78 44 79 45 80 46 81 47 82 71 83 72 84 80 85
REMARK SMILES IDX 73 86 75 87 81 88 74 89 76 90 77 91 78 92 79 93 56 94 57 95
REMARK SMILES IDX 65 96 58 97 60 98 66 99 59 100 61 101 62 102 63 103 64 104
REMARK H PARENT 86 57 54 68
REMARK Flexibility Score: inf
ROOT
ATOM      1  O   UNL A   1      50.419  26.161  31.648  1.00  0.00    -0.377 OA
ENDROOT
BRANCH   1   2
ATOM      2  C   UNL A   1      50.133  25.127  30.729  1.00  0.00     0.188 C 
BRANCH   2   3
ATOM      3  C   UNL A   1      49.347  25.515  29.477  1.00  0.00     0.188 C 
BRANCH   3   4
ATOM      4  O   UNL A   1      47.996  25.899  29.647  1.00  0.00    -0.376 OA
BRANCH   4   5
ATOM      5  C   UNL A   1      47.591  27.137  29.059  1.00  0.00     0.202 C 
BRANCH   5   6
ATOM      6  C   UNL A   1      46.284  27.805  29.538  1.00  0.00     0.261 C 
BRANCH   6   7
ATOM      7  O   UNL A   1      45.365  26.931  30.255  1.00  0.00    -0.462 OA
BRANCH   7   8
ATOM      8  C   UNL A   1      44.038  27.144  30.061  1.00  0.00     0.328 C 
ATOM      9  O   UNL A   1      43.189  26.702  30.834  1.00  0.00    -0.250 OA
BRANCH   8  10
ATOM     10  C   UNL A   1      43.651  27.978  28.799  1.00  0.00     0.193 C 
ATOM     11  N   UNL A   1      43.053  27.177  27.684  1.00  0.00    -0.343 N 
ATOM     12  C   UNL A   1      41.692  27.358  27.189  1.00  0.00     0.119 C 
ATOM     13  C   UNL A   1      41.182  28.779  27.308  1.00  0.00     0.022 C 
ATOM     14  C   UNL A   1      42.969  29.334  29.012  1.00  0.00     0.037 C 
ATOM     15  C   UNL A   1      41.494  29.421  28.647  1.00  0.00     0.005 C 
BRANCH  11  16
ATOM     16  C   UNL A   1      43.943  26.674  26.736  1.00  0.00     0.133 A 
ATOM     17  C   UNL A   1      45.623  27.002  25.100  1.00  0.00     0.072 A 
ATOM     18  C   UNL A   1      44.825  27.517  26.100  1.00  0.00     0.073 A 
ATOM     19  N   UNL A   1      45.637  25.681  24.824  1.00  0.00    -0.230 NA
ATOM     20  C   UNL A   1      44.796  24.915  25.544  1.00  0.00     0.161 A 
ATOM     21  N   UNL A   1      43.926  25.362  26.463  1.00  0.00    -0.211 NA
BRANCH  17  22
ATOM     22  C   UNL A   1      46.450  27.913  24.215  1.00  0.00     0.216 C 
BRANCH  22  23
ATOM     23  O   UNL A   1      46.855  29.133  24.845  1.00  0.00    -0.378 OA
ATOM     24  C   UNL A   1      47.838  28.935  25.860  1.00  0.00     0.195 C 
ENDBRANCH  22  23
ENDBRANCH  17  22
BRANCH  20  25
ATOM     25  C   UNL A   1      44.841  23.467  25.331  1.00  0.00     0.019 A 
ATOM     26  C   UNL A   1      46.023  22.839  24.901  1.00  0.00     0.013 A 
ATOM     27  C   UNL A   1      43.712  22.664  25.568  1.00  0.00     0.013 A 
ATOM     28  C   UNL A   1      46.074  21.456  24.707  1.00  0.00     0.021 A 
ATOM     29  C   UNL A   1      43.753  21.282  25.357  1.00  0.00     0.021 A 
ATOM     30  C   UNL A   1      44.935  20.686  24.926  1.00  0.00     0.041 A 
ATOM     31  Cl  UNL A   1      44.989  18.986  24.662  1.00  0.00    -0.084 Cl
ENDBRANCH  20  25
ENDBRANCH  11  16
ENDBRANCH   8  10
ENDBRANCH   7   8
ENDBRANCH   6   7
ENDBRANCH   5   6
ENDBRANCH   4   5
ENDBRANCH   3   4
ENDBRANCH   2   3
ENDBRANCH   1   2
BRANCH   1  32
ATOM     32  C   UNL A   1      49.819  26.164  32.933  1.00  0.00     0.188 C 
BRANCH  32  33
ATOM     33  C   UNL A   1      48.854  25.026  33.261  1.00  0.00     0.188 C 
BRANCH  33  34
ATOM     34  O   UNL A   1      49.355  23.910  34.009  1.00  0.00    -0.376 OA
BRANCH  34  35
ATOM     35  C   UNL A   1      48.499  23.245  34.935  1.00  0.00     0.202 C 
BRANCH  35  36
ATOM     36  C   UNL A   1      47.554  24.156  35.714  1.00  0.00     0.261 C 
BRANCH  36  37
ATOM     37  O   UNL A   1      46.184  23.844  35.431  1.00  0.00    -0.460 OA
BRANCH  37  38
ATOM     38  C   UNL A   1      45.292  24.379  36.291  1.00  0.00     0.338 C 
ATOM     39  O   UNL A   1      45.091  24.046  37.452  1.00  0.00    -0.246 OA
BRANCH  38  40
ATOM     40  C   UNL A   1      44.677  25.566  35.678  1.00  0.00     0.060 A 
ATOM     41  C   UNL A   1      44.118  25.433  34.400  1.00  0.00     0.016 A 
ATOM     42  C   UNL A   1      44.733  26.809  36.312  1.00  0.00     0.016 A 
ATOM     43  C   UNL A   1      43.696  26.561  33.711  1.00  0.00     0.010 A 
ATOM     44  C   UNL A   1      44.321  27.943  35.615  1.00  0.00     0.010 A 
ATOM     45  C   UNL A   1      43.870  27.822  34.290  1.00  0.00    -0.014 A 
BRANCH  45  46
ATOM     46  C   UNL A   1      43.857  29.010  33.412  1.00  0.00     0.031 A 
ATOM     47  C   UNL A   1      42.530  29.659  33.130  1.00  0.00     0.074 A 
ATOM     48  C   UNL A   1      44.996  29.511  32.910  1.00  0.00     0.049 A 
ATOM     49  N   UNL A   1      42.252  30.695  32.385  1.00  0.00    -0.248 NA
ATOM     50  C   UNL A   1      41.352  29.051  33.776  1.00  0.00     0.031 C 
ATOM     51  C   UNL A   1      46.334  28.977  33.153  1.00  0.00     0.029 A 
ATOM     52  N   UNL A   1      45.199  30.581  32.081  1.00  0.00    -0.354 N 
ATOM     53  C   UNL A   1      40.871  30.841  32.445  1.00  0.00     0.074 A 
ATOM     54  C   UNL A   1      40.364  29.774  33.277  1.00  0.00     0.031 C 
ATOM     55  C   UNL A   1      47.225  29.717  32.470  1.00  0.00     0.029 A 
ATOM     56  C   UNL A   1      46.514  30.753  31.726  1.00  0.00     0.049 A 
ATOM     57  H   UNL A   1      44.473  31.168  31.769  1.00  0.00     0.167 HD
ATOM     58  C   UNL A   1      40.095  31.792  31.874  1.00  0.00     0.034 A 
ATOM     59  C   UNL A   1      47.069  31.644  30.883  1.00  0.00     0.034 A 
ATOM     60  C   UNL A   1      40.616  32.849  31.051  1.00  0.00     0.049 A 
ATOM     61  C   UNL A   1      46.181  32.663  30.216  1.00  0.00     0.074 A 
ATOM     62  C   UNL A   1      39.932  33.879  30.433  1.00  0.00     0.029 A 
ATOM     63  N   UNL A   1      41.955  33.000  30.721  1.00  0.00    -0.354 N 
ATOM     64  N   UNL A   1      44.886  32.841  30.339  1.00  0.00    -0.248 NA
ATOM     65  C   UNL A   1      46.838  33.626  29.323  1.00  0.00     0.031 C 
ATOM     66  C   UNL A   1      40.854  34.630  29.696  1.00  0.00     0.029 A 
ATOM     67  C   UNL A   1      42.120  34.099  29.899  1.00  0.00     0.049 A 
ATOM     68  H   UNL A   1      42.682  32.410  31.027  1.00  0.00     0.167 HD
ATOM     69  C   UNL A   1      44.582  33.968  29.583  1.00  0.00     0.074 A 
ATOM     70  C   UNL A   1      45.831  34.431  29.011  1.00  0.00     0.031 C 
ATOM     71  C   UNL A   1      43.382  34.568  29.380  1.00  0.00     0.034 A 
BRANCH  58  72
ATOM     72  C   UNL A   1      38.610  31.712  32.122  1.00  0.00     0.023 A 
ATOM     73  C   UNL A   1      37.843  30.704  31.499  1.00  0.00     0.012 A 
ATOM     74  C   UNL A   1      37.969  32.641  32.963  1.00  0.00     0.148 A 
ATOM     75  C   UNL A   1      36.459  30.657  31.663  1.00  0.00     0.002 A 
ATOM     76  C   UNL A   1      36.596  32.554  33.167  1.00  0.00     0.091 A 
ATOM     77  F   UNL A   1      38.705  33.607  33.528  1.00  0.00    -0.205 F 
ATOM     78  C   UNL A   1      35.838  31.576  32.503  1.00  0.00     0.022 A 
BRANCH  76  79
ATOM     79  S   UNL A   1      35.717  33.641  34.293  1.00  0.00     0.127 S 
ATOM     80  O   UNL A   1      34.324  33.295  34.012  1.00  0.00    -0.237 OA
ATOM     81  O   UNL A   1      36.205  33.192  35.597  1.00  0.00    -0.237 OA
ATOM     82  O   UNL A   1      36.111  34.995  33.932  1.00  0.00    -0.744 OA
ENDBRANCH  76  79
ENDBRANCH  58  72
BRANCH  59  83
ATOM     83  C   UNL A   1      48.542  31.649  30.674  1.00  0.00     0.023 A 
ATOM     84  C   UNL A   1      49.369  32.317  31.598  1.00  0.00     0.012 A 
ATOM     85  C   UNL A   1      49.130  30.971  29.587  1.00  0.00     0.148 A 
ATOM     86  C   UNL A   1      50.753  32.334  31.429  1.00  0.00     0.002 A 
ATOM     87  C   UNL A   1      50.513  30.947  29.455  1.00  0.00     0.091 A 
ATOM     88  F   UNL A   1      48.323  30.347  28.719  1.00  0.00    -0.205 F 
ATOM     89  C   UNL A   1      51.325  31.643  30.365  1.00  0.00     0.022 A 
BRANCH  87  90
ATOM     90  S   UNL A   1      51.348  29.986  28.189  1.00  0.00     0.127 S 
ATOM     91  O   UNL A   1      50.946  30.682  26.969  1.00  0.00    -0.237 OA
ATOM     92  O   UNL A   1      52.752  30.157  28.564  1.00  0.00    -0.237 OA
ATOM     93  O   UNL A   1      50.848  28.625  28.328  1.00  0.00    -0.744 OA
ENDBRANCH  87  90
ENDBRANCH  59  83
BRANCH  71  94
ATOM     94  C   UNL A   1      43.365  35.833  28.563  1.00  0.00     0.023 A 
ATOM     95  C   UNL A   1      42.972  35.805  27.210  1.00  0.00     0.012 A 
ATOM     96  C   UNL A   1      43.680  37.068  29.166  1.00  0.00     0.148 A 
ATOM     97  C   UNL A   1      42.934  36.980  26.459  1.00  0.00     0.002 A 
ATOM     98  C   UNL A   1      43.584  38.240  28.428  1.00  0.00     0.091 A 
ATOM     99  F   UNL A   1      44.068  37.072  30.449  1.00  0.00    -0.205 F 
ATOM    100  C   UNL A   1      43.228  38.198  27.071  1.00  0.00     0.022 A 
BRANCH  98 101
ATOM    101  S   UNL A   1      43.839  39.860  29.162  1.00  0.00     0.127 S 
ATOM    102  O   UNL A   1      45.289  39.879  29.343  1.00  0.00    -0.237 OA
ATOM    103  O   UNL A   1      43.343  40.754  28.116  1.00  0.00    -0.237 OA
ATOM    104  O   UNL A   1      43.055  39.873  30.389  1.00  0.00    -0.744 OA
ENDBRANCH  98 101
ENDBRANCH  71  94
ENDBRANCH  45  46
ENDBRANCH  38  40
ENDBRANCH  37  38
ENDBRANCH  36  37
ENDBRANCH  35  36
ENDBRANCH  34  35
ENDBRANCH  33  34
ENDBRANCH  32  33
ENDBRANCH   1  32
TORSDOF 27
ENDMDL
