MODEL 1
REMARK VINA RESULT:      -6.6      0.000      0.000
REMARK SMILES O=C(Cn1c2ccccc2c(=O)c2ccccc21)N[C@@H](Cc1ccccc1)C(=O)OCCOCCOCCOCCOC(=O)c1ccc(-c2c3nc(c(-c4cccc(S(=O)(=O)[O-])c4F)c4ccc([nH]4)c(-c4cccc(S(=O)(=O)[O-])c4F)c4nc(c(-c5cccc(S(=O)(=O)[O-])c5F)c5ccc2[nH]5)C=C4)C=C3)cc1
REMARK SMILES IDX 36 1 35 2 34 3 33 4 32 5 31 6 30 7 28 8 29 9 20 10 19 11
REMARK SMILES IDX 1 12 2 13 3 15 4 16 5 17 18 18 6 19 10 20 13 21 17 22 7 23
REMARK SMILES IDX 9 24 11 25 14 26 16 27 8 28 12 29 15 30 21 31 22 32 23 33
REMARK SMILES IDX 27 34 24 35 26 36 25 37 37 38 38 39 39 40 40 41 41 42 42 43
REMARK SMILES IDX 43 44 44 45 45 46 46 47 107 48 47 49 106 50 48 51 49 52
REMARK SMILES IDX 50 53 100 54 51 55 105 56 99 57 101 58 52 59 104 60 98 61
REMARK SMILES IDX 97 62 53 64 85 65 65 66 84 67 66 68 69 69 83 70 102 71 67 72
REMARK SMILES IDX 68 73 82 75 103 76 70 77 54 78 55 79 63 80 56 81 58 82 64 83
REMARK SMILES IDX 57 84 59 85 60 86 61 87 62 88 86 89 87 90 95 91 88 92 90 93
REMARK SMILES IDX 96 94 89 95 91 96 92 97 93 98 94 99 71 100 72 101 80 102
REMARK SMILES IDX 73 103 75 104 81 105 74 106 76 107 77 108 78 109 79 110
REMARK H PARENT 19 14 101 63 69 74
REMARK Flexibility Score: inf
ROOT
ATOM      1  O   UNL A   1      43.448  23.583  29.630  1.00  0.00    -0.377 OA
ENDROOT
BRANCH   1   2
ATOM      2  C   UNL A   1      43.037  23.099  28.368  1.00  0.00     0.188 C 
BRANCH   2   3
ATOM      3  C   UNL A   1      41.733  23.743  27.879  1.00  0.00     0.188 C 
BRANCH   3   4
ATOM      4  O   UNL A   1      41.729  24.672  26.790  1.00  0.00    -0.376 OA
BRANCH   4   5
ATOM      5  C   UNL A   1      42.557  24.406  25.670  1.00  0.00     0.202 C 
BRANCH   5   6
ATOM      6  C   UNL A   1      43.417  25.591  25.226  1.00  0.00     0.261 C 
BRANCH   6   7
ATOM      7  O   UNL A   1      43.393  26.711  26.142  1.00  0.00    -0.462 OA
BRANCH   7   8
ATOM      8  C   UNL A   1      42.641  27.781  25.782  1.00  0.00     0.329 C 
ATOM      9  O   UNL A   1      42.522  28.165  24.620  1.00  0.00    -0.250 OA
BRANCH   8  10
ATOM     10  C   UNL A   1      42.138  28.643  26.977  1.00  0.00     0.196 C 
BRANCH  10  11
ATOM     11  N   UNL A   1      41.108  28.264  28.000  1.00  0.00    -0.341 N 
ATOM     12  O   UNL A   1      39.464  29.271  26.779  1.00  0.00    -0.273 OA
ATOM     13  C   UNL A   1      39.794  28.707  27.831  1.00  0.00     0.240 C 
ATOM     14  H   UNL A   1      41.354  27.712  28.777  1.00  0.00     0.164 HD
BRANCH  13  15
ATOM     15  C   UNL A   1      38.733  28.584  28.973  1.00  0.00     0.222 C 
BRANCH  15  16
ATOM     16  N   UNL A   1      38.154  29.829  29.526  1.00  0.00    -0.331 N 
ATOM     17  C   UNL A   1      37.096  30.476  28.839  1.00  0.00     0.053 A 
ATOM     18  C   UNL A   1      38.808  30.496  30.564  1.00  0.00     0.053 A 
ATOM     19  C   UNL A   1      35.961  29.822  28.353  1.00  0.00     0.027 A 
ATOM     20  C   UNL A   1      37.089  31.885  28.770  1.00  0.00     0.046 A 
ATOM     21  C   UNL A   1      38.900  31.883  30.490  1.00  0.00     0.046 A 
ATOM     22  C   UNL A   1      39.349  29.864  31.690  1.00  0.00     0.027 A 
ATOM     23  C   UNL A   1      34.866  30.560  27.858  1.00  0.00     0.002 A 
ATOM     24  C   UNL A   1      36.029  32.627  28.234  1.00  0.00     0.014 A 
ATOM     25  C   UNL A   1      38.218  32.588  29.389  1.00  0.00     0.197 A 
ATOM     26  C   UNL A   1      39.622  32.593  31.425  1.00  0.00     0.014 A 
ATOM     27  C   UNL A   1      40.074  30.585  32.642  1.00  0.00     0.002 A 
ATOM     28  C   UNL A   1      34.899  31.955  27.794  1.00  0.00     0.001 A 
ATOM     29  O   UNL A   1      38.520  33.721  29.050  1.00  0.00    -0.288 OA
ATOM     30  C   UNL A   1      40.232  31.954  32.495  1.00  0.00     0.001 A 
ENDBRANCH  15  16
ENDBRANCH  13  15
ENDBRANCH  10  11
BRANCH  10  31
ATOM     31  C   UNL A   1      43.434  29.116  27.696  1.00  0.00     0.072 C 
BRANCH  31  32
ATOM     32  C   UNL A   1      43.393  30.592  28.043  1.00  0.00    -0.045 A 
ATOM     33  C   UNL A   1      42.771  31.023  29.222  1.00  0.00     0.004 A 
ATOM     34  C   UNL A   1      44.071  31.534  27.255  1.00  0.00     0.004 A 
ATOM     35  C   UNL A   1      42.890  32.349  29.639  1.00  0.00     0.000 A 
ATOM     36  C   UNL A   1      44.216  32.852  27.689  1.00  0.00     0.000 A 
ATOM     37  C   UNL A   1      43.633  33.256  28.887  1.00  0.00     0.000 A 
ENDBRANCH  31  32
ENDBRANCH  10  31
ENDBRANCH   8  10
ENDBRANCH   7   8
ENDBRANCH   6   7
ENDBRANCH   5   6
ENDBRANCH   4   5
ENDBRANCH   3   4
ENDBRANCH   2   3
ENDBRANCH   1   2
BRANCH   1  38
ATOM     38  C   UNL A   1      44.693  24.263  29.614  1.00  0.00     0.188 C 
BRANCH  38  39
ATOM     39  C   UNL A   1      45.325  24.335  28.222  1.00  0.00     0.188 C 
BRANCH  39  40
ATOM     40  O   UNL A   1      46.333  25.351  28.153  1.00  0.00    -0.376 OA
BRANCH  40  41
ATOM     41  C   UNL A   1      47.673  24.858  28.015  1.00  0.00     0.202 C 
BRANCH  41  42
ATOM     42  C   UNL A   1      48.725  25.606  28.863  1.00  0.00     0.261 C 
BRANCH  42  43
ATOM     43  O   UNL A   1      48.310  26.907  29.300  1.00  0.00    -0.460 OA
BRANCH  43  44
ATOM     44  C   UNL A   1      48.249  27.089  30.639  1.00  0.00     0.338 C 
ATOM     45  O   UNL A   1      48.731  26.347  31.473  1.00  0.00    -0.246 OA
BRANCH  44  46
ATOM     46  C   UNL A   1      47.711  28.444  30.934  1.00  0.00     0.060 A 
ATOM     47  C   UNL A   1      48.294  29.307  31.866  1.00  0.00     0.016 A 
ATOM     48  C   UNL A   1      46.541  28.832  30.270  1.00  0.00     0.016 A 
ATOM     49  C   UNL A   1      47.715  30.558  32.120  1.00  0.00     0.010 A 
ATOM     50  C   UNL A   1      45.958  30.075  30.527  1.00  0.00     0.010 A 
ATOM     51  C   UNL A   1      46.564  30.968  31.422  1.00  0.00    -0.014 A 
BRANCH  51  52
ATOM     52  C   UNL A   1      46.166  32.400  31.375  1.00  0.00     0.031 A 
ATOM     53  C   UNL A   1      46.819  33.414  30.479  1.00  0.00     0.074 A 
ATOM     54  C   UNL A   1      45.270  32.803  32.298  1.00  0.00     0.049 A 
ATOM     55  N   UNL A   1      46.612  34.707  30.428  1.00  0.00    -0.248 NA
ATOM     56  C   UNL A   1      47.831  32.931  29.529  1.00  0.00     0.031 C 
ATOM     57  C   UNL A   1      44.628  31.922  33.278  1.00  0.00     0.029 A 
ATOM     58  N   UNL A   1      44.769  34.045  32.592  1.00  0.00    -0.354 N 
ATOM     59  C   UNL A   1      47.475  35.201  29.460  1.00  0.00     0.074 A 
ATOM     60  C   UNL A   1      48.215  34.065  28.947  1.00  0.00     0.031 C 
ATOM     61  C   UNL A   1      43.813  32.645  34.055  1.00  0.00     0.029 A 
ATOM     62  C   UNL A   1      43.907  34.045  33.662  1.00  0.00     0.049 A 
ATOM     63  H   UNL A   1      45.002  34.856  32.084  1.00  0.00     0.167 HD
ATOM     64  C   UNL A   1      47.623  36.480  29.034  1.00  0.00     0.034 A 
ATOM     65  C   UNL A   1      43.266  35.054  34.282  1.00  0.00     0.034 A 
ATOM     66  C   UNL A   1      46.878  37.605  29.545  1.00  0.00     0.049 A 
ATOM     67  C   UNL A   1      43.446  36.455  33.789  1.00  0.00     0.074 A 
ATOM     68  C   UNL A   1      46.920  38.924  29.120  1.00  0.00     0.029 A 
ATOM     69  N   UNL A   1      45.976  37.557  30.596  1.00  0.00    -0.354 N 
ATOM     70  N   UNL A   1      44.175  36.881  32.788  1.00  0.00    -0.248 NA
ATOM     71  C   UNL A   1      42.703  37.510  34.490  1.00  0.00     0.031 C 
ATOM     72  C   UNL A   1      46.062  39.676  29.927  1.00  0.00     0.029 A 
ATOM     73  C   UNL A   1      45.465  38.822  30.840  1.00  0.00     0.049 A 
ATOM     74  H   UNL A   1      45.734  36.745  31.096  1.00  0.00     0.167 HD
ATOM     75  C   UNL A   1      43.965  38.251  32.725  1.00  0.00     0.074 A 
ATOM     76  C   UNL A   1      43.030  38.583  33.780  1.00  0.00     0.031 C 
ATOM     77  C   UNL A   1      44.510  39.148  31.868  1.00  0.00     0.034 A 
BRANCH  64  78
ATOM     78  C   UNL A   1      48.592  36.757  27.912  1.00  0.00     0.023 A 
ATOM     79  C   UNL A   1      48.160  36.590  26.581  1.00  0.00     0.012 A 
ATOM     80  C   UNL A   1      49.861  37.317  28.163  1.00  0.00     0.148 A 
ATOM     81  C   UNL A   1      48.977  36.967  25.517  1.00  0.00     0.002 A 
ATOM     82  C   UNL A   1      50.661  37.713  27.097  1.00  0.00     0.091 A 
ATOM     83  F   UNL A   1      50.250  37.470  29.437  1.00  0.00    -0.205 F 
ATOM     84  C   UNL A   1      50.222  37.536  25.774  1.00  0.00     0.022 A 
BRANCH  82  85
ATOM     85  S   UNL A   1      52.261  38.502  27.315  1.00  0.00     0.127 S 
ATOM     86  O   UNL A   1      52.684  38.692  25.927  1.00  0.00    -0.237 OA
ATOM     87  O   UNL A   1      51.903  39.735  28.017  1.00  0.00    -0.237 OA
ATOM     88  O   UNL A   1      53.071  37.570  28.085  1.00  0.00    -0.744 OA
ENDBRANCH  82  85
ENDBRANCH  64  78
BRANCH  65  89
ATOM     89  C   UNL A   1      42.342  34.729  35.398  1.00  0.00     0.023 A 
ATOM     90  C   UNL A   1      40.987  34.486  35.109  1.00  0.00     0.012 A 
ATOM     91  C   UNL A   1      42.819  34.539  36.709  1.00  0.00     0.148 A 
ATOM     92  C   UNL A   1      40.117  34.059  36.110  1.00  0.00     0.002 A 
ATOM     93  C   UNL A   1      41.955  34.077  37.694  1.00  0.00     0.091 A 
ATOM     94  F   UNL A   1      44.119  34.764  36.949  1.00  0.00    -0.205 F 
ATOM     95  C   UNL A   1      40.602  33.844  37.398  1.00  0.00     0.022 A 
BRANCH  93  96
ATOM     96  S   UNL A   1      42.504  33.671  39.355  1.00  0.00     0.127 S 
ATOM     97  O   UNL A   1      41.268  33.186  39.965  1.00  0.00    -0.237 OA
ATOM     98  O   UNL A   1      43.508  32.640  39.092  1.00  0.00    -0.237 OA
ATOM     99  O   UNL A   1      43.031  34.907  39.915  1.00  0.00    -0.744 OA
ENDBRANCH  93  96
ENDBRANCH  65  89
BRANCH  77 100
ATOM    100  C   UNL A   1      44.110  40.591  32.009  1.00  0.00     0.023 A 
ATOM    101  C   UNL A   1      42.943  41.054  31.373  1.00  0.00     0.012 A 
ATOM    102  C   UNL A   1      44.824  41.452  32.867  1.00  0.00     0.148 A 
ATOM    103  C   UNL A   1      42.493  42.358  31.584  1.00  0.00     0.002 A 
ATOM    104  C   UNL A   1      44.352  42.738  33.099  1.00  0.00     0.091 A 
ATOM    105  F   UNL A   1      45.938  40.988  33.452  1.00  0.00    -0.205 F 
ATOM    106  C   UNL A   1      43.189  43.193  32.456  1.00  0.00     0.022 A 
BRANCH 104 107
ATOM    107  S   UNL A   1      45.141  43.868  34.251  1.00  0.00     0.127 S 
ATOM    108  O   UNL A   1      46.495  43.953  33.704  1.00  0.00    -0.237 OA
ATOM    109  O   UNL A   1      44.340  45.082  34.088  1.00  0.00    -0.237 OA
ATOM    110  O   UNL A   1      45.044  43.244  35.563  1.00  0.00    -0.744 OA
ENDBRANCH 104 107
ENDBRANCH  77 100
ENDBRANCH  51  52
ENDBRANCH  44  46
ENDBRANCH  43  44
ENDBRANCH  42  43
ENDBRANCH  41  42
ENDBRANCH  40  41
ENDBRANCH  39  40
ENDBRANCH  38  39
ENDBRANCH   1  38
TORSDOF 28
ENDMDL
MODEL 2
REMARK VINA RESULT:      -6.2      6.678     11.835
REMARK SMILES O=C(Cn1c2ccccc2c(=O)c2ccccc21)N[C@@H](Cc1ccccc1)C(=O)OCCOCCOCCOCCOC(=O)c1ccc(-c2c3nc(c(-c4cccc(S(=O)(=O)[O-])c4F)c4ccc([nH]4)c(-c4cccc(S(=O)(=O)[O-])c4F)c4nc(c(-c5cccc(S(=O)(=O)[O-])c5F)c5ccc2[nH]5)C=C4)C=C3)cc1
REMARK SMILES IDX 36 1 35 2 34 3 33 4 32 5 31 6 30 7 28 8 29 9 20 10 19 11
REMARK SMILES IDX 1 12 2 13 3 15 4 16 5 17 18 18 6 19 10 20 13 21 17 22 7 23
REMARK SMILES IDX 9 24 11 25 14 26 16 27 8 28 12 29 15 30 21 31 22 32 23 33
REMARK SMILES IDX 27 34 24 35 26 36 25 37 37 38 38 39 39 40 40 41 41 42 42 43
REMARK SMILES IDX 43 44 44 45 45 46 46 47 107 48 47 49 106 50 48 51 49 52
REMARK SMILES IDX 50 53 100 54 51 55 105 56 99 57 101 58 52 59 104 60 98 61
REMARK SMILES IDX 97 62 53 64 85 65 65 66 84 67 66 68 69 69 83 70 102 71 67 72
REMARK SMILES IDX 68 73 82 75 103 76 70 77 54 78 55 79 63 80 56 81 58 82 64 83
REMARK SMILES IDX 57 84 59 85 60 86 61 87 62 88 86 89 87 90 95 91 88 92 90 93
REMARK SMILES IDX 96 94 89 95 91 96 92 97 93 98 94 99 71 100 72 101 80 102
REMARK SMILES IDX 73 103 75 104 81 105 74 106 76 107 77 108 78 109 79 110
REMARK H PARENT 19 14 101 63 69 74
REMARK Flexibility Score: inf
ROOT
ATOM      1  O   UNL A   1      44.568  18.119  24.726  1.00  0.00    -0.377 OA
ENDROOT
BRANCH   1   2
ATOM      2  C   UNL A   1      44.561  19.075  23.685  1.00  0.00     0.188 C 
BRANCH   2   3
ATOM      3  C   UNL A   1      45.172  20.419  24.107  1.00  0.00     0.188 C 
BRANCH   3   4
ATOM      4  O   UNL A   1      44.464  21.647  23.915  1.00  0.00    -0.376 OA
BRANCH   4   5
ATOM      5  C   UNL A   1      45.210  22.847  23.785  1.00  0.00     0.202 C 
BRANCH   5   6
ATOM      6  C   UNL A   1      46.638  22.762  24.328  1.00  0.00     0.261 C 
BRANCH   6   7
ATOM      7  O   UNL A   1      46.936  23.738  25.355  1.00  0.00    -0.462 OA
BRANCH   7   8
ATOM      8  C   UNL A   1      47.123  25.018  24.948  1.00  0.00     0.329 C 
ATOM      9  O   UNL A   1      47.743  25.321  23.930  1.00  0.00    -0.250 OA
BRANCH   8  10
ATOM     10  C   UNL A   1      46.709  26.092  25.995  1.00  0.00     0.196 C 
BRANCH  10  11
ATOM     11  N   UNL A   1      47.609  26.831  26.942  1.00  0.00    -0.341 N 
ATOM     12  O   UNL A   1      47.563  25.087  28.413  1.00  0.00    -0.273 OA
ATOM     13  C   UNL A   1      47.911  26.252  28.176  1.00  0.00     0.240 C 
ATOM     14  H   UNL A   1      47.981  27.710  26.697  1.00  0.00     0.164 HD
BRANCH  13  15
ATOM     15  C   UNL A   1      48.614  27.063  29.314  1.00  0.00     0.222 C 
BRANCH  15  16
ATOM     16  N   UNL A   1      47.826  27.400  30.521  1.00  0.00    -0.331 N 
ATOM     17  C   UNL A   1      46.780  28.354  30.433  1.00  0.00     0.053 A 
ATOM     18  C   UNL A   1      48.270  26.982  31.777  1.00  0.00     0.053 A 
ATOM     19  C   UNL A   1      45.798  28.350  29.439  1.00  0.00     0.027 A 
ATOM     20  C   UNL A   1      46.606  29.273  31.487  1.00  0.00     0.046 A 
ATOM     21  C   UNL A   1      48.196  27.890  32.828  1.00  0.00     0.046 A 
ATOM     22  C   UNL A   1      48.754  25.698  32.056  1.00  0.00     0.027 A 
ATOM     23  C   UNL A   1      44.683  29.208  29.531  1.00  0.00     0.002 A 
ATOM     24  C   UNL A   1      45.530  30.166  31.565  1.00  0.00     0.014 A 
ATOM     25  C   UNL A   1      47.561  29.201  32.599  1.00  0.00     0.197 A 
ATOM     26  C   UNL A   1      48.714  27.580  34.068  1.00  0.00     0.014 A 
ATOM     27  C   UNL A   1      49.271  25.380  33.314  1.00  0.00     0.002 A 
ATOM     28  C   UNL A   1      44.549  30.115  30.586  1.00  0.00     0.001 A 
ATOM     29  O   UNL A   1      47.756  30.161  33.328  1.00  0.00    -0.288 OA
ATOM     30  C   UNL A   1      49.272  26.335  34.319  1.00  0.00     0.001 A 
ENDBRANCH  15  16
ENDBRANCH  13  15
ENDBRANCH  10  11
BRANCH  10  31
ATOM     31  C   UNL A   1      45.848  27.112  25.196  1.00  0.00     0.072 C 
BRANCH  31  32
ATOM     32  C   UNL A   1      44.362  26.920  25.433  1.00  0.00    -0.045 A 
ATOM     33  C   UNL A   1      43.524  28.030  25.597  1.00  0.00     0.004 A 
ATOM     34  C   UNL A   1      43.785  25.641  25.379  1.00  0.00     0.004 A 
ATOM     35  C   UNL A   1      42.138  27.870  25.629  1.00  0.00     0.000 A 
ATOM     36  C   UNL A   1      42.399  25.486  25.380  1.00  0.00     0.000 A 
ATOM     37  C   UNL A   1      41.576  26.603  25.495  1.00  0.00     0.000 A 
ENDBRANCH  31  32
ENDBRANCH  10  31
ENDBRANCH   8  10
ENDBRANCH   7   8
ENDBRANCH   6   7
ENDBRANCH   5   6
ENDBRANCH   4   5
ENDBRANCH   3   4
ENDBRANCH   2   3
ENDBRANCH   1   2
BRANCH   1  38
ATOM     38  C   UNL A   1      43.599  18.351  25.735  1.00  0.00     0.188 C 
BRANCH  38  39
ATOM     39  C   UNL A   1      42.816  19.652  25.535  1.00  0.00     0.188 C 
BRANCH  39  40
ATOM     40  O   UNL A   1      41.568  19.629  26.237  1.00  0.00    -0.376 OA
BRANCH  40  41
ATOM     41  C   UNL A   1      41.653  19.981  27.624  1.00  0.00     0.202 C 
BRANCH  41  42
ATOM     42  C   UNL A   1      41.500  21.489  27.917  1.00  0.00     0.261 C 
BRANCH  42  43
ATOM     43  O   UNL A   1      42.447  22.004  28.863  1.00  0.00    -0.460 OA
BRANCH  43  44
ATOM     44  C   UNL A   1      42.615  23.346  28.859  1.00  0.00     0.338 C 
ATOM     45  O   UNL A   1      42.032  24.127  28.133  1.00  0.00    -0.246 OA
BRANCH  44  46
ATOM     46  C   UNL A   1      43.441  23.747  30.029  1.00  0.00     0.060 A 
ATOM     47  C   UNL A   1      44.428  24.733  29.961  1.00  0.00     0.016 A 
ATOM     48  C   UNL A   1      43.234  23.060  31.231  1.00  0.00     0.016 A 
ATOM     49  C   UNL A   1      45.194  25.039  31.094  1.00  0.00     0.010 A 
ATOM     50  C   UNL A   1      44.001  23.358  32.361  1.00  0.00     0.010 A 
ATOM     51  C   UNL A   1      44.958  24.380  32.315  1.00  0.00    -0.014 A 
BRANCH  51  52
ATOM     52  C   UNL A   1      45.460  24.941  33.598  1.00  0.00     0.031 A 
ATOM     53  C   UNL A   1      46.265  24.152  34.591  1.00  0.00     0.074 A 
ATOM     54  C   UNL A   1      45.033  26.179  33.917  1.00  0.00     0.049 A 
ATOM     55  N   UNL A   1      46.673  24.517  35.781  1.00  0.00    -0.248 NA
ATOM     56  C   UNL A   1      46.658  22.786  34.216  1.00  0.00     0.031 C 
ATOM     57  C   UNL A   1      44.177  27.012  33.067  1.00  0.00     0.029 A 
ATOM     58  N   UNL A   1      45.221  26.939  35.042  1.00  0.00    -0.354 N 
ATOM     59  C   UNL A   1      47.352  23.429  36.311  1.00  0.00     0.074 A 
ATOM     60  C   UNL A   1      47.301  22.382  35.309  1.00  0.00     0.031 C 
ATOM     61  C   UNL A   1      43.925  28.168  33.693  1.00  0.00     0.029 A 
ATOM     62  C   UNL A   1      44.559  28.142  35.004  1.00  0.00     0.049 A 
ATOM     63  H   UNL A   1      45.778  26.652  35.802  1.00  0.00     0.167 HD
ATOM     64  C   UNL A   1      47.969  23.323  37.514  1.00  0.00     0.034 A 
ATOM     65  C   UNL A   1      44.449  29.122  35.922  1.00  0.00     0.034 A 
ATOM     66  C   UNL A   1      48.022  24.372  38.503  1.00  0.00     0.049 A 
ATOM     67  C   UNL A   1      45.143  28.979  37.239  1.00  0.00     0.074 A 
ATOM     68  C   UNL A   1      48.686  24.369  39.720  1.00  0.00     0.029 A 
ATOM     69  N   UNL A   1      47.380  25.597  38.406  1.00  0.00    -0.354 N 
ATOM     70  N   UNL A   1      45.885  27.989  37.668  1.00  0.00    -0.248 NA
ATOM     71  C   UNL A   1      45.006  30.091  38.189  1.00  0.00     0.031 C 
ATOM     72  C   UNL A   1      48.426  25.580  40.368  1.00  0.00     0.029 A 
ATOM     73  C   UNL A   1      47.622  26.350  39.544  1.00  0.00     0.049 A 
ATOM     74  H   UNL A   1      46.833  25.888  37.642  1.00  0.00     0.167 HD
ATOM     75  C   UNL A   1      46.322  28.365  38.930  1.00  0.00     0.074 A 
ATOM     76  C   UNL A   1      45.772  29.679  39.193  1.00  0.00     0.031 C 
ATOM     77  C   UNL A   1      47.103  27.671  39.791  1.00  0.00     0.034 A 
BRANCH  64  78
ATOM     78  C   UNL A   1      48.703  22.046  37.836  1.00  0.00     0.023 A 
ATOM     79  C   UNL A   1      50.030  21.889  37.386  1.00  0.00     0.012 A 
ATOM     80  C   UNL A   1      48.144  21.079  38.695  1.00  0.00     0.148 A 
ATOM     81  C   UNL A   1      50.786  20.786  37.779  1.00  0.00     0.002 A 
ATOM     82  C   UNL A   1      48.913  19.994  39.102  1.00  0.00     0.091 A 
ATOM     83  F   UNL A   1      46.882  21.250  39.113  1.00  0.00    -0.205 F 
ATOM     84  C   UNL A   1      50.232  19.845  38.643  1.00  0.00     0.022 A 
BRANCH  82  85
ATOM     85  S   UNL A   1      48.316  18.748  40.252  1.00  0.00     0.127 S 
ATOM     86  O   UNL A   1      49.537  17.984  40.515  1.00  0.00    -0.237 OA
ATOM     87  O   UNL A   1      47.853  19.562  41.376  1.00  0.00    -0.237 OA
ATOM     88  O   UNL A   1      47.270  18.017  39.551  1.00  0.00    -0.744 OA
ENDBRANCH  82  85
ENDBRANCH  64  78
BRANCH  65  89
ATOM     89  C   UNL A   1      43.694  30.349  35.563  1.00  0.00     0.023 A 
ATOM     90  C   UNL A   1      44.353  31.368  34.850  1.00  0.00     0.012 A 
ATOM     91  C   UNL A   1      42.312  30.456  35.811  1.00  0.00     0.148 A 
ATOM     92  C   UNL A   1      43.648  32.478  34.390  1.00  0.00     0.002 A 
ATOM     93  C   UNL A   1      41.607  31.546  35.316  1.00  0.00     0.091 A 
ATOM     94  F   UNL A   1      41.711  29.461  36.478  1.00  0.00    -0.205 F 
ATOM     95  C   UNL A   1      42.275  32.562  34.612  1.00  0.00     0.022 A 
BRANCH  93  96
ATOM     96  S   UNL A   1      39.824  31.696  35.460  1.00  0.00     0.127 S 
ATOM     97  O   UNL A   1      39.671  33.115  35.776  1.00  0.00    -0.237 OA
ATOM     98  O   UNL A   1      39.384  31.313  34.118  1.00  0.00    -0.237 OA
ATOM     99  O   UNL A   1      39.429  30.777  36.517  1.00  0.00    -0.744 OA
ENDBRANCH  93  96
ENDBRANCH  65  89
BRANCH  77 100
ATOM    100  C   UNL A   1      47.438  28.310  41.112  1.00  0.00     0.023 A 
ATOM    101  C   UNL A   1      46.639  28.036  42.238  1.00  0.00     0.012 A 
ATOM    102  C   UNL A   1      48.608  29.081  41.259  1.00  0.00     0.148 A 
ATOM    103  C   UNL A   1      46.997  28.526  43.494  1.00  0.00     0.002 A 
ATOM    104  C   UNL A   1      48.977  29.537  42.518  1.00  0.00     0.091 A 
ATOM    105  F   UNL A   1      49.346  29.334  40.167  1.00  0.00    -0.205 F 
ATOM    106  C   UNL A   1      48.172  29.263  43.636  1.00  0.00     0.022 A 
BRANCH 104 107
ATOM    107  S   UNL A   1      50.501  30.440  42.815  1.00  0.00     0.127 S 
ATOM    108  O   UNL A   1      50.589  30.403  44.275  1.00  0.00    -0.237 OA
ATOM    109  O   UNL A   1      51.490  29.613  42.123  1.00  0.00    -0.237 OA
ATOM    110  O   UNL A   1      50.306  31.766  42.244  1.00  0.00    -0.744 OA
ENDBRANCH 104 107
ENDBRANCH  77 100
ENDBRANCH  51  52
ENDBRANCH  44  46
ENDBRANCH  43  44
ENDBRANCH  42  43
ENDBRANCH  41  42
ENDBRANCH  40  41
ENDBRANCH  39  40
ENDBRANCH  38  39
ENDBRANCH   1  38
TORSDOF 28
ENDMDL
MODEL 3
REMARK VINA RESULT:      -6.2      5.860     12.101
REMARK SMILES O=C(Cn1c2ccccc2c(=O)c2ccccc21)N[C@@H](Cc1ccccc1)C(=O)OCCOCCOCCOCCOC(=O)c1ccc(-c2c3nc(c(-c4cccc(S(=O)(=O)[O-])c4F)c4ccc([nH]4)c(-c4cccc(S(=O)(=O)[O-])c4F)c4nc(c(-c5cccc(S(=O)(=O)[O-])c5F)c5ccc2[nH]5)C=C4)C=C3)cc1
REMARK SMILES IDX 36 1 35 2 34 3 33 4 32 5 31 6 30 7 28 8 29 9 20 10 19 11
REMARK SMILES IDX 1 12 2 13 3 15 4 16 5 17 18 18 6 19 10 20 13 21 17 22 7 23
REMARK SMILES IDX 9 24 11 25 14 26 16 27 8 28 12 29 15 30 21 31 22 32 23 33
REMARK SMILES IDX 27 34 24 35 26 36 25 37 37 38 38 39 39 40 40 41 41 42 42 43
REMARK SMILES IDX 43 44 44 45 45 46 46 47 107 48 47 49 106 50 48 51 49 52
REMARK SMILES IDX 50 53 100 54 51 55 105 56 99 57 101 58 52 59 104 60 98 61
REMARK SMILES IDX 97 62 53 64 85 65 65 66 84 67 66 68 69 69 83 70 102 71 67 72
REMARK SMILES IDX 68 73 82 75 103 76 70 77 54 78 55 79 63 80 56 81 58 82 64 83
REMARK SMILES IDX 57 84 59 85 60 86 61 87 62 88 86 89 87 90 95 91 88 92 90 93
REMARK SMILES IDX 96 94 89 95 91 96 92 97 93 98 94 99 71 100 72 101 80 102
REMARK SMILES IDX 73 103 75 104 81 105 74 106 76 107 77 108 78 109 79 110
REMARK H PARENT 19 14 101 63 69 74
REMARK Flexibility Score: inf
ROOT
ATOM      1  O   UNL A   1      44.775  31.249  29.298  1.00  0.00    -0.377 OA
ENDROOT
BRANCH   1   2
ATOM      2  C   UNL A   1      43.620  31.062  28.505  1.00  0.00     0.188 C 
BRANCH   2   3
ATOM      3  C   UNL A   1      43.721  29.838  27.585  1.00  0.00     0.188 C 
BRANCH   3   4
ATOM      4  O   UNL A   1      42.942  28.662  27.828  1.00  0.00    -0.376 OA
BRANCH   4   5
ATOM      5  C   UNL A   1      43.612  27.418  27.948  1.00  0.00     0.202 C 
BRANCH   5   6
ATOM      6  C   UNL A   1      44.960  27.496  28.668  1.00  0.00     0.261 C 
BRANCH   6   7
ATOM      7  O   UNL A   1      45.274  26.324  29.457  1.00  0.00    -0.462 OA
BRANCH   7   8
ATOM      8  C   UNL A   1      46.570  25.923  29.470  1.00  0.00     0.329 C 
ATOM      9  O   UNL A   1      47.295  26.012  30.459  1.00  0.00    -0.250 OA
BRANCH   8  10
ATOM     10  C   UNL A   1      47.148  25.572  28.069  1.00  0.00     0.196 C 
BRANCH  10  11
ATOM     11  N   UNL A   1      46.396  25.039  26.884  1.00  0.00    -0.341 N 
ATOM     12  O   UNL A   1      45.657  23.256  28.103  1.00  0.00    -0.273 OA
ATOM     13  C   UNL A   1      45.739  23.812  26.999  1.00  0.00     0.240 C 
ATOM     14  H   UNL A   1      46.366  25.546  26.040  1.00  0.00     0.164 HD
BRANCH  13  15
ATOM     15  C   UNL A   1      45.166  23.067  25.748  1.00  0.00     0.222 C 
BRANCH  15  16
ATOM     16  N   UNL A   1      43.738  22.678  25.761  1.00  0.00    -0.331 N 
ATOM     17  C   UNL A   1      42.744  23.662  25.994  1.00  0.00     0.053 A 
ATOM     18  C   UNL A   1      43.389  21.326  25.802  1.00  0.00     0.053 A 
ATOM     19  C   UNL A   1      42.699  24.899  25.346  1.00  0.00     0.027 A 
ATOM     20  C   UNL A   1      41.637  23.334  26.802  1.00  0.00     0.046 A 
ATOM     21  C   UNL A   1      42.357  20.947  26.655  1.00  0.00     0.046 A 
ATOM     22  C   UNL A   1      43.987  20.332  25.018  1.00  0.00     0.027 A 
ATOM     23  C   UNL A   1      41.576  25.740  25.484  1.00  0.00     0.002 A 
ATOM     24  C   UNL A   1      40.537  24.182  26.988  1.00  0.00     0.014 A 
ATOM     25  C   UNL A   1      41.613  21.989  27.387  1.00  0.00     0.197 A 
ATOM     26  C   UNL A   1      42.032  19.617  26.823  1.00  0.00     0.014 A 
ATOM     27  C   UNL A   1      43.653  18.986  25.182  1.00  0.00     0.002 A 
ATOM     28  C   UNL A   1      40.501  25.387  26.303  1.00  0.00     0.001 A 
ATOM     29  O   UNL A   1      40.955  21.745  28.386  1.00  0.00    -0.288 OA
ATOM     30  C   UNL A   1      42.686  18.625  26.108  1.00  0.00     0.001 A 
ENDBRANCH  15  16
ENDBRANCH  13  15
ENDBRANCH  10  11
BRANCH  10  31
ATOM     31  C   UNL A   1      47.954  26.833  27.647  1.00  0.00     0.072 C 
BRANCH  31  32
ATOM     32  C   UNL A   1      49.427  26.531  27.440  1.00  0.00    -0.045 A 
ATOM     33  C   UNL A   1      50.323  26.624  28.512  1.00  0.00     0.004 A 
ATOM     34  C   UNL A   1      49.894  26.045  26.210  1.00  0.00     0.004 A 
ATOM     35  C   UNL A   1      51.636  26.172  28.377  1.00  0.00     0.000 A 
ATOM     36  C   UNL A   1      51.198  25.564  26.085  1.00  0.00     0.000 A 
ATOM     37  C   UNL A   1      52.065  25.618  27.172  1.00  0.00     0.000 A 
ENDBRANCH  31  32
ENDBRANCH  10  31
ENDBRANCH   8  10
ENDBRANCH   7   8
ENDBRANCH   6   7
ENDBRANCH   5   6
ENDBRANCH   4   5
ENDBRANCH   3   4
ENDBRANCH   2   3
ENDBRANCH   1   2
BRANCH   1  38
ATOM     38  C   UNL A   1      44.773  32.450  30.052  1.00  0.00     0.188 C 
BRANCH  38  39
ATOM     39  C   UNL A   1      44.804  33.711  29.183  1.00  0.00     0.188 C 
BRANCH  39  40
ATOM     40  O   UNL A   1      46.142  34.061  28.810  1.00  0.00    -0.376 OA
BRANCH  40  41
ATOM     41  C   UNL A   1      46.564  33.548  27.539  1.00  0.00     0.202 C 
BRANCH  41  42
ATOM     42  C   UNL A   1      48.018  33.030  27.504  1.00  0.00     0.261 C 
BRANCH  42  43
ATOM     43  O   UNL A   1      48.991  33.979  27.964  1.00  0.00    -0.460 OA
BRANCH  43  44
ATOM     44  C   UNL A   1      50.239  33.496  28.159  1.00  0.00     0.338 C 
ATOM     45  O   UNL A   1      51.265  34.019  27.768  1.00  0.00    -0.246 OA
BRANCH  44  46
ATOM     46  C   UNL A   1      50.190  32.361  29.119  1.00  0.00     0.060 A 
ATOM     47  C   UNL A   1      50.179  32.536  30.504  1.00  0.00     0.016 A 
ATOM     48  C   UNL A   1      50.205  31.066  28.586  1.00  0.00     0.016 A 
ATOM     49  C   UNL A   1      50.167  31.420  31.352  1.00  0.00     0.010 A 
ATOM     50  C   UNL A   1      50.201  29.951  29.429  1.00  0.00     0.010 A 
ATOM     51  C   UNL A   1      50.137  30.118  30.819  1.00  0.00    -0.014 A 
BRANCH  51  52
ATOM     52  C   UNL A   1      49.732  28.957  31.656  1.00  0.00     0.031 A 
ATOM     53  C   UNL A   1      50.665  27.844  32.040  1.00  0.00     0.074 A 
ATOM     54  C   UNL A   1      48.419  28.858  31.947  1.00  0.00     0.049 A 
ATOM     55  N   UNL A   1      50.389  26.739  32.687  1.00  0.00    -0.248 NA
ATOM     56  C   UNL A   1      52.076  27.973  31.649  1.00  0.00     0.031 C 
ATOM     57  C   UNL A   1      47.401  29.838  31.556  1.00  0.00     0.029 A 
ATOM     58  N   UNL A   1      47.707  27.886  32.601  1.00  0.00    -0.354 N 
ATOM     59  C   UNL A   1      51.579  26.028  32.769  1.00  0.00     0.074 A 
ATOM     60  C   UNL A   1      52.586  26.829  32.099  1.00  0.00     0.031 C 
ATOM     61  C   UNL A   1      46.203  29.425  31.984  1.00  0.00     0.029 A 
ATOM     62  C   UNL A   1      46.356  28.133  32.639  1.00  0.00     0.049 A 
ATOM     63  H   UNL A   1      48.124  27.090  33.005  1.00  0.00     0.167 HD
ATOM     64  C   UNL A   1      51.808  24.829  33.358  1.00  0.00     0.034 A 
ATOM     65  C   UNL A   1      45.336  27.402  33.128  1.00  0.00     0.034 A 
ATOM     66  C   UNL A   1      50.802  24.040  34.029  1.00  0.00     0.049 A 
ATOM     67  C   UNL A   1      45.619  26.084  33.776  1.00  0.00     0.074 A 
ATOM     68  C   UNL A   1      50.966  22.845  34.711  1.00  0.00     0.029 A 
ATOM     69  N   UNL A   1      49.453  24.349  34.090  1.00  0.00    -0.354 N 
ATOM     70  N   UNL A   1      46.773  25.491  33.951  1.00  0.00    -0.248 NA
ATOM     71  C   UNL A   1      44.469  25.344  34.313  1.00  0.00     0.031 C 
ATOM     72  C   UNL A   1      49.714  22.420  35.164  1.00  0.00     0.029 A 
ATOM     73  C   UNL A   1      48.772  23.363  34.787  1.00  0.00     0.049 A 
ATOM     74  H   UNL A   1      49.038  25.150  33.696  1.00  0.00     0.167 HD
ATOM     75  C   UNL A   1      46.493  24.316  34.635  1.00  0.00     0.074 A 
ATOM     76  C   UNL A   1      45.062  24.287  34.855  1.00  0.00     0.031 C 
ATOM     77  C   UNL A   1      47.354  23.350  35.035  1.00  0.00     0.034 A 
BRANCH  64  78
ATOM     78  C   UNL A   1      53.216  24.290  33.370  1.00  0.00     0.023 A 
ATOM     79  C   UNL A   1      53.681  23.573  32.249  1.00  0.00     0.012 A 
ATOM     80  C   UNL A   1      54.114  24.613  34.406  1.00  0.00     0.148 A 
ATOM     81  C   UNL A   1      55.015  23.178  32.163  1.00  0.00     0.002 A 
ATOM     82  C   UNL A   1      55.449  24.238  34.302  1.00  0.00     0.091 A 
ATOM     83  F   UNL A   1      53.651  25.299  35.461  1.00  0.00    -0.205 F 
ATOM     84  C   UNL A   1      55.900  23.518  33.183  1.00  0.00     0.022 A 
BRANCH  82  85
ATOM     85  S   UNL A   1      56.685  24.666  35.535  1.00  0.00     0.127 S 
ATOM     86  O   UNL A   1      56.239  23.875  36.683  1.00  0.00    -0.237 OA
ATOM     87  O   UNL A   1      57.920  24.191  34.911  1.00  0.00    -0.237 OA
ATOM     88  O   UNL A   1      56.601  26.109  35.709  1.00  0.00    -0.744 OA
ENDBRANCH  82  85
ENDBRANCH  64  78
BRANCH  65  89
ATOM     89  C   UNL A   1      43.965  27.968  33.069  1.00  0.00     0.023 A 
ATOM     90  C   UNL A   1      43.154  27.670  31.959  1.00  0.00     0.012 A 
ATOM     91  C   UNL A   1      43.424  28.687  34.153  1.00  0.00     0.148 A 
ATOM     92  C   UNL A   1      41.823  28.081  31.926  1.00  0.00     0.002 A 
ATOM     93  C   UNL A   1      42.086  29.060  34.130  1.00  0.00     0.091 A 
ATOM     94  F   UNL A   1      44.218  28.940  35.203  1.00  0.00    -0.205 F 
ATOM     95  C   UNL A   1      41.286  28.764  33.015  1.00  0.00     0.022 A 
BRANCH  93  96
ATOM     96  S   UNL A   1      41.275  29.851  35.523  1.00  0.00     0.127 S 
ATOM     97  O   UNL A   1      39.902  29.375  35.376  1.00  0.00    -0.237 OA
ATOM     98  O   UNL A   1      42.007  29.282  36.656  1.00  0.00    -0.237 OA
ATOM     99  O   UNL A   1      41.461  31.282  35.334  1.00  0.00    -0.744 OA
ENDBRANCH  93  96
ENDBRANCH  65  89
BRANCH  77 100
ATOM    100  C   UNL A   1      46.791  22.165  35.771  1.00  0.00     0.023 A 
ATOM    101  C   UNL A   1      46.433  21.007  35.054  1.00  0.00     0.012 A 
ATOM    102  C   UNL A   1      46.730  22.158  37.179  1.00  0.00     0.148 A 
ATOM    103  C   UNL A   1      46.017  19.859  35.728  1.00  0.00     0.002 A 
ATOM    104  C   UNL A   1      46.347  21.000  37.845  1.00  0.00     0.091 A 
ATOM    105  F   UNL A   1      47.067  23.277  37.837  1.00  0.00    -0.205 F 
ATOM    106  C   UNL A   1      45.988  19.851  37.121  1.00  0.00     0.022 A 
BRANCH 104 107
ATOM    107  S   UNL A   1      46.336  20.869  39.637  1.00  0.00     0.127 S 
ATOM    108  O   UNL A   1      45.294  21.829  39.999  1.00  0.00    -0.237 OA
ATOM    109  O   UNL A   1      45.972  19.467  39.841  1.00  0.00    -0.237 OA
ATOM    110  O   UNL A   1      47.679  21.223  40.078  1.00  0.00    -0.744 OA
ENDBRANCH 104 107
ENDBRANCH  77 100
ENDBRANCH  51  52
ENDBRANCH  44  46
ENDBRANCH  43  44
ENDBRANCH  42  43
ENDBRANCH  41  42
ENDBRANCH  40  41
ENDBRANCH  39  40
ENDBRANCH  38  39
ENDBRANCH   1  38
TORSDOF 28
ENDMDL
