MODEL 1
REMARK VINA RESULT:      -9.2      0.000      0.000
REMARK SMILES C[C@@H]1CN(C(=O)NC(=O)CCCCC(=O)OCCOCCOCCOCCOC(=O)c2ccc(-c3c4nc(c(-c5cccc(S(=O)(=O)[O-])c5F)c5ccc([nH]5)c(-c5cccc(S(=O)(=O)[O-])c5F)c5nc(c(-c6cccc(S(=O)(=O)[O-])c6F)c6ccc3[nH]6)C=C5)C=C4)cc2)CCO1
REMARK SMILES IDX 21 1 20 2 19 3 18 4 17 5 16 6 14 7 15 8 13 9 12 10 11 11
REMARK SMILES IDX 10 12 8 13 5 14 6 15 7 16 9 18 4 19 1 20 2 21 3 22 96 23
REMARK SMILES IDX 95 24 94 25 22 26 23 27 24 28 25 29 26 30 27 31 28 32 29 33
REMARK SMILES IDX 30 34 31 35 32 36 93 37 33 38 92 39 34 40 35 41 36 42 86 43
REMARK SMILES IDX 37 44 91 45 85 46 87 47 38 48 90 49 84 50 83 51 39 53 71 54
REMARK SMILES IDX 51 55 70 56 52 57 55 58 69 59 88 60 53 61 54 62 68 64 89 65
REMARK SMILES IDX 56 66 40 67 41 68 49 69 42 70 44 71 50 72 43 73 45 74 46 75
REMARK SMILES IDX 47 76 48 77 72 78 73 79 81 80 74 81 76 82 82 83 75 84 77 85
REMARK SMILES IDX 78 86 79 87 80 88 57 89 58 90 66 91 59 92 61 93 67 94 60 95
REMARK SMILES IDX 62 96 63 97 64 98 65 99
REMARK H PARENT 7 17 87 52 55 63
REMARK Flexibility Score: inf
ROOT
ATOM      1  C   UNL A   1      30.683  28.472  22.534  1.00  0.00     0.188 C 
ENDROOT
BRANCH   1   2
ATOM      2  C   UNL A   1      32.199  28.365  22.739  1.00  0.00     0.188 C 
BRANCH   2   3
ATOM      3  O   UNL A   1      32.905  27.359  22.047  1.00  0.00    -0.376 OA
BRANCH   3   4
ATOM      4  C   UNL A   1      32.297  26.148  21.621  1.00  0.00     0.202 C 
BRANCH   4   5
ATOM      5  C   UNL A   1      32.440  24.767  22.293  1.00  0.00     0.261 C 
BRANCH   5   6
ATOM      6  O   UNL A   1      32.794  24.726  23.690  1.00  0.00    -0.463 OA
BRANCH   6   7
ATOM      7  C   UNL A   1      34.114  24.565  23.926  1.00  0.00     0.305 C 
ATOM      8  O   UNL A   1      34.725  25.174  24.806  1.00  0.00    -0.252 OA
BRANCH   7   9
ATOM      9  C   UNL A   1      34.855  23.523  23.108  1.00  0.00     0.123 C 
BRANCH   9  10
ATOM     10  C   UNL A   1      36.344  23.237  23.103  1.00  0.00     0.012 C 
BRANCH  10  11
ATOM     11  C   UNL A   1      36.884  21.965  23.745  1.00  0.00     0.010 C 
BRANCH  11  12
ATOM     12  C   UNL A   1      37.510  21.980  25.146  1.00  0.00     0.100 C 
BRANCH  12  13
ATOM     13  C   UNL A   1      37.031  22.981  26.179  1.00  0.00     0.227 C 
ATOM     14  C   UNL A   1      34.521  22.434  26.977  1.00  0.00     0.324 C 
ATOM     15  O   UNL A   1      34.018  22.604  28.095  1.00  0.00    -0.248 OA
ATOM     16  N   UNL A   1      35.772  23.013  26.778  1.00  0.00    -0.278 N 
ATOM     17  H   UNL A   1      35.762  23.838  27.315  1.00  0.00     0.174 HD
ATOM     18  O   UNL A   1      37.819  23.855  26.571  1.00  0.00    -0.275 OA
BRANCH  14  19
ATOM     19  N   UNL A   1      33.911  21.647  26.031  1.00  0.00    -0.320 N 
ATOM     20  C   UNL A   1      34.086  18.149  24.550  1.00  0.00     0.040 C 
ATOM     21  C   UNL A   1      33.686  19.625  24.492  1.00  0.00     0.134 C 
ATOM     22  C   UNL A   1      34.430  20.369  25.597  1.00  0.00     0.153 C 
ATOM     23  O   UNL A   1      32.274  19.704  24.698  1.00  0.00    -0.375 OA
ATOM     24  C   UNL A   1      31.840  21.067  24.673  1.00  0.00     0.182 C 
ATOM     25  C   UNL A   1      32.492  21.926  25.761  1.00  0.00     0.150 C 
ENDBRANCH  14  19
ENDBRANCH  12  13
ENDBRANCH  11  12
ENDBRANCH  10  11
ENDBRANCH   9  10
ENDBRANCH   7   9
ENDBRANCH   6   7
ENDBRANCH   5   6
ENDBRANCH   4   5
ENDBRANCH   3   4
ENDBRANCH   2   3
ENDBRANCH   1   2
BRANCH   1  26
ATOM     26  O   UNL A   1      29.833  28.094  23.594  1.00  0.00    -0.377 OA
BRANCH  26  27
ATOM     27  C   UNL A   1      29.671  26.725  23.929  1.00  0.00     0.188 C 
BRANCH  27  28
ATOM     28  C   UNL A   1      30.298  26.158  25.216  1.00  0.00     0.188 C 
BRANCH  28  29
ATOM     29  O   UNL A   1      30.784  27.116  26.139  1.00  0.00    -0.376 OA
BRANCH  29  30
ATOM     30  C   UNL A   1      32.183  27.203  26.374  1.00  0.00     0.202 C 
BRANCH  30  31
ATOM     31  C   UNL A   1      32.867  28.584  26.384  1.00  0.00     0.261 C 
BRANCH  31  32
ATOM     32  O   UNL A   1      34.004  28.739  27.244  1.00  0.00    -0.460 OA
BRANCH  32  33
ATOM     33  C   UNL A   1      34.497  29.978  27.427  1.00  0.00     0.338 C 
ATOM     34  O   UNL A   1      33.903  31.037  27.276  1.00  0.00    -0.246 OA
BRANCH  33  35
ATOM     35  C   UNL A   1      35.821  29.847  28.062  1.00  0.00     0.060 A 
ATOM     36  C   UNL A   1      36.968  30.026  27.275  1.00  0.00     0.016 A 
ATOM     37  C   UNL A   1      35.934  29.560  29.424  1.00  0.00     0.016 A 
ATOM     38  C   UNL A   1      38.231  29.874  27.835  1.00  0.00     0.010 A 
ATOM     39  C   UNL A   1      37.201  29.365  29.977  1.00  0.00     0.010 A 
ATOM     40  C   UNL A   1      38.349  29.474  29.169  1.00  0.00    -0.014 A 
BRANCH  40  41
ATOM     41  C   UNL A   1      39.631  28.894  29.622  1.00  0.00     0.031 A 
ATOM     42  C   UNL A   1      40.317  29.556  30.787  1.00  0.00     0.074 A 
ATOM     43  C   UNL A   1      40.159  27.801  29.046  1.00  0.00     0.049 A 
ATOM     44  N   UNL A   1      41.459  29.270  31.350  1.00  0.00    -0.248 NA
ATOM     45  C   UNL A   1      39.613  30.698  31.404  1.00  0.00     0.031 C 
ATOM     46  C   UNL A   1      39.564  27.054  27.940  1.00  0.00     0.029 A 
ATOM     47  N   UNL A   1      41.334  27.144  29.306  1.00  0.00    -0.354 N 
ATOM     48  C   UNL A   1      41.629  30.213  32.356  1.00  0.00     0.074 A 
ATOM     49  C   UNL A   1      40.475  31.080  32.333  1.00  0.00     0.031 C 
ATOM     50  C   UNL A   1      40.400  26.060  27.589  1.00  0.00     0.029 A 
ATOM     51  C   UNL A   1      41.598  26.121  28.425  1.00  0.00     0.049 A 
ATOM     52  H   UNL A   1      41.932  27.381  30.052  1.00  0.00     0.167 HD
ATOM     53  C   UNL A   1      42.653  30.340  33.229  1.00  0.00     0.034 A 
ATOM     54  C   UNL A   1      42.697  25.352  28.294  1.00  0.00     0.034 A 
ATOM     55  C   UNL A   1      43.792  29.467  33.259  1.00  0.00     0.049 A 
ATOM     56  C   UNL A   1      43.847  25.548  29.253  1.00  0.00     0.074 A 
ATOM     57  C   UNL A   1      44.867  29.487  34.127  1.00  0.00     0.029 A 
ATOM     58  N   UNL A   1      44.012  28.428  32.368  1.00  0.00    -0.354 N 
ATOM     59  N   UNL A   1      43.949  26.376  30.265  1.00  0.00    -0.248 NA
ATOM     60  C   UNL A   1      45.020  24.680  29.070  1.00  0.00     0.031 C 
ATOM     61  C   UNL A   1      45.760  28.485  33.737  1.00  0.00     0.029 A 
ATOM     62  C   UNL A   1      45.216  27.810  32.656  1.00  0.00     0.049 A 
ATOM     63  H   UNL A   1      43.403  28.168  31.640  1.00  0.00     0.167 HD
ATOM     64  C   UNL A   1      45.175  26.098  30.863  1.00  0.00     0.074 A 
ATOM     65  C   UNL A   1      45.769  25.013  30.111  1.00  0.00     0.031 C 
ATOM     66  C   UNL A   1      45.762  26.692  31.932  1.00  0.00     0.034 A 
BRANCH  53  67
ATOM     67  C   UNL A   1      42.595  31.466  34.224  1.00  0.00     0.023 A 
ATOM     68  C   UNL A   1      43.409  32.604  34.050  1.00  0.00     0.012 A 
ATOM     69  C   UNL A   1      41.681  31.424  35.294  1.00  0.00     0.148 A 
ATOM     70  C   UNL A   1      43.329  33.674  34.941  1.00  0.00     0.002 A 
ATOM     71  C   UNL A   1      41.573  32.513  36.150  1.00  0.00     0.091 A 
ATOM     72  F   UNL A   1      40.939  30.320  35.455  1.00  0.00    -0.205 F 
ATOM     73  C   UNL A   1      42.403  33.634  35.981  1.00  0.00     0.022 A 
BRANCH  71  74
ATOM     74  S   UNL A   1      40.356  32.593  37.466  1.00  0.00     0.127 S 
ATOM     75  O   UNL A   1      41.158  32.223  38.632  1.00  0.00    -0.237 OA
ATOM     76  O   UNL A   1      39.953  33.999  37.424  1.00  0.00    -0.237 OA
ATOM     77  O   UNL A   1      39.310  31.646  37.109  1.00  0.00    -0.744 OA
ENDBRANCH  71  74
ENDBRANCH  53  67
BRANCH  54  78
ATOM     78  C   UNL A   1      42.776  24.323  27.218  1.00  0.00     0.023 A 
ATOM     79  C   UNL A   1      43.390  24.639  25.990  1.00  0.00     0.012 A 
ATOM     80  C   UNL A   1      42.225  23.039  27.396  1.00  0.00     0.148 A 
ATOM     81  C   UNL A   1      43.410  23.714  24.945  1.00  0.00     0.002 A 
ATOM     82  C   UNL A   1      42.304  22.102  26.374  1.00  0.00     0.091 A 
ATOM     83  F   UNL A   1      41.628  22.761  28.564  1.00  0.00    -0.205 F 
ATOM     84  C   UNL A   1      42.875  22.443  25.139  1.00  0.00     0.022 A 
BRANCH  82  85
ATOM     85  S   UNL A   1      41.760  20.403  26.584  1.00  0.00     0.127 S 
ATOM     86  O   UNL A   1      40.308  20.540  26.503  1.00  0.00    -0.237 OA
ATOM     87  O   UNL A   1      42.383  19.744  25.435  1.00  0.00    -0.237 OA
ATOM     88  O   UNL A   1      42.286  19.977  27.874  1.00  0.00    -0.744 OA
ENDBRANCH  82  85
ENDBRANCH  54  78
BRANCH  66  89
ATOM     89  C   UNL A   1      47.088  26.149  32.400  1.00  0.00     0.023 A 
ATOM     90  C   UNL A   1      47.137  25.173  33.414  1.00  0.00     0.012 A 
ATOM     91  C   UNL A   1      48.282  26.554  31.770  1.00  0.00     0.148 A 
ATOM     92  C   UNL A   1      48.359  24.635  33.819  1.00  0.00     0.002 A 
ATOM     93  C   UNL A   1      49.488  25.973  32.140  1.00  0.00     0.091 A 
ATOM     94  F   UNL A   1      48.215  27.494  30.816  1.00  0.00    -0.205 F 
ATOM     95  C   UNL A   1      49.531  25.025  33.175  1.00  0.00     0.022 A 
BRANCH  93  96
ATOM     96  S   UNL A   1      51.033  26.337  31.297  1.00  0.00     0.127 S 
ATOM     97  O   UNL A   1      51.498  27.516  32.026  1.00  0.00    -0.237 OA
ATOM     98  O   UNL A   1      51.810  25.122  31.540  1.00  0.00    -0.237 OA
ATOM     99  O   UNL A   1      50.685  26.565  29.901  1.00  0.00    -0.744 OA
ENDBRANCH  93  96
ENDBRANCH  66  89
ENDBRANCH  40  41
ENDBRANCH  33  35
ENDBRANCH  32  33
ENDBRANCH  31  32
ENDBRANCH  30  31
ENDBRANCH  29  30
ENDBRANCH  28  29
ENDBRANCH  27  28
ENDBRANCH  26  27
ENDBRANCH   1  26
TORSDOF 28
ENDMDL
MODEL 2
REMARK VINA RESULT:      -8.5      2.951      6.360
REMARK SMILES C[C@@H]1CN(C(=O)NC(=O)CCCCC(=O)OCCOCCOCCOCCOC(=O)c2ccc(-c3c4nc(c(-c5cccc(S(=O)(=O)[O-])c5F)c5ccc([nH]5)c(-c5cccc(S(=O)(=O)[O-])c5F)c5nc(c(-c6cccc(S(=O)(=O)[O-])c6F)c6ccc3[nH]6)C=C5)C=C4)cc2)CCO1
REMARK SMILES IDX 21 1 20 2 19 3 18 4 17 5 16 6 14 7 15 8 13 9 12 10 11 11
REMARK SMILES IDX 10 12 8 13 5 14 6 15 7 16 9 18 4 19 1 20 2 21 3 22 96 23
REMARK SMILES IDX 95 24 94 25 22 26 23 27 24 28 25 29 26 30 27 31 28 32 29 33
REMARK SMILES IDX 30 34 31 35 32 36 93 37 33 38 92 39 34 40 35 41 36 42 86 43
REMARK SMILES IDX 37 44 91 45 85 46 87 47 38 48 90 49 84 50 83 51 39 53 71 54
REMARK SMILES IDX 51 55 70 56 52 57 55 58 69 59 88 60 53 61 54 62 68 64 89 65
REMARK SMILES IDX 56 66 40 67 41 68 49 69 42 70 44 71 50 72 43 73 45 74 46 75
REMARK SMILES IDX 47 76 48 77 72 78 73 79 81 80 74 81 76 82 82 83 75 84 77 85
REMARK SMILES IDX 78 86 79 87 80 88 57 89 58 90 66 91 59 92 61 93 67 94 60 95
REMARK SMILES IDX 62 96 63 97 64 98 65 99
REMARK H PARENT 7 17 87 52 55 63
REMARK Flexibility Score: inf
ROOT
ATOM      1  C   UNL A   1      28.700  29.001  22.373  1.00  0.00     0.188 C 
ENDROOT
BRANCH   1   2
ATOM      2  C   UNL A   1      28.169  30.256  21.668  1.00  0.00     0.188 C 
BRANCH   2   3
ATOM      3  O   UNL A   1      28.602  31.520  22.123  1.00  0.00    -0.376 OA
BRANCH   3   4
ATOM      4  C   UNL A   1      28.588  31.889  23.494  1.00  0.00     0.202 C 
BRANCH   4   5
ATOM      5  C   UNL A   1      29.653  31.526  24.550  1.00  0.00     0.261 C 
BRANCH   5   6
ATOM      6  O   UNL A   1      30.455  32.592  25.096  1.00  0.00    -0.463 OA
BRANCH   6   7
ATOM      7  C   UNL A   1      31.189  32.242  26.175  1.00  0.00     0.305 C 
ATOM      8  O   UNL A   1      31.332  31.077  26.549  1.00  0.00    -0.252 OA
BRANCH   7   9
ATOM      9  C   UNL A   1      31.928  33.343  26.912  1.00  0.00     0.123 C 
BRANCH   9  10
ATOM     10  C   UNL A   1      32.668  33.239  28.232  1.00  0.00     0.012 C 
BRANCH  10  11
ATOM     11  C   UNL A   1      34.032  33.895  28.402  1.00  0.00     0.010 C 
BRANCH  11  12
ATOM     12  C   UNL A   1      34.164  35.368  28.817  1.00  0.00     0.100 C 
BRANCH  12  13
ATOM     13  C   UNL A   1      32.952  36.123  29.326  1.00  0.00     0.227 C 
ATOM     14  C   UNL A   1      32.947  36.262  32.012  1.00  0.00     0.324 C 
ATOM     15  O   UNL A   1      32.527  37.178  32.731  1.00  0.00    -0.248 OA
ATOM     16  N   UNL A   1      32.620  36.351  30.661  1.00  0.00    -0.278 N 
ATOM     17  H   UNL A   1      31.733  36.777  30.637  1.00  0.00     0.174 HD
ATOM     18  O   UNL A   1      32.172  36.621  28.500  1.00  0.00    -0.275 OA
BRANCH  14  19
ATOM     19  N   UNL A   1      33.756  35.272  32.514  1.00  0.00    -0.320 N 
ATOM     20  C   UNL A   1      35.738  32.230  31.384  1.00  0.00     0.040 C 
ATOM     21  C   UNL A   1      35.021  33.058  32.453  1.00  0.00     0.134 C 
ATOM     22  C   UNL A   1      34.170  34.115  31.754  1.00  0.00     0.153 C 
ATOM     23  O   UNL A   1      36.018  33.677  33.269  1.00  0.00    -0.375 OA
ATOM     24  C   UNL A   1      35.406  34.482  34.281  1.00  0.00     0.182 C 
ATOM     25  C   UNL A   1      34.543  35.612  33.710  1.00  0.00     0.150 C 
ENDBRANCH  14  19
ENDBRANCH  12  13
ENDBRANCH  11  12
ENDBRANCH  10  11
ENDBRANCH   9  10
ENDBRANCH   7   9
ENDBRANCH   6   7
ENDBRANCH   5   6
ENDBRANCH   4   5
ENDBRANCH   3   4
ENDBRANCH   2   3
ENDBRANCH   1   2
BRANCH   1  26
ATOM     26  O   UNL A   1      29.986  28.534  22.033  1.00  0.00    -0.377 OA
BRANCH  26  27
ATOM     27  C   UNL A   1      30.546  27.421  22.714  1.00  0.00     0.188 C 
BRANCH  27  28
ATOM     28  C   UNL A   1      30.597  27.394  24.253  1.00  0.00     0.188 C 
BRANCH  28  29
ATOM     29  O   UNL A   1      31.856  27.084  24.822  1.00  0.00    -0.376 OA
BRANCH  29  30
ATOM     30  C   UNL A   1      32.640  28.130  25.381  1.00  0.00     0.202 C 
BRANCH  30  31
ATOM     31  C   UNL A   1      33.839  27.781  26.283  1.00  0.00     0.261 C 
BRANCH  31  32
ATOM     32  O   UNL A   1      34.020  28.582  27.459  1.00  0.00    -0.460 OA
BRANCH  32  33
ATOM     33  C   UNL A   1      34.658  29.761  27.331  1.00  0.00     0.338 C 
ATOM     34  O   UNL A   1      34.188  30.813  26.919  1.00  0.00    -0.246 OA
BRANCH  33  35
ATOM     35  C   UNL A   1      35.974  29.635  27.986  1.00  0.00     0.060 A 
ATOM     36  C   UNL A   1      37.126  29.942  27.248  1.00  0.00     0.016 A 
ATOM     37  C   UNL A   1      36.072  29.228  29.318  1.00  0.00     0.016 A 
ATOM     38  C   UNL A   1      38.383  29.799  27.824  1.00  0.00     0.010 A 
ATOM     39  C   UNL A   1      37.335  29.043  29.882  1.00  0.00     0.010 A 
ATOM     40  C   UNL A   1      38.493  29.283  29.119  1.00  0.00    -0.014 A 
BRANCH  40  41
ATOM     41  C   UNL A   1      39.793  28.725  29.549  1.00  0.00     0.031 A 
ATOM     42  C   UNL A   1      40.516  29.436  30.661  1.00  0.00     0.074 A 
ATOM     43  C   UNL A   1      40.305  27.611  28.999  1.00  0.00     0.049 A 
ATOM     44  N   UNL A   1      41.679  29.177  31.195  1.00  0.00    -0.248 NA
ATOM     45  C   UNL A   1      39.829  30.599  31.256  1.00  0.00     0.031 C 
ATOM     46  C   UNL A   1      39.675  26.818  27.946  1.00  0.00     0.029 A 
ATOM     47  N   UNL A   1      41.492  26.969  29.244  1.00  0.00    -0.354 N 
ATOM     48  C   UNL A   1      41.880  30.159  32.156  1.00  0.00     0.074 A 
ATOM     49  C   UNL A   1      40.722  31.022  32.138  1.00  0.00     0.031 C 
ATOM     50  C   UNL A   1      40.502  25.813  27.605  1.00  0.00     0.029 A 
ATOM     51  C   UNL A   1      41.729  25.913  28.396  1.00  0.00     0.049 A 
ATOM     52  H   UNL A   1      42.114  27.238  29.958  1.00  0.00     0.167 HD
ATOM     53  C   UNL A   1      42.933  30.325  32.987  1.00  0.00     0.034 A 
ATOM     54  C   UNL A   1      42.826  25.142  28.258  1.00  0.00     0.034 A 
ATOM     55  C   UNL A   1      44.076  29.457  33.011  1.00  0.00     0.049 A 
ATOM     56  C   UNL A   1      44.008  25.380  29.167  1.00  0.00     0.074 A 
ATOM     57  C   UNL A   1      45.181  29.516  33.840  1.00  0.00     0.029 A 
ATOM     58  N   UNL A   1      44.270  28.384  32.156  1.00  0.00    -0.354 N 
ATOM     59  N   UNL A   1      44.142  26.248  30.140  1.00  0.00    -0.248 NA
ATOM     60  C   UNL A   1      45.178  24.509  28.977  1.00  0.00     0.031 C 
ATOM     61  C   UNL A   1      46.064  28.502  33.459  1.00  0.00     0.029 A 
ATOM     62  C   UNL A   1      45.485  27.781  32.426  1.00  0.00     0.049 A 
ATOM     63  H   UNL A   1      43.637  28.093  31.460  1.00  0.00     0.167 HD
ATOM     64  C   UNL A   1      45.389  25.999  30.706  1.00  0.00     0.074 A 
ATOM     65  C   UNL A   1      45.961  24.886  29.978  1.00  0.00     0.031 C 
ATOM     66  C   UNL A   1      46.011  26.637  31.729  1.00  0.00     0.034 A 
BRANCH  53  67
ATOM     67  C   UNL A   1      42.905  31.490  33.936  1.00  0.00     0.023 A 
ATOM     68  C   UNL A   1      43.362  32.755  33.515  1.00  0.00     0.012 A 
ATOM     69  C   UNL A   1      42.361  31.343  35.227  1.00  0.00     0.148 A 
ATOM     70  C   UNL A   1      43.296  33.853  34.373  1.00  0.00     0.002 A 
ATOM     71  C   UNL A   1      42.255  32.451  36.058  1.00  0.00     0.091 A 
ATOM     72  F   UNL A   1      41.959  30.125  35.614  1.00  0.00    -0.205 F 
ATOM     73  C   UNL A   1      42.731  33.703  35.637  1.00  0.00     0.022 A 
BRANCH  71  74
ATOM     74  S   UNL A   1      41.468  32.380  37.670  1.00  0.00     0.127 S 
ATOM     75  O   UNL A   1      41.593  33.767  38.119  1.00  0.00    -0.237 OA
ATOM     76  O   UNL A   1      40.107  31.970  37.327  1.00  0.00    -0.237 OA
ATOM     77  O   UNL A   1      42.223  31.408  38.447  1.00  0.00    -0.744 OA
ENDBRANCH  71  74
ENDBRANCH  53  67
BRANCH  54  78
ATOM     78  C   UNL A   1      42.872  24.070  27.221  1.00  0.00     0.023 A 
ATOM     79  C   UNL A   1      43.507  24.316  25.988  1.00  0.00     0.012 A 
ATOM     80  C   UNL A   1      42.269  22.817  27.443  1.00  0.00     0.148 A 
ATOM     81  C   UNL A   1      43.498  23.351  24.978  1.00  0.00     0.002 A 
ATOM     82  C   UNL A   1      42.318  21.839  26.458  1.00  0.00     0.091 A 
ATOM     83  F   UNL A   1      41.654  22.607  28.616  1.00  0.00    -0.205 F 
ATOM     84  C   UNL A   1      42.911  22.111  25.216  1.00  0.00     0.022 A 
BRANCH  82  85
ATOM     85  S   UNL A   1      41.706  20.172  26.726  1.00  0.00     0.127 S 
ATOM     86  O   UNL A   1      42.097  19.505  25.487  1.00  0.00    -0.237 OA
ATOM     87  O   UNL A   1      42.459  19.762  27.912  1.00  0.00    -0.237 OA
ATOM     88  O   UNL A   1      40.273  20.310  26.948  1.00  0.00    -0.744 OA
ENDBRANCH  82  85
ENDBRANCH  54  78
BRANCH  66  89
ATOM     89  C   UNL A   1      47.355  26.117  32.171  1.00  0.00     0.023 A 
ATOM     90  C   UNL A   1      47.446  25.213  33.247  1.00  0.00     0.012 A 
ATOM     91  C   UNL A   1      48.520  26.468  31.459  1.00  0.00     0.148 A 
ATOM     92  C   UNL A   1      48.684  24.696  33.631  1.00  0.00     0.002 A 
ATOM     93  C   UNL A   1      49.739  25.904  31.813  1.00  0.00     0.091 A 
ATOM     94  F   UNL A   1      48.412  27.340  30.446  1.00  0.00    -0.205 F 
ATOM     95  C   UNL A   1      49.826  25.030  32.908  1.00  0.00     0.022 A 
BRANCH  93  96
ATOM     96  S   UNL A   1      51.244  26.197  30.875  1.00  0.00     0.127 S 
ATOM     97  O   UNL A   1      51.326  27.657  30.894  1.00  0.00    -0.237 OA
ATOM     98  O   UNL A   1      52.251  25.518  31.689  1.00  0.00    -0.237 OA
ATOM     99  O   UNL A   1      51.024  25.602  29.564  1.00  0.00    -0.744 OA
ENDBRANCH  93  96
ENDBRANCH  66  89
ENDBRANCH  40  41
ENDBRANCH  33  35
ENDBRANCH  32  33
ENDBRANCH  31  32
ENDBRANCH  30  31
ENDBRANCH  29  30
ENDBRANCH  28  29
ENDBRANCH  27  28
ENDBRANCH  26  27
ENDBRANCH   1  26
TORSDOF 28
ENDMDL
MODEL 3
REMARK VINA RESULT:      -8.4      2.029      3.023
REMARK SMILES C[C@@H]1CN(C(=O)NC(=O)CCCCC(=O)OCCOCCOCCOCCOC(=O)c2ccc(-c3c4nc(c(-c5cccc(S(=O)(=O)[O-])c5F)c5ccc([nH]5)c(-c5cccc(S(=O)(=O)[O-])c5F)c5nc(c(-c6cccc(S(=O)(=O)[O-])c6F)c6ccc3[nH]6)C=C5)C=C4)cc2)CCO1
REMARK SMILES IDX 21 1 20 2 19 3 18 4 17 5 16 6 14 7 15 8 13 9 12 10 11 11
REMARK SMILES IDX 10 12 8 13 5 14 6 15 7 16 9 18 4 19 1 20 2 21 3 22 96 23
REMARK SMILES IDX 95 24 94 25 22 26 23 27 24 28 25 29 26 30 27 31 28 32 29 33
REMARK SMILES IDX 30 34 31 35 32 36 93 37 33 38 92 39 34 40 35 41 36 42 86 43
REMARK SMILES IDX 37 44 91 45 85 46 87 47 38 48 90 49 84 50 83 51 39 53 71 54
REMARK SMILES IDX 51 55 70 56 52 57 55 58 69 59 88 60 53 61 54 62 68 64 89 65
REMARK SMILES IDX 56 66 40 67 41 68 49 69 42 70 44 71 50 72 43 73 45 74 46 75
REMARK SMILES IDX 47 76 48 77 72 78 73 79 81 80 74 81 76 82 82 83 75 84 77 85
REMARK SMILES IDX 78 86 79 87 80 88 57 89 58 90 66 91 59 92 61 93 67 94 60 95
REMARK SMILES IDX 62 96 63 97 64 98 65 99
REMARK H PARENT 7 17 87 52 55 63
REMARK Flexibility Score: inf
ROOT
ATOM      1  C   UNL A   1      30.953  28.875  22.479  1.00  0.00     0.188 C 
ENDROOT
BRANCH   1   2
ATOM      2  C   UNL A   1      32.342  29.261  23.000  1.00  0.00     0.188 C 
BRANCH   2   3
ATOM      3  O   UNL A   1      33.464  28.550  22.526  1.00  0.00    -0.376 OA
BRANCH   3   4
ATOM      4  C   UNL A   1      33.371  27.239  21.988  1.00  0.00     0.202 C 
BRANCH   4   5
ATOM      5  C   UNL A   1      33.218  25.930  22.790  1.00  0.00     0.261 C 
BRANCH   5   6
ATOM      6  O   UNL A   1      34.000  24.790  22.379  1.00  0.00    -0.463 OA
BRANCH   6   7
ATOM      7  C   UNL A   1      33.270  23.744  21.936  1.00  0.00     0.305 C 
ATOM      8  O   UNL A   1      33.493  23.163  20.872  1.00  0.00    -0.252 OA
BRANCH   7   9
ATOM      9  C   UNL A   1      32.166  23.221  22.837  1.00  0.00     0.123 C 
BRANCH   9  10
ATOM     10  C   UNL A   1      32.184  21.967  23.690  1.00  0.00     0.012 C 
BRANCH  10  11
ATOM     11  C   UNL A   1      32.426  22.063  25.191  1.00  0.00     0.010 C 
BRANCH  11  12
ATOM     12  C   UNL A   1      33.139  20.941  25.959  1.00  0.00     0.100 C 
BRANCH  12  13
ATOM     13  C   UNL A   1      33.788  19.799  25.201  1.00  0.00     0.227 C 
ATOM     14  C   UNL A   1      36.439  20.174  24.954  1.00  0.00     0.324 C 
ATOM     15  O   UNL A   1      37.336  19.321  24.940  1.00  0.00    -0.248 OA
ATOM     16  N   UNL A   1      35.137  19.689  24.867  1.00  0.00    -0.278 N 
ATOM     17  H   UNL A   1      35.197  18.887  24.298  1.00  0.00     0.174 HD
ATOM     18  O   UNL A   1      33.082  18.840  24.853  1.00  0.00    -0.275 OA
BRANCH  14  19
ATOM     19  N   UNL A   1      36.723  21.506  25.132  1.00  0.00    -0.320 N 
ATOM     20  C   UNL A   1      34.981  24.842  25.675  1.00  0.00     0.040 C 
ATOM     21  C   UNL A   1      36.182  23.996  25.247  1.00  0.00     0.134 C 
ATOM     22  C   UNL A   1      35.722  22.548  25.095  1.00  0.00     0.153 C 
ATOM     23  O   UNL A   1      37.177  24.102  26.266  1.00  0.00    -0.375 OA
ATOM     24  C   UNL A   1      38.323  23.314  25.930  1.00  0.00     0.182 C 
ATOM     25  C   UNL A   1      38.006  21.823  25.779  1.00  0.00     0.150 C 
ENDBRANCH  14  19
ENDBRANCH  12  13
ENDBRANCH  11  12
ENDBRANCH  10  11
ENDBRANCH   9  10
ENDBRANCH   7   9
ENDBRANCH   6   7
ENDBRANCH   5   6
ENDBRANCH   4   5
ENDBRANCH   3   4
ENDBRANCH   2   3
ENDBRANCH   1   2
BRANCH   1  26
ATOM     26  O   UNL A   1      30.012  28.358  23.393  1.00  0.00    -0.377 OA
BRANCH  26  27
ATOM     27  C   UNL A   1      29.982  26.969  23.683  1.00  0.00     0.188 C 
BRANCH  27  28
ATOM     28  C   UNL A   1      30.432  26.451  25.061  1.00  0.00     0.188 C 
BRANCH  28  29
ATOM     29  O   UNL A   1      30.970  27.423  25.939  1.00  0.00    -0.376 OA
BRANCH  29  30
ATOM     30  C   UNL A   1      32.294  27.256  26.430  1.00  0.00     0.202 C 
BRANCH  30  31
ATOM     31  C   UNL A   1      33.333  28.371  26.204  1.00  0.00     0.261 C 
BRANCH  31  32
ATOM     32  O   UNL A   1      34.254  28.625  27.273  1.00  0.00    -0.460 OA
BRANCH  32  33
ATOM     33  C   UNL A   1      34.754  29.869  27.397  1.00  0.00     0.338 C 
ATOM     34  O   UNL A   1      34.184  30.922  27.145  1.00  0.00    -0.246 OA
BRANCH  33  35
ATOM     35  C   UNL A   1      36.043  29.767  28.107  1.00  0.00     0.060 A 
ATOM     36  C   UNL A   1      37.230  29.911  27.374  1.00  0.00     0.016 A 
ATOM     37  C   UNL A   1      36.083  29.543  29.485  1.00  0.00     0.016 A 
ATOM     38  C   UNL A   1      38.461  29.785  28.007  1.00  0.00     0.010 A 
ATOM     39  C   UNL A   1      37.318  29.374  30.112  1.00  0.00     0.010 A 
ATOM     40  C   UNL A   1      38.507  29.447  29.363  1.00  0.00    -0.014 A 
BRANCH  40  41
ATOM     41  C   UNL A   1      39.763  28.888  29.908  1.00  0.00     0.031 A 
ATOM     42  C   UNL A   1      40.421  29.637  31.037  1.00  0.00     0.074 A 
ATOM     43  C   UNL A   1      40.290  27.742  29.447  1.00  0.00     0.049 A 
ATOM     44  N   UNL A   1      41.537  29.384  31.662  1.00  0.00    -0.248 NA
ATOM     45  C   UNL A   1      39.717  30.838  31.528  1.00  0.00     0.031 C 
ATOM     46  C   UNL A   1      39.720  26.911  28.388  1.00  0.00     0.029 A 
ATOM     47  N   UNL A   1      41.444  27.091  29.804  1.00  0.00    -0.354 N 
ATOM     48  C   UNL A   1      41.690  30.406  32.590  1.00  0.00     0.074 A 
ATOM     49  C   UNL A   1      40.553  31.286  32.451  1.00  0.00     0.031 C 
ATOM     50  C   UNL A   1      40.549  25.878  28.153  1.00  0.00     0.029 A 
ATOM     51  C   UNL A   1      41.719  25.994  29.023  1.00  0.00     0.049 A 
ATOM     52  H   UNL A   1      42.020  27.383  30.548  1.00  0.00     0.167 HD
ATOM     53  C   UNL A   1      42.685  30.593  33.485  1.00  0.00     0.034 A 
ATOM     54  C   UNL A   1      42.808  25.200  28.998  1.00  0.00     0.034 A 
ATOM     55  C   UNL A   1      43.807  29.708  33.629  1.00  0.00     0.049 A 
ATOM     56  C   UNL A   1      43.927  25.459  29.977  1.00  0.00     0.074 A 
ATOM     57  C   UNL A   1      44.852  29.787  34.531  1.00  0.00     0.029 A 
ATOM     58  N   UNL A   1      44.038  28.593  32.839  1.00  0.00    -0.354 N 
ATOM     59  N   UNL A   1      44.010  26.369  30.917  1.00  0.00    -0.248 NA
ATOM     60  C   UNL A   1      45.090  24.562  29.910  1.00  0.00     0.031 C 
ATOM     61  C   UNL A   1      45.739  28.741  34.260  1.00  0.00     0.029 A 
ATOM     62  C   UNL A   1      45.220  27.984  33.221  1.00  0.00     0.049 A 
ATOM     63  H   UNL A   1      43.450  28.281  32.114  1.00  0.00     0.167 HD
ATOM     64  C   UNL A   1      45.209  26.126  31.581  1.00  0.00     0.074 A 
ATOM     65  C   UNL A   1      45.809  24.971  30.946  1.00  0.00     0.031 C 
ATOM     66  C   UNL A   1      45.771  26.800  32.616  1.00  0.00     0.034 A 
BRANCH  53  67
ATOM     67  C   UNL A   1      42.613  31.801  34.377  1.00  0.00     0.023 A 
ATOM     68  C   UNL A   1      42.999  33.065  33.886  1.00  0.00     0.012 A 
ATOM     69  C   UNL A   1      42.099  31.691  35.683  1.00  0.00     0.148 A 
ATOM     70  C   UNL A   1      42.892  34.198  34.691  1.00  0.00     0.002 A 
ATOM     71  C   UNL A   1      41.951  32.832  36.462  1.00  0.00     0.091 A 
ATOM     72  F   UNL A   1      41.766  30.475  36.138  1.00  0.00    -0.205 F 
ATOM     73  C   UNL A   1      42.356  34.084  35.971  1.00  0.00     0.022 A 
BRANCH  71  74
ATOM     74  S   UNL A   1      41.196  32.802  38.090  1.00  0.00     0.127 S 
ATOM     75  O   UNL A   1      41.975  31.758  38.756  1.00  0.00    -0.237 OA
ATOM     76  O   UNL A   1      41.455  34.159  38.571  1.00  0.00    -0.237 OA
ATOM     77  O   UNL A   1      39.791  32.485  37.879  1.00  0.00    -0.744 OA
ENDBRANCH  71  74
ENDBRANCH  53  67
BRANCH  54  78
ATOM     78  C   UNL A   1      42.905  24.081  28.016  1.00  0.00     0.023 A 
ATOM     79  C   UNL A   1      42.051  22.967  28.137  1.00  0.00     0.012 A 
ATOM     80  C   UNL A   1      43.855  24.104  26.977  1.00  0.00     0.148 A 
ATOM     81  C   UNL A   1      42.174  21.878  27.272  1.00  0.00     0.002 A 
ATOM     82  C   UNL A   1      43.931  23.045  26.081  1.00  0.00     0.091 A 
ATOM     83  F   UNL A   1      44.673  25.164  26.887  1.00  0.00    -0.205 F 
ATOM     84  C   UNL A   1      43.108  21.920  26.240  1.00  0.00     0.022 A 
BRANCH  82  85
ATOM     85  S   UNL A   1      45.011  23.075  24.646  1.00  0.00     0.127 S 
ATOM     86  O   UNL A   1      46.223  22.448  25.170  1.00  0.00    -0.237 OA
ATOM     87  O   UNL A   1      44.260  22.263  23.688  1.00  0.00    -0.237 OA
ATOM     88  O   UNL A   1      45.133  24.478  24.274  1.00  0.00    -0.744 OA
ENDBRANCH  82  85
ENDBRANCH  54  78
BRANCH  66  89
ATOM     89  C   UNL A   1      47.070  26.279  33.174  1.00  0.00     0.023 A 
ATOM     90  C   UNL A   1      48.293  26.851  32.774  1.00  0.00     0.012 A 
ATOM     91  C   UNL A   1      47.065  25.273  34.161  1.00  0.00     0.148 A 
ATOM     92  C   UNL A   1      49.495  26.403  33.321  1.00  0.00     0.002 A 
ATOM     93  C   UNL A   1      48.262  24.872  34.742  1.00  0.00     0.091 A 
ATOM     94  F   UNL A   1      45.891  24.733  34.518  1.00  0.00    -0.205 F 
ATOM     95  C   UNL A   1      49.479  25.424  34.312  1.00  0.00     0.022 A 
BRANCH  93  96
ATOM     96  S   UNL A   1      48.327  23.693  36.097  1.00  0.00     0.127 S 
ATOM     97  O   UNL A   1      47.799  22.485  35.465  1.00  0.00    -0.237 OA
ATOM     98  O   UNL A   1      49.758  23.649  36.397  1.00  0.00    -0.237 OA
ATOM     99  O   UNL A   1      47.502  24.253  37.158  1.00  0.00    -0.744 OA
ENDBRANCH  93  96
ENDBRANCH  66  89
ENDBRANCH  40  41
ENDBRANCH  33  35
ENDBRANCH  32  33
ENDBRANCH  31  32
ENDBRANCH  30  31
ENDBRANCH  29  30
ENDBRANCH  28  29
ENDBRANCH  27  28
ENDBRANCH  26  27
ENDBRANCH   1  26
TORSDOF 28
ENDMDL
