MODEL 1
REMARK VINA RESULT:      -7.4      0.000      0.000
REMARK SMILES Cc1cc(/C=C2\C(=O)N(Cc3ccco3)C(=O)N=C2OCCOCCOCCOCCOC(=O)c2ccc(-c3c4nc(c(-c5cccc(S(=O)(=O)[O-])c5F)c5ccc([nH]5)c(-c5cccc(S(=O)(=O)[O-])c5F)c5nc(c(-c6cccc(S(=O)(=O)[O-])c6F)c6ccc3[nH]6)C=C5)C=C4)cc2)c(C)n1-c1ccc(Cl)c(C(=O)[O-])c1
REMARK SMILES IDX 27 1 26 2 25 3 24 4 23 5 22 6 21 7 20 8 19 9 5 10 6 11 7 12
REMARK SMILES IDX 8 13 9 14 18 15 16 16 17 17 4 18 1 19 2 20 3 21 100 22 98 23
REMARK SMILES IDX 99 24 101 25 102 26 110 27 103 28 106 29 104 30 105 31
REMARK SMILES IDX 107 32 108 33 109 34 10 35 11 36 12 37 15 38 13 39 14 40
REMARK SMILES IDX 28 41 29 42 30 43 31 44 32 45 33 46 34 47 35 48 36 49 97 50
REMARK SMILES IDX 37 51 96 52 38 53 39 54 40 55 90 56 41 57 95 58 89 59 91 60
REMARK SMILES IDX 42 61 94 62 88 63 87 64 43 66 75 67 55 68 74 69 56 70 59 71
REMARK SMILES IDX 73 72 92 73 57 74 58 75 72 77 93 78 60 79 44 80 45 81 53 82
REMARK SMILES IDX 46 83 48 84 54 85 47 86 49 87 50 88 51 89 52 90 76 91 77 92
REMARK SMILES IDX 85 93 78 94 80 95 86 96 79 97 81 98 82 99 83 100 84 101
REMARK SMILES IDX 61 102 62 103 70 104 63 105 65 106 71 107 64 108 66 109
REMARK SMILES IDX 67 110 68 111 69 112
REMARK H PARENT 91 65 59 76
REMARK Flexibility Score: inf
ROOT
ATOM      1  C   UNL A   1      41.151  21.923  27.813  1.00  0.00     0.188 C 
ENDROOT
BRANCH   1   2
ATOM      2  O   UNL A   1      41.577  22.926  28.719  1.00  0.00    -0.377 OA
BRANCH   2   3
ATOM      3  C   UNL A   1      42.896  23.446  28.671  1.00  0.00     0.188 C 
BRANCH   3   4
ATOM      4  C   UNL A   1      44.015  22.964  29.605  1.00  0.00     0.188 C 
BRANCH   4   5
ATOM      5  O   UNL A   1      43.724  23.086  30.979  1.00  0.00    -0.376 OA
BRANCH   5   6
ATOM      6  C   UNL A   1      44.278  24.136  31.748  1.00  0.00     0.201 C 
BRANCH   6   7
ATOM      7  C   UNL A   1      44.658  25.474  31.064  1.00  0.00     0.260 C 
BRANCH   7   8
ATOM      8  O   UNL A   1      45.957  25.616  30.439  1.00  0.00    -0.475 OA
BRANCH   8   9
ATOM      9  C   UNL A   1      46.570  26.812  30.511  1.00  0.00     0.231 C 
ATOM     10  C   UNL A   1      47.685  26.346  28.321  1.00  0.00     0.029 C 
ATOM     11  C   UNL A   1      47.361  27.192  29.323  1.00  0.00     0.103 C 
ATOM     12  C   UNL A   1      47.860  28.579  29.453  1.00  0.00     0.267 C 
ATOM     13  O   UNL A   1      47.872  29.381  28.527  1.00  0.00    -0.268 OA
ATOM     14  N   UNL A   1      48.278  28.834  30.738  1.00  0.00    -0.250 N 
ATOM     15  N   UNL A   1      46.541  27.489  31.601  1.00  0.00    -0.156 NA
ATOM     16  C   UNL A   1      47.585  28.343  31.830  1.00  0.00     0.354 C 
ATOM     17  O   UNL A   1      47.943  28.562  32.978  1.00  0.00    -0.245 OA
BRANCH  10  18
ATOM     18  C   UNL A   1      48.573  26.498  27.194  1.00  0.00    -0.003 A 
ATOM     19  C   UNL A   1      51.762  25.805  25.378  1.00  0.00     0.065 C 
ATOM     20  C   UNL A   1      50.422  26.195  25.901  1.00  0.00     0.020 A 
ATOM     21  C   UNL A   1      49.875  25.932  27.143  1.00  0.00     0.031 A 
ATOM     22  N   UNL A   1      49.508  26.954  25.193  1.00  0.00    -0.318 N 
ATOM     23  C   UNL A   1      48.433  27.255  26.034  1.00  0.00     0.027 A 
ATOM     24  C   UNL A   1      47.329  28.146  25.590  1.00  0.00     0.065 C 
BRANCH  22  25
ATOM     25  C   UNL A   1      49.550  27.240  23.799  1.00  0.00     0.046 A 
ATOM     26  C   UNL A   1      48.844  26.449  22.893  1.00  0.00     0.028 A 
ATOM     27  C   UNL A   1      50.445  28.213  23.336  1.00  0.00     0.038 A 
ATOM     28  C   UNL A   1      49.111  26.556  21.530  1.00  0.00     0.023 A 
ATOM     29  C   UNL A   1      50.711  28.337  21.956  1.00  0.00     0.018 A 
ATOM     30  C   UNL A   1      50.057  27.477  21.057  1.00  0.00     0.050 A 
ATOM     31  Cl  UNL A   1      50.355  27.439  19.355  1.00  0.00    -0.084 Cl
BRANCH  29  32
ATOM     32  C   UNL A   1      51.713  29.342  21.488  1.00  0.00     0.073 C 
ATOM     33  O   UNL A   1      52.808  29.152  21.019  1.00  0.00    -0.545 OA
ATOM     34  O   UNL A   1      51.261  30.608  21.633  1.00  0.00    -0.545 OA
ENDBRANCH  29  32
ENDBRANCH  22  25
ENDBRANCH  10  18
BRANCH  14  35
ATOM     35  C   UNL A   1      49.449  29.654  30.979  1.00  0.00     0.206 C 
BRANCH  35  36
ATOM     36  C   UNL A   1      50.547  29.237  30.091  1.00  0.00     0.123 A 
ATOM     37  C   UNL A   1      51.220  29.869  29.069  1.00  0.00     0.047 A 
ATOM     38  O   UNL A   1      50.985  27.959  30.232  1.00  0.00    -0.467 OA
ATOM     39  C   UNL A   1      52.063  28.893  28.498  1.00  0.00     0.042 A 
ATOM     40  C   UNL A   1      51.898  27.754  29.251  1.00  0.00     0.195 A 
ENDBRANCH  35  36
ENDBRANCH  14  35
ENDBRANCH   8   9
ENDBRANCH   7   8
ENDBRANCH   6   7
ENDBRANCH   5   6
ENDBRANCH   4   5
ENDBRANCH   3   4
ENDBRANCH   2   3
ENDBRANCH   1   2
BRANCH   1  41
ATOM     41  C   UNL A   1      40.464  22.306  26.496  1.00  0.00     0.188 C 
BRANCH  41  42
ATOM     42  O   UNL A   1      39.171  22.848  26.586  1.00  0.00    -0.376 OA
BRANCH  42  43
ATOM     43  C   UNL A   1      38.993  24.248  26.727  1.00  0.00     0.202 C 
BRANCH  43  44
ATOM     44  C   UNL A   1      40.064  25.384  26.583  1.00  0.00     0.261 C 
BRANCH  44  45
ATOM     45  O   UNL A   1      40.856  25.712  25.385  1.00  0.00    -0.460 OA
BRANCH  45  46
ATOM     46  C   UNL A   1      42.182  26.060  25.623  1.00  0.00     0.338 C 
ATOM     47  O   UNL A   1      43.086  25.512  24.996  1.00  0.00    -0.246 OA
BRANCH  46  48
ATOM     48  C   UNL A   1      42.504  27.225  26.620  1.00  0.00     0.060 A 
ATOM     49  C   UNL A   1      42.365  28.542  26.192  1.00  0.00     0.016 A 
ATOM     50  C   UNL A   1      43.227  27.128  27.833  1.00  0.00     0.016 A 
ATOM     51  C   UNL A   1      42.848  29.680  26.972  1.00  0.00     0.010 A 
ATOM     52  C   UNL A   1      43.794  28.304  28.592  1.00  0.00     0.010 A 
ATOM     53  C   UNL A   1      43.631  29.650  28.202  1.00  0.00    -0.014 A 
BRANCH  53  54
ATOM     54  C   UNL A   1      44.553  31.048  28.594  1.00  0.00     0.031 A 
ATOM     55  C   UNL A   1      43.977  31.347  29.937  1.00  0.00     0.074 A 
ATOM     56  C   UNL A   1      45.468  32.062  28.162  1.00  0.00     0.049 A 
ATOM     57  N   UNL A   1      42.680  31.434  30.050  1.00  0.00    -0.248 NA
ATOM     58  C   UNL A   1      44.661  31.135  31.215  1.00  0.00     0.031 C 
ATOM     59  C   UNL A   1      46.023  32.284  26.807  1.00  0.00     0.029 A 
ATOM     60  N   UNL A   1      46.144  33.195  28.828  1.00  0.00    -0.354 N 
ATOM     61  C   UNL A   1      42.422  31.725  31.351  1.00  0.00     0.074 A 
ATOM     62  C   UNL A   1      43.611  31.237  32.042  1.00  0.00     0.031 C 
ATOM     63  C   UNL A   1      46.985  33.265  26.765  1.00  0.00     0.029 A 
ATOM     64  C   UNL A   1      47.196  33.908  28.068  1.00  0.00     0.049 A 
ATOM     65  H   UNL A   1      45.903  33.466  29.743  1.00  0.00     0.167 HD
ATOM     66  C   UNL A   1      41.737  32.894  31.516  1.00  0.00     0.034 A 
ATOM     67  C   UNL A   1      48.079  34.976  28.386  1.00  0.00     0.034 A 
ATOM     68  C   UNL A   1      42.586  33.953  31.984  1.00  0.00     0.049 A 
ATOM     69  C   UNL A   1      47.381  35.753  29.416  1.00  0.00     0.074 A 
ATOM     70  C   UNL A   1      43.639  33.988  32.881  1.00  0.00     0.029 A 
ATOM     71  N   UNL A   1      42.730  35.045  31.159  1.00  0.00    -0.354 N 
ATOM     72  N   UNL A   1      46.455  36.605  29.092  1.00  0.00    -0.248 NA
ATOM     73  C   UNL A   1      47.787  35.769  30.817  1.00  0.00     0.031 C 
ATOM     74  C   UNL A   1      44.633  34.739  32.225  1.00  0.00     0.029 A 
ATOM     75  C   UNL A   1      44.028  35.500  31.238  1.00  0.00     0.049 A 
ATOM     76  H   UNL A   1      42.020  35.437  30.601  1.00  0.00     0.167 HD
ATOM     77  C   UNL A   1      45.798  36.770  30.269  1.00  0.00     0.074 A 
ATOM     78  C   UNL A   1      46.783  36.501  31.303  1.00  0.00     0.031 C 
ATOM     79  C   UNL A   1      44.490  36.427  30.242  1.00  0.00     0.034 A 
BRANCH  66  80
ATOM     80  C   UNL A   1      40.578  33.070  30.545  1.00  0.00     0.023 A 
ATOM     81  C   UNL A   1      40.555  34.249  29.787  1.00  0.00     0.012 A 
ATOM     82  C   UNL A   1      39.436  32.220  30.513  1.00  0.00     0.148 A 
ATOM     83  C   UNL A   1      39.407  34.611  29.075  1.00  0.00     0.002 A 
ATOM     84  C   UNL A   1      38.259  32.646  29.907  1.00  0.00     0.091 A 
ATOM     85  F   UNL A   1      39.507  31.005  31.082  1.00  0.00    -0.205 F 
ATOM     86  C   UNL A   1      38.250  33.836  29.170  1.00  0.00     0.022 A 
BRANCH  84  87
ATOM     87  S   UNL A   1      36.668  31.850  30.218  1.00  0.00     0.127 S 
ATOM     88  O   UNL A   1      36.784  30.602  29.453  1.00  0.00    -0.237 OA
ATOM     89  O   UNL A   1      36.669  31.664  31.665  1.00  0.00    -0.237 OA
ATOM     90  O   UNL A   1      35.642  32.749  29.702  1.00  0.00    -0.744 OA
ENDBRANCH  84  87
ENDBRANCH  66  80
BRANCH  67  91
ATOM     91  C   UNL A   1      49.356  35.907  27.995  1.00  0.00     0.023 A 
ATOM     92  C   UNL A   1      50.349  36.204  29.014  1.00  0.00     0.012 A 
ATOM     93  C   UNL A   1      49.860  36.063  26.678  1.00  0.00     0.148 A 
ATOM     94  C   UNL A   1      51.712  36.504  28.768  1.00  0.00     0.002 A 
ATOM     95  C   UNL A   1      51.233  36.398  26.431  1.00  0.00     0.091 A 
ATOM     96  F   UNL A   1      49.038  35.796  25.656  1.00  0.00    -0.205 F 
ATOM     97  C   UNL A   1      52.159  36.588  27.469  1.00  0.00     0.022 A 
BRANCH  95  98
ATOM     98  S   UNL A   1      51.974  36.509  24.779  1.00  0.00     0.127 S 
ATOM     99  O   UNL A   1      52.706  35.244  24.667  1.00  0.00    -0.237 OA
ATOM    100  O   UNL A   1      50.792  36.595  23.920  1.00  0.00    -0.237 OA
ATOM    101  O   UNL A   1      52.816  37.695  24.813  1.00  0.00    -0.744 OA
ENDBRANCH  95  98
ENDBRANCH  67  91
BRANCH  79 102
ATOM    102  C   UNL A   1      43.677  36.859  29.041  1.00  0.00     0.023 A 
ATOM    103  C   UNL A   1      43.292  36.028  27.966  1.00  0.00     0.012 A 
ATOM    104  C   UNL A   1      43.281  38.203  29.008  1.00  0.00     0.148 A 
ATOM    105  C   UNL A   1      42.552  36.532  26.889  1.00  0.00     0.002 A 
ATOM    106  C   UNL A   1      42.500  38.690  27.969  1.00  0.00     0.091 A 
ATOM    107  F   UNL A   1      43.686  38.997  30.011  1.00  0.00    -0.205 F 
ATOM    108  C   UNL A   1      42.137  37.861  26.901  1.00  0.00     0.022 A 
BRANCH 106 109
ATOM    109  S   UNL A   1      41.916  40.382  28.007  1.00  0.00     0.127 S 
ATOM    110  O   UNL A   1      43.170  41.134  27.977  1.00  0.00    -0.237 OA
ATOM    111  O   UNL A   1      41.111  40.489  26.793  1.00  0.00    -0.237 OA
ATOM    112  O   UNL A   1      41.151  40.497  29.245  1.00  0.00    -0.744 OA
ENDBRANCH 106 109
ENDBRANCH  79 102
ENDBRANCH  53  54
ENDBRANCH  46  48
ENDBRANCH  45  46
ENDBRANCH  44  45
ENDBRANCH  43  44
ENDBRANCH  42  43
ENDBRANCH  41  42
ENDBRANCH   1  41
TORSDOF 27
ENDMDL
MODEL 2
REMARK VINA RESULT:      -7.1      4.101      7.823
REMARK SMILES Cc1cc(/C=C2\C(=O)N(Cc3ccco3)C(=O)N=C2OCCOCCOCCOCCOC(=O)c2ccc(-c3c4nc(c(-c5cccc(S(=O)(=O)[O-])c5F)c5ccc([nH]5)c(-c5cccc(S(=O)(=O)[O-])c5F)c5nc(c(-c6cccc(S(=O)(=O)[O-])c6F)c6ccc3[nH]6)C=C5)C=C4)cc2)c(C)n1-c1ccc(Cl)c(C(=O)[O-])c1
REMARK SMILES IDX 27 1 26 2 25 3 24 4 23 5 22 6 21 7 20 8 19 9 5 10 6 11 7 12
REMARK SMILES IDX 8 13 9 14 18 15 16 16 17 17 4 18 1 19 2 20 3 21 100 22 98 23
REMARK SMILES IDX 99 24 101 25 102 26 110 27 103 28 106 29 104 30 105 31
REMARK SMILES IDX 107 32 108 33 109 34 10 35 11 36 12 37 15 38 13 39 14 40
REMARK SMILES IDX 28 41 29 42 30 43 31 44 32 45 33 46 34 47 35 48 36 49 97 50
REMARK SMILES IDX 37 51 96 52 38 53 39 54 40 55 90 56 41 57 95 58 89 59 91 60
REMARK SMILES IDX 42 61 94 62 88 63 87 64 43 66 75 67 55 68 74 69 56 70 59 71
REMARK SMILES IDX 73 72 92 73 57 74 58 75 72 77 93 78 60 79 44 80 45 81 53 82
REMARK SMILES IDX 46 83 48 84 54 85 47 86 49 87 50 88 51 89 52 90 76 91 77 92
REMARK SMILES IDX 85 93 78 94 80 95 86 96 79 97 81 98 82 99 83 100 84 101
REMARK SMILES IDX 61 102 62 103 70 104 63 105 65 106 71 107 64 108 66 109
REMARK SMILES IDX 67 110 68 111 69 112
REMARK H PARENT 91 65 59 76
REMARK Flexibility Score: inf
ROOT
ATOM      1  C   UNL A   1      44.145  26.080  38.229  1.00  0.00     0.188 C 
ENDROOT
BRANCH   1   2
ATOM      2  O   UNL A   1      43.996  27.263  37.463  1.00  0.00    -0.377 OA
BRANCH   2   3
ATOM      3  C   UNL A   1      44.946  28.314  37.542  1.00  0.00     0.188 C 
BRANCH   3   4
ATOM      4  C   UNL A   1      45.900  28.660  36.391  1.00  0.00     0.188 C 
BRANCH   4   5
ATOM      5  O   UNL A   1      46.125  27.609  35.480  1.00  0.00    -0.376 OA
BRANCH   5   6
ATOM      6  C   UNL A   1      47.063  27.744  34.430  1.00  0.00     0.201 C 
BRANCH   6   7
ATOM      7  C   UNL A   1      46.956  28.941  33.451  1.00  0.00     0.260 C 
BRANCH   7   8
ATOM      8  O   UNL A   1      47.962  29.120  32.424  1.00  0.00    -0.475 OA
BRANCH   8   9
ATOM      9  C   UNL A   1      47.763  30.080  31.500  1.00  0.00     0.231 C 
ATOM     10  C   UNL A   1      48.348  28.439  29.706  1.00  0.00     0.029 C 
ATOM     11  C   UNL A   1      47.859  29.636  30.095  1.00  0.00     0.103 C 
ATOM     12  C   UNL A   1      47.476  30.731  29.177  1.00  0.00     0.267 C 
ATOM     13  O   UNL A   1      46.789  30.564  28.177  1.00  0.00    -0.268 OA
ATOM     14  N   UNL A   1      47.975  31.937  29.613  1.00  0.00    -0.250 N 
ATOM     15  N   UNL A   1      47.622  31.304  31.859  1.00  0.00    -0.156 NA
ATOM     16  C   UNL A   1      47.995  32.262  30.957  1.00  0.00     0.354 C 
ATOM     17  O   UNL A   1      48.435  33.329  31.360  1.00  0.00    -0.245 OA
BRANCH  10  18
ATOM     18  C   UNL A   1      48.667  27.918  28.398  1.00  0.00    -0.003 A 
ATOM     19  C   UNL A   1      47.717  26.417  25.113  1.00  0.00     0.065 C 
ATOM     20  C   UNL A   1      48.318  27.030  26.331  1.00  0.00     0.020 A 
ATOM     21  C   UNL A   1      47.700  27.354  27.524  1.00  0.00     0.031 A 
ATOM     22  N   UNL A   1      49.661  27.335  26.459  1.00  0.00    -0.318 N 
ATOM     23  C   UNL A   1      49.900  27.751  27.773  1.00  0.00     0.027 A 
ATOM     24  C   UNL A   1      51.275  28.055  28.250  1.00  0.00     0.065 C 
BRANCH  22  25
ATOM     25  C   UNL A   1      50.616  27.393  25.406  1.00  0.00     0.046 A 
ATOM     26  C   UNL A   1      51.391  26.277  25.091  1.00  0.00     0.028 A 
ATOM     27  C   UNL A   1      50.890  28.630  24.809  1.00  0.00     0.038 A 
ATOM     28  C   UNL A   1      52.504  26.419  24.265  1.00  0.00     0.023 A 
ATOM     29  C   UNL A   1      52.007  28.781  23.961  1.00  0.00     0.018 A 
ATOM     30  C   UNL A   1      52.831  27.669  23.717  1.00  0.00     0.050 A 
ATOM     31  Cl  UNL A   1      54.287  27.721  22.787  1.00  0.00    -0.084 Cl
BRANCH  29  32
ATOM     32  C   UNL A   1      52.314  30.123  23.380  1.00  0.00     0.073 C 
ATOM     33  O   UNL A   1      53.194  30.891  23.683  1.00  0.00    -0.545 OA
ATOM     34  O   UNL A   1      51.457  30.450  22.387  1.00  0.00    -0.545 OA
ENDBRANCH  29  32
ENDBRANCH  22  25
ENDBRANCH  10  18
BRANCH  14  35
ATOM     35  C   UNL A   1      48.470  32.912  28.661  1.00  0.00     0.206 C 
BRANCH  35  36
ATOM     36  C   UNL A   1      49.751  32.458  28.095  1.00  0.00     0.123 A 
ATOM     37  C   UNL A   1      50.118  32.009  26.846  1.00  0.00     0.047 A 
ATOM     38  O   UNL A   1      50.803  32.401  28.951  1.00  0.00    -0.467 OA
ATOM     39  C   UNL A   1      51.455  31.575  26.968  1.00  0.00     0.042 A 
ATOM     40  C   UNL A   1      51.832  31.851  28.261  1.00  0.00     0.195 A 
ENDBRANCH  35  36
ENDBRANCH  14  35
ENDBRANCH   8   9
ENDBRANCH   7   8
ENDBRANCH   6   7
ENDBRANCH   5   6
ENDBRANCH   4   5
ENDBRANCH   3   4
ENDBRANCH   2   3
ENDBRANCH   1   2
BRANCH   1  41
ATOM     41  C   UNL A   1      45.536  25.624  38.691  1.00  0.00     0.188 C 
BRANCH  41  42
ATOM     42  O   UNL A   1      46.463  25.292  37.688  1.00  0.00    -0.376 OA
BRANCH  42  43
ATOM     43  C   UNL A   1      46.859  23.944  37.502  1.00  0.00     0.202 C 
BRANCH  43  44
ATOM     44  C   UNL A   1      46.030  22.761  36.891  1.00  0.00     0.261 C 
BRANCH  44  45
ATOM     45  O   UNL A   1      44.787  22.858  36.109  1.00  0.00    -0.460 OA
BRANCH  45  46
ATOM     46  C   UNL A   1      44.896  23.530  34.895  1.00  0.00     0.338 C 
ATOM     47  O   UNL A   1      45.785  23.231  34.101  1.00  0.00    -0.246 OA
BRANCH  46  48
ATOM     48  C   UNL A   1      43.815  24.596  34.508  1.00  0.00     0.060 A 
ATOM     49  C   UNL A   1      44.178  25.666  33.694  1.00  0.00     0.016 A 
ATOM     50  C   UNL A   1      42.560  24.798  35.131  1.00  0.00     0.016 A 
ATOM     51  C   UNL A   1      43.303  26.814  33.464  1.00  0.00     0.010 A 
ATOM     52  C   UNL A   1      41.699  26.025  34.952  1.00  0.00     0.010 A 
ATOM     53  C   UNL A   1      42.024  27.102  34.101  1.00  0.00    -0.014 A 
BRANCH  53  54
ATOM     54  C   UNL A   1      41.490  28.737  34.112  1.00  0.00     0.031 A 
ATOM     55  C   UNL A   1      40.482  28.668  33.015  1.00  0.00     0.074 A 
ATOM     56  C   UNL A   1      41.679  30.075  34.587  1.00  0.00     0.049 A 
ATOM     57  N   UNL A   1      40.849  28.165  31.867  1.00  0.00    -0.248 NA
ATOM     58  C   UNL A   1      39.029  28.703  33.199  1.00  0.00     0.031 C 
ATOM     59  C   UNL A   1      42.763  30.603  35.447  1.00  0.00     0.029 A 
ATOM     60  N   UNL A   1      40.948  31.347  34.409  1.00  0.00    -0.354 N 
ATOM     61  C   UNL A   1      39.766  28.232  31.050  1.00  0.00     0.074 A 
ATOM     62  C   UNL A   1      38.647  28.279  31.986  1.00  0.00     0.031 C 
ATOM     63  C   UNL A   1      42.571  31.908  35.831  1.00  0.00     0.029 A 
ATOM     64  C   UNL A   1      41.359  32.497  35.247  1.00  0.00     0.049 A 
ATOM     65  H   UNL A   1      40.215  31.427  33.757  1.00  0.00     0.167 HD
ATOM     66  C   UNL A   1      39.988  28.966  29.921  1.00  0.00     0.034 A 
ATOM     67  C   UNL A   1      40.869  33.824  35.396  1.00  0.00     0.034 A 
ATOM     68  C   UNL A   1      39.371  30.260  29.991  1.00  0.00     0.049 A 
ATOM     69  C   UNL A   1      40.250  34.147  34.107  1.00  0.00     0.074 A 
ATOM     70  C   UNL A   1      38.168  30.702  30.512  1.00  0.00     0.029 A 
ATOM     71  N   UNL A   1      40.209  31.351  29.941  1.00  0.00    -0.354 N 
ATOM     72  N   UNL A   1      40.975  34.520  33.096  1.00  0.00    -0.248 NA
ATOM     73  C   UNL A   1      38.808  34.256  33.918  1.00  0.00     0.031 C 
ATOM     74  C   UNL A   1      38.507  31.854  31.248  1.00  0.00     0.029 A 
ATOM     75  C   UNL A   1      39.724  32.328  30.784  1.00  0.00     0.049 A 
ATOM     76  H   UNL A   1      41.023  31.422  29.392  1.00  0.00     0.167 HD
ATOM     77  C   UNL A   1      40.136  34.306  32.050  1.00  0.00     0.074 A 
ATOM     78  C   UNL A   1      38.796  34.438  32.596  1.00  0.00     0.031 C 
ATOM     79  C   UNL A   1      40.588  33.423  31.130  1.00  0.00     0.034 A 
BRANCH  66  80
ATOM     80  C   UNL A   1      41.321  28.670  29.248  1.00  0.00     0.023 A 
ATOM     81  C   UNL A   1      42.466  29.239  29.824  1.00  0.00     0.012 A 
ATOM     82  C   UNL A   1      41.444  28.034  27.980  1.00  0.00     0.148 A 
ATOM     83  C   UNL A   1      43.682  29.238  29.134  1.00  0.00     0.002 A 
ATOM     84  C   UNL A   1      42.621  28.148  27.247  1.00  0.00     0.091 A 
ATOM     85  F   UNL A   1      40.407  27.329  27.498  1.00  0.00    -0.205 F 
ATOM     86  C   UNL A   1      43.748  28.736  27.833  1.00  0.00     0.022 A 
BRANCH  84  87
ATOM     87  S   UNL A   1      42.699  27.780  25.481  1.00  0.00     0.127 S 
ATOM     88  O   UNL A   1      41.895  26.555  25.377  1.00  0.00    -0.237 OA
ATOM     89  O   UNL A   1      42.081  28.952  24.871  1.00  0.00    -0.237 OA
ATOM     90  O   UNL A   1      44.107  27.575  25.159  1.00  0.00    -0.744 OA
ENDBRANCH  84  87
ENDBRANCH  66  80
BRANCH  67  91
ATOM     91  C   UNL A   1      40.883  35.245  36.189  1.00  0.00     0.023 A 
ATOM     92  C   UNL A   1      39.764  35.579  37.055  1.00  0.00     0.012 A 
ATOM     93  C   UNL A   1      42.058  35.973  36.509  1.00  0.00     0.148 A 
ATOM     94  C   UNL A   1      39.826  36.439  38.180  1.00  0.00     0.002 A 
ATOM     95  C   UNL A   1      42.109  36.867  37.630  1.00  0.00     0.091 A 
ATOM     96  F   UNL A   1      43.160  35.733  35.790  1.00  0.00    -0.205 F 
ATOM     97  C   UNL A   1      41.009  37.076  38.476  1.00  0.00     0.022 A 
BRANCH  95  98
ATOM     98  S   UNL A   1      43.603  37.748  38.165  1.00  0.00     0.127 S 
ATOM     99  O   UNL A   1      43.090  38.665  39.186  1.00  0.00    -0.237 OA
ATOM    100  O   UNL A   1      44.424  36.660  38.696  1.00  0.00    -0.237 OA
ATOM    101  O   UNL A   1      44.115  38.398  36.968  1.00  0.00    -0.744 OA
ENDBRANCH  95  98
ENDBRANCH  67  91
BRANCH  79 102
ATOM    102  C   UNL A   1      42.040  33.523  30.717  1.00  0.00     0.023 A 
ATOM    103  C   UNL A   1      43.115  32.824  31.309  1.00  0.00     0.012 A 
ATOM    104  C   UNL A   1      42.326  34.390  29.654  1.00  0.00     0.148 A 
ATOM    105  C   UNL A   1      44.430  33.001  30.861  1.00  0.00     0.002 A 
ATOM    106  C   UNL A   1      43.621  34.525  29.173  1.00  0.00     0.091 A 
ATOM    107  F   UNL A   1      41.307  35.084  29.124  1.00  0.00    -0.205 F 
ATOM    108  C   UNL A   1      44.681  33.838  29.777  1.00  0.00     0.022 A 
BRANCH 106 109
ATOM    109  S   UNL A   1      43.941  35.555  27.744  1.00  0.00     0.127 S 
ATOM    110  O   UNL A   1      43.575  36.881  28.240  1.00  0.00    -0.237 OA
ATOM    111  O   UNL A   1      45.370  35.365  27.504  1.00  0.00    -0.237 OA
ATOM    112  O   UNL A   1      43.082  35.026  26.689  1.00  0.00    -0.744 OA
ENDBRANCH 106 109
ENDBRANCH  79 102
ENDBRANCH  53  54
ENDBRANCH  46  48
ENDBRANCH  45  46
ENDBRANCH  44  45
ENDBRANCH  43  44
ENDBRANCH  42  43
ENDBRANCH  41  42
ENDBRANCH   1  41
TORSDOF 27
ENDMDL
MODEL 3
REMARK VINA RESULT:      -7.1      4.709     11.108
REMARK SMILES Cc1cc(/C=C2\C(=O)N(Cc3ccco3)C(=O)N=C2OCCOCCOCCOCCOC(=O)c2ccc(-c3c4nc(c(-c5cccc(S(=O)(=O)[O-])c5F)c5ccc([nH]5)c(-c5cccc(S(=O)(=O)[O-])c5F)c5nc(c(-c6cccc(S(=O)(=O)[O-])c6F)c6ccc3[nH]6)C=C5)C=C4)cc2)c(C)n1-c1ccc(Cl)c(C(=O)[O-])c1
REMARK SMILES IDX 27 1 26 2 25 3 24 4 23 5 22 6 21 7 20 8 19 9 5 10 6 11 7 12
REMARK SMILES IDX 8 13 9 14 18 15 16 16 17 17 4 18 1 19 2 20 3 21 100 22 98 23
REMARK SMILES IDX 99 24 101 25 102 26 110 27 103 28 106 29 104 30 105 31
REMARK SMILES IDX 107 32 108 33 109 34 10 35 11 36 12 37 15 38 13 39 14 40
REMARK SMILES IDX 28 41 29 42 30 43 31 44 32 45 33 46 34 47 35 48 36 49 97 50
REMARK SMILES IDX 37 51 96 52 38 53 39 54 40 55 90 56 41 57 95 58 89 59 91 60
REMARK SMILES IDX 42 61 94 62 88 63 87 64 43 66 75 67 55 68 74 69 56 70 59 71
REMARK SMILES IDX 73 72 92 73 57 74 58 75 72 77 93 78 60 79 44 80 45 81 53 82
REMARK SMILES IDX 46 83 48 84 54 85 47 86 49 87 50 88 51 89 52 90 76 91 77 92
REMARK SMILES IDX 85 93 78 94 80 95 86 96 79 97 81 98 82 99 83 100 84 101
REMARK SMILES IDX 61 102 62 103 70 104 63 105 65 106 71 107 64 108 66 109
REMARK SMILES IDX 67 110 68 111 69 112
REMARK H PARENT 91 65 59 76
REMARK Flexibility Score: inf
ROOT
ATOM      1  C   UNL A   1      46.924  24.096  27.431  1.00  0.00     0.188 C 
ENDROOT
BRANCH   1   2
ATOM      2  O   UNL A   1      48.282  24.460  27.253  1.00  0.00    -0.377 OA
BRANCH   2   3
ATOM      3  C   UNL A   1      48.655  25.806  27.008  1.00  0.00     0.188 C 
BRANCH   3   4
ATOM      4  C   UNL A   1      48.415  26.502  25.660  1.00  0.00     0.188 C 
BRANCH   4   5
ATOM      5  O   UNL A   1      48.314  27.906  25.736  1.00  0.00    -0.376 OA
BRANCH   5   6
ATOM      6  C   UNL A   1      47.211  28.522  26.372  1.00  0.00     0.201 C 
BRANCH   6   7
ATOM      7  C   UNL A   1      47.160  30.067  26.498  1.00  0.00     0.260 C 
BRANCH   7   8
ATOM      8  O   UNL A   1      45.913  30.717  26.848  1.00  0.00    -0.475 OA
BRANCH   8   9
ATOM      9  C   UNL A   1      45.747  32.005  26.493  1.00  0.00     0.231 C 
ATOM     10  C   UNL A   1      46.518  32.705  28.767  1.00  0.00     0.029 C 
ATOM     11  C   UNL A   1      46.194  33.000  27.489  1.00  0.00     0.103 C 
ATOM     12  C   UNL A   1      46.104  34.368  26.934  1.00  0.00     0.267 C 
ATOM     13  O   UNL A   1      46.960  35.225  27.112  1.00  0.00    -0.268 OA
ATOM     14  N   UNL A   1      44.958  34.523  26.189  1.00  0.00    -0.250 N 
ATOM     15  N   UNL A   1      45.129  32.302  25.408  1.00  0.00    -0.156 NA
ATOM     16  C   UNL A   1      44.492  33.512  25.369  1.00  0.00     0.354 C 
ATOM     17  O   UNL A   1      43.476  33.635  24.700  1.00  0.00    -0.245 OA
BRANCH  10  18
ATOM     18  C   UNL A   1      46.805  33.554  29.898  1.00  0.00    -0.003 A 
ATOM     19  C   UNL A   1      49.080  35.727  31.912  1.00  0.00     0.065 C 
ATOM     20  C   UNL A   1      48.000  34.930  31.262  1.00  0.00     0.020 A 
ATOM     21  C   UNL A   1      48.088  34.106  30.156  1.00  0.00     0.031 A 
ATOM     22  N   UNL A   1      46.700  34.867  31.729  1.00  0.00    -0.318 N 
ATOM     23  C   UNL A   1      46.002  33.918  30.976  1.00  0.00     0.027 A 
ATOM     24  C   UNL A   1      44.599  33.550  31.303  1.00  0.00     0.065 C 
BRANCH  22  25
ATOM     25  C   UNL A   1      46.106  35.734  32.689  1.00  0.00     0.046 A 
ATOM     26  C   UNL A   1      46.091  35.389  34.040  1.00  0.00     0.028 A 
ATOM     27  C   UNL A   1      45.387  36.849  32.239  1.00  0.00     0.038 A 
ATOM     28  C   UNL A   1      45.273  36.090  34.923  1.00  0.00     0.023 A 
ATOM     29  C   UNL A   1      44.566  37.573  33.129  1.00  0.00     0.018 A 
ATOM     30  C   UNL A   1      44.492  37.165  34.472  1.00  0.00     0.050 A 
ATOM     31  Cl  UNL A   1      43.456  37.885  35.653  1.00  0.00    -0.084 Cl
BRANCH  29  32
ATOM     32  C   UNL A   1      43.762  38.723  32.616  1.00  0.00     0.073 C 
ATOM     33  O   UNL A   1      43.057  39.484  33.233  1.00  0.00    -0.545 OA
ATOM     34  O   UNL A   1      43.897  38.875  31.280  1.00  0.00    -0.545 OA
ENDBRANCH  29  32
ENDBRANCH  22  25
ENDBRANCH  10  18
BRANCH  14  35
ATOM     35  C   UNL A   1      44.222  35.771  26.229  1.00  0.00     0.206 C 
BRANCH  35  36
ATOM     36  C   UNL A   1      43.466  35.870  27.489  1.00  0.00     0.123 A 
ATOM     37  C   UNL A   1      43.780  36.365  28.735  1.00  0.00     0.047 A 
ATOM     38  O   UNL A   1      42.221  35.329  27.489  1.00  0.00    -0.467 OA
ATOM     39  C   UNL A   1      42.691  36.034  29.568  1.00  0.00     0.042 A 
ATOM     40  C   UNL A   1      41.761  35.422  28.761  1.00  0.00     0.195 A 
ENDBRANCH  35  36
ENDBRANCH  14  35
ENDBRANCH   8   9
ENDBRANCH   7   8
ENDBRANCH   6   7
ENDBRANCH   5   6
ENDBRANCH   4   5
ENDBRANCH   3   4
ENDBRANCH   2   3
ENDBRANCH   1   2
BRANCH   1  41
ATOM     41  C   UNL A   1      46.053  23.733  26.220  1.00  0.00     0.188 C 
BRANCH  41  42
ATOM     42  O   UNL A   1      45.690  22.383  26.078  1.00  0.00    -0.376 OA
BRANCH  42  43
ATOM     43  C   UNL A   1      44.659  22.014  25.178  1.00  0.00     0.202 C 
BRANCH  43  44
ATOM     44  C   UNL A   1      43.247  22.671  24.992  1.00  0.00     0.261 C 
BRANCH  44  45
ATOM     45  O   UNL A   1      42.105  22.599  25.918  1.00  0.00    -0.460 OA
BRANCH  45  46
ATOM     46  C   UNL A   1      42.426  22.673  27.270  1.00  0.00     0.338 C 
ATOM     47  O   UNL A   1      42.412  21.660  27.964  1.00  0.00    -0.246 OA
BRANCH  46  48
ATOM     48  C   UNL A   1      42.905  24.039  27.871  1.00  0.00     0.060 A 
ATOM     49  C   UNL A   1      43.368  24.077  29.183  1.00  0.00     0.016 A 
ATOM     50  C   UNL A   1      42.642  25.331  27.358  1.00  0.00     0.016 A 
ATOM     51  C   UNL A   1      43.625  25.329  29.893  1.00  0.00     0.010 A 
ATOM     52  C   UNL A   1      42.832  26.617  28.126  1.00  0.00     0.010 A 
ATOM     53  C   UNL A   1      43.340  26.685  29.440  1.00  0.00    -0.014 A 
BRANCH  53  54
ATOM     54  C   UNL A   1      43.182  27.909  30.639  1.00  0.00     0.031 A 
ATOM     55  C   UNL A   1      44.603  28.360  30.711  1.00  0.00     0.074 A 
ATOM     56  C   UNL A   1      42.365  28.542  31.630  1.00  0.00     0.049 A 
ATOM     57  N   UNL A   1      45.530  27.459  30.892  1.00  0.00    -0.248 NA
ATOM     58  C   UNL A   1      45.114  29.626  30.181  1.00  0.00     0.031 C 
ATOM     59  C   UNL A   1      41.001  28.174  32.071  1.00  0.00     0.029 A 
ATOM     60  N   UNL A   1      42.548  29.694  32.537  1.00  0.00    -0.354 N 
ATOM     61  C   UNL A   1      46.714  28.124  30.935  1.00  0.00     0.074 A 
ATOM     62  C   UNL A   1      46.428  29.357  30.209  1.00  0.00     0.031 C 
ATOM     63  C   UNL A   1      40.446  29.075  32.946  1.00  0.00     0.029 A 
ATOM     64  C   UNL A   1      41.365  30.169  33.289  1.00  0.00     0.049 A 
ATOM     65  H   UNL A   1      43.425  30.130  32.637  1.00  0.00     0.167 HD
ATOM     66  C   UNL A   1      47.393  27.939  32.105  1.00  0.00     0.034 A 
ATOM     67  C   UNL A   1      41.143  31.252  34.185  1.00  0.00     0.034 A 
ATOM     68  C   UNL A   1      47.307  29.086  32.964  1.00  0.00     0.049 A 
ATOM     69  C   UNL A   1      42.451  31.511  34.797  1.00  0.00     0.074 A 
ATOM     70  C   UNL A   1      47.316  30.448  32.718  1.00  0.00     0.029 A 
ATOM     71  N   UNL A   1      46.693  28.905  34.182  1.00  0.00    -0.354 N 
ATOM     72  N   UNL A   1      42.882  30.778  35.778  1.00  0.00    -0.248 NA
ATOM     73  C   UNL A   1      43.256  32.688  34.491  1.00  0.00     0.031 C 
ATOM     74  C   UNL A   1      46.252  30.951  33.492  1.00  0.00     0.029 A 
ATOM     75  C   UNL A   1      45.964  30.034  34.490  1.00  0.00     0.049 A 
ATOM     76  H   UNL A   1      46.763  28.099  34.743  1.00  0.00     0.167 HD
ATOM     77  C   UNL A   1      44.215  31.038  35.761  1.00  0.00     0.074 A 
ATOM     78  C   UNL A   1      44.343  32.371  35.199  1.00  0.00     0.031 C 
ATOM     79  C   UNL A   1      45.001  29.956  35.554  1.00  0.00     0.034 A 
BRANCH  66  80
ATOM     80  C   UNL A   1      47.416  26.493  32.580  1.00  0.00     0.023 A 
ATOM     81  C   UNL A   1      46.313  26.049  33.323  1.00  0.00     0.012 A 
ATOM     82  C   UNL A   1      48.559  25.649  32.491  1.00  0.00     0.148 A 
ATOM     83  C   UNL A   1      46.367  24.834  34.014  1.00  0.00     0.002 A 
ATOM     84  C   UNL A   1      48.653  24.507  33.281  1.00  0.00     0.091 A 
ATOM     85  F   UNL A   1      49.548  25.972  31.642  1.00  0.00    -0.205 F 
ATOM     86  C   UNL A   1      47.547  24.089  34.030  1.00  0.00     0.022 A 
BRANCH  84  87
ATOM     87  S   UNL A   1      50.221  23.657  33.568  1.00  0.00     0.127 S 
ATOM     88  O   UNL A   1      50.744  23.491  32.207  1.00  0.00    -0.237 OA
ATOM     89  O   UNL A   1      50.968  24.609  34.382  1.00  0.00    -0.237 OA
ATOM     90  O   UNL A   1      49.897  22.394  34.221  1.00  0.00    -0.744 OA
ENDBRANCH  84  87
ENDBRANCH  66  80
BRANCH  67  91
ATOM     91  C   UNL A   1      40.117  32.168  35.054  1.00  0.00     0.023 A 
ATOM     92  C   UNL A   1      39.208  31.517  35.984  1.00  0.00     0.012 A 
ATOM     93  C   UNL A   1      40.329  33.536  35.364  1.00  0.00     0.148 A 
ATOM     94  C   UNL A   1      38.665  32.111  37.151  1.00  0.00     0.002 A 
ATOM     95  C   UNL A   1      39.754  34.143  36.530  1.00  0.00     0.091 A 
ATOM     96  F   UNL A   1      41.166  34.233  34.586  1.00  0.00    -0.205 F 
ATOM     97  C   UNL A   1      38.951  33.427  37.432  1.00  0.00     0.022 A 
BRANCH  95  98
ATOM     98  S   UNL A   1      40.066  35.854  37.048  1.00  0.00     0.127 S 
ATOM     99  O   UNL A   1      39.654  36.628  35.874  1.00  0.00    -0.237 OA
ATOM    100  O   UNL A   1      39.174  35.991  38.200  1.00  0.00    -0.237 OA
ATOM    101  O   UNL A   1      41.490  35.912  37.343  1.00  0.00    -0.744 OA
ENDBRANCH  95  98
ENDBRANCH  67  91
BRANCH  79 102
ATOM    102  C   UNL A   1      44.653  28.684  36.294  1.00  0.00     0.023 A 
ATOM    103  C   UNL A   1      45.081  28.346  37.597  1.00  0.00     0.012 A 
ATOM    104  C   UNL A   1      43.836  27.771  35.613  1.00  0.00     0.148 A 
ATOM    105  C   UNL A   1      44.715  27.130  38.187  1.00  0.00     0.002 A 
ATOM    106  C   UNL A   1      43.427  26.591  36.218  1.00  0.00     0.091 A 
ATOM    107  F   UNL A   1      43.469  28.079  34.359  1.00  0.00    -0.205 F 
ATOM    108  C   UNL A   1      43.869  26.259  37.505  1.00  0.00     0.022 A 
BRANCH 106 109
ATOM    109  S   UNL A   1      42.295  25.495  35.367  1.00  0.00     0.127 S 
ATOM    110  O   UNL A   1      41.147  26.371  35.133  1.00  0.00    -0.237 OA
ATOM    111  O   UNL A   1      43.031  25.117  34.164  1.00  0.00    -0.237 OA
ATOM    112  O   UNL A   1      42.058  24.393  36.295  1.00  0.00    -0.744 OA
ENDBRANCH 106 109
ENDBRANCH  79 102
ENDBRANCH  53  54
ENDBRANCH  46  48
ENDBRANCH  45  46
ENDBRANCH  44  45
ENDBRANCH  43  44
ENDBRANCH  42  43
ENDBRANCH  41  42
ENDBRANCH   1  41
TORSDOF 27
ENDMDL
