MODEL 1
REMARK VINA RESULT:      -7.9      0.000      0.000
REMARK SMILES Cc1cc(Cl)c2c(c1)C=C(C(=O)OCCOCCOCCOCCOC(=O)c1ccc(-c3c4nc(c(-c5cccc(S(=O)(=O)[O-])c5F)c5ccc([nH]5)c(-c5cccc(S(=O)(=O)[O-])c5F)c5nc(c(-c6cccc(S(=O)(=O)[O-])c6F)c6ccc3[nH]6)C=C5)C=C4)cc1)[C@@H](C(F)(F)F)O2
REMARK SMILES IDX 20 1 19 2 18 3 17 4 16 5 15 6 14 7 13 8 11 9 12 10 10 11
REMARK SMILES IDX 1 12 2 13 3 14 8 15 4 16 7 17 5 18 6 19 9 20 96 21 91 22
REMARK SMILES IDX 92 23 93 24 94 25 95 26 21 27 22 28 23 29 24 30 25 31 26 32
REMARK SMILES IDX 27 33 28 34 29 35 90 36 30 37 89 38 31 39 32 40 33 41 83 42
REMARK SMILES IDX 34 43 88 44 82 45 84 46 35 47 87 48 81 49 80 50 36 52 68 53
REMARK SMILES IDX 48 54 67 55 49 56 52 57 66 58 85 59 50 60 51 61 65 63 86 64
REMARK SMILES IDX 53 65 37 66 38 67 46 68 39 69 41 70 47 71 40 72 42 73 43 74
REMARK SMILES IDX 44 75 45 76 69 77 70 78 78 79 71 80 73 81 79 82 72 83 74 84
REMARK SMILES IDX 75 85 76 86 77 87 54 88 55 89 63 90 56 91 58 92 64 93 57 94
REMARK SMILES IDX 59 95 60 96 61 97 62 98
REMARK H PARENT 84 51 52 62
REMARK Flexibility Score: inf
ROOT
ATOM      1  C   UNL A   1      41.961  18.929  26.165  1.00  0.00     0.188 C 
ENDROOT
BRANCH   1   2
ATOM      2  O   UNL A   1      42.854  19.192  25.082  1.00  0.00    -0.377 OA
BRANCH   2   3
ATOM      3  C   UNL A   1      44.238  18.983  25.287  1.00  0.00     0.188 C 
BRANCH   3   4
ATOM      4  C   UNL A   1      45.096  19.311  24.053  1.00  0.00     0.188 C 
BRANCH   4   5
ATOM      5  O   UNL A   1      46.104  20.282  24.311  1.00  0.00    -0.376 OA
BRANCH   5   6
ATOM      6  C   UNL A   1      45.725  21.465  25.002  1.00  0.00     0.202 C 
BRANCH   6   7
ATOM      7  C   UNL A   1      45.053  22.598  24.211  1.00  0.00     0.261 C 
BRANCH   7   8
ATOM      8  O   UNL A   1      45.149  23.905  24.792  1.00  0.00    -0.460 OA
BRANCH   8   9
ATOM      9  C   UNL A   1      46.358  24.492  24.843  1.00  0.00     0.338 C 
ATOM     10  O   UNL A   1      47.213  24.486  23.974  1.00  0.00    -0.246 OA
BRANCH   9  11
ATOM     11  C   UNL A   1      46.407  25.315  26.074  1.00  0.00     0.087 C 
ATOM     12  C   UNL A   1      45.064  25.141  32.097  1.00  0.00     0.044 C 
ATOM     13  C   UNL A   1      45.598  25.716  30.819  1.00  0.00    -0.049 A 
ATOM     14  C   UNL A   1      46.024  27.048  30.772  1.00  0.00     0.028 A 
ATOM     15  C   UNL A   1      45.614  24.958  29.642  1.00  0.00     0.015 A 
ATOM     16  C   UNL A   1      46.495  27.597  29.576  1.00  0.00     0.084 A 
ATOM     17  C   UNL A   1      46.055  25.517  28.433  1.00  0.00     0.019 A 
ATOM     18  Cl  UNL A   1      47.009  29.247  29.590  1.00  0.00    -0.080 Cl
ATOM     19  C   UNL A   1      46.523  26.834  28.401  1.00  0.00     0.146 A 
ATOM     20  C   UNL A   1      45.985  24.739  27.207  1.00  0.00     0.027 C 
ATOM     21  O   UNL A   1      47.003  27.424  27.267  1.00  0.00    -0.474 OA
ATOM     22  C   UNL A   1      46.991  26.704  26.005  1.00  0.00     0.316 C 
BRANCH  22  23
ATOM     23  C   UNL A   1      46.271  27.574  24.965  1.00  0.00     0.430 C 
ATOM     24  F   UNL A   1      44.992  27.180  24.787  1.00  0.00    -0.167 F 
ATOM     25  F   UNL A   1      46.245  28.878  25.325  1.00  0.00    -0.167 F 
ATOM     26  F   UNL A   1      46.891  27.506  23.761  1.00  0.00    -0.167 F 
ENDBRANCH  22  23
ENDBRANCH   9  11
ENDBRANCH   8   9
ENDBRANCH   7   8
ENDBRANCH   6   7
ENDBRANCH   5   6
ENDBRANCH   4   5
ENDBRANCH   3   4
ENDBRANCH   2   3
ENDBRANCH   1   2
BRANCH   1  27
ATOM     27  C   UNL A   1      41.573  20.014  27.198  1.00  0.00     0.188 C 
BRANCH  27  28
ATOM     28  O   UNL A   1      41.209  21.271  26.631  1.00  0.00    -0.376 OA
BRANCH  28  29
ATOM     29  C   UNL A   1      41.232  22.392  27.503  1.00  0.00     0.202 C 
BRANCH  29  30
ATOM     30  C   UNL A   1      41.048  23.742  26.798  1.00  0.00     0.261 C 
BRANCH  30  31
ATOM     31  O   UNL A   1      42.095  24.698  27.029  1.00  0.00    -0.460 OA
BRANCH  31  32
ATOM     32  C   UNL A   1      42.247  25.686  26.122  1.00  0.00     0.338 C 
ATOM     33  O   UNL A   1      42.146  25.597  24.911  1.00  0.00    -0.246 OA
BRANCH  32  34
ATOM     34  C   UNL A   1      42.354  26.956  26.867  1.00  0.00     0.060 A 
ATOM     35  C   UNL A   1      41.941  28.143  26.248  1.00  0.00     0.016 A 
ATOM     36  C   UNL A   1      42.836  26.967  28.179  1.00  0.00     0.016 A 
ATOM     37  C   UNL A   1      42.042  29.353  26.932  1.00  0.00     0.010 A 
ATOM     38  C   UNL A   1      42.957  28.183  28.854  1.00  0.00     0.010 A 
ATOM     39  C   UNL A   1      42.593  29.383  28.220  1.00  0.00    -0.014 A 
BRANCH  39  40
ATOM     40  C   UNL A   1      42.998  30.682  28.806  1.00  0.00     0.031 A 
ATOM     41  C   UNL A   1      42.151  31.248  29.911  1.00  0.00     0.074 A 
ATOM     42  C   UNL A   1      44.095  31.336  28.385  1.00  0.00     0.049 A 
ATOM     43  N   UNL A   1      42.320  32.342  30.605  1.00  0.00    -0.248 NA
ATOM     44  C   UNL A   1      40.954  30.475  30.289  1.00  0.00     0.031 C 
ATOM     45  C   UNL A   1      44.995  30.887  27.326  1.00  0.00     0.029 A 
ATOM     46  N   UNL A   1      44.629  32.532  28.797  1.00  0.00    -0.354 N 
ATOM     47  C   UNL A   1      41.256  32.390  31.497  1.00  0.00     0.074 A 
ATOM     48  C   UNL A   1      40.429  31.233  31.238  1.00  0.00     0.031 C 
ATOM     49  C   UNL A   1      45.966  31.803  27.162  1.00  0.00     0.029 A 
ATOM     50  C   UNL A   1      45.748  32.910  28.094  1.00  0.00     0.049 A 
ATOM     51  H   UNL A   1      44.245  33.069  29.527  1.00  0.00     0.167 HD
ATOM     52  C   UNL A   1      41.005  33.299  32.465  1.00  0.00     0.034 A 
ATOM     53  C   UNL A   1      46.504  34.023  28.193  1.00  0.00     0.034 A 
ATOM     54  C   UNL A   1      41.829  34.443  32.727  1.00  0.00     0.049 A 
ATOM     55  C   UNL A   1      46.161  35.059  29.238  1.00  0.00     0.074 A 
ATOM     56  C   UNL A   1      41.677  35.401  33.712  1.00  0.00     0.029 A 
ATOM     57  N   UNL A   1      42.950  34.795  31.991  1.00  0.00    -0.354 N 
ATOM     58  N   UNL A   1      45.234  35.022  30.164  1.00  0.00    -0.248 NA
ATOM     59  C   UNL A   1      46.984  36.278  29.266  1.00  0.00     0.031 C 
ATOM     60  C   UNL A   1      42.690  36.349  33.555  1.00  0.00     0.029 A 
ATOM     61  C   UNL A   1      43.487  35.969  32.486  1.00  0.00     0.049 A 
ATOM     62  H   UNL A   1      43.310  34.284  31.230  1.00  0.00     0.167 HD
ATOM     63  C   UNL A   1      45.375  36.197  30.897  1.00  0.00     0.074 A 
ATOM     64  C   UNL A   1      46.495  36.913  30.324  1.00  0.00     0.031 C 
ATOM     65  C   UNL A   1      44.632  36.650  31.938  1.00  0.00     0.034 A 
BRANCH  52  66
ATOM     66  C   UNL A   1      39.810  33.065  33.350  1.00  0.00     0.023 A 
ATOM     67  C   UNL A   1      39.999  32.483  34.619  1.00  0.00     0.012 A 
ATOM     68  C   UNL A   1      38.525  33.484  32.961  1.00  0.00     0.148 A 
ATOM     69  C   UNL A   1      38.921  32.303  35.484  1.00  0.00     0.002 A 
ATOM     70  C   UNL A   1      37.461  33.340  33.845  1.00  0.00     0.091 A 
ATOM     71  F   UNL A   1      38.365  34.013  31.740  1.00  0.00    -0.205 F 
ATOM     72  C   UNL A   1      37.657  32.743  35.102  1.00  0.00     0.022 A 
BRANCH  70  73
ATOM     73  S   UNL A   1      35.809  33.940  33.482  1.00  0.00     0.127 S 
ATOM     74  O   UNL A   1      35.057  33.449  34.637  1.00  0.00    -0.237 OA
ATOM     75  O   UNL A   1      36.009  35.388  33.456  1.00  0.00    -0.237 OA
ATOM     76  O   UNL A   1      35.436  33.351  32.204  1.00  0.00    -0.744 OA
ENDBRANCH  70  73
ENDBRANCH  52  66
BRANCH  53  77
ATOM     77  C   UNL A   1      47.695  34.198  27.311  1.00  0.00     0.023 A 
ATOM     78  C   UNL A   1      47.532  34.785  26.041  1.00  0.00     0.012 A 
ATOM     79  C   UNL A   1      48.983  33.807  27.725  1.00  0.00     0.148 A 
ATOM     80  C   UNL A   1      48.626  34.963  25.193  1.00  0.00     0.002 A 
ATOM     81  C   UNL A   1      50.077  34.035  26.897  1.00  0.00     0.091 A 
ATOM     82  F   UNL A   1      49.115  33.229  28.927  1.00  0.00    -0.205 F 
ATOM     83  C   UNL A   1      49.899  34.599  25.624  1.00  0.00     0.022 A 
BRANCH  81  84
ATOM     84  S   UNL A   1      51.767  33.713  27.413  1.00  0.00     0.127 S 
ATOM     85  O   UNL A   1      51.848  34.469  28.661  1.00  0.00    -0.237 OA
ATOM     86  O   UNL A   1      51.759  32.260  27.571  1.00  0.00    -0.237 OA
ATOM     87  O   UNL A   1      52.609  34.198  26.327  1.00  0.00    -0.744 OA
ENDBRANCH  81  84
ENDBRANCH  53  77
BRANCH  65  88
ATOM     88  C   UNL A   1      44.981  37.986  32.542  1.00  0.00     0.023 A 
ATOM     89  C   UNL A   1      45.997  38.057  33.514  1.00  0.00     0.012 A 
ATOM     90  C   UNL A   1      44.420  39.178  32.038  1.00  0.00     0.148 A 
ATOM     91  C   UNL A   1      46.444  39.291  33.985  1.00  0.00     0.002 A 
ATOM     92  C   UNL A   1      44.905  40.406  32.475  1.00  0.00     0.091 A 
ATOM     93  F   UNL A   1      43.449  39.087  31.119  1.00  0.00    -0.205 F 
ATOM     94  C   UNL A   1      45.911  40.464  33.454  1.00  0.00     0.022 A 
BRANCH  92  95
ATOM     95  S   UNL A   1      44.363  41.970  31.774  1.00  0.00     0.127 S 
ATOM     96  O   UNL A   1      44.700  41.796  30.363  1.00  0.00    -0.237 OA
ATOM     97  O   UNL A   1      42.930  41.958  32.065  1.00  0.00    -0.237 OA
ATOM     98  O   UNL A   1      45.117  43.006  32.467  1.00  0.00    -0.744 OA
ENDBRANCH  92  95
ENDBRANCH  65  88
ENDBRANCH  39  40
ENDBRANCH  32  34
ENDBRANCH  31  32
ENDBRANCH  30  31
ENDBRANCH  29  30
ENDBRANCH  28  29
ENDBRANCH  27  28
ENDBRANCH   1  27
TORSDOF 24
ENDMDL
MODEL 2
REMARK VINA RESULT:      -7.4      2.014      3.032
REMARK SMILES Cc1cc(Cl)c2c(c1)C=C(C(=O)OCCOCCOCCOCCOC(=O)c1ccc(-c3c4nc(c(-c5cccc(S(=O)(=O)[O-])c5F)c5ccc([nH]5)c(-c5cccc(S(=O)(=O)[O-])c5F)c5nc(c(-c6cccc(S(=O)(=O)[O-])c6F)c6ccc3[nH]6)C=C5)C=C4)cc1)[C@@H](C(F)(F)F)O2
REMARK SMILES IDX 20 1 19 2 18 3 17 4 16 5 15 6 14 7 13 8 11 9 12 10 10 11
REMARK SMILES IDX 1 12 2 13 3 14 8 15 4 16 7 17 5 18 6 19 9 20 96 21 91 22
REMARK SMILES IDX 92 23 93 24 94 25 95 26 21 27 22 28 23 29 24 30 25 31 26 32
REMARK SMILES IDX 27 33 28 34 29 35 90 36 30 37 89 38 31 39 32 40 33 41 83 42
REMARK SMILES IDX 34 43 88 44 82 45 84 46 35 47 87 48 81 49 80 50 36 52 68 53
REMARK SMILES IDX 48 54 67 55 49 56 52 57 66 58 85 59 50 60 51 61 65 63 86 64
REMARK SMILES IDX 53 65 37 66 38 67 46 68 39 69 41 70 47 71 40 72 42 73 43 74
REMARK SMILES IDX 44 75 45 76 69 77 70 78 78 79 71 80 73 81 79 82 72 83 74 84
REMARK SMILES IDX 75 85 76 86 77 87 54 88 55 89 63 90 56 91 58 92 64 93 57 94
REMARK SMILES IDX 59 95 60 96 61 97 62 98
REMARK H PARENT 84 51 52 62
REMARK Flexibility Score: inf
ROOT
ATOM      1  C   UNL A   1      42.296  19.023  26.540  1.00  0.00     0.188 C 
ENDROOT
BRANCH   1   2
ATOM      2  O   UNL A   1      42.706  19.091  25.174  1.00  0.00    -0.377 OA
BRANCH   2   3
ATOM      3  C   UNL A   1      44.062  18.829  24.865  1.00  0.00     0.188 C 
BRANCH   3   4
ATOM      4  C   UNL A   1      44.844  20.081  24.431  1.00  0.00     0.188 C 
BRANCH   4   5
ATOM      5  O   UNL A   1      45.254  20.894  25.524  1.00  0.00    -0.376 OA
BRANCH   5   6
ATOM      6  C   UNL A   1      44.707  22.203  25.620  1.00  0.00     0.202 C 
BRANCH   6   7
ATOM      7  C   UNL A   1      45.166  23.110  26.772  1.00  0.00     0.261 C 
BRANCH   7   8
ATOM      8  O   UNL A   1      46.572  23.387  26.824  1.00  0.00    -0.460 OA
BRANCH   8   9
ATOM      9  C   UNL A   1      46.967  24.595  27.265  1.00  0.00     0.338 C 
ATOM     10  O   UNL A   1      47.007  24.976  28.423  1.00  0.00    -0.246 OA
BRANCH   9  11
ATOM     11  C   UNL A   1      47.530  25.333  26.111  1.00  0.00     0.087 C 
ATOM     12  C   UNL A   1      52.856  27.478  23.841  1.00  0.00     0.044 C 
ATOM     13  C   UNL A   1      51.387  27.176  23.860  1.00  0.00    -0.049 A 
ATOM     14  C   UNL A   1      50.551  27.687  22.862  1.00  0.00     0.028 A 
ATOM     15  C   UNL A   1      50.818  26.442  24.909  1.00  0.00     0.015 A 
ATOM     16  C   UNL A   1      49.177  27.433  22.892  1.00  0.00     0.084 A 
ATOM     17  C   UNL A   1      49.435  26.213  24.959  1.00  0.00     0.019 A 
ATOM     18  Cl  UNL A   1      48.204  28.093  21.625  1.00  0.00    -0.080 Cl
ATOM     19  C   UNL A   1      48.611  26.687  23.935  1.00  0.00     0.146 A 
ATOM     20  C   UNL A   1      48.856  25.521  26.098  1.00  0.00     0.027 C 
ATOM     21  O   UNL A   1      47.264  26.465  23.903  1.00  0.00    -0.474 OA
ATOM     22  C   UNL A   1      46.612  25.758  24.992  1.00  0.00     0.316 C 
BRANCH  22  23
ATOM     23  C   UNL A   1      45.455  26.629  25.503  1.00  0.00     0.430 C 
ATOM     24  F   UNL A   1      44.320  26.405  24.806  1.00  0.00    -0.167 F 
ATOM     25  F   UNL A   1      45.181  26.393  26.807  1.00  0.00    -0.167 F 
ATOM     26  F   UNL A   1      45.751  27.947  25.389  1.00  0.00    -0.167 F 
ENDBRANCH  22  23
ENDBRANCH   9  11
ENDBRANCH   8   9
ENDBRANCH   7   8
ENDBRANCH   6   7
ENDBRANCH   5   6
ENDBRANCH   4   5
ENDBRANCH   3   4
ENDBRANCH   2   3
ENDBRANCH   1   2
BRANCH   1  27
ATOM     27  C   UNL A   1      42.205  20.279  27.439  1.00  0.00     0.188 C 
BRANCH  27  28
ATOM     28  O   UNL A   1      41.328  21.294  26.954  1.00  0.00    -0.376 OA
BRANCH  28  29
ATOM     29  C   UNL A   1      41.252  22.488  27.720  1.00  0.00     0.202 C 
BRANCH  29  30
ATOM     30  C   UNL A   1      40.825  23.723  26.919  1.00  0.00     0.261 C 
BRANCH  30  31
ATOM     31  O   UNL A   1      41.675  24.872  27.070  1.00  0.00    -0.460 OA
BRANCH  31  32
ATOM     32  C   UNL A   1      41.445  25.928  26.261  1.00  0.00     0.338 C 
ATOM     33  O   UNL A   1      40.765  25.947  25.250  1.00  0.00    -0.246 OA
BRANCH  32  34
ATOM     34  C   UNL A   1      41.996  27.124  26.929  1.00  0.00     0.060 A 
ATOM     35  C   UNL A   1      42.466  27.010  28.243  1.00  0.00     0.016 A 
ATOM     36  C   UNL A   1      42.070  28.341  26.248  1.00  0.00     0.016 A 
ATOM     37  C   UNL A   1      42.981  28.130  28.894  1.00  0.00     0.010 A 
ATOM     38  C   UNL A   1      42.567  29.466  26.908  1.00  0.00     0.010 A 
ATOM     39  C   UNL A   1      42.992  29.372  28.244  1.00  0.00    -0.014 A 
BRANCH  39  40
ATOM     40  C   UNL A   1      43.229  30.602  29.034  1.00  0.00     0.031 A 
ATOM     41  C   UNL A   1      42.109  31.107  29.901  1.00  0.00     0.074 A 
ATOM     42  C   UNL A   1      44.408  31.248  29.000  1.00  0.00     0.049 A 
ATOM     43  N   UNL A   1      42.087  32.133  30.709  1.00  0.00    -0.248 NA
ATOM     44  C   UNL A   1      40.845  30.349  29.855  1.00  0.00     0.031 C 
ATOM     45  C   UNL A   1      45.567  30.854  28.202  1.00  0.00     0.029 A 
ATOM     46  N   UNL A   1      44.817  32.385  29.651  1.00  0.00    -0.354 N 
ATOM     47  C   UNL A   1      40.814  32.146  31.265  1.00  0.00     0.074 A 
ATOM     48  C   UNL A   1      40.081  31.046  30.681  1.00  0.00     0.031 C 
ATOM     49  C   UNL A   1      46.555  31.744  28.402  1.00  0.00     0.029 A 
ATOM     50  C   UNL A   1      46.095  32.778  29.330  1.00  0.00     0.049 A 
ATOM     51  H   UNL A   1      44.247  32.874  30.289  1.00  0.00     0.167 HD
ATOM     52  C   UNL A   1      40.309  32.981  32.200  1.00  0.00     0.034 A 
ATOM     53  C   UNL A   1      46.805  33.851  29.737  1.00  0.00     0.034 A 
ATOM     54  C   UNL A   1      41.039  34.068  32.786  1.00  0.00     0.049 A 
ATOM     55  C   UNL A   1      46.191  34.808  30.731  1.00  0.00     0.074 A 
ATOM     56  C   UNL A   1      40.624  34.947  33.769  1.00  0.00     0.029 A 
ATOM     57  N   UNL A   1      42.326  34.438  32.431  1.00  0.00    -0.354 N 
ATOM     58  N   UNL A   1      45.039  34.730  31.350  1.00  0.00    -0.248 NA
ATOM     59  C   UNL A   1      46.987  35.990  31.100  1.00  0.00     0.031 C 
ATOM     60  C   UNL A   1      41.651  35.867  33.990  1.00  0.00     0.029 A 
ATOM     61  C   UNL A   1      42.715  35.547  33.160  1.00  0.00     0.049 A 
ATOM     62  H   UNL A   1      42.882  33.979  31.760  1.00  0.00     0.167 HD
ATOM     63  C   UNL A   1      44.980  35.834  32.196  1.00  0.00     0.074 A 
ATOM     64  C   UNL A   1      46.225  36.553  32.029  1.00  0.00     0.031 C 
ATOM     65  C   UNL A   1      43.977  36.227  33.020  1.00  0.00     0.034 A 
BRANCH  52  66
ATOM     66  C   UNL A   1      38.909  32.720  32.687  1.00  0.00     0.023 A 
ATOM     67  C   UNL A   1      38.718  31.925  33.836  1.00  0.00     0.012 A 
ATOM     68  C   UNL A   1      37.799  33.314  32.060  1.00  0.00     0.148 A 
ATOM     69  C   UNL A   1      37.439  31.709  34.343  1.00  0.00     0.002 A 
ATOM     70  C   UNL A   1      36.529  33.128  32.597  1.00  0.00     0.091 A 
ATOM     71  F   UNL A   1      38.002  34.045  30.956  1.00  0.00    -0.205 F 
ATOM     72  C   UNL A   1      36.348  32.320  33.732  1.00  0.00     0.022 A 
BRANCH  70  73
ATOM     73  S   UNL A   1      35.067  33.930  31.931  1.00  0.00     0.127 S 
ATOM     74  O   UNL A   1      35.215  35.290  32.450  1.00  0.00    -0.237 OA
ATOM     75  O   UNL A   1      35.277  33.801  30.490  1.00  0.00    -0.237 OA
ATOM     76  O   UNL A   1      33.927  33.188  32.452  1.00  0.00    -0.744 OA
ENDBRANCH  70  73
ENDBRANCH  52  66
BRANCH  53  77
ATOM     77  C   UNL A   1      48.199  34.053  29.246  1.00  0.00     0.023 A 
ATOM     78  C   UNL A   1      49.279  33.594  30.026  1.00  0.00     0.012 A 
ATOM     79  C   UNL A   1      48.463  34.673  28.010  1.00  0.00     0.148 A 
ATOM     80  C   UNL A   1      50.594  33.767  29.593  1.00  0.00     0.002 A 
ATOM     81  C   UNL A   1      49.773  34.795  27.559  1.00  0.00     0.091 A 
ATOM     82  F   UNL A   1      47.424  35.124  27.291  1.00  0.00    -0.205 F 
ATOM     83  C   UNL A   1      50.841  34.356  28.357  1.00  0.00     0.022 A 
BRANCH  81  84
ATOM     84  S   UNL A   1      50.184  35.429  25.930  1.00  0.00     0.127 S 
ATOM     85  O   UNL A   1      49.357  34.590  25.065  1.00  0.00    -0.237 OA
ATOM     86  O   UNL A   1      49.751  36.822  26.034  1.00  0.00    -0.237 OA
ATOM     87  O   UNL A   1      51.623  35.251  25.790  1.00  0.00    -0.744 OA
ENDBRANCH  81  84
ENDBRANCH  53  77
BRANCH  65  88
ATOM     88  C   UNL A   1      44.156  37.495  33.816  1.00  0.00     0.023 A 
ATOM     89  C   UNL A   1      44.890  37.456  35.016  1.00  0.00     0.012 A 
ATOM     90  C   UNL A   1      43.738  38.739  33.300  1.00  0.00     0.148 A 
ATOM     91  C   UNL A   1      45.198  38.633  35.699  1.00  0.00     0.002 A 
ATOM     92  C   UNL A   1      44.092  39.912  33.958  1.00  0.00     0.091 A 
ATOM     93  F   UNL A   1      43.033  38.753  32.159  1.00  0.00    -0.205 F 
ATOM     94  C   UNL A   1      44.814  39.860  35.161  1.00  0.00     0.022 A 
BRANCH  92  95
ATOM     95  S   UNL A   1      43.741  41.544  33.292  1.00  0.00     0.127 S 
ATOM     96  O   UNL A   1      42.281  41.588  33.364  1.00  0.00    -0.237 OA
ATOM     97  O   UNL A   1      44.425  42.419  34.243  1.00  0.00    -0.237 OA
ATOM     98  O   UNL A   1      44.294  41.558  31.944  1.00  0.00    -0.744 OA
ENDBRANCH  92  95
ENDBRANCH  65  88
ENDBRANCH  39  40
ENDBRANCH  32  34
ENDBRANCH  31  32
ENDBRANCH  30  31
ENDBRANCH  29  30
ENDBRANCH  28  29
ENDBRANCH  27  28
ENDBRANCH   1  27
TORSDOF 24
ENDMDL
MODEL 3
REMARK VINA RESULT:      -7.4      1.724      7.923
REMARK SMILES Cc1cc(Cl)c2c(c1)C=C(C(=O)OCCOCCOCCOCCOC(=O)c1ccc(-c3c4nc(c(-c5cccc(S(=O)(=O)[O-])c5F)c5ccc([nH]5)c(-c5cccc(S(=O)(=O)[O-])c5F)c5nc(c(-c6cccc(S(=O)(=O)[O-])c6F)c6ccc3[nH]6)C=C5)C=C4)cc1)[C@@H](C(F)(F)F)O2
REMARK SMILES IDX 20 1 19 2 18 3 17 4 16 5 15 6 14 7 13 8 11 9 12 10 10 11
REMARK SMILES IDX 1 12 2 13 3 14 8 15 4 16 7 17 5 18 6 19 9 20 96 21 91 22
REMARK SMILES IDX 92 23 93 24 94 25 95 26 21 27 22 28 23 29 24 30 25 31 26 32
REMARK SMILES IDX 27 33 28 34 29 35 90 36 30 37 89 38 31 39 32 40 33 41 83 42
REMARK SMILES IDX 34 43 88 44 82 45 84 46 35 47 87 48 81 49 80 50 36 52 68 53
REMARK SMILES IDX 48 54 67 55 49 56 52 57 66 58 85 59 50 60 51 61 65 63 86 64
REMARK SMILES IDX 53 65 37 66 38 67 46 68 39 69 41 70 47 71 40 72 42 73 43 74
REMARK SMILES IDX 44 75 45 76 69 77 70 78 78 79 71 80 73 81 79 82 72 83 74 84
REMARK SMILES IDX 75 85 76 86 77 87 54 88 55 89 63 90 56 91 58 92 64 93 57 94
REMARK SMILES IDX 59 95 60 96 61 97 62 98
REMARK H PARENT 84 51 52 62
REMARK Flexibility Score: inf
ROOT
ATOM      1  C   UNL A   1      42.655  18.626  26.186  1.00  0.00     0.188 C 
ENDROOT
BRANCH   1   2
ATOM      2  O   UNL A   1      43.100  18.931  24.863  1.00  0.00    -0.377 OA
BRANCH   2   3
ATOM      3  C   UNL A   1      44.484  18.844  24.583  1.00  0.00     0.188 C 
BRANCH   3   4
ATOM      4  C   UNL A   1      45.133  20.204  24.274  1.00  0.00     0.188 C 
BRANCH   4   5
ATOM      5  O   UNL A   1      45.473  20.943  25.441  1.00  0.00    -0.376 OA
BRANCH   5   6
ATOM      6  C   UNL A   1      44.760  22.148  25.696  1.00  0.00     0.202 C 
BRANCH   6   7
ATOM      7  C   UNL A   1      45.210  23.036  26.866  1.00  0.00     0.261 C 
BRANCH   7   8
ATOM      8  O   UNL A   1      46.590  23.427  26.856  1.00  0.00    -0.460 OA
BRANCH   8   9
ATOM      9  C   UNL A   1      46.903  24.669  27.265  1.00  0.00     0.338 C 
ATOM     10  O   UNL A   1      46.886  25.091  28.408  1.00  0.00    -0.246 OA
BRANCH   9  11
ATOM     11  C   UNL A   1      47.459  25.399  26.102  1.00  0.00     0.087 C 
ATOM     12  C   UNL A   1      52.786  27.414  23.719  1.00  0.00     0.044 C 
ATOM     13  C   UNL A   1      51.311  27.151  23.772  1.00  0.00    -0.049 A 
ATOM     14  C   UNL A   1      50.466  27.690  22.795  1.00  0.00     0.028 A 
ATOM     15  C   UNL A   1      50.747  26.426  24.829  1.00  0.00     0.015 A 
ATOM     16  C   UNL A   1      49.086  27.473  22.856  1.00  0.00     0.084 A 
ATOM     17  C   UNL A   1      49.359  26.234  24.910  1.00  0.00     0.019 A 
ATOM     18  Cl  UNL A   1      48.103  28.166  21.616  1.00  0.00    -0.080 Cl
ATOM     19  C   UNL A   1      48.525  26.736  23.908  1.00  0.00     0.146 A 
ATOM     20  C   UNL A   1      48.789  25.551  26.059  1.00  0.00     0.027 C 
ATOM     21  O   UNL A   1      47.172  26.551  23.906  1.00  0.00    -0.474 OA
ATOM     22  C   UNL A   1      46.527  25.855  25.007  1.00  0.00     0.316 C 
BRANCH  22  23
ATOM     23  C   UNL A   1      45.406  26.753  25.549  1.00  0.00     0.430 C 
ATOM     24  F   UNL A   1      45.795  27.416  26.660  1.00  0.00    -0.167 F 
ATOM     25  F   UNL A   1      45.016  27.679  24.644  1.00  0.00    -0.167 F 
ATOM     26  F   UNL A   1      44.310  26.024  25.872  1.00  0.00    -0.167 F 
ENDBRANCH  22  23
ENDBRANCH   9  11
ENDBRANCH   8   9
ENDBRANCH   7   8
ENDBRANCH   6   7
ENDBRANCH   5   6
ENDBRANCH   4   5
ENDBRANCH   3   4
ENDBRANCH   2   3
ENDBRANCH   1   2
BRANCH   1  27
ATOM     27  C   UNL A   1      42.529  19.708  27.285  1.00  0.00     0.188 C 
BRANCH  27  28
ATOM     28  O   UNL A   1      41.615  20.760  26.981  1.00  0.00    -0.376 OA
BRANCH  28  29
ATOM     29  C   UNL A   1      41.684  21.919  27.799  1.00  0.00     0.202 C 
BRANCH  29  30
ATOM     30  C   UNL A   1      40.813  23.084  27.314  1.00  0.00     0.261 C 
BRANCH  30  31
ATOM     31  O   UNL A   1      41.519  24.312  27.070  1.00  0.00    -0.460 OA
BRANCH  31  32
ATOM     32  C   UNL A   1      40.831  25.322  26.497  1.00  0.00     0.338 C 
ATOM     33  O   UNL A   1      39.836  25.233  25.799  1.00  0.00    -0.246 OA
BRANCH  32  34
ATOM     34  C   UNL A   1      41.372  26.586  27.035  1.00  0.00     0.060 A 
ATOM     35  C   UNL A   1      42.220  26.540  28.149  1.00  0.00     0.016 A 
ATOM     36  C   UNL A   1      41.062  27.804  26.425  1.00  0.00     0.016 A 
ATOM     37  C   UNL A   1      42.734  27.723  28.677  1.00  0.00     0.010 A 
ATOM     38  C   UNL A   1      41.560  28.989  26.968  1.00  0.00     0.010 A 
ATOM     39  C   UNL A   1      42.369  28.955  28.116  1.00  0.00    -0.014 A 
BRANCH  39  40
ATOM     40  C   UNL A   1      42.645  30.203  28.865  1.00  0.00     0.031 A 
ATOM     41  C   UNL A   1      43.860  30.999  28.479  1.00  0.00     0.074 A 
ATOM     42  C   UNL A   1      41.834  30.632  29.848  1.00  0.00     0.049 A 
ATOM     43  N   UNL A   1      44.289  32.137  28.956  1.00  0.00    -0.248 NA
ATOM     44  C   UNL A   1      44.705  30.439  27.408  1.00  0.00     0.031 C 
ATOM     45  C   UNL A   1      40.627  29.950  30.309  1.00  0.00     0.029 A 
ATOM     46  N   UNL A   1      41.917  31.747  30.645  1.00  0.00    -0.354 N 
ATOM     47  C   UNL A   1      45.448  32.429  28.248  1.00  0.00     0.074 A 
ATOM     48  C   UNL A   1      45.675  31.335  27.330  1.00  0.00     0.031 C 
ATOM     49  C   UNL A   1      40.086  30.656  31.318  1.00  0.00     0.029 A 
ATOM     50  C   UNL A   1      40.916  31.831  31.584  1.00  0.00     0.049 A 
ATOM     51  H   UNL A   1      42.627  32.422  30.553  1.00  0.00     0.167 HD
ATOM     52  C   UNL A   1      46.238  33.522  28.332  1.00  0.00     0.034 A 
ATOM     53  C   UNL A   1      40.701  32.751  32.549  1.00  0.00     0.034 A 
ATOM     54  C   UNL A   1      46.009  34.612  29.237  1.00  0.00     0.049 A 
ATOM     55  C   UNL A   1      41.639  33.929  32.667  1.00  0.00     0.074 A 
ATOM     56  C   UNL A   1      46.733  35.781  29.370  1.00  0.00     0.029 A 
ATOM     57  N   UNL A   1      44.990  34.658  30.176  1.00  0.00    -0.354 N 
ATOM     58  N   UNL A   1      42.650  34.260  31.901  1.00  0.00    -0.248 NA
ATOM     59  C   UNL A   1      41.392  34.873  33.769  1.00  0.00     0.031 C 
ATOM     60  C   UNL A   1      46.169  36.525  30.409  1.00  0.00     0.029 A 
ATOM     61  C   UNL A   1      45.079  35.827  30.908  1.00  0.00     0.049 A 
ATOM     62  H   UNL A   1      44.305  33.963  30.302  1.00  0.00     0.167 HD
ATOM     63  C   UNL A   1      43.144  35.458  32.412  1.00  0.00     0.074 A 
ATOM     64  C   UNL A   1      42.304  35.808  33.537  1.00  0.00     0.031 C 
ATOM     65  C   UNL A   1      44.208  36.190  31.997  1.00  0.00     0.034 A 
BRANCH  52  66
ATOM     66  C   UNL A   1      47.401  33.620  27.383  1.00  0.00     0.023 A 
ATOM     67  C   UNL A   1      47.294  34.447  26.247  1.00  0.00     0.012 A 
ATOM     68  C   UNL A   1      48.614  32.959  27.649  1.00  0.00     0.148 A 
ATOM     69  C   UNL A   1      48.371  34.600  25.377  1.00  0.00     0.002 A 
ATOM     70  C   UNL A   1      49.698  33.150  26.800  1.00  0.00     0.091 A 
ATOM     71  F   UNL A   1      48.685  32.158  28.722  1.00  0.00    -0.205 F 
ATOM     72  C   UNL A   1      49.575  33.962  25.661  1.00  0.00     0.022 A 
BRANCH  70  73
ATOM     73  S   UNL A   1      51.315  32.435  27.114  1.00  0.00     0.127 S 
ATOM     74  O   UNL A   1      51.770  32.128  25.758  1.00  0.00    -0.237 OA
ATOM     75  O   UNL A   1      52.019  33.544  27.757  1.00  0.00    -0.237 OA
ATOM     76  O   UNL A   1      51.087  31.278  27.968  1.00  0.00    -0.744 OA
ENDBRANCH  70  73
ENDBRANCH  52  66
BRANCH  53  77
ATOM     77  C   UNL A   1      39.519  32.625  33.449  1.00  0.00     0.023 A 
ATOM     78  C   UNL A   1      39.639  31.894  34.648  1.00  0.00     0.012 A 
ATOM     79  C   UNL A   1      38.289  33.238  33.141  1.00  0.00     0.148 A 
ATOM     80  C   UNL A   1      38.552  31.760  35.512  1.00  0.00     0.002 A 
ATOM     81  C   UNL A   1      37.225  33.145  34.032  1.00  0.00     0.091 A 
ATOM     82  F   UNL A   1      38.187  33.910  31.986  1.00  0.00    -0.205 F 
ATOM     83  C   UNL A   1      37.350  32.393  35.211  1.00  0.00     0.022 A 
BRANCH  81  84
ATOM     84  S   UNL A   1      35.678  34.025  33.790  1.00  0.00     0.127 S 
ATOM     85  O   UNL A   1      34.954  33.120  32.899  1.00  0.00    -0.237 OA
ATOM     86  O   UNL A   1      35.158  34.093  35.155  1.00  0.00    -0.237 OA
ATOM     87  O   UNL A   1      36.044  35.313  33.217  1.00  0.00    -0.744 OA
ENDBRANCH  81  84
ENDBRANCH  53  77
BRANCH  65  88
ATOM     88  C   UNL A   1      44.552  37.448  32.752  1.00  0.00     0.023 A 
ATOM     89  C   UNL A   1      45.462  37.379  33.825  1.00  0.00     0.012 A 
ATOM     90  C   UNL A   1      44.104  38.708  32.305  1.00  0.00     0.148 A 
ATOM     91  C   UNL A   1      45.914  38.542  34.449  1.00  0.00     0.002 A 
ATOM     92  C   UNL A   1      44.596  39.865  32.899  1.00  0.00     0.091 A 
ATOM     93  F   UNL A   1      43.231  38.750  31.288  1.00  0.00    -0.205 F 
ATOM     94  C   UNL A   1      45.494  39.784  33.975  1.00  0.00     0.022 A 
BRANCH  92  95
ATOM     95  S   UNL A   1      44.204  41.511  32.292  1.00  0.00     0.127 S 
ATOM     96  O   UNL A   1      45.047  41.598  31.101  1.00  0.00    -0.237 OA
ATOM     97  O   UNL A   1      42.771  41.406  32.018  1.00  0.00    -0.237 OA
ATOM     98  O   UNL A   1      44.554  42.432  33.365  1.00  0.00    -0.744 OA
ENDBRANCH  92  95
ENDBRANCH  65  88
ENDBRANCH  39  40
ENDBRANCH  32  34
ENDBRANCH  31  32
ENDBRANCH  30  31
ENDBRANCH  29  30
ENDBRANCH  28  29
ENDBRANCH  27  28
ENDBRANCH   1  27
TORSDOF 24
ENDMDL
