MODEL 1
REMARK VINA RESULT:      -7.6      0.000      0.000
REMARK SMILES Cc1c(CC(=O)OCCOCCOCCOCCOC(=O)c2ccc(-c3c4nc(c(-c5cccc(S(=O)(=O)[O-])c5F)c5ccc([nH]5)c(-c5cccc(S(=O)(=O)[O-])c5F)c5nc(c(-c6cccc(S(=O)(=O)[O-])c6F)c6ccc3[nH]6)C=C5)C=C4)cc2)cc(-c2ccc(S(C)(=O)=O)cc2)n1-c1ccccc1
REMARK SMILES IDX 13 1 12 2 11 3 10 4 9 5 8 6 7 7 5 8 6 9 4 10 3 11 1 12 2 13
REMARK SMILES IDX 97 14 85 15 86 16 98 17 99 18 103 19 100 20 102 21 101 22
REMARK SMILES IDX 87 23 88 24 96 25 89 26 95 27 90 28 91 29 92 30 93 31 94 32
REMARK SMILES IDX 14 33 15 34 16 35 17 36 18 37 19 38 20 39 21 40 22 41 23 42
REMARK SMILES IDX 84 43 24 44 83 45 25 46 26 47 27 48 77 49 28 50 82 51 76 52
REMARK SMILES IDX 78 53 29 54 81 55 75 56 74 57 30 59 62 60 42 61 61 62 43 63
REMARK SMILES IDX 46 64 60 65 79 66 44 67 45 68 59 70 80 71 47 72 31 73 32 74
REMARK SMILES IDX 40 75 33 76 35 77 41 78 34 79 36 80 37 81 38 82 39 83 63 84
REMARK SMILES IDX 64 85 72 86 65 87 67 88 73 89 66 90 68 91 69 92 70 93 71 94
REMARK SMILES IDX 48 95 49 96 57 97 50 98 52 99 58 100 51 101 53 102 54 103
REMARK SMILES IDX 55 104 56 105
REMARK H PARENT 78 58 46 69
REMARK Flexibility Score: inf
ROOT
ATOM      1  O   UNL A   1      35.616  24.154  25.635  1.00  0.00    -0.377 OA
ENDROOT
BRANCH   1   2
ATOM      2  C   UNL A   1      34.467  24.336  24.834  1.00  0.00     0.188 C 
BRANCH   2   3
ATOM      3  C   UNL A   1      34.015  25.789  24.640  1.00  0.00     0.188 C 
BRANCH   3   4
ATOM      4  O   UNL A   1      33.630  26.551  25.790  1.00  0.00    -0.376 OA
BRANCH   4   5
ATOM      5  C   UNL A   1      33.768  27.959  25.716  1.00  0.00     0.202 C 
BRANCH   5   6
ATOM      6  C   UNL A   1      34.333  28.550  27.018  1.00  0.00     0.261 C 
BRANCH   6   7
ATOM      7  O   UNL A   1      35.101  29.761  26.828  1.00  0.00    -0.463 OA
BRANCH   7   8
ATOM      8  C   UNL A   1      36.239  29.869  27.566  1.00  0.00     0.310 C 
ATOM      9  O   UNL A   1      37.346  30.105  27.083  1.00  0.00    -0.252 OA
BRANCH   8  10
ATOM     10  C   UNL A   1      36.084  29.508  29.032  1.00  0.00     0.160 C 
BRANCH  10  11
ATOM     11  C   UNL A   1      35.990  30.598  30.069  1.00  0.00    -0.015 A 
ATOM     12  C   UNL A   1      34.392  32.322  28.918  1.00  0.00     0.065 C 
ATOM     13  C   UNL A   1      35.283  31.801  29.997  1.00  0.00     0.024 A 
ATOM     14  N   UNL A   1      35.507  32.504  31.176  1.00  0.00    -0.314 N 
ATOM     15  C   UNL A   1      36.783  30.681  31.253  1.00  0.00     0.033 A 
ATOM     16  C   UNL A   1      36.545  31.899  31.866  1.00  0.00     0.053 A 
BRANCH  14  17
ATOM     17  C   UNL A   1      34.787  33.629  31.647  1.00  0.00     0.046 A 
ATOM     18  C   UNL A   1      34.179  33.605  32.902  1.00  0.00     0.026 A 
ATOM     19  C   UNL A   1      34.558  34.686  30.756  1.00  0.00     0.026 A 
ATOM     20  C   UNL A   1      33.331  34.656  33.262  1.00  0.00     0.002 A 
ATOM     21  C   UNL A   1      33.715  35.731  31.127  1.00  0.00     0.002 A 
ATOM     22  C   UNL A   1      33.098  35.713  32.377  1.00  0.00     0.000 A 
ENDBRANCH  14  17
BRANCH  16  23
ATOM     23  C   UNL A   1      37.280  32.554  32.952  1.00  0.00    -0.001 A 
ATOM     24  C   UNL A   1      37.776  33.857  32.828  1.00  0.00     0.011 A 
ATOM     25  C   UNL A   1      37.534  31.833  34.128  1.00  0.00     0.011 A 
ATOM     26  C   UNL A   1      38.521  34.434  33.864  1.00  0.00     0.021 A 
ATOM     27  C   UNL A   1      38.275  32.402  35.166  1.00  0.00     0.021 A 
ATOM     28  C   UNL A   1      38.768  33.700  35.027  1.00  0.00     0.067 A 
BRANCH  28  29
ATOM     29  S   UNL A   1      39.645  34.466  36.372  1.00  0.00     0.175 S 
ATOM     30  C   UNL A   1      40.044  36.096  35.798  1.00  0.00     0.163 C 
ATOM     31  O   UNL A   1      38.727  34.556  37.474  1.00  0.00    -0.224 OA
ATOM     32  O   UNL A   1      40.910  33.740  36.523  1.00  0.00    -0.224 OA
ENDBRANCH  28  29
ENDBRANCH  16  23
ENDBRANCH  10  11
ENDBRANCH   8  10
ENDBRANCH   7   8
ENDBRANCH   6   7
ENDBRANCH   5   6
ENDBRANCH   4   5
ENDBRANCH   3   4
ENDBRANCH   2   3
ENDBRANCH   1   2
BRANCH   1  33
ATOM     33  C   UNL A   1      36.819  23.709  25.027  1.00  0.00     0.188 C 
BRANCH  33  34
ATOM     34  C   UNL A   1      37.430  22.577  25.855  1.00  0.00     0.188 C 
BRANCH  34  35
ATOM     35  O   UNL A   1      38.785  22.256  25.548  1.00  0.00    -0.376 OA
BRANCH  35  36
ATOM     36  C   UNL A   1      39.722  22.252  26.633  1.00  0.00     0.202 C 
BRANCH  36  37
ATOM     37  C   UNL A   1      40.298  23.636  27.019  1.00  0.00     0.261 C 
BRANCH  37  38
ATOM     38  O   UNL A   1      39.677  24.852  26.464  1.00  0.00    -0.460 OA
BRANCH  38  39
ATOM     39  C   UNL A   1      40.384  26.044  26.498  1.00  0.00     0.338 C 
ATOM     40  O   UNL A   1      41.216  26.340  25.652  1.00  0.00    -0.246 OA
BRANCH  39  41
ATOM     41  C   UNL A   1      40.062  26.973  27.695  1.00  0.00     0.060 A 
ATOM     42  C   UNL A   1      39.390  26.655  28.914  1.00  0.00     0.016 A 
ATOM     43  C   UNL A   1      40.414  28.282  27.646  1.00  0.00     0.016 A 
ATOM     44  C   UNL A   1      39.158  27.619  30.088  1.00  0.00     0.010 A 
ATOM     45  C   UNL A   1      40.146  29.136  28.780  1.00  0.00     0.010 A 
ATOM     46  C   UNL A   1      39.537  28.975  30.079  1.00  0.00    -0.014 A 
BRANCH  46  47
ATOM     47  C   UNL A   1      40.019  30.085  31.378  1.00  0.00     0.031 A 
ATOM     48  C   UNL A   1      40.196  29.133  32.548  1.00  0.00     0.074 A 
ATOM     49  C   UNL A   1      40.594  31.400  31.678  1.00  0.00     0.049 A 
ATOM     50  N   UNL A   1      40.683  27.945  32.296  1.00  0.00    -0.248 NA
ATOM     51  C   UNL A   1      40.439  29.483  33.945  1.00  0.00     0.031 C 
ATOM     52  C   UNL A   1      40.746  32.624  30.847  1.00  0.00     0.029 A 
ATOM     53  N   UNL A   1      41.336  31.934  32.868  1.00  0.00    -0.354 N 
ATOM     54  C   UNL A   1      41.909  28.108  32.857  1.00  0.00     0.074 A 
ATOM     55  C   UNL A   1      41.556  28.756  34.129  1.00  0.00     0.031 C 
ATOM     56  C   UNL A   1      41.369  33.676  31.496  1.00  0.00     0.029 A 
ATOM     57  C   UNL A   1      41.843  33.329  32.851  1.00  0.00     0.049 A 
ATOM     58  H   UNL A   1      41.487  31.362  33.656  1.00  0.00     0.167 HD
ATOM     59  C   UNL A   1      43.049  28.310  32.115  1.00  0.00     0.034 A 
ATOM     60  C   UNL A   1      42.679  34.032  33.790  1.00  0.00     0.034 A 
ATOM     61  C   UNL A   1      44.152  28.815  32.813  1.00  0.00     0.049 A 
ATOM     62  C   UNL A   1      43.835  33.120  33.767  1.00  0.00     0.074 A 
ATOM     63  C   UNL A   1      44.855  28.573  33.957  1.00  0.00     0.029 A 
ATOM     64  N   UNL A   1      44.710  29.869  32.174  1.00  0.00    -0.354 N 
ATOM     65  N   UNL A   1      44.815  33.342  32.936  1.00  0.00    -0.248 NA
ATOM     66  C   UNL A   1      44.084  32.239  34.910  1.00  0.00     0.031 C 
ATOM     67  C   UNL A   1      46.011  29.402  33.871  1.00  0.00     0.029 A 
ATOM     68  C   UNL A   1      45.864  30.238  32.764  1.00  0.00     0.049 A 
ATOM     69  H   UNL A   1      44.322  30.309  31.382  1.00  0.00     0.167 HD
ATOM     70  C   UNL A   1      45.752  32.426  33.319  1.00  0.00     0.074 A 
ATOM     71  C   UNL A   1      45.381  32.020  34.673  1.00  0.00     0.031 C 
ATOM     72  C   UNL A   1      46.222  31.573  32.376  1.00  0.00     0.034 A 
BRANCH  59  73
ATOM     73  C   UNL A   1      43.296  28.348  30.554  1.00  0.00     0.023 A 
ATOM     74  C   UNL A   1      43.473  29.563  29.821  1.00  0.00     0.012 A 
ATOM     75  C   UNL A   1      43.580  27.178  29.841  1.00  0.00     0.148 A 
ATOM     76  C   UNL A   1      43.668  29.606  28.431  1.00  0.00     0.002 A 
ATOM     77  C   UNL A   1      43.906  27.231  28.473  1.00  0.00     0.091 A 
ATOM     78  F   UNL A   1      43.549  26.012  30.499  1.00  0.00    -0.205 F 
ATOM     79  C   UNL A   1      43.892  28.430  27.750  1.00  0.00     0.022 A 
BRANCH  77  80
ATOM     80  S   UNL A   1      44.465  25.747  27.641  1.00  0.00     0.127 S 
ATOM     81  O   UNL A   1      44.743  26.237  26.292  1.00  0.00    -0.237 OA
ATOM     82  O   UNL A   1      45.654  25.345  28.394  1.00  0.00    -0.237 OA
ATOM     83  O   UNL A   1      43.340  24.826  27.768  1.00  0.00    -0.744 OA
ENDBRANCH  77  80
ENDBRANCH  59  73
BRANCH  60  84
ATOM     84  C   UNL A   1      43.454  35.390  34.521  1.00  0.00     0.023 A 
ATOM     85  C   UNL A   1      44.156  35.440  35.732  1.00  0.00     0.012 A 
ATOM     86  C   UNL A   1      43.572  36.710  33.832  1.00  0.00     0.148 A 
ATOM     87  C   UNL A   1      44.900  36.627  36.146  1.00  0.00     0.002 A 
ATOM     88  C   UNL A   1      44.403  37.800  34.152  1.00  0.00     0.091 A 
ATOM     89  F   UNL A   1      42.682  37.081  32.930  1.00  0.00    -0.205 F 
ATOM     90  C   UNL A   1      45.067  37.775  35.350  1.00  0.00     0.022 A 
BRANCH  88  91
ATOM     91  S   UNL A   1      44.575  39.268  33.050  1.00  0.00     0.127 S 
ATOM     92  O   UNL A   1      43.232  39.421  32.491  1.00  0.00    -0.237 OA
ATOM     93  O   UNL A   1      44.954  40.314  34.001  1.00  0.00    -0.237 OA
ATOM     94  O   UNL A   1      45.607  38.954  32.068  1.00  0.00    -0.744 OA
ENDBRANCH  88  91
ENDBRANCH  60  84
BRANCH  72  95
ATOM     95  C   UNL A   1      46.210  32.156  30.962  1.00  0.00     0.023 A 
ATOM     96  C   UNL A   1      45.235  33.129  30.713  1.00  0.00     0.012 A 
ATOM     97  C   UNL A   1      46.951  31.660  29.844  1.00  0.00     0.148 A 
ATOM     98  C   UNL A   1      45.000  33.602  29.418  1.00  0.00     0.002 A 
ATOM     99  C   UNL A   1      46.718  32.135  28.550  1.00  0.00     0.091 A 
ATOM    100  F   UNL A   1      47.825  30.665  30.047  1.00  0.00    -0.205 F 
ATOM    101  C   UNL A   1      45.740  33.113  28.342  1.00  0.00     0.022 A 
BRANCH  99 102
ATOM    102  S   UNL A   1      47.560  31.526  27.073  1.00  0.00     0.127 S 
ATOM    103  O   UNL A   1      47.328  32.599  26.107  1.00  0.00    -0.237 OA
ATOM    104  O   UNL A   1      48.948  31.408  27.518  1.00  0.00    -0.237 OA
ATOM    105  O   UNL A   1      46.936  30.256  26.726  1.00  0.00    -0.744 OA
ENDBRANCH  99 102
ENDBRANCH  72  95
ENDBRANCH  46  47
ENDBRANCH  39  41
ENDBRANCH  38  39
ENDBRANCH  37  38
ENDBRANCH  36  37
ENDBRANCH  35  36
ENDBRANCH  34  35
ENDBRANCH  33  34
ENDBRANCH   1  33
TORSDOF 27
ENDMDL
MODEL 2
REMARK VINA RESULT:      -7.3      5.636      9.097
REMARK SMILES Cc1c(CC(=O)OCCOCCOCCOCCOC(=O)c2ccc(-c3c4nc(c(-c5cccc(S(=O)(=O)[O-])c5F)c5ccc([nH]5)c(-c5cccc(S(=O)(=O)[O-])c5F)c5nc(c(-c6cccc(S(=O)(=O)[O-])c6F)c6ccc3[nH]6)C=C5)C=C4)cc2)cc(-c2ccc(S(C)(=O)=O)cc2)n1-c1ccccc1
REMARK SMILES IDX 13 1 12 2 11 3 10 4 9 5 8 6 7 7 5 8 6 9 4 10 3 11 1 12 2 13
REMARK SMILES IDX 97 14 85 15 86 16 98 17 99 18 103 19 100 20 102 21 101 22
REMARK SMILES IDX 87 23 88 24 96 25 89 26 95 27 90 28 91 29 92 30 93 31 94 32
REMARK SMILES IDX 14 33 15 34 16 35 17 36 18 37 19 38 20 39 21 40 22 41 23 42
REMARK SMILES IDX 84 43 24 44 83 45 25 46 26 47 27 48 77 49 28 50 82 51 76 52
REMARK SMILES IDX 78 53 29 54 81 55 75 56 74 57 30 59 62 60 42 61 61 62 43 63
REMARK SMILES IDX 46 64 60 65 79 66 44 67 45 68 59 70 80 71 47 72 31 73 32 74
REMARK SMILES IDX 40 75 33 76 35 77 41 78 34 79 36 80 37 81 38 82 39 83 63 84
REMARK SMILES IDX 64 85 72 86 65 87 67 88 73 89 66 90 68 91 69 92 70 93 71 94
REMARK SMILES IDX 48 95 49 96 57 97 50 98 52 99 58 100 51 101 53 102 54 103
REMARK SMILES IDX 55 104 56 105
REMARK H PARENT 78 58 46 69
REMARK Flexibility Score: inf
ROOT
ATOM      1  O   UNL A   1      36.317  21.841  24.201  1.00  0.00    -0.377 OA
ENDROOT
BRANCH   1   2
ATOM      2  C   UNL A   1      35.712  23.117  24.221  1.00  0.00     0.188 C 
BRANCH   2   3
ATOM      3  C   UNL A   1      34.181  23.126  24.313  1.00  0.00     0.188 C 
BRANCH   3   4
ATOM      4  O   UNL A   1      33.471  24.299  23.900  1.00  0.00    -0.376 OA
BRANCH   4   5
ATOM      5  C   UNL A   1      33.307  25.333  24.854  1.00  0.00     0.202 C 
BRANCH   5   6
ATOM      6  C   UNL A   1      32.637  26.575  24.246  1.00  0.00     0.261 C 
BRANCH   6   7
ATOM      7  O   UNL A   1      32.068  27.474  25.226  1.00  0.00    -0.463 OA
BRANCH   7   8
ATOM      8  C   UNL A   1      32.245  28.803  24.992  1.00  0.00     0.310 C 
ATOM      9  O   UNL A   1      32.697  29.257  23.943  1.00  0.00    -0.252 OA
BRANCH   8  10
ATOM     10  C   UNL A   1      32.001  29.699  26.193  1.00  0.00     0.160 C 
BRANCH  10  11
ATOM     11  C   UNL A   1      33.156  30.113  27.069  1.00  0.00    -0.015 A 
ATOM     12  C   UNL A   1      32.802  32.699  27.264  1.00  0.00     0.065 C 
ATOM     13  C   UNL A   1      33.497  31.399  27.498  1.00  0.00     0.024 A 
ATOM     14  N   UNL A   1      34.652  31.305  28.267  1.00  0.00    -0.314 N 
ATOM     15  C   UNL A   1      34.240  29.271  27.460  1.00  0.00     0.033 A 
ATOM     16  C   UNL A   1      35.192  30.038  28.108  1.00  0.00     0.053 A 
BRANCH  14  17
ATOM     17  C   UNL A   1      35.194  32.300  29.116  1.00  0.00     0.046 A 
ATOM     18  C   UNL A   1      36.232  33.120  28.672  1.00  0.00     0.026 A 
ATOM     19  C   UNL A   1      34.783  32.320  30.456  1.00  0.00     0.026 A 
ATOM     20  C   UNL A   1      36.862  33.967  29.589  1.00  0.00     0.002 A 
ATOM     21  C   UNL A   1      35.414  33.172  31.359  1.00  0.00     0.002 A 
ATOM     22  C   UNL A   1      36.456  33.991  30.927  1.00  0.00     0.000 A 
ENDBRANCH  14  17
BRANCH  16  23
ATOM     23  C   UNL A   1      36.570  29.699  28.476  1.00  0.00    -0.001 A 
ATOM     24  C   UNL A   1      36.917  29.328  29.780  1.00  0.00     0.011 A 
ATOM     25  C   UNL A   1      37.574  29.800  27.501  1.00  0.00     0.011 A 
ATOM     26  C   UNL A   1      38.252  29.064  30.111  1.00  0.00     0.021 A 
ATOM     27  C   UNL A   1      38.907  29.537  27.823  1.00  0.00     0.021 A 
ATOM     28  C   UNL A   1      39.240  29.173  29.129  1.00  0.00     0.067 A 
BRANCH  28  29
ATOM     29  S   UNL A   1      40.922  28.758  29.534  1.00  0.00     0.175 S 
ATOM     30  C   UNL A   1      41.853  29.111  28.066  1.00  0.00     0.163 C 
ATOM     31  O   UNL A   1      41.331  29.647  30.587  1.00  0.00    -0.224 OA
ATOM     32  O   UNL A   1      40.966  27.306  29.734  1.00  0.00    -0.224 OA
ENDBRANCH  28  29
ENDBRANCH  16  23
ENDBRANCH  10  11
ENDBRANCH   8  10
ENDBRANCH   7   8
ENDBRANCH   6   7
ENDBRANCH   5   6
ENDBRANCH   4   5
ENDBRANCH   3   4
ENDBRANCH   2   3
ENDBRANCH   1   2
BRANCH   1  33
ATOM     33  C   UNL A   1      36.948  21.357  25.376  1.00  0.00     0.188 C 
BRANCH  33  34
ATOM     34  C   UNL A   1      37.993  22.366  25.857  1.00  0.00     0.188 C 
BRANCH  34  35
ATOM     35  O   UNL A   1      39.280  21.824  26.147  1.00  0.00    -0.376 OA
BRANCH  35  36
ATOM     36  C   UNL A   1      40.240  22.700  26.751  1.00  0.00     0.202 C 
BRANCH  36  37
ATOM     37  C   UNL A   1      41.665  22.641  26.149  1.00  0.00     0.261 C 
BRANCH  37  38
ATOM     38  O   UNL A   1      42.722  23.493  26.723  1.00  0.00    -0.460 OA
BRANCH  38  39
ATOM     39  C   UNL A   1      42.393  24.765  27.169  1.00  0.00     0.338 C 
ATOM     40  O   UNL A   1      41.397  25.361  26.782  1.00  0.00    -0.246 OA
BRANCH  39  41
ATOM     41  C   UNL A   1      43.386  25.390  28.180  1.00  0.00     0.060 A 
ATOM     42  C   UNL A   1      43.547  25.098  29.568  1.00  0.00     0.016 A 
ATOM     43  C   UNL A   1      44.233  26.368  27.774  1.00  0.00     0.016 A 
ATOM     44  C   UNL A   1      44.599  25.720  30.499  1.00  0.00     0.010 A 
ATOM     45  C   UNL A   1      45.184  26.923  28.711  1.00  0.00     0.010 A 
ATOM     46  C   UNL A   1      45.511  26.716  30.101  1.00  0.00    -0.014 A 
BRANCH  46  47
ATOM     47  C   UNL A   1      47.153  27.113  30.648  1.00  0.00     0.031 A 
ATOM     48  C   UNL A   1      46.978  28.537  31.145  1.00  0.00     0.074 A 
ATOM     49  C   UNL A   1      48.436  26.556  31.088  1.00  0.00     0.049 A 
ATOM     50  N   UNL A   1      45.850  28.841  31.733  1.00  0.00    -0.248 NA
ATOM     51  C   UNL A   1      48.026  29.460  31.573  1.00  0.00     0.031 C 
ATOM     52  C   UNL A   1      49.029  25.201  30.934  1.00  0.00     0.029 A 
ATOM     53  N   UNL A   1      49.539  27.105  31.945  1.00  0.00    -0.354 N 
ATOM     54  C   UNL A   1      46.312  28.959  33.005  1.00  0.00     0.074 A 
ATOM     55  C   UNL A   1      47.533  29.751  32.791  1.00  0.00     0.031 C 
ATOM     56  C   UNL A   1      50.277  25.059  31.515  1.00  0.00     0.029 A 
ATOM     57  C   UNL A   1      50.719  26.259  32.254  1.00  0.00     0.049 A 
ATOM     58  H   UNL A   1      49.480  28.022  32.301  1.00  0.00     0.167 HD
ATOM     59  C   UNL A   1      46.110  27.996  33.965  1.00  0.00     0.034 A 
ATOM     60  C   UNL A   1      51.832  26.493  33.139  1.00  0.00     0.034 A 
ATOM     61  C   UNL A   1      46.932  28.076  35.095  1.00  0.00     0.049 A 
ATOM     62  C   UNL A   1      51.072  26.700  34.383  1.00  0.00     0.074 A 
ATOM     63  C   UNL A   1      47.353  28.998  36.008  1.00  0.00     0.029 A 
ATOM     64  N   UNL A   1      47.492  26.881  35.393  1.00  0.00    -0.354 N 
ATOM     65  N   UNL A   1      50.835  25.687  35.169  1.00  0.00    -0.248 NA
ATOM     66  C   UNL A   1      50.944  28.050  34.936  1.00  0.00     0.031 C 
ATOM     67  C   UNL A   1      48.031  28.250  37.013  1.00  0.00     0.029 A 
ATOM     68  C   UNL A   1      48.143  26.931  36.572  1.00  0.00     0.049 A 
ATOM     69  H   UNL A   1      47.433  26.080  34.822  1.00  0.00     0.167 HD
ATOM     70  C   UNL A   1      50.285  26.280  36.270  1.00  0.00     0.074 A 
ATOM     71  C   UNL A   1      50.660  27.690  36.192  1.00  0.00     0.031 C 
ATOM     72  C   UNL A   1      49.070  25.841  36.680  1.00  0.00     0.034 A 
BRANCH  59  73
ATOM     73  C   UNL A   1      45.312  26.631  33.936  1.00  0.00     0.023 A 
ATOM     74  C   UNL A   1      45.877  25.407  33.459  1.00  0.00     0.012 A 
ATOM     75  C   UNL A   1      44.081  26.503  34.587  1.00  0.00     0.148 A 
ATOM     76  C   UNL A   1      45.166  24.197  33.407  1.00  0.00     0.002 A 
ATOM     77  C   UNL A   1      43.427  25.258  34.651  1.00  0.00     0.091 A 
ATOM     78  F   UNL A   1      43.551  27.592  35.162  1.00  0.00    -0.205 F 
ATOM     79  C   UNL A   1      43.932  24.119  34.014  1.00  0.00     0.022 A 
BRANCH  77  80
ATOM     80  S   UNL A   1      41.962  25.082  35.665  1.00  0.00     0.127 S 
ATOM     81  O   UNL A   1      42.470  25.401  36.998  1.00  0.00    -0.237 OA
ATOM     82  O   UNL A   1      41.032  26.072  35.120  1.00  0.00    -0.237 OA
ATOM     83  O   UNL A   1      41.550  23.698  35.452  1.00  0.00    -0.744 OA
ENDBRANCH  77  80
ENDBRANCH  59  73
BRANCH  60  84
ATOM     84  C   UNL A   1      53.386  26.228  33.841  1.00  0.00     0.023 A 
ATOM     85  C   UNL A   1      54.270  27.174  34.374  1.00  0.00     0.012 A 
ATOM     86  C   UNL A   1      53.930  24.858  34.085  1.00  0.00     0.148 A 
ATOM     87  C   UNL A   1      55.485  26.785  35.085  1.00  0.00     0.002 A 
ATOM     88  C   UNL A   1      55.016  24.473  34.892  1.00  0.00     0.091 A 
ATOM     89  F   UNL A   1      53.552  23.840  33.336  1.00  0.00    -0.205 F 
ATOM     90  C   UNL A   1      55.833  25.455  35.387  1.00  0.00     0.022 A 
BRANCH  88  91
ATOM     91  S   UNL A   1      55.404  22.706  35.250  1.00  0.00     0.127 S 
ATOM     92  O   UNL A   1      56.856  22.645  35.083  1.00  0.00    -0.237 OA
ATOM     93  O   UNL A   1      54.950  22.574  36.635  1.00  0.00    -0.237 OA
ATOM     94  O   UNL A   1      54.651  21.897  34.298  1.00  0.00    -0.744 OA
ENDBRANCH  88  91
ENDBRANCH  60  84
BRANCH  72  95
ATOM     95  C   UNL A   1      48.807  24.370  36.352  1.00  0.00     0.023 A 
ATOM     96  C   UNL A   1      48.868  24.029  34.996  1.00  0.00     0.012 A 
ATOM     97  C   UNL A   1      48.311  23.384  37.262  1.00  0.00     0.148 A 
ATOM     98  C   UNL A   1      48.465  22.767  34.550  1.00  0.00     0.002 A 
ATOM     99  C   UNL A   1      47.913  22.121  36.815  1.00  0.00     0.091 A 
ATOM    100  F   UNL A   1      48.160  23.721  38.550  1.00  0.00    -0.205 F 
ATOM    101  C   UNL A   1      47.996  21.814  35.454  1.00  0.00     0.022 A 
BRANCH  99 102
ATOM    102  S   UNL A   1      47.220  20.836  37.879  1.00  0.00     0.127 S 
ATOM    103  O   UNL A   1      46.035  21.487  38.437  1.00  0.00    -0.237 OA
ATOM    104  O   UNL A   1      46.925  19.759  36.935  1.00  0.00    -0.237 OA
ATOM    105  O   UNL A   1      48.244  20.504  38.861  1.00  0.00    -0.744 OA
ENDBRANCH  99 102
ENDBRANCH  72  95
ENDBRANCH  46  47
ENDBRANCH  39  41
ENDBRANCH  38  39
ENDBRANCH  37  38
ENDBRANCH  36  37
ENDBRANCH  35  36
ENDBRANCH  34  35
ENDBRANCH  33  34
ENDBRANCH   1  33
TORSDOF 27
ENDMDL
MODEL 3
REMARK VINA RESULT:      -6.9      5.513     11.692
REMARK SMILES Cc1c(CC(=O)OCCOCCOCCOCCOC(=O)c2ccc(-c3c4nc(c(-c5cccc(S(=O)(=O)[O-])c5F)c5ccc([nH]5)c(-c5cccc(S(=O)(=O)[O-])c5F)c5nc(c(-c6cccc(S(=O)(=O)[O-])c6F)c6ccc3[nH]6)C=C5)C=C4)cc2)cc(-c2ccc(S(C)(=O)=O)cc2)n1-c1ccccc1
REMARK SMILES IDX 13 1 12 2 11 3 10 4 9 5 8 6 7 7 5 8 6 9 4 10 3 11 1 12 2 13
REMARK SMILES IDX 97 14 85 15 86 16 98 17 99 18 103 19 100 20 102 21 101 22
REMARK SMILES IDX 87 23 88 24 96 25 89 26 95 27 90 28 91 29 92 30 93 31 94 32
REMARK SMILES IDX 14 33 15 34 16 35 17 36 18 37 19 38 20 39 21 40 22 41 23 42
REMARK SMILES IDX 84 43 24 44 83 45 25 46 26 47 27 48 77 49 28 50 82 51 76 52
REMARK SMILES IDX 78 53 29 54 81 55 75 56 74 57 30 59 62 60 42 61 61 62 43 63
REMARK SMILES IDX 46 64 60 65 79 66 44 67 45 68 59 70 80 71 47 72 31 73 32 74
REMARK SMILES IDX 40 75 33 76 35 77 41 78 34 79 36 80 37 81 38 82 39 83 63 84
REMARK SMILES IDX 64 85 72 86 65 87 67 88 73 89 66 90 68 91 69 92 70 93 71 94
REMARK SMILES IDX 48 95 49 96 57 97 50 98 52 99 58 100 51 101 53 102 54 103
REMARK SMILES IDX 55 104 56 105
REMARK H PARENT 78 58 46 69
REMARK Flexibility Score: inf
ROOT
ATOM      1  O   UNL A   1      43.060  33.273  38.928  1.00  0.00    -0.377 OA
ENDROOT
BRANCH   1   2
ATOM      2  C   UNL A   1      41.851  32.825  38.352  1.00  0.00     0.188 C 
BRANCH   2   3
ATOM      3  C   UNL A   1      41.250  33.737  37.274  1.00  0.00     0.188 C 
BRANCH   3   4
ATOM      4  O   UNL A   1      40.376  34.798  37.675  1.00  0.00    -0.376 OA
BRANCH   4   5
ATOM      5  C   UNL A   1      38.984  34.588  37.528  1.00  0.00     0.202 C 
BRANCH   5   6
ATOM      6  C   UNL A   1      38.652  33.808  36.247  1.00  0.00     0.261 C 
BRANCH   6   7
ATOM      7  O   UNL A   1      37.234  33.666  35.996  1.00  0.00    -0.463 OA
BRANCH   7   8
ATOM      8  C   UNL A   1      36.833  33.849  34.708  1.00  0.00     0.310 C 
ATOM      9  O   UNL A   1      36.453  34.929  34.258  1.00  0.00    -0.252 OA
BRANCH   8  10
ATOM     10  C   UNL A   1      36.723  32.576  33.889  1.00  0.00     0.160 C 
BRANCH  10  11
ATOM     11  C   UNL A   1      37.888  32.117  33.051  1.00  0.00    -0.015 A 
ATOM     12  C   UNL A   1      39.233  34.336  32.711  1.00  0.00     0.065 C 
ATOM     13  C   UNL A   1      38.938  32.883  32.538  1.00  0.00     0.024 A 
ATOM     14  N   UNL A   1      39.769  32.041  31.805  1.00  0.00    -0.314 N 
ATOM     15  C   UNL A   1      38.021  30.825  32.458  1.00  0.00     0.033 A 
ATOM     16  C   UNL A   1      39.124  30.828  31.622  1.00  0.00     0.053 A 
BRANCH  14  17
ATOM     17  C   UNL A   1      41.076  32.326  31.342  1.00  0.00     0.046 A 
ATOM     18  C   UNL A   1      41.268  33.084  30.186  1.00  0.00     0.026 A 
ATOM     19  C   UNL A   1      42.152  31.686  31.970  1.00  0.00     0.026 A 
ATOM     20  C   UNL A   1      42.557  33.196  29.659  1.00  0.00     0.002 A 
ATOM     21  C   UNL A   1      43.434  31.809  31.439  1.00  0.00     0.002 A 
ATOM     22  C   UNL A   1      43.636  32.559  30.281  1.00  0.00     0.000 A 
ENDBRANCH  14  17
BRANCH  16  23
ATOM     23  C   UNL A   1      39.534  29.843  30.616  1.00  0.00    -0.001 A 
ATOM     24  C   UNL A   1      40.201  28.663  30.967  1.00  0.00     0.011 A 
ATOM     25  C   UNL A   1      39.294  30.120  29.262  1.00  0.00     0.011 A 
ATOM     26  C   UNL A   1      40.628  27.769  29.977  1.00  0.00     0.021 A 
ATOM     27  C   UNL A   1      39.716  29.232  28.270  1.00  0.00     0.021 A 
ATOM     28  C   UNL A   1      40.384  28.062  28.632  1.00  0.00     0.067 A 
BRANCH  28  29
ATOM     29  S   UNL A   1      40.856  26.885  27.384  1.00  0.00     0.175 S 
ATOM     30  C   UNL A   1      42.464  26.314  27.869  1.00  0.00     0.163 C 
ATOM     31  O   UNL A   1      39.918  25.798  27.457  1.00  0.00    -0.224 OA
ATOM     32  O   UNL A   1      41.023  27.634  26.135  1.00  0.00    -0.224 OA
ENDBRANCH  28  29
ENDBRANCH  16  23
ENDBRANCH  10  11
ENDBRANCH   8  10
ENDBRANCH   7   8
ENDBRANCH   6   7
ENDBRANCH   5   6
ENDBRANCH   4   5
ENDBRANCH   3   4
ENDBRANCH   2   3
ENDBRANCH   1   2
BRANCH   1  33
ATOM     33  C   UNL A   1      44.287  32.968  38.284  1.00  0.00     0.188 C 
BRANCH  33  34
ATOM     34  C   UNL A   1      45.206  34.191  38.312  1.00  0.00     0.188 C 
BRANCH  34  35
ATOM     35  O   UNL A   1      46.568  33.927  38.640  1.00  0.00    -0.376 OA
BRANCH  35  36
ATOM     36  C   UNL A   1      47.380  33.315  37.630  1.00  0.00     0.202 C 
BRANCH  36  37
ATOM     37  C   UNL A   1      48.649  34.105  37.227  1.00  0.00     0.261 C 
BRANCH  37  38
ATOM     38  O   UNL A   1      49.473  33.615  36.108  1.00  0.00    -0.460 OA
BRANCH  38  39
ATOM     39  C   UNL A   1      50.131  34.533  35.304  1.00  0.00     0.338 C 
ATOM     40  O   UNL A   1      51.216  35.014  35.605  1.00  0.00    -0.246 OA
BRANCH  39  41
ATOM     41  C   UNL A   1      49.390  34.927  34.003  1.00  0.00     0.060 A 
ATOM     42  C   UNL A   1      48.096  35.513  33.856  1.00  0.00     0.016 A 
ATOM     43  C   UNL A   1      49.973  34.697  32.800  1.00  0.00     0.016 A 
ATOM     44  C   UNL A   1      47.447  35.933  32.528  1.00  0.00     0.010 A 
ATOM     45  C   UNL A   1      49.295  35.101  31.589  1.00  0.00     0.010 A 
ATOM     46  C   UNL A   1      48.039  35.734  31.266  1.00  0.00    -0.014 A 
BRANCH  46  47
ATOM     47  C   UNL A   1      47.917  36.633  29.740  1.00  0.00     0.031 A 
ATOM     48  C   UNL A   1      47.055  35.705  28.902  1.00  0.00     0.074 A 
ATOM     49  C   UNL A   1      48.023  37.957  29.118  1.00  0.00     0.049 A 
ATOM     50  N   UNL A   1      46.106  35.042  29.511  1.00  0.00    -0.248 NA
ATOM     51  C   UNL A   1      46.739  35.833  27.481  1.00  0.00     0.031 C 
ATOM     52  C   UNL A   1      48.673  39.213  29.577  1.00  0.00     0.029 A 
ATOM     53  N   UNL A   1      47.420  38.545  27.876  1.00  0.00    -0.354 N 
ATOM     54  C   UNL A   1      45.038  35.714  29.008  1.00  0.00     0.074 A 
ATOM     55  C   UNL A   1      45.397  35.795  27.584  1.00  0.00     0.031 C 
ATOM     56  C   UNL A   1      48.538  40.275  28.698  1.00  0.00     0.029 A 
ATOM     57  C   UNL A   1      47.689  39.964  27.531  1.00  0.00     0.049 A 
ATOM     58  H   UNL A   1      46.847  37.994  27.295  1.00  0.00     0.167 HD
ATOM     59  C   UNL A   1      44.329  36.641  29.735  1.00  0.00     0.034 A 
ATOM     60  C   UNL A   1      47.140  40.792  26.488  1.00  0.00     0.034 A 
ATOM     61  C   UNL A   1      43.506  37.499  28.997  1.00  0.00     0.049 A 
ATOM     62  C   UNL A   1      45.717  40.665  26.844  1.00  0.00     0.074 A 
ATOM     63  C   UNL A   1      42.559  37.439  28.017  1.00  0.00     0.029 A 
ATOM     64  N   UNL A   1      43.691  38.793  29.346  1.00  0.00    -0.354 N 
ATOM     65  N   UNL A   1      45.171  41.541  27.640  1.00  0.00    -0.248 NA
ATOM     66  C   UNL A   1      44.835  39.839  26.016  1.00  0.00     0.031 C 
ATOM     67  C   UNL A   1      42.013  38.753  27.940  1.00  0.00     0.029 A 
ATOM     68  C   UNL A   1      42.779  39.589  28.753  1.00  0.00     0.049 A 
ATOM     69  H   UNL A   1      44.398  39.111  29.954  1.00  0.00     0.167 HD
ATOM     70  C   UNL A   1      43.847  41.210  27.594  1.00  0.00     0.074 A 
ATOM     71  C   UNL A   1      43.681  40.400  26.389  1.00  0.00     0.031 C 
ATOM     72  C   UNL A   1      43.220  40.955  28.769  1.00  0.00     0.034 A 
BRANCH  59  73
ATOM     73  C   UNL A   1      44.459  37.125  31.234  1.00  0.00     0.023 A 
ATOM     74  C   UNL A   1      45.075  38.362  31.604  1.00  0.00     0.012 A 
ATOM     75  C   UNL A   1      43.774  36.472  32.265  1.00  0.00     0.148 A 
ATOM     76  C   UNL A   1      45.216  38.788  32.935  1.00  0.00     0.002 A 
ATOM     77  C   UNL A   1      43.806  36.973  33.580  1.00  0.00     0.091 A 
ATOM     78  F   UNL A   1      43.076  35.369  31.962  1.00  0.00    -0.205 F 
ATOM     79  C   UNL A   1      44.571  38.090  33.932  1.00  0.00     0.022 A 
BRANCH  77  80
ATOM     80  S   UNL A   1      42.756  36.237  34.829  1.00  0.00     0.127 S 
ATOM     81  O   UNL A   1      43.590  36.332  36.026  1.00  0.00    -0.237 OA
ATOM     82  O   UNL A   1      41.571  37.096  34.849  1.00  0.00    -0.237 OA
ATOM     83  O   UNL A   1      42.504  34.888  34.330  1.00  0.00    -0.744 OA
ENDBRANCH  77  80
ENDBRANCH  59  73
BRANCH  60  84
ATOM     84  C   UNL A   1      47.011  42.169  25.454  1.00  0.00     0.023 A 
ATOM     85  C   UNL A   1      47.126  43.522  25.795  1.00  0.00     0.012 A 
ATOM     86  C   UNL A   1      46.883  42.046  23.971  1.00  0.00     0.148 A 
ATOM     87  C   UNL A   1      47.156  44.575  24.783  1.00  0.00     0.002 A 
ATOM     88  C   UNL A   1      47.059  43.037  22.987  1.00  0.00     0.091 A 
ATOM     89  F   UNL A   1      46.336  40.975  23.429  1.00  0.00    -0.205 F 
ATOM     90  C   UNL A   1      47.174  44.339  23.396  1.00  0.00     0.022 A 
BRANCH  88  91
ATOM     91  S   UNL A   1      47.079  42.646  21.185  1.00  0.00     0.127 S 
ATOM     92  O   UNL A   1      45.694  42.262  20.915  1.00  0.00    -0.237 OA
ATOM     93  O   UNL A   1      47.472  43.931  20.605  1.00  0.00    -0.237 OA
ATOM     94  O   UNL A   1      48.053  41.580  20.984  1.00  0.00    -0.744 OA
ENDBRANCH  88  91
ENDBRANCH  60  84
BRANCH  72  95
ATOM     95  C   UNL A   1      43.808  41.720  29.956  1.00  0.00     0.023 A 
ATOM     96  C   UNL A   1      45.192  41.597  30.133  1.00  0.00     0.012 A 
ATOM     97  C   UNL A   1      43.062  42.360  30.994  1.00  0.00     0.148 A 
ATOM     98  C   UNL A   1      45.820  42.091  31.280  1.00  0.00     0.002 A 
ATOM     99  C   UNL A   1      43.691  42.856  32.139  1.00  0.00     0.091 A 
ATOM    100  F   UNL A   1      41.727  42.407  30.886  1.00  0.00    -0.205 F 
ATOM    101  C   UNL A   1      45.076  42.722  32.277  1.00  0.00     0.022 A 
BRANCH  99 102
ATOM    102  S   UNL A   1      42.825  43.625  33.526  1.00  0.00     0.127 S 
ATOM    103  O   UNL A   1      42.022  42.522  34.052  1.00  0.00    -0.237 OA
ATOM    104  O   UNL A   1      43.921  44.040  34.401  1.00  0.00    -0.237 OA
ATOM    105  O   UNL A   1      42.048  44.729  32.978  1.00  0.00    -0.744 OA
ENDBRANCH  99 102
ENDBRANCH  72  95
ENDBRANCH  46  47
ENDBRANCH  39  41
ENDBRANCH  38  39
ENDBRANCH  37  38
ENDBRANCH  36  37
ENDBRANCH  35  36
ENDBRANCH  34  35
ENDBRANCH  33  34
ENDBRANCH   1  33
TORSDOF 27
ENDMDL
