MODEL 1
REMARK VINA RESULT:      -9.6      0.000      0.000
REMARK SMILES CC1(C)[C@H](C(=O)Nc2ccc(C(F)(F)F)nc2)[C@@H]1C(=O)OCCOCCOCCOCCOC(=O)c1ccc(-c2c3nc(c(-c4cccc(S(=O)(=O)[O-])c4F)c4ccc([nH]4)c(-c4cccc(S(=O)(=O)[O-])c4F)c4nc(c(-c5cccc(S(=O)(=O)[O-])c5F)c5ccc2[nH]5)C=C4)C=C3)cc1
REMARK SMILES IDX 27 1 26 2 25 3 24 4 23 5 22 6 21 7 19 8 20 9 18 10 1 11 2 12
REMARK SMILES IDX 3 13 4 14 5 15 6 16 7 17 8 19 9 20 17 21 10 22 16 23 11 24
REMARK SMILES IDX 12 25 13 26 14 27 15 28 28 29 29 30 30 31 31 32 32 33 33 34
REMARK SMILES IDX 34 35 35 36 36 37 37 38 98 39 38 40 97 41 39 42 40 43 41 44
REMARK SMILES IDX 91 45 42 46 96 47 90 48 92 49 43 50 95 51 89 52 88 53 44 55
REMARK SMILES IDX 76 56 56 57 75 58 57 59 60 60 74 61 93 62 58 63 59 64 73 66
REMARK SMILES IDX 94 67 61 68 45 69 46 70 54 71 47 72 49 73 55 74 48 75 50 76
REMARK SMILES IDX 51 77 52 78 53 79 77 80 78 81 86 82 79 83 81 84 87 85 80 86
REMARK SMILES IDX 82 87 83 88 84 89 85 90 62 91 63 92 71 93 64 94 66 95 72 96
REMARK SMILES IDX 65 97 67 98 68 99 69 100 70 101
REMARK H PARENT 7 18 92 54 60 65
REMARK Flexibility Score: inf
ROOT
ATOM      1  O   UNL A   1      42.045  20.549  26.795  1.00  0.00    -0.377 OA
ENDROOT
BRANCH   1   2
ATOM      2  C   UNL A   1      40.754  20.919  27.234  1.00  0.00     0.188 C 
BRANCH   2   3
ATOM      3  C   UNL A   1      39.937  21.662  26.162  1.00  0.00     0.188 C 
BRANCH   3   4
ATOM      4  O   UNL A   1      38.696  21.155  25.702  1.00  0.00    -0.376 OA
BRANCH   4   5
ATOM      5  C   UNL A   1      37.704  21.946  25.072  1.00  0.00     0.202 C 
BRANCH   5   6
ATOM      6  C   UNL A   1      36.286  22.189  25.595  1.00  0.00     0.261 C 
BRANCH   6   7
ATOM      7  O   UNL A   1      35.172  21.688  24.869  1.00  0.00    -0.463 OA
BRANCH   7   8
ATOM      8  C   UNL A   1      34.462  22.574  24.149  1.00  0.00     0.310 C 
ATOM      9  O   UNL A   1      34.143  22.459  22.965  1.00  0.00    -0.252 OA
BRANCH   8  10
ATOM     10  C   UNL A   1      33.899  23.593  25.043  1.00  0.00     0.118 C 
ATOM     11  C   UNL A   1      32.100  24.230  26.762  1.00  0.00     0.013 C 
ATOM     12  C   UNL A   1      32.444  23.905  25.320  1.00  0.00    -0.009 C 
ATOM     13  C   UNL A   1      31.367  23.086  24.669  1.00  0.00     0.013 C 
ATOM     14  C   UNL A   1      33.355  24.910  24.590  1.00  0.00     0.100 C 
BRANCH  14  15
ATOM     15  C   UNL A   1      33.162  25.496  23.223  1.00  0.00     0.228 C 
ATOM     16  O   UNL A   1      34.119  25.421  22.456  1.00  0.00    -0.274 OA
ATOM     17  N   UNL A   1      31.905  25.775  22.725  1.00  0.00    -0.324 N 
ATOM     18  H   UNL A   1      31.563  25.172  22.026  1.00  0.00     0.169 HD
BRANCH  17  19
ATOM     19  C   UNL A   1      31.067  26.830  23.115  1.00  0.00     0.059 A 
ATOM     20  C   UNL A   1      29.746  26.616  23.468  1.00  0.00     0.030 A 
ATOM     21  C   UNL A   1      31.501  28.146  23.073  1.00  0.00     0.137 A 
ATOM     22  C   UNL A   1      28.839  27.670  23.424  1.00  0.00     0.035 A 
ATOM     23  N   UNL A   1      30.648  29.206  23.054  1.00  0.00    -0.250 NA
ATOM     24  C   UNL A   1      29.307  28.934  23.083  1.00  0.00     0.144 A 
BRANCH  24  25
ATOM     25  C   UNL A   1      28.314  29.967  22.551  1.00  0.00     0.433 C 
ATOM     26  F   UNL A   1      27.120  29.962  23.210  1.00  0.00    -0.165 F 
ATOM     27  F   UNL A   1      28.778  31.251  22.626  1.00  0.00    -0.165 F 
ATOM     28  F   UNL A   1      27.994  29.783  21.232  1.00  0.00    -0.165 F 
ENDBRANCH  24  25
ENDBRANCH  17  19
ENDBRANCH  14  15
ENDBRANCH   8  10
ENDBRANCH   7   8
ENDBRANCH   6   7
ENDBRANCH   5   6
ENDBRANCH   4   5
ENDBRANCH   3   4
ENDBRANCH   2   3
ENDBRANCH   1   2
BRANCH   1  29
ATOM     29  C   UNL A   1      42.102  19.454  25.890  1.00  0.00     0.188 C 
BRANCH  29  30
ATOM     30  C   UNL A   1      43.176  18.370  26.135  1.00  0.00     0.188 C 
BRANCH  30  31
ATOM     31  O   UNL A   1      44.080  18.195  25.052  1.00  0.00    -0.376 OA
BRANCH  31  32
ATOM     32  C   UNL A   1      44.510  19.339  24.337  1.00  0.00     0.202 C 
BRANCH  32  33
ATOM     33  C   UNL A   1      45.447  20.315  25.065  1.00  0.00     0.261 C 
BRANCH  33  34
ATOM     34  O   UNL A   1      45.835  21.490  24.339  1.00  0.00    -0.460 OA
BRANCH  34  35
ATOM     35  C   UNL A   1      44.874  22.387  24.026  1.00  0.00     0.338 C 
ATOM     36  O   UNL A   1      44.140  22.359  23.054  1.00  0.00    -0.246 OA
BRANCH  35  37
ATOM     37  C   UNL A   1      44.710  23.290  25.189  1.00  0.00     0.060 A 
ATOM     38  C   UNL A   1      44.801  24.675  24.996  1.00  0.00     0.016 A 
ATOM     39  C   UNL A   1      44.430  22.772  26.456  1.00  0.00     0.016 A 
ATOM     40  C   UNL A   1      44.637  25.547  26.074  1.00  0.00     0.010 A 
ATOM     41  C   UNL A   1      44.297  23.645  27.540  1.00  0.00     0.010 A 
ATOM     42  C   UNL A   1      44.429  25.033  27.359  1.00  0.00    -0.014 A 
BRANCH  42  43
ATOM     43  C   UNL A   1      44.558  25.916  28.543  1.00  0.00     0.031 A 
ATOM     44  C   UNL A   1      45.899  26.008  29.216  1.00  0.00     0.074 A 
ATOM     45  C   UNL A   1      43.509  26.604  29.028  1.00  0.00     0.049 A 
ATOM     46  N   UNL A   1      46.239  26.636  30.310  1.00  0.00    -0.248 NA
ATOM     47  C   UNL A   1      47.006  25.286  28.565  1.00  0.00     0.031 C 
ATOM     48  C   UNL A   1      42.166  26.618  28.454  1.00  0.00     0.029 A 
ATOM     49  N   UNL A   1      43.410  27.399  30.143  1.00  0.00    -0.354 N 
ATOM     50  C   UNL A   1      47.587  26.358  30.500  1.00  0.00     0.074 A 
ATOM     51  C   UNL A   1      48.003  25.502  29.411  1.00  0.00     0.031 C 
ATOM     52  C   UNL A   1      41.365  27.355  29.243  1.00  0.00     0.029 A 
ATOM     53  C   UNL A   1      42.129  27.834  30.394  1.00  0.00     0.049 A 
ATOM     54  H   UNL A   1      44.180  27.636  30.709  1.00  0.00     0.167 HD
ATOM     55  C   UNL A   1      48.408  26.782  31.488  1.00  0.00     0.034 A 
ATOM     56  C   UNL A   1      41.628  28.506  31.451  1.00  0.00     0.034 A 
ATOM     57  C   UNL A   1      47.996  27.637  32.567  1.00  0.00     0.049 A 
ATOM     58  C   UNL A   1      42.551  28.918  32.571  1.00  0.00     0.074 A 
ATOM     59  C   UNL A   1      48.764  28.159  33.592  1.00  0.00     0.029 A 
ATOM     60  N   UNL A   1      46.697  28.074  32.777  1.00  0.00    -0.354 N 
ATOM     61  N   UNL A   1      43.847  28.747  32.682  1.00  0.00    -0.248 NA
ATOM     62  C   UNL A   1      41.946  29.639  33.702  1.00  0.00     0.031 C 
ATOM     63  C   UNL A   1      47.921  28.877  34.446  1.00  0.00     0.029 A 
ATOM     64  C   UNL A   1      46.636  28.838  33.930  1.00  0.00     0.049 A 
ATOM     65  H   UNL A   1      45.932  27.871  32.193  1.00  0.00     0.167 HD
ATOM     66  C   UNL A   1      44.215  29.361  33.875  1.00  0.00     0.074 A 
ATOM     67  C   UNL A   1      43.009  29.932  34.438  1.00  0.00     0.031 C 
ATOM     68  C   UNL A   1      45.437  29.436  34.460  1.00  0.00     0.034 A 
BRANCH  55  69
ATOM     69  C   UNL A   1      49.842  26.324  31.445  1.00  0.00     0.023 A 
ATOM     70  C   UNL A   1      50.798  27.069  30.724  1.00  0.00     0.012 A 
ATOM     71  C   UNL A   1      50.250  25.177  32.152  1.00  0.00     0.148 A 
ATOM     72  C   UNL A   1      52.130  26.659  30.676  1.00  0.00     0.002 A 
ATOM     73  C   UNL A   1      51.588  24.801  32.140  1.00  0.00     0.091 A 
ATOM     74  F   UNL A   1      49.322  24.468  32.811  1.00  0.00    -0.205 F 
ATOM     75  C   UNL A   1      52.525  25.532  31.392  1.00  0.00     0.022 A 
BRANCH  73  76
ATOM     76  S   UNL A   1      52.212  23.413  33.092  1.00  0.00     0.127 S 
ATOM     77  O   UNL A   1      51.735  22.276  32.304  1.00  0.00    -0.237 OA
ATOM     78  O   UNL A   1      53.657  23.629  33.036  1.00  0.00    -0.237 OA
ATOM     79  O   UNL A   1      51.627  23.539  34.419  1.00  0.00    -0.744 OA
ENDBRANCH  73  76
ENDBRANCH  55  69
BRANCH  56  80
ATOM     80  C   UNL A   1      40.176  28.839  31.506  1.00  0.00     0.023 A 
ATOM     81  C   UNL A   1      39.286  27.974  32.170  1.00  0.00     0.012 A 
ATOM     82  C   UNL A   1      39.674  30.011  30.905  1.00  0.00     0.148 A 
ATOM     83  C   UNL A   1      37.919  28.251  32.209  1.00  0.00     0.002 A 
ATOM     84  C   UNL A   1      38.321  30.313  31.000  1.00  0.00     0.091 A 
ATOM     85  F   UNL A   1      40.534  30.814  30.264  1.00  0.00    -0.205 F 
ATOM     86  C   UNL A   1      37.438  29.424  31.633  1.00  0.00     0.022 A 
BRANCH  84  87
ATOM     87  S   UNL A   1      37.633  31.863  30.411  1.00  0.00     0.127 S 
ATOM     88  O   UNL A   1      36.307  31.855  31.024  1.00  0.00    -0.237 OA
ATOM     89  O   UNL A   1      38.571  32.835  30.976  1.00  0.00    -0.237 OA
ATOM     90  O   UNL A   1      37.656  31.779  28.958  1.00  0.00    -0.744 OA
ENDBRANCH  84  87
ENDBRANCH  56  80
BRANCH  68  91
ATOM     91  C   UNL A   1      45.548  30.183  35.766  1.00  0.00     0.023 A 
ATOM     92  C   UNL A   1      45.545  31.592  35.772  1.00  0.00     0.012 A 
ATOM     93  C   UNL A   1      45.577  29.488  36.992  1.00  0.00     0.148 A 
ATOM     94  C   UNL A   1      45.604  32.296  36.975  1.00  0.00     0.002 A 
ATOM     95  C   UNL A   1      45.582  30.195  38.188  1.00  0.00     0.091 A 
ATOM     96  F   UNL A   1      45.591  28.146  36.965  1.00  0.00    -0.205 F 
ATOM     97  C   UNL A   1      45.610  31.600  38.182  1.00  0.00     0.022 A 
BRANCH  95  98
ATOM     98  S   UNL A   1      45.494  29.389  39.790  1.00  0.00     0.127 S 
ATOM     99  O   UNL A   1      46.898  29.378  40.197  1.00  0.00    -0.237 OA
ATOM    100  O   UNL A   1      44.647  30.307  40.551  1.00  0.00    -0.237 OA
ATOM    101  O   UNL A   1      44.905  28.079  39.552  1.00  0.00    -0.744 OA
ENDBRANCH  95  98
ENDBRANCH  68  91
ENDBRANCH  42  43
ENDBRANCH  35  37
ENDBRANCH  34  35
ENDBRANCH  33  34
ENDBRANCH  32  33
ENDBRANCH  31  32
ENDBRANCH  30  31
ENDBRANCH  29  30
ENDBRANCH   1  29
TORSDOF 26
ENDMDL
MODEL 2
REMARK VINA RESULT:      -9.2      5.870     10.703
REMARK SMILES CC1(C)[C@H](C(=O)Nc2ccc(C(F)(F)F)nc2)[C@@H]1C(=O)OCCOCCOCCOCCOC(=O)c1ccc(-c2c3nc(c(-c4cccc(S(=O)(=O)[O-])c4F)c4ccc([nH]4)c(-c4cccc(S(=O)(=O)[O-])c4F)c4nc(c(-c5cccc(S(=O)(=O)[O-])c5F)c5ccc2[nH]5)C=C4)C=C3)cc1
REMARK SMILES IDX 27 1 26 2 25 3 24 4 23 5 22 6 21 7 19 8 20 9 18 10 1 11 2 12
REMARK SMILES IDX 3 13 4 14 5 15 6 16 7 17 8 19 9 20 17 21 10 22 16 23 11 24
REMARK SMILES IDX 12 25 13 26 14 27 15 28 28 29 29 30 30 31 31 32 32 33 33 34
REMARK SMILES IDX 34 35 35 36 36 37 37 38 98 39 38 40 97 41 39 42 40 43 41 44
REMARK SMILES IDX 91 45 42 46 96 47 90 48 92 49 43 50 95 51 89 52 88 53 44 55
REMARK SMILES IDX 76 56 56 57 75 58 57 59 60 60 74 61 93 62 58 63 59 64 73 66
REMARK SMILES IDX 94 67 61 68 45 69 46 70 54 71 47 72 49 73 55 74 48 75 50 76
REMARK SMILES IDX 51 77 52 78 53 79 77 80 78 81 86 82 79 83 81 84 87 85 80 86
REMARK SMILES IDX 82 87 83 88 84 89 85 90 62 91 63 92 71 93 64 94 66 95 72 96
REMARK SMILES IDX 65 97 67 98 68 99 69 100 70 101
REMARK H PARENT 7 18 92 54 60 65
REMARK Flexibility Score: inf
ROOT
ATOM      1  O   UNL A   1      34.821  30.100  27.979  1.00  0.00    -0.377 OA
ENDROOT
BRANCH   1   2
ATOM      2  C   UNL A   1      34.182  29.318  26.992  1.00  0.00     0.188 C 
BRANCH   2   3
ATOM      3  C   UNL A   1      33.056  30.067  26.256  1.00  0.00     0.188 C 
BRANCH   3   4
ATOM      4  O   UNL A   1      32.540  29.591  25.024  1.00  0.00    -0.376 OA
BRANCH   4   5
ATOM      5  C   UNL A   1      31.361  28.815  24.909  1.00  0.00     0.202 C 
BRANCH   5   6
ATOM      6  C   UNL A   1      31.270  27.295  25.070  1.00  0.00     0.261 C 
BRANCH   6   7
ATOM      7  O   UNL A   1      32.378  26.576  25.594  1.00  0.00    -0.463 OA
BRANCH   7   8
ATOM      8  C   UNL A   1      33.359  26.250  24.733  1.00  0.00     0.310 C 
ATOM      9  O   UNL A   1      33.606  26.813  23.666  1.00  0.00    -0.252 OA
BRANCH   8  10
ATOM     10  C   UNL A   1      34.261  25.279  25.364  1.00  0.00     0.118 C 
ATOM     11  C   UNL A   1      36.398  23.863  25.200  1.00  0.00     0.013 C 
ATOM     12  C   UNL A   1      34.975  24.104  24.730  1.00  0.00    -0.009 C 
ATOM     13  C   UNL A   1      34.831  23.849  23.258  1.00  0.00     0.013 C 
ATOM     14  C   UNL A   1      33.863  23.898  25.777  1.00  0.00     0.100 C 
BRANCH  14  15
ATOM     15  C   UNL A   1      32.583  23.133  25.615  1.00  0.00     0.228 C 
ATOM     16  O   UNL A   1      31.648  23.476  26.335  1.00  0.00    -0.274 OA
ATOM     17  N   UNL A   1      32.341  22.352  24.504  1.00  0.00    -0.324 N 
ATOM     18  H   UNL A   1      31.694  22.701  23.849  1.00  0.00     0.169 HD
BRANCH  17  19
ATOM     19  C   UNL A   1      32.926  21.110  24.213  1.00  0.00     0.059 A 
ATOM     20  C   UNL A   1      32.308  20.192  23.381  1.00  0.00     0.030 A 
ATOM     21  C   UNL A   1      34.106  20.710  24.823  1.00  0.00     0.137 A 
ATOM     22  C   UNL A   1      32.661  18.849  23.451  1.00  0.00     0.035 A 
ATOM     23  N   UNL A   1      34.500  19.410  24.891  1.00  0.00    -0.250 NA
ATOM     24  C   UNL A   1      33.681  18.474  24.319  1.00  0.00     0.144 A 
BRANCH  24  25
ATOM     25  C   UNL A   1      33.755  17.020  24.783  1.00  0.00     0.433 C 
ATOM     26  F   UNL A   1      33.195  16.811  26.009  1.00  0.00    -0.165 F 
ATOM     27  F   UNL A   1      33.130  16.150  23.933  1.00  0.00    -0.165 F 
ATOM     28  F   UNL A   1      35.037  16.550  24.893  1.00  0.00    -0.165 F 
ENDBRANCH  24  25
ENDBRANCH  17  19
ENDBRANCH  14  15
ENDBRANCH   8  10
ENDBRANCH   7   8
ENDBRANCH   6   7
ENDBRANCH   5   6
ENDBRANCH   4   5
ENDBRANCH   3   4
ENDBRANCH   2   3
ENDBRANCH   1   2
BRANCH   1  29
ATOM     29  C   UNL A   1      35.944  29.502  28.613  1.00  0.00     0.188 C 
BRANCH  29  30
ATOM     30  C   UNL A   1      36.641  30.294  29.743  1.00  0.00     0.188 C 
BRANCH  30  31
ATOM     31  O   UNL A   1      36.353  29.813  31.050  1.00  0.00    -0.376 OA
BRANCH  31  32
ATOM     32  C   UNL A   1      36.662  30.638  32.159  1.00  0.00     0.202 C 
BRANCH  32  33
ATOM     33  C   UNL A   1      36.512  32.156  31.971  1.00  0.00     0.261 C 
BRANCH  33  34
ATOM     34  O   UNL A   1      37.699  32.875  31.605  1.00  0.00    -0.460 OA
BRANCH  34  35
ATOM     35  C   UNL A   1      38.757  32.819  32.443  1.00  0.00     0.338 C 
ATOM     36  O   UNL A   1      38.761  33.090  33.630  1.00  0.00    -0.246 OA
BRANCH  35  37
ATOM     37  C   UNL A   1      39.865  32.152  31.720  1.00  0.00     0.060 A 
ATOM     38  C   UNL A   1      40.926  31.604  32.454  1.00  0.00     0.016 A 
ATOM     39  C   UNL A   1      39.835  32.033  30.329  1.00  0.00     0.016 A 
ATOM     40  C   UNL A   1      41.975  30.958  31.796  1.00  0.00     0.010 A 
ATOM     41  C   UNL A   1      40.901  31.413  29.670  1.00  0.00     0.010 A 
ATOM     42  C   UNL A   1      41.989  30.900  30.398  1.00  0.00    -0.014 A 
BRANCH  42  43
ATOM     43  C   UNL A   1      43.224  30.497  29.683  1.00  0.00     0.031 A 
ATOM     44  C   UNL A   1      43.412  29.041  29.360  1.00  0.00     0.074 A 
ATOM     45  C   UNL A   1      44.169  31.392  29.347  1.00  0.00     0.049 A 
ATOM     46  N   UNL A   1      44.437  28.433  28.826  1.00  0.00    -0.248 NA
ATOM     47  C   UNL A   1      42.286  28.149  29.691  1.00  0.00     0.031 C 
ATOM     48  C   UNL A   1      44.096  32.832  29.583  1.00  0.00     0.029 A 
ATOM     49  N   UNL A   1      45.398  31.206  28.763  1.00  0.00    -0.354 N 
ATOM     50  C   UNL A   1      44.099  27.086  28.789  1.00  0.00     0.074 A 
ATOM     51  C   UNL A   1      42.775  26.963  29.357  1.00  0.00     0.031 C 
ATOM     52  C   UNL A   1      45.249  33.396  29.181  1.00  0.00     0.029 A 
ATOM     53  C   UNL A   1      46.152  32.354  28.694  1.00  0.00     0.049 A 
ATOM     54  H   UNL A   1      45.710  30.335  28.426  1.00  0.00     0.167 HD
ATOM     55  C   UNL A   1      44.822  26.044  28.318  1.00  0.00     0.034 A 
ATOM     56  C   UNL A   1      47.435  32.534  28.318  1.00  0.00     0.034 A 
ATOM     57  C   UNL A   1      46.136  26.167  27.748  1.00  0.00     0.049 A 
ATOM     58  C   UNL A   1      48.242  31.347  27.852  1.00  0.00     0.074 A 
ATOM     59  C   UNL A   1      46.931  25.177  27.201  1.00  0.00     0.029 A 
ATOM     60  N   UNL A   1      46.859  27.347  27.676  1.00  0.00    -0.354 N 
ATOM     61  N   UNL A   1      47.873  30.096  27.715  1.00  0.00    -0.248 NA
ATOM     62  C   UNL A   1      49.638  31.602  27.466  1.00  0.00     0.031 C 
ATOM     63  C   UNL A   1      48.153  25.751  26.837  1.00  0.00     0.029 A 
ATOM     64  C   UNL A   1      48.102  27.107  27.118  1.00  0.00     0.049 A 
ATOM     65  H   UNL A   1      46.535  28.226  27.977  1.00  0.00     0.167 HD
ATOM     66  C   UNL A   1      48.977  29.424  27.201  1.00  0.00     0.074 A 
ATOM     67  C   UNL A   1      50.022  30.411  27.026  1.00  0.00     0.031 C 
ATOM     68  C   UNL A   1      49.120  28.106  26.911  1.00  0.00     0.034 A 
BRANCH  55  69
ATOM     69  C   UNL A   1      44.202  24.674  28.400  1.00  0.00     0.023 A 
ATOM     70  C   UNL A   1      44.331  23.912  29.580  1.00  0.00     0.012 A 
ATOM     71  C   UNL A   1      43.457  24.159  27.323  1.00  0.00     0.148 A 
ATOM     72  C   UNL A   1      43.760  22.643  29.672  1.00  0.00     0.002 A 
ATOM     73  C   UNL A   1      42.850  22.914  27.439  1.00  0.00     0.091 A 
ATOM     74  F   UNL A   1      43.366  24.887  26.201  1.00  0.00    -0.205 F 
ATOM     75  C   UNL A   1      43.012  22.150  28.606  1.00  0.00     0.022 A 
BRANCH  73  76
ATOM     76  S   UNL A   1      41.801  22.224  26.156  1.00  0.00     0.127 S 
ATOM     77  O   UNL A   1      40.689  23.174  26.141  1.00  0.00    -0.237 OA
ATOM     78  O   UNL A   1      42.673  22.288  24.982  1.00  0.00    -0.237 OA
ATOM     79  O   UNL A   1      41.464  20.877  26.592  1.00  0.00    -0.744 OA
ENDBRANCH  73  76
ENDBRANCH  55  69
BRANCH  56  80
ATOM     80  C   UNL A   1      48.044  33.893  28.362  1.00  0.00     0.023 A 
ATOM     81  C   UNL A   1      48.741  34.310  29.513  1.00  0.00     0.012 A 
ATOM     82  C   UNL A   1      47.939  34.774  27.267  1.00  0.00     0.148 A 
ATOM     83  C   UNL A   1      49.294  35.589  29.586  1.00  0.00     0.002 A 
ATOM     84  C   UNL A   1      48.545  36.024  27.323  1.00  0.00     0.091 A 
ATOM     85  F   UNL A   1      47.259  34.366  26.187  1.00  0.00    -0.205 F 
ATOM     86  C   UNL A   1      49.205  36.441  28.489  1.00  0.00     0.022 A 
BRANCH  84  87
ATOM     87  S   UNL A   1      48.602  37.134  25.913  1.00  0.00     0.127 S 
ATOM     88  O   UNL A   1      47.185  37.410  25.692  1.00  0.00    -0.237 OA
ATOM     89  O   UNL A   1      49.373  38.256  26.453  1.00  0.00    -0.237 OA
ATOM     90  O   UNL A   1      49.273  36.396  24.854  1.00  0.00    -0.744 OA
ENDBRANCH  84  87
ENDBRANCH  56  80
BRANCH  68  91
ATOM     91  C   UNL A   1      50.443  27.648  26.348  1.00  0.00     0.023 A 
ATOM     92  C   UNL A   1      51.419  27.099  27.202  1.00  0.00     0.012 A 
ATOM     93  C   UNL A   1      50.686  27.690  24.959  1.00  0.00     0.148 A 
ATOM     94  C   UNL A   1      52.629  26.631  26.689  1.00  0.00     0.002 A 
ATOM     95  C   UNL A   1      51.871  27.174  24.450  1.00  0.00     0.091 A 
ATOM     96  F   UNL A   1      49.749  28.227  24.163  1.00  0.00    -0.205 F 
ATOM     97  C   UNL A   1      52.851  26.657  25.314  1.00  0.00     0.022 A 
BRANCH  95  98
ATOM     98  S   UNL A   1      52.206  27.075  22.688  1.00  0.00     0.127 S 
ATOM     99  O   UNL A   1      52.698  28.423  22.402  1.00  0.00    -0.237 OA
ATOM    100  O   UNL A   1      53.226  26.029  22.626  1.00  0.00    -0.237 OA
ATOM    101  O   UNL A   1      50.942  26.728  22.055  1.00  0.00    -0.744 OA
ENDBRANCH  95  98
ENDBRANCH  68  91
ENDBRANCH  42  43
ENDBRANCH  35  37
ENDBRANCH  34  35
ENDBRANCH  33  34
ENDBRANCH  32  33
ENDBRANCH  31  32
ENDBRANCH  30  31
ENDBRANCH  29  30
ENDBRANCH   1  29
TORSDOF 26
ENDMDL
MODEL 3
REMARK VINA RESULT:      -9.0      5.175     10.426
REMARK SMILES CC1(C)[C@H](C(=O)Nc2ccc(C(F)(F)F)nc2)[C@@H]1C(=O)OCCOCCOCCOCCOC(=O)c1ccc(-c2c3nc(c(-c4cccc(S(=O)(=O)[O-])c4F)c4ccc([nH]4)c(-c4cccc(S(=O)(=O)[O-])c4F)c4nc(c(-c5cccc(S(=O)(=O)[O-])c5F)c5ccc2[nH]5)C=C4)C=C3)cc1
REMARK SMILES IDX 27 1 26 2 25 3 24 4 23 5 22 6 21 7 19 8 20 9 18 10 1 11 2 12
REMARK SMILES IDX 3 13 4 14 5 15 6 16 7 17 8 19 9 20 17 21 10 22 16 23 11 24
REMARK SMILES IDX 12 25 13 26 14 27 15 28 28 29 29 30 30 31 31 32 32 33 33 34
REMARK SMILES IDX 34 35 35 36 36 37 37 38 98 39 38 40 97 41 39 42 40 43 41 44
REMARK SMILES IDX 91 45 42 46 96 47 90 48 92 49 43 50 95 51 89 52 88 53 44 55
REMARK SMILES IDX 76 56 56 57 75 58 57 59 60 60 74 61 93 62 58 63 59 64 73 66
REMARK SMILES IDX 94 67 61 68 45 69 46 70 54 71 47 72 49 73 55 74 48 75 50 76
REMARK SMILES IDX 51 77 52 78 53 79 77 80 78 81 86 82 79 83 81 84 87 85 80 86
REMARK SMILES IDX 82 87 83 88 84 89 85 90 62 91 63 92 71 93 64 94 66 95 72 96
REMARK SMILES IDX 65 97 67 98 68 99 69 100 70 101
REMARK H PARENT 7 18 92 54 60 65
REMARK Flexibility Score: inf
ROOT
ATOM      1  O   UNL A   1      42.010  24.337  27.977  1.00  0.00    -0.377 OA
ENDROOT
BRANCH   1   2
ATOM      2  C   UNL A   1      40.692  24.827  27.848  1.00  0.00     0.188 C 
BRANCH   2   3
ATOM      3  C   UNL A   1      40.046  24.491  26.492  1.00  0.00     0.188 C 
BRANCH   3   4
ATOM      4  O   UNL A   1      38.704  24.042  26.408  1.00  0.00    -0.376 OA
BRANCH   4   5
ATOM      5  C   UNL A   1      38.334  22.699  26.157  1.00  0.00     0.202 C 
BRANCH   5   6
ATOM      6  C   UNL A   1      37.314  22.231  25.116  1.00  0.00     0.261 C 
BRANCH   6   7
ATOM      7  O   UNL A   1      36.143  23.001  24.882  1.00  0.00    -0.463 OA
BRANCH   7   8
ATOM      8  C   UNL A   1      35.845  23.289  23.603  1.00  0.00     0.310 C 
ATOM      9  O   UNL A   1      36.578  23.114  22.629  1.00  0.00    -0.252 OA
BRANCH   8  10
ATOM     10  C   UNL A   1      34.418  23.613  23.493  1.00  0.00     0.118 C 
ATOM     11  C   UNL A   1      32.605  25.413  23.225  1.00  0.00     0.013 C 
ATOM     12  C   UNL A   1      33.664  24.774  24.106  1.00  0.00    -0.009 C 
ATOM     13  C   UNL A   1      34.403  25.802  24.911  1.00  0.00     0.013 C 
ATOM     14  C   UNL A   1      33.401  23.323  24.550  1.00  0.00     0.100 C 
BRANCH  14  15
ATOM     15  C   UNL A   1      33.526  22.751  25.931  1.00  0.00     0.228 C 
ATOM     16  O   UNL A   1      33.906  23.523  26.808  1.00  0.00    -0.274 OA
ATOM     17  N   UNL A   1      32.923  21.560  26.280  1.00  0.00    -0.324 N 
ATOM     18  H   UNL A   1      32.130  21.619  26.860  1.00  0.00     0.169 HD
BRANCH  17  19
ATOM     19  C   UNL A   1      33.327  20.274  25.891  1.00  0.00     0.059 A 
ATOM     20  C   UNL A   1      34.434  20.072  25.086  1.00  0.00     0.030 A 
ATOM     21  C   UNL A   1      32.577  19.155  26.219  1.00  0.00     0.137 A 
ATOM     22  C   UNL A   1      34.561  18.887  24.369  1.00  0.00     0.035 A 
ATOM     23  N   UNL A   1      32.688  17.970  25.561  1.00  0.00    -0.250 NA
ATOM     24  C   UNL A   1      33.592  17.904  24.535  1.00  0.00     0.144 A 
BRANCH  24  25
ATOM     25  C   UNL A   1      33.421  16.848  23.444  1.00  0.00     0.433 C 
ATOM     26  F   UNL A   1      34.577  16.563  22.777  1.00  0.00    -0.165 F 
ATOM     27  F   UNL A   1      32.958  15.652  23.918  1.00  0.00    -0.165 F 
ATOM     28  F   UNL A   1      32.529  17.213  22.470  1.00  0.00    -0.165 F 
ENDBRANCH  24  25
ENDBRANCH  17  19
ENDBRANCH  14  15
ENDBRANCH   8  10
ENDBRANCH   7   8
ENDBRANCH   6   7
ENDBRANCH   5   6
ENDBRANCH   4   5
ENDBRANCH   3   4
ENDBRANCH   2   3
ENDBRANCH   1   2
BRANCH   1  29
ATOM     29  C   UNL A   1      43.048  25.261  27.678  1.00  0.00     0.188 C 
BRANCH  29  30
ATOM     30  C   UNL A   1      44.074  24.868  26.591  1.00  0.00     0.188 C 
BRANCH  30  31
ATOM     31  O   UNL A   1      45.406  25.273  26.879  1.00  0.00    -0.376 OA
BRANCH  31  32
ATOM     32  C   UNL A   1      45.780  26.612  26.608  1.00  0.00     0.202 C 
BRANCH  32  33
ATOM     33  C   UNL A   1      45.062  27.324  25.451  1.00  0.00     0.261 C 
BRANCH  33  34
ATOM     34  O   UNL A   1      44.309  28.497  25.792  1.00  0.00    -0.460 OA
BRANCH  34  35
ATOM     35  C   UNL A   1      42.964  28.442  25.671  1.00  0.00     0.338 C 
ATOM     36  O   UNL A   1      42.333  27.869  24.802  1.00  0.00    -0.246 OA
BRANCH  35  37
ATOM     37  C   UNL A   1      42.382  29.008  26.911  1.00  0.00     0.060 A 
ATOM     38  C   UNL A   1      42.998  30.116  27.509  1.00  0.00     0.016 A 
ATOM     39  C   UNL A   1      41.213  28.472  27.457  1.00  0.00     0.016 A 
ATOM     40  C   UNL A   1      42.461  30.676  28.671  1.00  0.00     0.010 A 
ATOM     41  C   UNL A   1      40.695  29.014  28.636  1.00  0.00     0.010 A 
ATOM     42  C   UNL A   1      41.332  30.098  29.264  1.00  0.00    -0.014 A 
BRANCH  42  43
ATOM     43  C   UNL A   1      40.937  30.483  30.640  1.00  0.00     0.031 A 
ATOM     44  C   UNL A   1      39.648  31.234  30.823  1.00  0.00     0.074 A 
ATOM     45  C   UNL A   1      41.711  30.198  31.703  1.00  0.00     0.049 A 
ATOM     46  N   UNL A   1      39.135  31.755  31.905  1.00  0.00    -0.248 NA
ATOM     47  C   UNL A   1      38.828  31.427  29.613  1.00  0.00     0.031 C 
ATOM     48  C   UNL A   1      42.969  29.457  31.661  1.00  0.00     0.029 A 
ATOM     49  N   UNL A   1      41.558  30.535  33.026  1.00  0.00    -0.354 N 
ATOM     50  C   UNL A   1      37.954  32.367  31.506  1.00  0.00     0.074 A 
ATOM     51  C   UNL A   1      37.826  32.157  30.080  1.00  0.00     0.031 C 
ATOM     52  C   UNL A   1      43.495  29.427  32.898  1.00  0.00     0.029 A 
ATOM     53  C   UNL A   1      42.630  30.176  33.809  1.00  0.00     0.049 A 
ATOM     54  H   UNL A   1      40.760  30.989  33.379  1.00  0.00     0.167 HD
ATOM     55  C   UNL A   1      37.050  33.038  32.257  1.00  0.00     0.034 A 
ATOM     56  C   UNL A   1      42.898  30.456  35.102  1.00  0.00     0.034 A 
ATOM     57  C   UNL A   1      37.175  33.242  33.675  1.00  0.00     0.049 A 
ATOM     58  C   UNL A   1      41.904  31.257  35.906  1.00  0.00     0.074 A 
ATOM     59  C   UNL A   1      36.291  33.869  34.534  1.00  0.00     0.029 A 
ATOM     60  N   UNL A   1      38.262  32.847  34.438  1.00  0.00    -0.354 N 
ATOM     61  N   UNL A   1      40.736  31.733  35.544  1.00  0.00    -0.248 NA
ATOM     62  C   UNL A   1      42.255  31.540  37.306  1.00  0.00     0.031 C 
ATOM     63  C   UNL A   1      36.863  33.891  35.809  1.00  0.00     0.029 A 
ATOM     64  C   UNL A   1      38.085  33.239  35.753  1.00  0.00     0.049 A 
ATOM     65  H   UNL A   1      39.045  32.358  34.094  1.00  0.00     0.167 HD
ATOM     66  C   UNL A   1      40.203  32.342  36.675  1.00  0.00     0.074 A 
ATOM     67  C   UNL A   1      41.163  32.154  37.742  1.00  0.00     0.031 C 
ATOM     68  C   UNL A   1      39.030  33.010  36.817  1.00  0.00     0.034 A 
BRANCH  55  69
ATOM     69  C   UNL A   1      35.844  33.603  31.555  1.00  0.00     0.023 A 
ATOM     70  C   UNL A   1      35.208  32.858  30.540  1.00  0.00     0.012 A 
ATOM     71  C   UNL A   1      35.316  34.853  31.929  1.00  0.00     0.148 A 
ATOM     72  C   UNL A   1      34.088  33.367  29.882  1.00  0.00     0.002 A 
ATOM     73  C   UNL A   1      34.172  35.332  31.304  1.00  0.00     0.091 A 
ATOM     74  F   UNL A   1      35.949  35.555  32.880  1.00  0.00    -0.205 F 
ATOM     75  C   UNL A   1      33.565  34.597  30.271  1.00  0.00     0.022 A 
BRANCH  73  76
ATOM     76  S   UNL A   1      33.375  36.866  31.786  1.00  0.00     0.127 S 
ATOM     77  O   UNL A   1      32.253  36.378  32.588  1.00  0.00    -0.237 OA
ATOM     78  O   UNL A   1      34.429  37.531  32.552  1.00  0.00    -0.237 OA
ATOM     79  O   UNL A   1      33.008  37.536  30.546  1.00  0.00    -0.744 OA
ENDBRANCH  73  76
ENDBRANCH  55  69
BRANCH  56  80
ATOM     80  C   UNL A   1      44.162  29.972  35.726  1.00  0.00     0.023 A 
ATOM     81  C   UNL A   1      45.328  30.757  35.638  1.00  0.00     0.012 A 
ATOM     82  C   UNL A   1      44.214  28.740  36.407  1.00  0.00     0.148 A 
ATOM     83  C   UNL A   1      46.529  30.311  36.190  1.00  0.00     0.002 A 
ATOM     84  C   UNL A   1      45.398  28.330  37.007  1.00  0.00     0.091 A 
ATOM     85  F   UNL A   1      43.099  28.000  36.465  1.00  0.00    -0.205 F 
ATOM     86  C   UNL A   1      46.563  29.104  36.882  1.00  0.00     0.022 A 
BRANCH  84  87
ATOM     87  S   UNL A   1      45.503  26.860  38.033  1.00  0.00     0.127 S 
ATOM     88  O   UNL A   1      44.517  27.147  39.071  1.00  0.00    -0.237 OA
ATOM     89  O   UNL A   1      45.118  25.812  37.086  1.00  0.00    -0.237 OA
ATOM     90  O   UNL A   1      46.887  26.788  38.481  1.00  0.00    -0.744 OA
ENDBRANCH  84  87
ENDBRANCH  56  80
BRANCH  68  91
ATOM     91  C   UNL A   1      38.697  33.568  38.178  1.00  0.00     0.023 A 
ATOM     92  C   UNL A   1      38.100  32.741  39.150  1.00  0.00     0.012 A 
ATOM     93  C   UNL A   1      39.046  34.891  38.519  1.00  0.00     0.148 A 
ATOM     94  C   UNL A   1      37.826  33.230  40.428  1.00  0.00     0.002 A 
ATOM     95  C   UNL A   1      38.819  35.355  39.808  1.00  0.00     0.091 A 
ATOM     96  F   UNL A   1      39.603  35.667  37.576  1.00  0.00    -0.205 F 
ATOM     97  C   UNL A   1      38.195  34.531  40.760  1.00  0.00     0.022 A 
BRANCH  95  98
ATOM     98  S   UNL A   1      39.346  36.982  40.359  1.00  0.00     0.127 S 
ATOM     99  O   UNL A   1      39.304  36.832  41.813  1.00  0.00    -0.237 OA
ATOM    100  O   UNL A   1      40.692  37.078  39.795  1.00  0.00    -0.237 OA
ATOM    101  O   UNL A   1      38.387  37.927  39.804  1.00  0.00    -0.744 OA
ENDBRANCH  95  98
ENDBRANCH  68  91
ENDBRANCH  42  43
ENDBRANCH  35  37
ENDBRANCH  34  35
ENDBRANCH  33  34
ENDBRANCH  32  33
ENDBRANCH  31  32
ENDBRANCH  30  31
ENDBRANCH  29  30
ENDBRANCH   1  29
TORSDOF 26
ENDMDL
