MODEL 1
REMARK VINA RESULT:      -9.1      0.000      0.000
REMARK SMILES COc1ccc(/C=C2/C(=O)N(c3ccccc3)C(=O)N=C2OCCOCCOCCOCCOC(=O)c2ccc(-c3c4nc(c(-c5cccc(S(=O)(=O)[O-])c5F)c5ccc([nH]5)c(-c5cccc(S(=O)(=O)[O-])c5F)c5nc(c(-c6cccc(S(=O)(=O)[O-])c6F)c6ccc3[nH]6)C=C5)C=C4)cc2)cc1C(=O)[O-]
REMARK SMILES IDX 29 1 28 2 27 3 26 4 25 5 24 6 23 7 22 8 21 9 7 10 8 11 9 12
REMARK SMILES IDX 10 13 11 14 20 15 18 16 19 17 6 18 3 19 4 20 101 21 5 22
REMARK SMILES IDX 100 23 2 24 1 25 102 26 103 27 104 28 12 29 13 30 17 31
REMARK SMILES IDX 14 32 16 33 15 34 30 35 31 36 32 37 33 38 34 39 35 40 36 41
REMARK SMILES IDX 37 42 38 43 99 44 39 45 98 46 40 47 41 48 42 49 92 50 43 51
REMARK SMILES IDX 97 52 91 53 93 54 44 55 96 56 90 57 89 58 45 60 77 61 57 62
REMARK SMILES IDX 76 63 58 64 61 65 75 66 94 67 59 68 60 69 74 71 95 72 62 73
REMARK SMILES IDX 46 74 47 75 55 76 48 77 50 78 56 79 49 80 51 81 52 82 53 83
REMARK SMILES IDX 54 84 78 85 79 86 87 87 80 88 82 89 88 90 81 91 83 92 84 93
REMARK SMILES IDX 85 94 86 95 63 96 64 97 72 98 65 99 67 100 73 101 66 102
REMARK SMILES IDX 68 103 69 104 70 105 71 106
REMARK H PARENT 93 59 61 70
REMARK Flexibility Score: inf
ROOT
ATOM      1  C   UNL A   1      39.255  27.163  28.920  1.00  0.00     0.188 C 
ENDROOT
BRANCH   1   2
ATOM      2  O   UNL A   1      39.313  28.257  28.020  1.00  0.00    -0.377 OA
BRANCH   2   3
ATOM      3  C   UNL A   1      38.663  29.429  28.477  1.00  0.00     0.188 C 
BRANCH   3   4
ATOM      4  C   UNL A   1      37.347  29.855  27.801  1.00  0.00     0.188 C 
BRANCH   4   5
ATOM      5  O   UNL A   1      36.062  29.416  28.233  1.00  0.00    -0.376 OA
BRANCH   5   6
ATOM      6  C   UNL A   1      34.873  29.527  27.471  1.00  0.00     0.201 C 
BRANCH   6   7
ATOM      7  C   UNL A   1      34.074  28.282  27.088  1.00  0.00     0.260 C 
BRANCH   7   8
ATOM      8  O   UNL A   1      33.705  28.253  25.700  1.00  0.00    -0.475 OA
BRANCH   8   9
ATOM      9  C   UNL A   1      32.465  28.627  25.367  1.00  0.00     0.231 C 
ATOM     10  C   UNL A   1      31.902  26.248  24.523  1.00  0.00     0.027 C 
ATOM     11  C   UNL A   1      31.666  27.579  24.701  1.00  0.00     0.103 C 
ATOM     12  C   UNL A   1      30.436  28.148  24.015  1.00  0.00     0.272 C 
ATOM     13  O   UNL A   1      29.630  27.416  23.441  1.00  0.00    -0.268 OA
ATOM     14  N   UNL A   1      30.342  29.541  24.040  1.00  0.00    -0.226 N 
ATOM     15  N   UNL A   1      32.134  29.849  25.541  1.00  0.00    -0.156 NA
ATOM     16  C   UNL A   1      31.021  30.347  24.953  1.00  0.00     0.358 C 
ATOM     17  O   UNL A   1      30.671  31.495  25.217  1.00  0.00    -0.245 OA
BRANCH  10  18
ATOM     18  C   UNL A   1      32.991  25.256  24.833  1.00  0.00    -0.024 A 
ATOM     19  C   UNL A   1      34.875  23.161  25.412  1.00  0.00     0.127 A 
ATOM     20  C   UNL A   1      35.157  24.151  24.481  1.00  0.00     0.048 A 
ATOM     21  C   UNL A   1      33.705  23.284  26.160  1.00  0.00     0.040 A 
ATOM     22  C   UNL A   1      34.257  25.202  24.244  1.00  0.00     0.012 A 
ATOM     23  C   UNL A   1      32.750  24.280  25.828  1.00  0.00     0.022 A 
BRANCH  19  24
ATOM     24  O   UNL A   1      35.866  22.238  25.573  1.00  0.00    -0.496 OA
ATOM     25  C   UNL A   1      37.180  22.771  25.723  1.00  0.00     0.278 C 
ENDBRANCH  19  24
BRANCH  21  26
ATOM     26  C   UNL A   1      33.464  22.494  27.384  1.00  0.00     0.075 C 
ATOM     27  O   UNL A   1      34.171  21.597  27.808  1.00  0.00    -0.545 OA
ATOM     28  O   UNL A   1      32.279  22.815  27.920  1.00  0.00    -0.545 OA
ENDBRANCH  21  26
ENDBRANCH  10  18
BRANCH  14  29
ATOM     29  C   UNL A   1      29.401  30.217  23.215  1.00  0.00     0.054 A 
ATOM     30  C   UNL A   1      29.632  30.281  21.829  1.00  0.00     0.027 A 
ATOM     31  C   UNL A   1      28.361  30.958  23.778  1.00  0.00     0.027 A 
ATOM     32  C   UNL A   1      28.829  31.082  21.016  1.00  0.00     0.002 A 
ATOM     33  C   UNL A   1      27.583  31.785  22.963  1.00  0.00     0.002 A 
ATOM     34  C   UNL A   1      27.815  31.846  21.588  1.00  0.00     0.000 A 
ENDBRANCH  14  29
ENDBRANCH   8   9
ENDBRANCH   7   8
ENDBRANCH   6   7
ENDBRANCH   5   6
ENDBRANCH   4   5
ENDBRANCH   3   4
ENDBRANCH   2   3
ENDBRANCH   1   2
BRANCH   1  35
ATOM     35  C   UNL A   1      40.347  26.127  28.621  1.00  0.00     0.188 C 
BRANCH  35  36
ATOM     36  O   UNL A   1      41.587  26.722  28.259  1.00  0.00    -0.376 OA
BRANCH  36  37
ATOM     37  C   UNL A   1      41.955  26.710  26.883  1.00  0.00     0.202 C 
BRANCH  37  38
ATOM     38  C   UNL A   1      41.616  25.484  26.014  1.00  0.00     0.261 C 
BRANCH  38  39
ATOM     39  O   UNL A   1      42.462  25.243  24.879  1.00  0.00    -0.460 OA
BRANCH  39  40
ATOM     40  C   UNL A   1      43.301  24.187  24.918  1.00  0.00     0.338 C 
ATOM     41  O   UNL A   1      43.045  23.031  24.633  1.00  0.00    -0.246 OA
BRANCH  40  42
ATOM     42  C   UNL A   1      44.662  24.717  25.150  1.00  0.00     0.060 A 
ATOM     43  C   UNL A   1      45.728  23.812  25.237  1.00  0.00     0.016 A 
ATOM     44  C   UNL A   1      44.890  26.094  25.238  1.00  0.00     0.016 A 
ATOM     45  C   UNL A   1      47.022  24.279  25.457  1.00  0.00     0.010 A 
ATOM     46  C   UNL A   1      46.184  26.560  25.485  1.00  0.00     0.010 A 
ATOM     47  C   UNL A   1      47.246  25.650  25.635  1.00  0.00    -0.014 A 
BRANCH  47  48
ATOM     48  C   UNL A   1      48.529  26.097  26.221  1.00  0.00     0.031 A 
ATOM     49  C   UNL A   1      49.569  26.654  25.286  1.00  0.00     0.074 A 
ATOM     50  C   UNL A   1      48.762  26.033  27.543  1.00  0.00     0.049 A 
ATOM     51  N   UNL A   1      50.756  27.129  25.555  1.00  0.00    -0.248 NA
ATOM     52  C   UNL A   1      49.219  26.680  23.854  1.00  0.00     0.031 C 
ATOM     53  C   UNL A   1      47.832  25.520  28.545  1.00  0.00     0.029 A 
ATOM     54  N   UNL A   1      49.875  26.387  28.263  1.00  0.00    -0.354 N 
ATOM     55  C   UNL A   1      51.299  27.495  24.329  1.00  0.00     0.074 A 
ATOM     56  C   UNL A   1      50.323  27.170  23.314  1.00  0.00     0.031 C 
ATOM     57  C   UNL A   1      48.427  25.561  29.751  1.00  0.00     0.029 A 
ATOM     58  C   UNL A   1      49.781  26.092  29.601  1.00  0.00     0.049 A 
ATOM     59  H   UNL A   1      50.666  26.811  27.858  1.00  0.00     0.167 HD
ATOM     60  C   UNL A   1      52.495  28.072  24.070  1.00  0.00     0.034 A 
ATOM     61  C   UNL A   1      50.693  26.225  30.585  1.00  0.00     0.034 A 
ATOM     62  C   UNL A   1      53.462  28.401  25.080  1.00  0.00     0.049 A 
ATOM     63  C   UNL A   1      52.032  26.843  30.269  1.00  0.00     0.074 A 
ATOM     64  C   UNL A   1      54.689  29.018  24.928  1.00  0.00     0.029 A 
ATOM     65  N   UNL A   1      53.316  28.123  26.430  1.00  0.00    -0.354 N 
ATOM     66  N   UNL A   1      52.481  27.303  29.125  1.00  0.00    -0.248 NA
ATOM     67  C   UNL A   1      52.973  26.998  31.388  1.00  0.00     0.031 C 
ATOM     68  C   UNL A   1      55.298  29.092  26.185  1.00  0.00     0.029 A 
ATOM     69  C   UNL A   1      54.435  28.547  27.123  1.00  0.00     0.049 A 
ATOM     70  H   UNL A   1      52.532  27.688  26.836  1.00  0.00     0.167 HD
ATOM     71  C   UNL A   1      53.738  27.836  29.395  1.00  0.00     0.074 A 
ATOM     72  C   UNL A   1      53.970  27.659  30.814  1.00  0.00     0.031 C 
ATOM     73  C   UNL A   1      54.626  28.411  28.545  1.00  0.00     0.034 A 
BRANCH  60  74
ATOM     74  C   UNL A   1      52.808  28.404  22.637  1.00  0.00     0.023 A 
ATOM     75  C   UNL A   1      53.517  27.476  21.846  1.00  0.00     0.012 A 
ATOM     76  C   UNL A   1      52.372  29.613  22.064  1.00  0.00     0.148 A 
ATOM     77  C   UNL A   1      53.815  27.761  20.514  1.00  0.00     0.002 A 
ATOM     78  C   UNL A   1      52.636  29.871  20.724  1.00  0.00     0.091 A 
ATOM     79  F   UNL A   1      51.727  30.493  22.842  1.00  0.00    -0.205 F 
ATOM     80  C   UNL A   1      53.366  28.952  19.951  1.00  0.00     0.022 A 
BRANCH  78  81
ATOM     81  S   UNL A   1      52.037  31.343  19.889  1.00  0.00     0.127 S 
ATOM     82  O   UNL A   1      50.607  31.292  20.189  1.00  0.00    -0.237 OA
ATOM     83  O   UNL A   1      52.767  32.407  20.578  1.00  0.00    -0.237 OA
ATOM     84  O   UNL A   1      52.387  31.179  18.485  1.00  0.00    -0.744 OA
ENDBRANCH  78  81
ENDBRANCH  60  74
BRANCH  61  85
ATOM     85  C   UNL A   1      50.360  25.798  31.974  1.00  0.00     0.023 A 
ATOM     86  C   UNL A   1      49.745  26.708  32.855  1.00  0.00     0.012 A 
ATOM     87  C   UNL A   1      50.651  24.495  32.420  1.00  0.00     0.148 A 
ATOM     88  C   UNL A   1      49.453  26.337  34.169  1.00  0.00     0.002 A 
ATOM     89  C   UNL A   1      50.316  24.117  33.715  1.00  0.00     0.091 A 
ATOM     90  F   UNL A   1      51.247  23.650  31.566  1.00  0.00    -0.205 F 
ATOM     91  C   UNL A   1      49.731  25.040  34.596  1.00  0.00     0.022 A 
BRANCH  89  92
ATOM     92  S   UNL A   1      50.552  22.444  34.325  1.00  0.00     0.127 S 
ATOM     93  O   UNL A   1      52.006  22.375  34.449  1.00  0.00    -0.237 OA
ATOM     94  O   UNL A   1      49.827  22.486  35.597  1.00  0.00    -0.237 OA
ATOM     95  O   UNL A   1      49.969  21.569  33.318  1.00  0.00    -0.744 OA
ENDBRANCH  89  92
ENDBRANCH  61  85
BRANCH  73  96
ATOM     96  C   UNL A   1      55.916  28.930  29.125  1.00  0.00     0.023 A 
ATOM     97  C   UNL A   1      57.049  28.094  29.179  1.00  0.00     0.012 A 
ATOM     98  C   UNL A   1      56.026  30.271  29.546  1.00  0.00     0.148 A 
ATOM     99  C   UNL A   1      58.260  28.574  29.678  1.00  0.00     0.002 A 
ATOM    100  C   UNL A   1      57.249  30.755  29.995  1.00  0.00     0.091 A 
ATOM    101  F   UNL A   1      54.933  31.047  29.504  1.00  0.00    -0.205 F 
ATOM    102  C   UNL A   1      58.362  29.905  30.074  1.00  0.00     0.022 A 
BRANCH 100 103
ATOM    103  S   UNL A   1      57.493  32.481  30.430  1.00  0.00     0.127 S 
ATOM    104  O   UNL A   1      56.618  32.623  31.592  1.00  0.00    -0.237 OA
ATOM    105  O   UNL A   1      58.924  32.527  30.735  1.00  0.00    -0.237 OA
ATOM    106  O   UNL A   1      57.104  33.247  29.253  1.00  0.00    -0.744 OA
ENDBRANCH 100 103
ENDBRANCH  73  96
ENDBRANCH  47  48
ENDBRANCH  40  42
ENDBRANCH  39  40
ENDBRANCH  38  39
ENDBRANCH  37  38
ENDBRANCH  36  37
ENDBRANCH  35  36
ENDBRANCH   1  35
TORSDOF 26
ENDMDL
MODEL 2
REMARK VINA RESULT:      -8.4      4.061      5.741
REMARK SMILES COc1ccc(/C=C2/C(=O)N(c3ccccc3)C(=O)N=C2OCCOCCOCCOCCOC(=O)c2ccc(-c3c4nc(c(-c5cccc(S(=O)(=O)[O-])c5F)c5ccc([nH]5)c(-c5cccc(S(=O)(=O)[O-])c5F)c5nc(c(-c6cccc(S(=O)(=O)[O-])c6F)c6ccc3[nH]6)C=C5)C=C4)cc2)cc1C(=O)[O-]
REMARK SMILES IDX 29 1 28 2 27 3 26 4 25 5 24 6 23 7 22 8 21 9 7 10 8 11 9 12
REMARK SMILES IDX 10 13 11 14 20 15 18 16 19 17 6 18 3 19 4 20 101 21 5 22
REMARK SMILES IDX 100 23 2 24 1 25 102 26 103 27 104 28 12 29 13 30 17 31
REMARK SMILES IDX 14 32 16 33 15 34 30 35 31 36 32 37 33 38 34 39 35 40 36 41
REMARK SMILES IDX 37 42 38 43 99 44 39 45 98 46 40 47 41 48 42 49 92 50 43 51
REMARK SMILES IDX 97 52 91 53 93 54 44 55 96 56 90 57 89 58 45 60 77 61 57 62
REMARK SMILES IDX 76 63 58 64 61 65 75 66 94 67 59 68 60 69 74 71 95 72 62 73
REMARK SMILES IDX 46 74 47 75 55 76 48 77 50 78 56 79 49 80 51 81 52 82 53 83
REMARK SMILES IDX 54 84 78 85 79 86 87 87 80 88 82 89 88 90 81 91 83 92 84 93
REMARK SMILES IDX 85 94 86 95 63 96 64 97 72 98 65 99 67 100 73 101 66 102
REMARK SMILES IDX 68 103 69 104 70 105 71 106
REMARK H PARENT 93 59 61 70
REMARK Flexibility Score: inf
ROOT
ATOM      1  C   UNL A   1      39.454  27.243  28.493  1.00  0.00     0.188 C 
ENDROOT
BRANCH   1   2
ATOM      2  O   UNL A   1      39.560  28.476  27.802  1.00  0.00    -0.377 OA
BRANCH   2   3
ATOM      3  C   UNL A   1      38.818  29.537  28.375  1.00  0.00     0.188 C 
BRANCH   3   4
ATOM      4  C   UNL A   1      37.484  29.942  27.723  1.00  0.00     0.188 C 
BRANCH   4   5
ATOM      5  O   UNL A   1      36.209  29.621  28.275  1.00  0.00    -0.376 OA
BRANCH   5   6
ATOM      6  C   UNL A   1      34.975  29.772  27.595  1.00  0.00     0.201 C 
BRANCH   6   7
ATOM      7  C   UNL A   1      34.064  28.568  27.358  1.00  0.00     0.260 C 
BRANCH   7   8
ATOM      8  O   UNL A   1      33.710  28.392  25.977  1.00  0.00    -0.475 OA
BRANCH   8   9
ATOM      9  C   UNL A   1      32.479  28.746  25.591  1.00  0.00     0.231 C 
ATOM     10  C   UNL A   1      31.948  26.328  24.843  1.00  0.00     0.027 C 
ATOM     11  C   UNL A   1      31.702  27.665  24.952  1.00  0.00     0.103 C 
ATOM     12  C   UNL A   1      30.492  28.196  24.203  1.00  0.00     0.272 C 
ATOM     13  O   UNL A   1      29.705  27.434  23.641  1.00  0.00    -0.268 OA
ATOM     14  N   UNL A   1      30.394  29.588  24.161  1.00  0.00    -0.226 N 
ATOM     15  N   UNL A   1      32.139  29.973  25.697  1.00  0.00    -0.156 NA
ATOM     16  C   UNL A   1      31.044  30.439  25.054  1.00  0.00     0.358 C 
ATOM     17  O   UNL A   1      30.683  31.596  25.253  1.00  0.00    -0.245 OA
BRANCH  10  18
ATOM     18  C   UNL A   1      33.030  25.356  25.232  1.00  0.00    -0.024 A 
ATOM     19  C   UNL A   1      34.933  23.296  25.868  1.00  0.00     0.127 A 
ATOM     20  C   UNL A   1      35.325  24.480  25.260  1.00  0.00     0.048 A 
ATOM     21  C   UNL A   1      33.608  23.185  26.287  1.00  0.00     0.040 A 
ATOM     22  C   UNL A   1      34.400  25.504  25.003  1.00  0.00     0.012 A 
ATOM     23  C   UNL A   1      32.660  24.173  25.913  1.00  0.00     0.022 A 
BRANCH  19  24
ATOM     24  O   UNL A   1      35.950  22.418  26.104  1.00  0.00    -0.496 OA
ATOM     25  C   UNL A   1      36.182  21.461  25.073  1.00  0.00     0.278 C 
ENDBRANCH  19  24
BRANCH  21  26
ATOM     26  C   UNL A   1      33.161  22.133  27.222  1.00  0.00     0.075 C 
ATOM     27  O   UNL A   1      33.012  22.261  28.424  1.00  0.00    -0.545 OA
ATOM     28  O   UNL A   1      33.050  20.960  26.585  1.00  0.00    -0.545 OA
ENDBRANCH  21  26
ENDBRANCH  10  18
BRANCH  14  29
ATOM     29  C   UNL A   1      29.476  30.221  23.277  1.00  0.00     0.054 A 
ATOM     30  C   UNL A   1      29.739  30.205  21.895  1.00  0.00     0.027 A 
ATOM     31  C   UNL A   1      28.428  30.997  23.773  1.00  0.00     0.027 A 
ATOM     32  C   UNL A   1      28.960  30.964  21.021  1.00  0.00     0.002 A 
ATOM     33  C   UNL A   1      27.673  31.780  22.896  1.00  0.00     0.002 A 
ATOM     34  C   UNL A   1      27.937  31.763  21.524  1.00  0.00     0.000 A 
ENDBRANCH  14  29
ENDBRANCH   8   9
ENDBRANCH   7   8
ENDBRANCH   6   7
ENDBRANCH   5   6
ENDBRANCH   4   5
ENDBRANCH   3   4
ENDBRANCH   2   3
ENDBRANCH   1   2
BRANCH   1  35
ATOM     35  C   UNL A   1      40.739  26.413  28.371  1.00  0.00     0.188 C 
BRANCH  35  36
ATOM     36  O   UNL A   1      41.622  26.908  27.371  1.00  0.00    -0.376 OA
BRANCH  36  37
ATOM     37  C   UNL A   1      41.686  26.208  26.133  1.00  0.00     0.202 C 
BRANCH  37  38
ATOM     38  C   UNL A   1      41.713  24.667  26.130  1.00  0.00     0.261 C 
BRANCH  38  39
ATOM     39  O   UNL A   1      42.700  24.039  25.299  1.00  0.00    -0.460 OA
BRANCH  39  40
ATOM     40  C   UNL A   1      43.608  23.229  25.883  1.00  0.00     0.338 C 
ATOM     41  O   UNL A   1      43.599  22.012  25.912  1.00  0.00    -0.246 OA
BRANCH  40  42
ATOM     42  C   UNL A   1      44.751  24.075  26.291  1.00  0.00     0.060 A 
ATOM     43  C   UNL A   1      45.113  24.105  27.644  1.00  0.00     0.016 A 
ATOM     44  C   UNL A   1      45.483  24.798  25.344  1.00  0.00     0.016 A 
ATOM     45  C   UNL A   1      46.184  24.894  28.061  1.00  0.00     0.010 A 
ATOM     46  C   UNL A   1      46.539  25.609  25.767  1.00  0.00     0.010 A 
ATOM     47  C   UNL A   1      46.865  25.689  27.132  1.00  0.00    -0.014 A 
BRANCH  47  48
ATOM     48  C   UNL A   1      47.738  26.778  27.623  1.00  0.00     0.031 A 
ATOM     49  C   UNL A   1      47.109  28.121  27.876  1.00  0.00     0.074 A 
ATOM     50  C   UNL A   1      49.047  26.581  27.859  1.00  0.00     0.049 A 
ATOM     51  N   UNL A   1      47.652  29.220  28.325  1.00  0.00    -0.248 NA
ATOM     52  C   UNL A   1      45.668  28.237  27.584  1.00  0.00     0.031 C 
ATOM     53  C   UNL A   1      49.767  25.326  27.658  1.00  0.00     0.029 A 
ATOM     54  N   UNL A   1      50.007  27.455  28.303  1.00  0.00    -0.354 N 
ATOM     55  C   UNL A   1      46.629  30.160  28.356  1.00  0.00     0.074 A 
ATOM     56  C   UNL A   1      45.436  29.510  27.862  1.00  0.00     0.031 C 
ATOM     57  C   UNL A   1      51.066  25.520  27.946  1.00  0.00     0.029 A 
ATOM     58  C   UNL A   1      51.269  26.913  28.340  1.00  0.00     0.049 A 
ATOM     59  H   UNL A   1      49.810  28.383  28.568  1.00  0.00     0.167 HD
ATOM     60  C   UNL A   1      46.669  31.444  28.778  1.00  0.00     0.034 A 
ATOM     61  C   UNL A   1      52.450  27.487  28.645  1.00  0.00     0.034 A 
ATOM     62  C   UNL A   1      47.853  32.088  29.276  1.00  0.00     0.049 A 
ATOM     63  C   UNL A   1      52.477  28.929  29.084  1.00  0.00     0.074 A 
ATOM     64  C   UNL A   1      47.993  33.375  29.761  1.00  0.00     0.029 A 
ATOM     65  N   UNL A   1      49.105  31.497  29.335  1.00  0.00    -0.354 N 
ATOM     66  N   UNL A   1      51.478  29.768  29.231  1.00  0.00    -0.248 NA
ATOM     67  C   UNL A   1      53.788  29.492  29.441  1.00  0.00     0.031 C 
ATOM     68  C   UNL A   1      49.338  33.570  30.092  1.00  0.00     0.029 A 
ATOM     69  C   UNL A   1      50.028  32.395  29.840  1.00  0.00     0.049 A 
ATOM     70  H   UNL A   1      49.307  30.574  29.060  1.00  0.00     0.167 HD
ATOM     71  C   UNL A   1      52.034  30.940  29.733  1.00  0.00     0.074 A 
ATOM     72  C   UNL A   1      53.454  30.697  29.883  1.00  0.00     0.031 C 
ATOM     73  C   UNL A   1      51.428  32.117  30.033  1.00  0.00     0.034 A 
BRANCH  60  74
ATOM     74  C   UNL A   1      45.384  32.226  28.741  1.00  0.00     0.023 A 
ATOM     75  C   UNL A   1      44.471  32.118  29.811  1.00  0.00     0.012 A 
ATOM     76  C   UNL A   1      45.096  33.090  27.668  1.00  0.00     0.148 A 
ATOM     77  C   UNL A   1      43.277  32.836  29.799  1.00  0.00     0.002 A 
ATOM     78  C   UNL A   1      43.922  33.835  27.684  1.00  0.00     0.091 A 
ATOM     79  F   UNL A   1      45.962  33.154  26.648  1.00  0.00    -0.205 F 
ATOM     80  C   UNL A   1      43.008  33.701  28.742  1.00  0.00     0.022 A 
BRANCH  78  81
ATOM     81  S   UNL A   1      43.520  35.030  26.406  1.00  0.00     0.127 S 
ATOM     82  O   UNL A   1      44.691  35.906  26.442  1.00  0.00    -0.237 OA
ATOM     83  O   UNL A   1      43.427  34.187  25.214  1.00  0.00    -0.237 OA
ATOM     84  O   UNL A   1      42.266  35.647  26.813  1.00  0.00    -0.744 OA
ENDBRANCH  78  81
ENDBRANCH  60  74
BRANCH  61  85
ATOM     85  C   UNL A   1      53.706  26.687  28.581  1.00  0.00     0.023 A 
ATOM     86  C   UNL A   1      54.260  26.161  29.764  1.00  0.00     0.012 A 
ATOM     87  C   UNL A   1      54.350  26.447  27.352  1.00  0.00     0.148 A 
ATOM     88  C   UNL A   1      55.452  25.436  29.728  1.00  0.00     0.002 A 
ATOM     89  C   UNL A   1      55.512  25.685  27.317  1.00  0.00     0.091 A 
ATOM     90  F   UNL A   1      53.810  26.967  26.240  1.00  0.00    -0.205 F 
ATOM     91  C   UNL A   1      56.073  25.191  28.506  1.00  0.00     0.022 A 
BRANCH  89  92
ATOM     92  S   UNL A   1      56.332  25.241  25.782  1.00  0.00     0.127 S 
ATOM     93  O   UNL A   1      56.737  26.548  25.273  1.00  0.00    -0.237 OA
ATOM     94  O   UNL A   1      57.430  24.401  26.264  1.00  0.00    -0.237 OA
ATOM     95  O   UNL A   1      55.331  24.544  24.987  1.00  0.00    -0.744 OA
ENDBRANCH  89  92
ENDBRANCH  61  85
BRANCH  73  96
ATOM     96  C   UNL A   1      52.285  33.223  30.593  1.00  0.00     0.023 A 
ATOM     97  C   UNL A   1      52.592  33.248  31.968  1.00  0.00     0.012 A 
ATOM     98  C   UNL A   1      52.847  34.196  29.741  1.00  0.00     0.148 A 
ATOM     99  C   UNL A   1      53.416  34.244  32.492  1.00  0.00     0.002 A 
ATOM    100  C   UNL A   1      53.707  35.155  30.264  1.00  0.00     0.091 A 
ATOM    101  F   UNL A   1      52.530  34.167  28.439  1.00  0.00    -0.205 F 
ATOM    102  C   UNL A   1      53.981  35.189  31.639  1.00  0.00     0.022 A 
BRANCH 100 103
ATOM    103  S   UNL A   1      54.556  36.347  29.222  1.00  0.00     0.127 S 
ATOM    104  O   UNL A   1      53.481  36.789  28.336  1.00  0.00    -0.237 OA
ATOM    105  O   UNL A   1      54.999  37.350  30.191  1.00  0.00    -0.237 OA
ATOM    106  O   UNL A   1      55.639  35.614  28.579  1.00  0.00    -0.744 OA
ENDBRANCH 100 103
ENDBRANCH  73  96
ENDBRANCH  47  48
ENDBRANCH  40  42
ENDBRANCH  39  40
ENDBRANCH  38  39
ENDBRANCH  37  38
ENDBRANCH  36  37
ENDBRANCH  35  36
ENDBRANCH   1  35
TORSDOF 26
ENDMDL
MODEL 3
REMARK VINA RESULT:      -8.3      9.721     13.275
REMARK SMILES COc1ccc(/C=C2/C(=O)N(c3ccccc3)C(=O)N=C2OCCOCCOCCOCCOC(=O)c2ccc(-c3c4nc(c(-c5cccc(S(=O)(=O)[O-])c5F)c5ccc([nH]5)c(-c5cccc(S(=O)(=O)[O-])c5F)c5nc(c(-c6cccc(S(=O)(=O)[O-])c6F)c6ccc3[nH]6)C=C5)C=C4)cc2)cc1C(=O)[O-]
REMARK SMILES IDX 29 1 28 2 27 3 26 4 25 5 24 6 23 7 22 8 21 9 7 10 8 11 9 12
REMARK SMILES IDX 10 13 11 14 20 15 18 16 19 17 6 18 3 19 4 20 101 21 5 22
REMARK SMILES IDX 100 23 2 24 1 25 102 26 103 27 104 28 12 29 13 30 17 31
REMARK SMILES IDX 14 32 16 33 15 34 30 35 31 36 32 37 33 38 34 39 35 40 36 41
REMARK SMILES IDX 37 42 38 43 99 44 39 45 98 46 40 47 41 48 42 49 92 50 43 51
REMARK SMILES IDX 97 52 91 53 93 54 44 55 96 56 90 57 89 58 45 60 77 61 57 62
REMARK SMILES IDX 76 63 58 64 61 65 75 66 94 67 59 68 60 69 74 71 95 72 62 73
REMARK SMILES IDX 46 74 47 75 55 76 48 77 50 78 56 79 49 80 51 81 52 82 53 83
REMARK SMILES IDX 54 84 78 85 79 86 87 87 80 88 82 89 88 90 81 91 83 92 84 93
REMARK SMILES IDX 85 94 86 95 63 96 64 97 72 98 65 99 67 100 73 101 66 102
REMARK SMILES IDX 68 103 69 104 70 105 71 106
REMARK H PARENT 93 59 61 70
REMARK Flexibility Score: inf
ROOT
ATOM      1  C   UNL A   1      42.696  27.294  25.915  1.00  0.00     0.188 C 
ENDROOT
BRANCH   1   2
ATOM      2  O   UNL A   1      42.344  25.976  26.298  1.00  0.00    -0.377 OA
BRANCH   2   3
ATOM      3  C   UNL A   1      42.921  25.544  27.517  1.00  0.00     0.188 C 
BRANCH   3   4
ATOM      4  C   UNL A   1      42.008  25.359  28.742  1.00  0.00     0.188 C 
BRANCH   4   5
ATOM      5  O   UNL A   1      40.614  25.660  28.738  1.00  0.00    -0.376 OA
BRANCH   5   6
ATOM      6  C   UNL A   1      39.597  24.767  28.321  1.00  0.00     0.201 C 
BRANCH   6   7
ATOM      7  C   UNL A   1      38.859  24.988  27.001  1.00  0.00     0.260 C 
BRANCH   7   8
ATOM      8  O   UNL A   1      38.371  23.771  26.416  1.00  0.00    -0.475 OA
BRANCH   8   9
ATOM      9  C   UNL A   1      39.262  22.833  26.073  1.00  0.00     0.231 C 
ATOM     10  C   UNL A   1      37.377  21.168  25.473  1.00  0.00     0.027 C 
ATOM     11  C   UNL A   1      38.672  21.533  25.700  1.00  0.00     0.103 C 
ATOM     12  C   UNL A   1      39.703  20.418  25.692  1.00  0.00     0.272 C 
ATOM     13  O   UNL A   1      39.399  19.271  25.365  1.00  0.00    -0.268 OA
ATOM     14  N   UNL A   1      40.973  20.791  26.135  1.00  0.00    -0.226 N 
ATOM     15  N   UNL A   1      40.504  23.100  26.207  1.00  0.00    -0.156 NA
ATOM     16  C   UNL A   1      41.426  22.110  26.169  1.00  0.00     0.358 C 
ATOM     17  O   UNL A   1      42.619  22.404  26.201  1.00  0.00    -0.245 OA
BRANCH  10  18
ATOM     18  C   UNL A   1      36.014  21.804  25.515  1.00  0.00    -0.024 A 
ATOM     19  C   UNL A   1      33.365  22.911  25.339  1.00  0.00     0.127 A 
ATOM     20  C   UNL A   1      33.801  22.256  26.483  1.00  0.00     0.048 A 
ATOM     21  C   UNL A   1      34.292  23.137  24.323  1.00  0.00     0.040 A 
ATOM     22  C   UNL A   1      35.114  21.768  26.582  1.00  0.00     0.012 A 
ATOM     23  C   UNL A   1      35.576  22.534  24.386  1.00  0.00     0.022 A 
BRANCH  19  24
ATOM     24  O   UNL A   1      32.085  23.378  25.408  1.00  0.00    -0.496 OA
ATOM     25  C   UNL A   1      31.868  24.429  26.347  1.00  0.00     0.278 C 
ENDBRANCH  19  24
BRANCH  21  26
ATOM     26  C   UNL A   1      34.043  24.092  23.224  1.00  0.00     0.075 C 
ATOM     27  O   UNL A   1      33.849  23.805  22.057  1.00  0.00    -0.545 OA
ATOM     28  O   UNL A   1      34.178  25.351  23.662  1.00  0.00    -0.545 OA
ENDBRANCH  21  26
ENDBRANCH  10  18
BRANCH  14  29
ATOM     29  C   UNL A   1      41.953  19.804  26.435  1.00  0.00     0.054 A 
ATOM     30  C   UNL A   1      42.780  19.328  25.401  1.00  0.00     0.027 A 
ATOM     31  C   UNL A   1      41.983  19.186  27.685  1.00  0.00     0.027 A 
ATOM     32  C   UNL A   1      43.625  18.240  25.619  1.00  0.00     0.002 A 
ATOM     33  C   UNL A   1      42.808  18.076  27.887  1.00  0.00     0.002 A 
ATOM     34  C   UNL A   1      43.626  17.605  26.858  1.00  0.00     0.000 A 
ENDBRANCH  14  29
ENDBRANCH   8   9
ENDBRANCH   7   8
ENDBRANCH   6   7
ENDBRANCH   5   6
ENDBRANCH   4   5
ENDBRANCH   3   4
ENDBRANCH   2   3
ENDBRANCH   1   2
BRANCH   1  35
ATOM     35  C   UNL A   1      42.058  28.341  26.839  1.00  0.00     0.188 C 
BRANCH  35  36
ATOM     36  O   UNL A   1      40.646  28.207  26.930  1.00  0.00    -0.376 OA
BRANCH  36  37
ATOM     37  C   UNL A   1      39.877  29.388  27.134  1.00  0.00     0.202 C 
BRANCH  37  38
ATOM     38  C   UNL A   1      38.675  29.358  28.098  1.00  0.00     0.261 C 
BRANCH  38  39
ATOM     39  O   UNL A   1      38.096  30.624  28.450  1.00  0.00    -0.460 OA
BRANCH  39  40
ATOM     40  C   UNL A   1      37.297  30.683  29.536  1.00  0.00     0.338 C 
ATOM     41  O   UNL A   1      36.282  30.043  29.739  1.00  0.00    -0.246 OA
BRANCH  40  42
ATOM     42  C   UNL A   1      37.998  31.499  30.552  1.00  0.00     0.060 A 
ATOM     43  C   UNL A   1      37.709  32.869  30.626  1.00  0.00     0.016 A 
ATOM     44  C   UNL A   1      38.897  30.913  31.447  1.00  0.00     0.016 A 
ATOM     45  C   UNL A   1      38.354  33.666  31.570  1.00  0.00     0.010 A 
ATOM     46  C   UNL A   1      39.563  31.718  32.376  1.00  0.00     0.010 A 
ATOM     47  C   UNL A   1      39.322  33.103  32.411  1.00  0.00    -0.014 A 
BRANCH  47  48
ATOM     48  C   UNL A   1      40.246  33.999  33.140  1.00  0.00     0.031 A 
ATOM     49  C   UNL A   1      41.429  34.547  32.389  1.00  0.00     0.074 A 
ATOM     50  C   UNL A   1      40.037  34.336  34.425  1.00  0.00     0.049 A 
ATOM     51  N   UNL A   1      42.365  35.362  32.795  1.00  0.00    -0.248 NA
ATOM     52  C   UNL A   1      41.573  34.116  30.986  1.00  0.00     0.031 C 
ATOM     53  C   UNL A   1      38.926  33.874  35.253  1.00  0.00     0.029 A 
ATOM     54  N   UNL A   1      40.774  35.135  35.261  1.00  0.00    -0.354 N 
ATOM     55  C   UNL A   1      43.214  35.531  31.708  1.00  0.00     0.074 A 
ATOM     56  C   UNL A   1      42.696  34.719  30.631  1.00  0.00     0.031 C 
ATOM     57  C   UNL A   1      39.074  34.372  36.494  1.00  0.00     0.029 A 
ATOM     58  C   UNL A   1      40.293  35.177  36.547  1.00  0.00     0.049 A 
ATOM     59  H   UNL A   1      41.573  35.631  34.967  1.00  0.00     0.167 HD
ATOM     60  C   UNL A   1      44.315  36.310  31.605  1.00  0.00     0.034 A 
ATOM     61  C   UNL A   1      40.793  35.787  37.641  1.00  0.00     0.034 A 
ATOM     62  C   UNL A   1      44.825  37.123  32.674  1.00  0.00     0.049 A 
ATOM     63  C   UNL A   1      42.039  36.625  37.511  1.00  0.00     0.074 A 
ATOM     64  C   UNL A   1      45.913  37.975  32.664  1.00  0.00     0.029 A 
ATOM     65  N   UNL A   1      44.290  37.170  33.952  1.00  0.00    -0.354 N 
ATOM     66  N   UNL A   1      42.759  36.878  36.443  1.00  0.00    -0.248 NA
ATOM     67  C   UNL A   1      42.519  37.298  38.727  1.00  0.00     0.031 C 
ATOM     68  C   UNL A   1      46.051  38.521  33.944  1.00  0.00     0.029 A 
ATOM     69  C   UNL A   1      45.030  38.030  34.743  1.00  0.00     0.049 A 
ATOM     70  H   UNL A   1      43.499  36.667  34.252  1.00  0.00     0.167 HD
ATOM     71  C   UNL A   1      43.749  37.767  36.850  1.00  0.00     0.074 A 
ATOM     72  C   UNL A   1      43.525  38.023  38.258  1.00  0.00     0.031 C 
ATOM     73  C   UNL A   1      44.760  38.315  36.129  1.00  0.00     0.034 A 
BRANCH  60  74
ATOM     74  C   UNL A   1      45.024  36.334  30.279  1.00  0.00     0.023 A 
ATOM     75  C   UNL A   1      45.814  35.232  29.891  1.00  0.00     0.012 A 
ATOM     76  C   UNL A   1      44.883  37.428  29.404  1.00  0.00     0.148 A 
ATOM     77  C   UNL A   1      46.478  35.231  28.665  1.00  0.00     0.002 A 
ATOM     78  C   UNL A   1      45.513  37.401  28.166  1.00  0.00     0.091 A 
ATOM     79  F   UNL A   1      44.154  38.478  29.806  1.00  0.00    -0.205 F 
ATOM     80  C   UNL A   1      46.319  36.310  27.799  1.00  0.00     0.022 A 
BRANCH  78  81
ATOM     81  S   UNL A   1      45.312  38.708  26.952  1.00  0.00     0.127 S 
ATOM     82  O   UNL A   1      43.885  38.609  26.646  1.00  0.00    -0.237 OA
ATOM     83  O   UNL A   1      45.690  39.898  27.715  1.00  0.00    -0.237 OA
ATOM     84  O   UNL A   1      46.210  38.379  25.854  1.00  0.00    -0.744 OA
ENDBRANCH  78  81
ENDBRANCH  60  74
BRANCH  61  85
ATOM     85  C   UNL A   1      40.095  35.657  38.951  1.00  0.00     0.023 A 
ATOM     86  C   UNL A   1      39.224  36.675  39.381  1.00  0.00     0.012 A 
ATOM     87  C   UNL A   1      40.295  34.528  39.769  1.00  0.00     0.148 A 
ATOM     88  C   UNL A   1      38.585  36.587  40.619  1.00  0.00     0.002 A 
ATOM     89  C   UNL A   1      39.621  34.425  40.980  1.00  0.00     0.091 A 
ATOM     90  F   UNL A   1      41.139  33.577  39.344  1.00  0.00    -0.205 F 
ATOM     91  C   UNL A   1      38.777  35.459  41.414  1.00  0.00     0.022 A 
BRANCH  89  92
ATOM     92  S   UNL A   1      39.734  32.970  42.028  1.00  0.00     0.127 S 
ATOM     93  O   UNL A   1      39.577  31.891  41.056  1.00  0.00    -0.237 OA
ATOM     94  O   UNL A   1      41.082  33.107  42.583  1.00  0.00    -0.237 OA
ATOM     95  O   UNL A   1      38.657  33.097  42.999  1.00  0.00    -0.744 OA
ENDBRANCH  89  92
ENDBRANCH  61  85
BRANCH  73  96
ATOM     96  C   UNL A   1      45.681  39.278  36.832  1.00  0.00     0.023 A 
ATOM     97  C   UNL A   1      46.818  38.795  37.509  1.00  0.00     0.012 A 
ATOM     98  C   UNL A   1      45.459  40.668  36.756  1.00  0.00     0.148 A 
ATOM     99  C   UNL A   1      47.700  39.679  38.131  1.00  0.00     0.002 A 
ATOM    100  C   UNL A   1      46.369  41.544  37.336  1.00  0.00     0.091 A 
ATOM    101  F   UNL A   1      44.363  41.108  36.122  1.00  0.00    -0.205 F 
ATOM    102  C   UNL A   1      47.482  41.051  38.035  1.00  0.00     0.022 A 
BRANCH 100 103
ATOM    103  S   UNL A   1      46.218  43.327  37.173  1.00  0.00     0.127 S 
ATOM    104  O   UNL A   1      45.437  43.669  38.360  1.00  0.00    -0.237 OA
ATOM    105  O   UNL A   1      47.614  43.764  37.215  1.00  0.00    -0.237 OA
ATOM    106  O   UNL A   1      45.554  43.555  35.896  1.00  0.00    -0.744 OA
ENDBRANCH 100 103
ENDBRANCH  73  96
ENDBRANCH  47  48
ENDBRANCH  40  42
ENDBRANCH  39  40
ENDBRANCH  38  39
ENDBRANCH  37  38
ENDBRANCH  36  37
ENDBRANCH  35  36
ENDBRANCH   1  35
TORSDOF 26
ENDMDL
