MODEL 1
REMARK VINA RESULT:      -7.5      0.000      0.000
REMARK SMILES O=C(OCCOCCOCCOCCOC(=O)[C@@H](CCc1ccccc1)[C@@H]1CCS(=O)(=O)C1)c1ccc(-c2c3nc(c(-c4cccc(S(=O)(=O)[O-])c4F)c4ccc([nH]4)c(-c4cccc(S(=O)(=O)[O-])c4F)c4nc(c(-c5cccc(S(=O)(=O)[O-])c5F)c5ccc2[nH]5)C=C4)C=C3)cc1
REMARK SMILES IDX 9 1 8 2 7 3 6 4 5 5 4 6 3 7 2 8 1 9 34 10 35 11 96 12 36 13
REMARK SMILES IDX 95 14 37 15 38 16 39 17 89 18 40 19 94 20 88 21 90 22 41 23
REMARK SMILES IDX 93 24 87 25 86 26 42 28 74 29 54 30 73 31 55 32 58 33 72 34
REMARK SMILES IDX 91 35 56 36 57 37 71 39 92 40 59 41 43 42 44 43 52 44 45 45
REMARK SMILES IDX 47 46 53 47 46 48 48 49 49 50 50 51 51 52 75 53 76 54 84 55
REMARK SMILES IDX 77 56 79 57 85 58 78 59 80 60 81 61 82 62 83 63 60 64 61 65
REMARK SMILES IDX 69 66 62 67 64 68 70 69 63 70 65 71 66 72 67 73 68 74 10 75
REMARK SMILES IDX 11 76 12 77 13 78 14 79 15 80 16 81 17 82 18 83 19 84 20 85
REMARK SMILES IDX 21 86 22 87 26 88 23 89 25 90 24 91 27 92 28 93 33 94 29 95
REMARK SMILES IDX 30 96 31 97 32 98
REMARK H PARENT 90 27 58 38
REMARK Flexibility Score: inf
ROOT
ATOM      1  O   UNL A   1      46.931  25.137  24.654  1.00  0.00    -0.377 OA
ENDROOT
BRANCH   1   2
ATOM      2  C   UNL A   1      46.273  25.397  25.894  1.00  0.00     0.188 C 
BRANCH   2   3
ATOM      3  C   UNL A   1      45.183  24.396  26.221  1.00  0.00     0.188 C 
BRANCH   3   4
ATOM      4  O   UNL A   1      44.217  24.475  25.202  1.00  0.00    -0.376 OA
BRANCH   4   5
ATOM      5  C   UNL A   1      43.700  23.327  24.572  1.00  0.00     0.202 C 
BRANCH   5   6
ATOM      6  C   UNL A   1      43.160  22.258  25.496  1.00  0.00     0.261 C 
BRANCH   6   7
ATOM      7  O   UNL A   1      41.728  22.091  25.528  1.00  0.00    -0.460 OA
BRANCH   7   8
ATOM      8  C   UNL A   1      40.713  22.691  26.186  1.00  0.00     0.338 C 
ATOM      9  O   UNL A   1      39.680  22.039  26.351  1.00  0.00    -0.246 OA
BRANCH   8  10
ATOM     10  C   UNL A   1      40.744  24.064  26.759  1.00  0.00     0.060 A 
ATOM     11  C   UNL A   1      40.526  25.240  26.052  1.00  0.00     0.016 A 
ATOM     12  C   UNL A   1      40.879  24.176  28.151  1.00  0.00     0.016 A 
ATOM     13  C   UNL A   1      40.574  26.485  26.634  1.00  0.00     0.010 A 
ATOM     14  C   UNL A   1      40.873  25.428  28.774  1.00  0.00     0.010 A 
ATOM     15  C   UNL A   1      40.771  26.586  27.995  1.00  0.00    -0.014 A 
BRANCH  15  16
ATOM     16  C   UNL A   1      41.105  27.925  28.486  1.00  0.00     0.031 A 
ATOM     17  C   UNL A   1      42.540  28.332  28.392  1.00  0.00     0.074 A 
ATOM     18  C   UNL A   1      40.122  28.794  28.779  1.00  0.00     0.049 A 
ATOM     19  N   UNL A   1      43.116  29.424  28.801  1.00  0.00    -0.248 NA
ATOM     20  C   UNL A   1      43.454  27.383  27.722  1.00  0.00     0.031 C 
ATOM     21  C   UNL A   1      38.682  28.511  28.695  1.00  0.00     0.029 A 
ATOM     22  N   UNL A   1      40.180  30.097  29.182  1.00  0.00    -0.354 N 
ATOM     23  C   UNL A   1      44.462  29.264  28.504  1.00  0.00     0.074 A 
ATOM     24  C   UNL A   1      44.623  27.982  27.864  1.00  0.00     0.031 C 
ATOM     25  C   UNL A   1      37.998  29.607  29.056  1.00  0.00     0.029 A 
ATOM     26  C   UNL A   1      38.946  30.629  29.474  1.00  0.00     0.049 A 
ATOM     27  H   UNL A   1      41.021  30.604  29.257  1.00  0.00     0.167 HD
ATOM     28  C   UNL A   1      45.470  30.125  28.757  1.00  0.00     0.034 A 
ATOM     29  C   UNL A   1      38.644  31.791  30.080  1.00  0.00     0.034 A 
ATOM     30  C   UNL A   1      45.254  31.390  29.393  1.00  0.00     0.049 A 
ATOM     31  C   UNL A   1      39.797  32.680  30.463  1.00  0.00     0.074 A 
ATOM     32  C   UNL A   1      46.181  32.328  29.796  1.00  0.00     0.029 A 
ATOM     33  N   UNL A   1      43.999  31.886  29.726  1.00  0.00    -0.354 N 
ATOM     34  N   UNL A   1      41.079  32.510  30.235  1.00  0.00    -0.248 NA
ATOM     35  C   UNL A   1      39.469  33.920  31.172  1.00  0.00     0.031 C 
ATOM     36  C   UNL A   1      45.485  33.379  30.404  1.00  0.00     0.029 A 
ATOM     37  C   UNL A   1      44.123  33.118  30.333  1.00  0.00     0.049 A 
ATOM     38  H   UNL A   1      43.146  31.426  29.552  1.00  0.00     0.167 HD
ATOM     39  C   UNL A   1      41.711  33.637  30.741  1.00  0.00     0.074 A 
ATOM     40  C   UNL A   1      40.661  34.492  31.265  1.00  0.00     0.031 C 
ATOM     41  C   UNL A   1      43.031  33.942  30.789  1.00  0.00     0.034 A 
BRANCH  28  42
ATOM     42  C   UNL A   1      46.859  29.675  28.403  1.00  0.00     0.023 A 
ATOM     43  C   UNL A   1      47.395  29.946  27.127  1.00  0.00     0.012 A 
ATOM     44  C   UNL A   1      47.618  28.934  29.329  1.00  0.00     0.148 A 
ATOM     45  C   UNL A   1      48.649  29.452  26.766  1.00  0.00     0.002 A 
ATOM     46  C   UNL A   1      48.885  28.487  28.979  1.00  0.00     0.091 A 
ATOM     47  F   UNL A   1      47.072  28.656  30.522  1.00  0.00    -0.205 F 
ATOM     48  C   UNL A   1      49.395  28.731  27.694  1.00  0.00     0.022 A 
BRANCH  46  49
ATOM     49  S   UNL A   1      49.948  27.601  30.122  1.00  0.00     0.127 S 
ATOM     50  O   UNL A   1      49.550  26.214  29.880  1.00  0.00    -0.237 OA
ATOM     51  O   UNL A   1      51.279  27.950  29.627  1.00  0.00    -0.237 OA
ATOM     52  O   UNL A   1      49.633  28.110  31.449  1.00  0.00    -0.744 OA
ENDBRANCH  46  49
ENDBRANCH  28  42
BRANCH  29  53
ATOM     53  C   UNL A   1      37.233  32.141  30.411  1.00  0.00     0.023 A 
ATOM     54  C   UNL A   1      36.702  31.818  31.674  1.00  0.00     0.012 A 
ATOM     55  C   UNL A   1      36.402  32.779  29.465  1.00  0.00     0.148 A 
ATOM     56  C   UNL A   1      35.362  32.080  31.972  1.00  0.00     0.002 A 
ATOM     57  C   UNL A   1      35.086  33.087  29.787  1.00  0.00     0.091 A 
ATOM     58  F   UNL A   1      36.914  33.068  28.260  1.00  0.00    -0.205 F 
ATOM     59  C   UNL A   1      34.557  32.719  31.033  1.00  0.00     0.022 A 
BRANCH  57  60
ATOM     60  S   UNL A   1      34.015  34.008  28.678  1.00  0.00     0.127 S 
ATOM     61  O   UNL A   1      33.653  32.988  27.698  1.00  0.00    -0.237 OA
ATOM     62  O   UNL A   1      32.932  34.416  29.573  1.00  0.00    -0.237 OA
ATOM     63  O   UNL A   1      34.824  35.111  28.177  1.00  0.00    -0.744 OA
ENDBRANCH  57  60
ENDBRANCH  29  53
BRANCH  41  64
ATOM     64  C   UNL A   1      43.397  35.278  31.369  1.00  0.00     0.023 A 
ATOM     65  C   UNL A   1      43.625  35.410  32.751  1.00  0.00     0.012 A 
ATOM     66  C   UNL A   1      43.596  36.380  30.517  1.00  0.00     0.148 A 
ATOM     67  C   UNL A   1      44.011  36.637  33.284  1.00  0.00     0.002 A 
ATOM     68  C   UNL A   1      44.042  37.580  31.045  1.00  0.00     0.091 A 
ATOM     69  F   UNL A   1      43.355  36.227  29.206  1.00  0.00    -0.205 F 
ATOM     70  C   UNL A   1      44.233  37.717  32.430  1.00  0.00     0.022 A 
BRANCH  68  71
ATOM     71  S   UNL A   1      44.467  38.980  30.008  1.00  0.00     0.127 S 
ATOM     72  O   UNL A   1      43.183  39.286  29.381  1.00  0.00    -0.237 OA
ATOM     73  O   UNL A   1      44.918  39.966  30.992  1.00  0.00    -0.237 OA
ATOM     74  O   UNL A   1      45.507  38.511  29.102  1.00  0.00    -0.744 OA
ENDBRANCH  68  71
ENDBRANCH  41  64
ENDBRANCH  15  16
ENDBRANCH   8  10
ENDBRANCH   7   8
ENDBRANCH   6   7
ENDBRANCH   5   6
ENDBRANCH   4   5
ENDBRANCH   3   4
ENDBRANCH   2   3
ENDBRANCH   1   2
BRANCH   1  75
ATOM     75  C   UNL A   1      48.100  25.877  24.286  1.00  0.00     0.188 C 
BRANCH  75  76
ATOM     76  C   UNL A   1      47.986  27.252  23.619  1.00  0.00     0.188 C 
BRANCH  76  77
ATOM     77  O   UNL A   1      47.967  27.197  22.209  1.00  0.00    -0.376 OA
BRANCH  77  78
ATOM     78  C   UNL A   1      48.711  28.220  21.568  1.00  0.00     0.202 C 
BRANCH  78  79
ATOM     79  C   UNL A   1      50.221  28.018  21.303  1.00  0.00     0.261 C 
BRANCH  79  80
ATOM     80  O   UNL A   1      50.918  28.818  20.316  1.00  0.00    -0.463 OA
BRANCH  80  81
ATOM     81  C   UNL A   1      51.168  28.262  19.111  1.00  0.00     0.309 C 
ATOM     82  O   UNL A   1      50.514  27.338  18.636  1.00  0.00    -0.252 OA
BRANCH  81  83
ATOM     83  C   UNL A   1      52.436  28.773  18.397  1.00  0.00     0.103 C 
BRANCH  83  84
ATOM     84  C   UNL A   1      52.535  30.192  17.744  1.00  0.00     0.020 C 
BRANCH  84  85
ATOM     85  C   UNL A   1      52.096  31.462  18.497  1.00  0.00     0.036 C 
BRANCH  85  86
ATOM     86  C   UNL A   1      53.026  32.018  19.544  1.00  0.00    -0.048 A 
ATOM     87  C   UNL A   1      52.657  32.183  20.881  1.00  0.00     0.004 A 
ATOM     88  C   UNL A   1      54.302  32.438  19.143  1.00  0.00     0.004 A 
ATOM     89  C   UNL A   1      53.421  32.987  21.724  1.00  0.00     0.000 A 
ATOM     90  C   UNL A   1      55.096  33.192  20.003  1.00  0.00     0.000 A 
ATOM     91  C   UNL A   1      54.625  33.519  21.272  1.00  0.00     0.000 A 
ENDBRANCH  85  86
ENDBRANCH  84  85
ENDBRANCH  83  84
BRANCH  83  92
ATOM     92  C   UNL A   1      53.720  28.345  19.137  1.00  0.00     0.019 C 
ATOM     93  C   UNL A   1      55.025  28.747  18.430  1.00  0.00     0.021 C 
ATOM     94  C   UNL A   1      53.816  26.854  19.482  1.00  0.00     0.141 C 
ATOM     95  C   UNL A   1      55.473  27.619  17.521  1.00  0.00     0.137 C 
ATOM     96  S   UNL A   1      54.996  26.122  18.358  1.00  0.00     0.150 S 
ATOM     97  O   UNL A   1      54.295  25.262  17.424  1.00  0.00    -0.229 OA
ATOM     98  O   UNL A   1      56.122  25.651  19.130  1.00  0.00    -0.229 OA
ENDBRANCH  83  92
ENDBRANCH  81  83
ENDBRANCH  80  81
ENDBRANCH  79  80
ENDBRANCH  78  79
ENDBRANCH  77  78
ENDBRANCH  76  77
ENDBRANCH  75  76
ENDBRANCH   1  75
TORSDOF 27
ENDMDL
MODEL 2
REMARK VINA RESULT:      -7.5      4.914     14.216
REMARK SMILES O=C(OCCOCCOCCOCCOC(=O)[C@@H](CCc1ccccc1)[C@@H]1CCS(=O)(=O)C1)c1ccc(-c2c3nc(c(-c4cccc(S(=O)(=O)[O-])c4F)c4ccc([nH]4)c(-c4cccc(S(=O)(=O)[O-])c4F)c4nc(c(-c5cccc(S(=O)(=O)[O-])c5F)c5ccc2[nH]5)C=C4)C=C3)cc1
REMARK SMILES IDX 9 1 8 2 7 3 6 4 5 5 4 6 3 7 2 8 1 9 34 10 35 11 96 12 36 13
REMARK SMILES IDX 95 14 37 15 38 16 39 17 89 18 40 19 94 20 88 21 90 22 41 23
REMARK SMILES IDX 93 24 87 25 86 26 42 28 74 29 54 30 73 31 55 32 58 33 72 34
REMARK SMILES IDX 91 35 56 36 57 37 71 39 92 40 59 41 43 42 44 43 52 44 45 45
REMARK SMILES IDX 47 46 53 47 46 48 48 49 49 50 50 51 51 52 75 53 76 54 84 55
REMARK SMILES IDX 77 56 79 57 85 58 78 59 80 60 81 61 82 62 83 63 60 64 61 65
REMARK SMILES IDX 69 66 62 67 64 68 70 69 63 70 65 71 66 72 67 73 68 74 10 75
REMARK SMILES IDX 11 76 12 77 13 78 14 79 15 80 16 81 17 82 18 83 19 84 20 85
REMARK SMILES IDX 21 86 22 87 26 88 23 89 25 90 24 91 27 92 28 93 33 94 29 95
REMARK SMILES IDX 30 96 31 97 32 98
REMARK H PARENT 90 27 58 38
REMARK Flexibility Score: inf
ROOT
ATOM      1  O   UNL A   1      35.525  31.698  30.116  1.00  0.00    -0.377 OA
ENDROOT
BRANCH   1   2
ATOM      2  C   UNL A   1      36.694  32.485  29.892  1.00  0.00     0.188 C 
BRANCH   2   3
ATOM      3  C   UNL A   1      36.780  33.707  30.784  1.00  0.00     0.188 C 
BRANCH   3   4
ATOM      4  O   UNL A   1      35.465  34.122  31.061  1.00  0.00    -0.376 OA
BRANCH   4   5
ATOM      5  C   UNL A   1      35.081  34.589  32.332  1.00  0.00     0.202 C 
BRANCH   5   6
ATOM      6  C   UNL A   1      36.197  34.731  33.344  1.00  0.00     0.261 C 
BRANCH   6   7
ATOM      7  O   UNL A   1      36.205  33.792  34.437  1.00  0.00    -0.460 OA
BRANCH   7   8
ATOM      8  C   UNL A   1      37.154  33.053  35.053  1.00  0.00     0.338 C 
ATOM      9  O   UNL A   1      37.024  32.859  36.263  1.00  0.00    -0.246 OA
BRANCH   8  10
ATOM     10  C   UNL A   1      38.327  32.423  34.388  1.00  0.00     0.060 A 
ATOM     11  C   UNL A   1      39.656  32.611  34.747  1.00  0.00     0.016 A 
ATOM     12  C   UNL A   1      38.065  31.463  33.399  1.00  0.00     0.016 A 
ATOM     13  C   UNL A   1      40.702  32.007  34.091  1.00  0.00     0.010 A 
ATOM     14  C   UNL A   1      39.112  30.792  32.758  1.00  0.00     0.010 A 
ATOM     15  C   UNL A   1      40.436  31.111  33.077  1.00  0.00    -0.014 A 
BRANCH  15  16
ATOM     16  C   UNL A   1      41.582  30.746  32.242  1.00  0.00     0.031 A 
ATOM     17  C   UNL A   1      42.089  31.796  31.307  1.00  0.00     0.074 A 
ATOM     18  C   UNL A   1      42.257  29.610  32.492  1.00  0.00     0.049 A 
ATOM     19  N   UNL A   1      43.040  31.723  30.423  1.00  0.00    -0.248 NA
ATOM     20  C   UNL A   1      41.448  33.125  31.395  1.00  0.00     0.031 C 
ATOM     21  C   UNL A   1      41.921  28.634  33.538  1.00  0.00     0.029 A 
ATOM     22  N   UNL A   1      43.378  29.096  31.906  1.00  0.00    -0.354 N 
ATOM     23  C   UNL A   1      43.065  32.965  29.805  1.00  0.00     0.074 A 
ATOM     24  C   UNL A   1      42.050  33.784  30.420  1.00  0.00     0.031 C 
ATOM     25  C   UNL A   1      42.811  27.630  33.502  1.00  0.00     0.029 A 
ATOM     26  C   UNL A   1      43.716  27.852  32.384  1.00  0.00     0.049 A 
ATOM     27  H   UNL A   1      43.891  29.568  31.211  1.00  0.00     0.167 HD
ATOM     28  C   UNL A   1      43.871  33.372  28.803  1.00  0.00     0.034 A 
ATOM     29  C   UNL A   1      44.618  26.976  31.908  1.00  0.00     0.034 A 
ATOM     30  C   UNL A   1      44.868  32.518  28.228  1.00  0.00     0.049 A 
ATOM     31  C   UNL A   1      45.421  27.407  30.711  1.00  0.00     0.074 A 
ATOM     32  C   UNL A   1      45.697  32.754  27.152  1.00  0.00     0.029 A 
ATOM     33  N   UNL A   1      45.158  31.242  28.697  1.00  0.00    -0.354 N 
ATOM     34  N   UNL A   1      45.411  28.562  30.084  1.00  0.00    -0.248 NA
ATOM     35  C   UNL A   1      46.366  26.430  30.160  1.00  0.00     0.031 C 
ATOM     36  C   UNL A   1      46.468  31.604  26.950  1.00  0.00     0.029 A 
ATOM     37  C   UNL A   1      46.154  30.673  27.931  1.00  0.00     0.049 A 
ATOM     38  H   UNL A   1      44.719  30.809  29.464  1.00  0.00     0.167 HD
ATOM     39  C   UNL A   1      46.370  28.465  29.087  1.00  0.00     0.074 A 
ATOM     40  C   UNL A   1      46.957  27.144  29.212  1.00  0.00     0.031 C 
ATOM     41  C   UNL A   1      46.730  29.368  28.141  1.00  0.00     0.034 A 
BRANCH  28  42
ATOM     42  C   UNL A   1      43.639  34.751  28.254  1.00  0.00     0.023 A 
ATOM     43  C   UNL A   1      42.840  34.941  27.108  1.00  0.00     0.012 A 
ATOM     44  C   UNL A   1      44.262  35.862  28.854  1.00  0.00     0.148 A 
ATOM     45  C   UNL A   1      42.697  36.209  26.546  1.00  0.00     0.002 A 
ATOM     46  C   UNL A   1      44.076  37.129  28.316  1.00  0.00     0.091 A 
ATOM     47  F   UNL A   1      45.049  35.653  29.920  1.00  0.00    -0.205 F 
ATOM     48  C   UNL A   1      43.308  37.302  27.154  1.00  0.00     0.022 A 
BRANCH  46  49
ATOM     49  S   UNL A   1      44.772  38.608  29.059  1.00  0.00     0.127 S 
ATOM     50  O   UNL A   1      45.424  38.061  30.250  1.00  0.00    -0.237 OA
ATOM     51  O   UNL A   1      45.689  39.065  28.017  1.00  0.00    -0.237 OA
ATOM     52  O   UNL A   1      43.650  39.496  29.323  1.00  0.00    -0.744 OA
ENDBRANCH  46  49
ENDBRANCH  28  42
BRANCH  29  53
ATOM     53  C   UNL A   1      44.761  25.618  32.507  1.00  0.00     0.023 A 
ATOM     54  C   UNL A   1      44.132  24.511  31.906  1.00  0.00     0.012 A 
ATOM     55  C   UNL A   1      45.505  25.420  33.690  1.00  0.00     0.148 A 
ATOM     56  C   UNL A   1      44.202  23.246  32.495  1.00  0.00     0.002 A 
ATOM     57  C   UNL A   1      45.617  24.149  34.240  1.00  0.00     0.091 A 
ATOM     58  F   UNL A   1      46.087  26.484  34.262  1.00  0.00    -0.205 F 
ATOM     59  C   UNL A   1      44.949  23.063  33.655  1.00  0.00     0.022 A 
BRANCH  57  60
ATOM     60  S   UNL A   1      46.650  23.806  35.669  1.00  0.00     0.127 S 
ATOM     61  O   UNL A   1      46.523  22.356  35.787  1.00  0.00    -0.237 OA
ATOM     62  O   UNL A   1      47.959  24.276  35.216  1.00  0.00    -0.237 OA
ATOM     63  O   UNL A   1      46.079  24.584  36.760  1.00  0.00    -0.744 OA
ENDBRANCH  57  60
ENDBRANCH  29  53
BRANCH  41  64
ATOM     64  C   UNL A   1      47.848  28.973  27.219  1.00  0.00     0.023 A 
ATOM     65  C   UNL A   1      49.186  29.107  27.633  1.00  0.00     0.012 A 
ATOM     66  C   UNL A   1      47.554  28.390  25.973  1.00  0.00     0.148 A 
ATOM     67  C   UNL A   1      50.222  28.697  26.798  1.00  0.00     0.002 A 
ATOM     68  C   UNL A   1      48.587  27.927  25.175  1.00  0.00     0.091 A 
ATOM     69  F   UNL A   1      46.270  28.292  25.599  1.00  0.00    -0.205 F 
ATOM     70  C   UNL A   1      49.923  28.094  25.577  1.00  0.00     0.022 A 
BRANCH  68  71
ATOM     71  S   UNL A   1      48.287  27.033  23.649  1.00  0.00     0.127 S 
ATOM     72  O   UNL A   1      49.649  26.763  23.191  1.00  0.00    -0.237 OA
ATOM     73  O   UNL A   1      47.555  25.857  24.120  1.00  0.00    -0.237 OA
ATOM     74  O   UNL A   1      47.512  27.929  22.801  1.00  0.00    -0.744 OA
ENDBRANCH  68  71
ENDBRANCH  41  64
ENDBRANCH  15  16
ENDBRANCH   8  10
ENDBRANCH   7   8
ENDBRANCH   6   7
ENDBRANCH   5   6
ENDBRANCH   4   5
ENDBRANCH   3   4
ENDBRANCH   2   3
ENDBRANCH   1   2
BRANCH   1  75
ATOM     75  C   UNL A   1      34.908  30.994  29.032  1.00  0.00     0.188 C 
BRANCH  75  76
ATOM     76  C   UNL A   1      34.638  31.688  27.693  1.00  0.00     0.188 C 
BRANCH  76  77
ATOM     77  O   UNL A   1      33.480  32.495  27.698  1.00  0.00    -0.376 OA
BRANCH  77  78
ATOM     78  C   UNL A   1      32.462  32.073  26.806  1.00  0.00     0.202 C 
BRANCH  78  79
ATOM     79  C   UNL A   1      31.865  30.653  26.941  1.00  0.00     0.261 C 
BRANCH  79  80
ATOM     80  O   UNL A   1      32.446  29.530  26.232  1.00  0.00    -0.463 OA
BRANCH  80  81
ATOM     81  C   UNL A   1      31.841  29.114  25.099  1.00  0.00     0.309 C 
ATOM     82  O   UNL A   1      30.919  29.717  24.556  1.00  0.00    -0.252 OA
BRANCH  81  83
ATOM     83  C   UNL A   1      32.292  27.736  24.575  1.00  0.00     0.103 C 
BRANCH  83  84
ATOM     84  C   UNL A   1      32.072  26.405  25.370  1.00  0.00     0.020 C 
BRANCH  84  85
ATOM     85  C   UNL A   1      33.228  25.700  26.102  1.00  0.00     0.036 C 
BRANCH  85  86
ATOM     86  C   UNL A   1      33.259  24.193  26.086  1.00  0.00    -0.048 A 
ATOM     87  C   UNL A   1      34.287  23.446  26.665  1.00  0.00     0.004 A 
ATOM     88  C   UNL A   1      32.235  23.515  25.410  1.00  0.00     0.004 A 
ATOM     89  C   UNL A   1      34.437  22.098  26.348  1.00  0.00     0.000 A 
ATOM     90  C   UNL A   1      32.352  22.155  25.141  1.00  0.00     0.000 A 
ATOM     91  C   UNL A   1      33.485  21.461  25.557  1.00  0.00     0.000 A 
ENDBRANCH  85  86
ENDBRANCH  84  85
ENDBRANCH  83  84
BRANCH  83  92
ATOM     92  C   UNL A   1      32.044  27.593  23.058  1.00  0.00     0.019 C 
ATOM     93  C   UNL A   1      30.942  26.587  22.686  1.00  0.00     0.021 C 
ATOM     94  C   UNL A   1      33.283  27.263  22.217  1.00  0.00     0.141 C 
ATOM     95  C   UNL A   1      31.563  25.223  22.459  1.00  0.00     0.137 C 
ATOM     96  S   UNL A   1      33.161  25.545  21.741  1.00  0.00     0.150 S 
ATOM     97  O   UNL A   1      34.163  24.780  22.457  1.00  0.00    -0.229 OA
ATOM     98  O   UNL A   1      33.036  25.483  20.303  1.00  0.00    -0.229 OA
ENDBRANCH  83  92
ENDBRANCH  81  83
ENDBRANCH  80  81
ENDBRANCH  79  80
ENDBRANCH  78  79
ENDBRANCH  77  78
ENDBRANCH  76  77
ENDBRANCH  75  76
ENDBRANCH   1  75
TORSDOF 27
ENDMDL
MODEL 3
REMARK VINA RESULT:      -7.4      1.655      2.619
REMARK SMILES O=C(OCCOCCOCCOCCOC(=O)[C@@H](CCc1ccccc1)[C@@H]1CCS(=O)(=O)C1)c1ccc(-c2c3nc(c(-c4cccc(S(=O)(=O)[O-])c4F)c4ccc([nH]4)c(-c4cccc(S(=O)(=O)[O-])c4F)c4nc(c(-c5cccc(S(=O)(=O)[O-])c5F)c5ccc2[nH]5)C=C4)C=C3)cc1
REMARK SMILES IDX 9 1 8 2 7 3 6 4 5 5 4 6 3 7 2 8 1 9 34 10 35 11 96 12 36 13
REMARK SMILES IDX 95 14 37 15 38 16 39 17 89 18 40 19 94 20 88 21 90 22 41 23
REMARK SMILES IDX 93 24 87 25 86 26 42 28 74 29 54 30 73 31 55 32 58 33 72 34
REMARK SMILES IDX 91 35 56 36 57 37 71 39 92 40 59 41 43 42 44 43 52 44 45 45
REMARK SMILES IDX 47 46 53 47 46 48 48 49 49 50 50 51 51 52 75 53 76 54 84 55
REMARK SMILES IDX 77 56 79 57 85 58 78 59 80 60 81 61 82 62 83 63 60 64 61 65
REMARK SMILES IDX 69 66 62 67 64 68 70 69 63 70 65 71 66 72 67 73 68 74 10 75
REMARK SMILES IDX 11 76 12 77 13 78 14 79 15 80 16 81 17 82 18 83 19 84 20 85
REMARK SMILES IDX 21 86 22 87 26 88 23 89 25 90 24 91 27 92 28 93 33 94 29 95
REMARK SMILES IDX 30 96 31 97 32 98
REMARK H PARENT 90 27 58 38
REMARK Flexibility Score: inf
ROOT
ATOM      1  O   UNL A   1      46.950  25.167  24.594  1.00  0.00    -0.377 OA
ENDROOT
BRANCH   1   2
ATOM      2  C   UNL A   1      46.409  25.293  25.910  1.00  0.00     0.188 C 
BRANCH   2   3
ATOM      3  C   UNL A   1      45.318  24.286  26.212  1.00  0.00     0.188 C 
BRANCH   3   4
ATOM      4  O   UNL A   1      44.286  24.488  25.279  1.00  0.00    -0.376 OA
BRANCH   4   5
ATOM      5  C   UNL A   1      43.647  23.416  24.627  1.00  0.00     0.202 C 
BRANCH   5   6
ATOM      6  C   UNL A   1      43.162  22.298  25.524  1.00  0.00     0.261 C 
BRANCH   6   7
ATOM      7  O   UNL A   1      41.737  22.090  25.589  1.00  0.00    -0.460 OA
BRANCH   7   8
ATOM      8  C   UNL A   1      40.711  22.706  26.216  1.00  0.00     0.338 C 
ATOM      9  O   UNL A   1      39.659  22.074  26.336  1.00  0.00    -0.246 OA
BRANCH   8  10
ATOM     10  C   UNL A   1      40.751  24.072  26.804  1.00  0.00     0.060 A 
ATOM     11  C   UNL A   1      40.515  25.255  26.116  1.00  0.00     0.016 A 
ATOM     12  C   UNL A   1      40.915  24.167  28.195  1.00  0.00     0.016 A 
ATOM     13  C   UNL A   1      40.572  26.493  26.712  1.00  0.00     0.010 A 
ATOM     14  C   UNL A   1      40.919  25.413  28.832  1.00  0.00     0.010 A 
ATOM     15  C   UNL A   1      40.797  26.579  28.070  1.00  0.00    -0.014 A 
BRANCH  15  16
ATOM     16  C   UNL A   1      41.138  27.913  28.569  1.00  0.00     0.031 A 
ATOM     17  C   UNL A   1      42.574  28.316  28.473  1.00  0.00     0.074 A 
ATOM     18  C   UNL A   1      40.159  28.784  28.872  1.00  0.00     0.049 A 
ATOM     19  N   UNL A   1      43.156  29.402  28.889  1.00  0.00    -0.248 NA
ATOM     20  C   UNL A   1      43.483  27.368  27.793  1.00  0.00     0.031 C 
ATOM     21  C   UNL A   1      38.719  28.507  28.791  1.00  0.00     0.029 A 
ATOM     22  N   UNL A   1      40.224  30.084  29.285  1.00  0.00    -0.354 N 
ATOM     23  C   UNL A   1      44.500  29.239  28.586  1.00  0.00     0.074 A 
ATOM     24  C   UNL A   1      44.654  27.962  27.936  1.00  0.00     0.031 C 
ATOM     25  C   UNL A   1      38.040  29.603  29.162  1.00  0.00     0.029 A 
ATOM     26  C   UNL A   1      38.993  30.617  29.585  1.00  0.00     0.049 A 
ATOM     27  H   UNL A   1      41.067  30.586  29.360  1.00  0.00     0.167 HD
ATOM     28  C   UNL A   1      45.513  30.094  28.841  1.00  0.00     0.034 A 
ATOM     29  C   UNL A   1      38.698  31.776  30.200  1.00  0.00     0.034 A 
ATOM     30  C   UNL A   1      45.304  31.355  29.488  1.00  0.00     0.049 A 
ATOM     31  C   UNL A   1      39.855  32.658  30.586  1.00  0.00     0.074 A 
ATOM     32  C   UNL A   1      46.236  32.287  29.895  1.00  0.00     0.029 A 
ATOM     33  N   UNL A   1      44.051  31.854  29.828  1.00  0.00    -0.354 N 
ATOM     34  N   UNL A   1      41.136  32.485  30.353  1.00  0.00    -0.248 NA
ATOM     35  C   UNL A   1      39.534  33.894  31.305  1.00  0.00     0.031 C 
ATOM     36  C   UNL A   1      45.546  33.336  30.512  1.00  0.00     0.029 A 
ATOM     37  C   UNL A   1      44.182  33.081  30.444  1.00  0.00     0.049 A 
ATOM     38  H   UNL A   1      43.196  31.399  29.654  1.00  0.00     0.167 HD
ATOM     39  C   UNL A   1      41.773  33.606  30.864  1.00  0.00     0.074 A 
ATOM     40  C   UNL A   1      40.729  34.461  31.399  1.00  0.00     0.031 C 
ATOM     41  C   UNL A   1      43.095  33.905  30.910  1.00  0.00     0.034 A 
BRANCH  28  42
ATOM     42  C   UNL A   1      46.898  29.642  28.479  1.00  0.00     0.023 A 
ATOM     43  C   UNL A   1      47.443  29.946  27.214  1.00  0.00     0.012 A 
ATOM     44  C   UNL A   1      47.646  28.866  29.386  1.00  0.00     0.148 A 
ATOM     45  C   UNL A   1      48.693  29.451  26.843  1.00  0.00     0.002 A 
ATOM     46  C   UNL A   1      48.911  28.417  29.027  1.00  0.00     0.091 A 
ATOM     47  F   UNL A   1      47.093  28.557  30.568  1.00  0.00    -0.205 F 
ATOM     48  C   UNL A   1      49.428  28.695  27.752  1.00  0.00     0.022 A 
BRANCH  46  49
ATOM     49  S   UNL A   1      49.961  27.487  30.147  1.00  0.00     0.127 S 
ATOM     50  O   UNL A   1      50.177  28.456  31.222  1.00  0.00    -0.237 OA
ATOM     51  O   UNL A   1      49.098  26.362  30.503  1.00  0.00    -0.237 OA
ATOM     52  O   UNL A   1      51.151  27.133  29.388  1.00  0.00    -0.744 OA
ENDBRANCH  46  49
ENDBRANCH  28  42
BRANCH  29  53
ATOM     53  C   UNL A   1      37.289  32.129  30.539  1.00  0.00     0.023 A 
ATOM     54  C   UNL A   1      36.766  31.813  31.807  1.00  0.00     0.012 A 
ATOM     55  C   UNL A   1      36.453  32.763  29.595  1.00  0.00     0.148 A 
ATOM     56  C   UNL A   1      35.429  32.077  32.112  1.00  0.00     0.002 A 
ATOM     57  C   UNL A   1      35.139  33.074  29.924  1.00  0.00     0.091 A 
ATOM     58  F   UNL A   1      36.957  33.046  28.386  1.00  0.00    -0.205 F 
ATOM     59  C   UNL A   1      34.618  32.713  31.176  1.00  0.00     0.022 A 
BRANCH  57  60
ATOM     60  S   UNL A   1      34.061  33.991  28.819  1.00  0.00     0.127 S 
ATOM     61  O   UNL A   1      33.647  32.954  27.878  1.00  0.00    -0.237 OA
ATOM     62  O   UNL A   1      33.013  34.452  29.730  1.00  0.00    -0.237 OA
ATOM     63  O   UNL A   1      34.884  35.058  28.265  1.00  0.00    -0.744 OA
ENDBRANCH  57  60
ENDBRANCH  29  53
BRANCH  41  64
ATOM     64  C   UNL A   1      43.469  35.235  31.499  1.00  0.00     0.023 A 
ATOM     65  C   UNL A   1      43.758  35.345  32.872  1.00  0.00     0.012 A 
ATOM     66  C   UNL A   1      43.612  36.356  30.660  1.00  0.00     0.148 A 
ATOM     67  C   UNL A   1      44.150  36.567  33.409  1.00  0.00     0.002 A 
ATOM     68  C   UNL A   1      44.064  37.553  31.191  1.00  0.00     0.091 A 
ATOM     69  F   UNL A   1      43.313  36.225  29.359  1.00  0.00    -0.205 F 
ATOM     70  C   UNL A   1      44.317  37.666  32.568  1.00  0.00     0.022 A 
BRANCH  68  71
ATOM     71  S   UNL A   1      44.421  38.979  30.163  1.00  0.00     0.127 S 
ATOM     72  O   UNL A   1      43.200  39.767  30.315  1.00  0.00    -0.237 OA
ATOM     73  O   UNL A   1      45.601  39.544  30.820  1.00  0.00    -0.237 OA
ATOM     74  O   UNL A   1      44.666  38.461  28.824  1.00  0.00    -0.744 OA
ENDBRANCH  68  71
ENDBRANCH  41  64
ENDBRANCH  15  16
ENDBRANCH   8  10
ENDBRANCH   7   8
ENDBRANCH   6   7
ENDBRANCH   5   6
ENDBRANCH   4   5
ENDBRANCH   3   4
ENDBRANCH   2   3
ENDBRANCH   1   2
BRANCH   1  75
ATOM     75  C   UNL A   1      47.981  26.055  24.148  1.00  0.00     0.188 C 
BRANCH  75  76
ATOM     76  C   UNL A   1      47.639  27.423  23.548  1.00  0.00     0.188 C 
BRANCH  76  77
ATOM     77  O   UNL A   1      47.600  27.428  22.137  1.00  0.00    -0.376 OA
BRANCH  77  78
ATOM     78  C   UNL A   1      48.374  28.448  21.528  1.00  0.00     0.202 C 
BRANCH  78  79
ATOM     79  C   UNL A   1      49.871  28.200  21.229  1.00  0.00     0.261 C 
BRANCH  79  80
ATOM     80  O   UNL A   1      50.901  28.685  22.126  1.00  0.00    -0.463 OA
BRANCH  80  81
ATOM     81  C   UNL A   1      51.612  29.768  21.747  1.00  0.00     0.309 C 
ATOM     82  O   UNL A   1      51.158  30.676  21.056  1.00  0.00    -0.252 OA
BRANCH  81  83
ATOM     83  C   UNL A   1      53.106  29.745  22.128  1.00  0.00     0.103 C 
BRANCH  83  84
ATOM     84  C   UNL A   1      53.612  29.814  23.608  1.00  0.00     0.020 C 
BRANCH  84  85
ATOM     85  C   UNL A   1      52.775  29.261  24.776  1.00  0.00     0.036 C 
BRANCH  85  86
ATOM     86  C   UNL A   1      52.644  27.765  24.904  1.00  0.00    -0.048 A 
ATOM     87  C   UNL A   1      51.471  27.137  25.329  1.00  0.00     0.004 A 
ATOM     88  C   UNL A   1      53.769  26.975  24.635  1.00  0.00     0.004 A 
ATOM     89  C   UNL A   1      51.499  25.805  25.736  1.00  0.00     0.000 A 
ATOM     90  C   UNL A   1      53.782  25.627  24.986  1.00  0.00     0.000 A 
ATOM     91  C   UNL A   1      52.666  25.060  25.595  1.00  0.00     0.000 A 
ENDBRANCH  85  86
ENDBRANCH  84  85
ENDBRANCH  83  84
BRANCH  83  92
ATOM     92  C   UNL A   1      53.904  28.758  21.251  1.00  0.00     0.019 C 
ATOM     93  C   UNL A   1      55.331  28.475  21.750  1.00  0.00     0.021 C 
ATOM     94  C   UNL A   1      53.992  29.122  19.764  1.00  0.00     0.141 C 
ATOM     95  C   UNL A   1      56.294  29.445  21.095  1.00  0.00     0.137 C 
ATOM     96  S   UNL A   1      55.647  29.721  19.459  1.00  0.00     0.150 S 
ATOM     97  O   UNL A   1      55.598  31.147  19.204  1.00  0.00    -0.229 OA
ATOM     98  O   UNL A   1      56.298  28.805  18.551  1.00  0.00    -0.229 OA
ENDBRANCH  83  92
ENDBRANCH  81  83
ENDBRANCH  80  81
ENDBRANCH  79  80
ENDBRANCH  78  79
ENDBRANCH  77  78
ENDBRANCH  76  77
ENDBRANCH  75  76
ENDBRANCH   1  75
TORSDOF 27
ENDMDL
