MODEL 1
REMARK VINA RESULT:      -6.2      0.000      0.000
REMARK SMILES COc1ccccc1[C@@H]1CN(C(=O)c2cc(C(C)C)nc(N)n2)C[C@H]1C(=O)OCCOCCOCCOCCOC(=O)c1ccc(-c2c3nc(c(-c4cccc(S(=O)(=O)[O-])c4F)c4ccc([nH]4)c(-c4cccc(S(=O)(=O)[O-])c4F)c4nc(c(-c5cccc(S(=O)(=O)[O-])c5F)c5ccc2[nH]5)C=C4)C=C3)cc1
REMARK SMILES IDX 34 1 33 2 32 3 31 4 30 5 29 6 28 7 26 8 27 9 25 10 9 11
REMARK SMILES IDX 10 12 11 13 24 14 8 15 3 16 4 17 5 18 7 19 6 20 2 21 1 22
REMARK SMILES IDX 12 23 13 24 14 25 15 26 23 27 16 28 21 29 20 30 17 31 18 32
REMARK SMILES IDX 19 33 22 34 35 37 36 38 37 39 38 40 39 41 40 42 41 43 42 44
REMARK SMILES IDX 43 45 44 46 105 47 45 48 104 49 46 50 47 51 48 52 98 53
REMARK SMILES IDX 49 54 103 55 97 56 99 57 50 58 102 59 96 60 95 61 51 63
REMARK SMILES IDX 83 64 63 65 82 66 64 67 67 68 81 69 100 70 65 71 66 72 80 74
REMARK SMILES IDX 101 75 68 76 52 77 53 78 61 79 54 80 56 81 62 82 55 83 57 84
REMARK SMILES IDX 58 85 59 86 60 87 84 88 85 89 93 90 86 91 88 92 94 93 87 94
REMARK SMILES IDX 89 95 90 96 91 97 92 98 69 99 70 100 78 101 71 102 73 103
REMARK SMILES IDX 79 104 72 105 74 106 75 107 76 108 77 109
REMARK H PARENT 22 35 22 36 99 62 67 73
REMARK Flexibility Score: inf
ROOT
ATOM      1  O   UNL A   1      37.115  32.663  34.723  1.00  0.00    -0.377 OA
ENDROOT
BRANCH   1   2
ATOM      2  C   UNL A   1      37.660  31.407  34.387  1.00  0.00     0.188 C 
BRANCH   2   3
ATOM      3  C   UNL A   1      38.788  30.615  35.058  1.00  0.00     0.188 C 
BRANCH   3   4
ATOM      4  O   UNL A   1      39.976  30.246  34.415  1.00  0.00    -0.376 OA
BRANCH   4   5
ATOM      5  C   UNL A   1      40.575  28.972  34.445  1.00  0.00     0.202 C 
BRANCH   5   6
ATOM      6  C   UNL A   1      42.044  28.633  34.136  1.00  0.00     0.261 C 
BRANCH   6   7
ATOM      7  O   UNL A   1      42.845  28.019  35.156  1.00  0.00    -0.463 OA
BRANCH   7   8
ATOM      8  C   UNL A   1      43.374  26.827  34.803  1.00  0.00     0.311 C 
ATOM      9  O   UNL A   1      43.429  26.428  33.640  1.00  0.00    -0.252 OA
BRANCH   8  10
ATOM     10  C   UNL A   1      43.891  25.944  35.925  1.00  0.00     0.128 C 
ATOM     11  C   UNL A   1      45.301  25.293  36.056  1.00  0.00     0.058 C 
ATOM     12  C   UNL A   1      45.524  25.264  37.564  1.00  0.00     0.129 C 
ATOM     13  N   UNL A   1      44.860  26.460  38.030  1.00  0.00    -0.336 N 
ATOM     14  C   UNL A   1      43.727  26.779  37.195  1.00  0.00     0.136 C 
BRANCH  11  15
ATOM     15  C   UNL A   1      45.608  23.892  35.519  1.00  0.00    -0.000 A 
ATOM     16  C   UNL A   1      46.884  23.335  35.319  1.00  0.00     0.122 A 
ATOM     17  C   UNL A   1      47.030  21.992  34.932  1.00  0.00     0.047 A 
ATOM     18  C   UNL A   1      45.913  21.213  34.627  1.00  0.00     0.004 A 
ATOM     19  C   UNL A   1      44.503  23.108  35.109  1.00  0.00     0.008 A 
ATOM     20  C   UNL A   1      44.653  21.794  34.656  1.00  0.00     0.001 A 
BRANCH  16  21
ATOM     21  O   UNL A   1      47.977  24.140  35.115  1.00  0.00    -0.496 OA
ATOM     22  C   UNL A   1      48.812  24.362  36.240  1.00  0.00     0.278 C 
ENDBRANCH  16  21
ENDBRANCH  11  15
BRANCH  13  23
ATOM     23  C   UNL A   1      45.114  27.174  39.187  1.00  0.00     0.272 C 
ATOM     24  O   UNL A   1      44.478  27.010  40.223  1.00  0.00    -0.267 OA
BRANCH  23  25
ATOM     25  C   UNL A   1      46.219  28.161  39.138  1.00  0.00     0.134 A 
ATOM     26  C   UNL A   1      46.794  28.472  37.923  1.00  0.00     0.058 A 
ATOM     27  N   UNL A   1      46.659  28.596  40.332  1.00  0.00    -0.208 NA
ATOM     28  C   UNL A   1      47.937  29.232  37.993  1.00  0.00     0.049 A 
ATOM     29  C   UNL A   1      47.729  29.376  40.288  1.00  0.00     0.220 A 
ATOM     30  N   UNL A   1      48.405  29.693  39.177  1.00  0.00    -0.218 NA
BRANCH  28  31
ATOM     31  C   UNL A   1      48.775  29.529  36.765  1.00  0.00     0.032 C 
ATOM     32  C   UNL A   1      48.541  30.961  36.271  1.00  0.00     0.014 C 
ATOM     33  C   UNL A   1      50.263  29.271  37.000  1.00  0.00     0.014 C 
ENDBRANCH  28  31
BRANCH  29  34
ATOM     34  N   UNL A   1      48.160  29.901  41.474  1.00  0.00    -0.368 N 
ATOM     35  H   UNL A   1      48.689  29.348  42.094  1.00  0.00     0.159 HD
ATOM     36  H   UNL A   1      47.942  30.832  41.708  1.00  0.00     0.159 HD
ENDBRANCH  29  34
ENDBRANCH  23  25
ENDBRANCH  13  23
ENDBRANCH   8  10
ENDBRANCH   7   8
ENDBRANCH   6   7
ENDBRANCH   5   6
ENDBRANCH   4   5
ENDBRANCH   3   4
ENDBRANCH   2   3
ENDBRANCH   1   2
BRANCH   1  37
ATOM     37  C   UNL A   1      35.906  33.096  34.156  1.00  0.00     0.188 C 
BRANCH  37  38
ATOM     38  C   UNL A   1      35.550  34.564  34.392  1.00  0.00     0.188 C 
BRANCH  38  39
ATOM     39  O   UNL A   1      35.495  35.327  33.192  1.00  0.00    -0.376 OA
BRANCH  39  40
ATOM     40  C   UNL A   1      34.204  35.671  32.702  1.00  0.00     0.202 C 
BRANCH  40  41
ATOM     41  C   UNL A   1      33.874  35.381  31.228  1.00  0.00     0.261 C 
BRANCH  41  42
ATOM     42  O   UNL A   1      33.924  34.012  30.800  1.00  0.00    -0.460 OA
BRANCH  42  43
ATOM     43  C   UNL A   1      34.406  33.741  29.572  1.00  0.00     0.338 C 
ATOM     44  O   UNL A   1      33.925  34.066  28.499  1.00  0.00    -0.246 OA
BRANCH  43  45
ATOM     45  C   UNL A   1      35.751  33.158  29.754  1.00  0.00     0.060 A 
ATOM     46  C   UNL A   1      35.878  31.995  30.524  1.00  0.00     0.016 A 
ATOM     47  C   UNL A   1      36.865  33.723  29.128  1.00  0.00     0.016 A 
ATOM     48  C   UNL A   1      37.130  31.407  30.694  1.00  0.00     0.010 A 
ATOM     49  C   UNL A   1      38.123  33.149  29.322  1.00  0.00     0.010 A 
ATOM     50  C   UNL A   1      38.263  32.010  30.135  1.00  0.00    -0.014 A 
BRANCH  50  51
ATOM     51  C   UNL A   1      39.605  31.580  30.594  1.00  0.00     0.031 A 
ATOM     52  C   UNL A   1      40.294  30.489  29.822  1.00  0.00     0.074 A 
ATOM     53  C   UNL A   1      40.209  32.158  31.647  1.00  0.00     0.049 A 
ATOM     54  N   UNL A   1      41.461  29.937  30.027  1.00  0.00    -0.248 NA
ATOM     55  C   UNL A   1      39.566  29.947  28.661  1.00  0.00     0.031 C 
ATOM     56  C   UNL A   1      39.644  33.230  32.465  1.00  0.00     0.029 A 
ATOM     57  N   UNL A   1      41.430  31.903  32.218  1.00  0.00    -0.354 N 
ATOM     58  C   UNL A   1      41.599  28.974  29.036  1.00  0.00     0.074 A 
ATOM     59  C   UNL A   1      40.391  28.998  28.243  1.00  0.00     0.031 C 
ATOM     60  C   UNL A   1      40.505  33.517  33.457  1.00  0.00     0.029 A 
ATOM     61  C   UNL A   1      41.668  32.636  33.356  1.00  0.00     0.049 A 
ATOM     62  H   UNL A   1      42.074  31.256  31.850  1.00  0.00     0.167 HD
ATOM     63  C   UNL A   1      42.646  28.152  28.793  1.00  0.00     0.034 A 
ATOM     64  C   UNL A   1      42.695  32.578  34.229  1.00  0.00     0.034 A 
ATOM     65  C   UNL A   1      43.846  28.130  29.582  1.00  0.00     0.049 A 
ATOM     66  C   UNL A   1      43.833  31.626  33.963  1.00  0.00     0.074 A 
ATOM     67  C   UNL A   1      44.976  27.354  29.407  1.00  0.00     0.029 A 
ATOM     68  N   UNL A   1      44.064  28.910  30.708  1.00  0.00    -0.354 N 
ATOM     69  N   UNL A   1      43.996  30.792  32.964  1.00  0.00    -0.248 NA
ATOM     70  C   UNL A   1      44.944  31.629  34.926  1.00  0.00     0.031 C 
ATOM     71  C   UNL A   1      45.865  27.638  30.448  1.00  0.00     0.029 A 
ATOM     72  C   UNL A   1      45.308  28.625  31.245  1.00  0.00     0.049 A 
ATOM     73  H   UNL A   1      43.430  29.568  31.071  1.00  0.00     0.167 HD
ATOM     74  C   UNL A   1      45.242  30.203  33.157  1.00  0.00     0.074 A 
ATOM     75  C   UNL A   1      45.799  30.789  34.359  1.00  0.00     0.031 C 
ATOM     76  C   UNL A   1      45.866  29.254  32.414  1.00  0.00     0.034 A 
BRANCH  63  77
ATOM     77  C   UNL A   1      42.541  27.221  27.616  1.00  0.00     0.023 A 
ATOM     78  C   UNL A   1      42.906  27.671  26.330  1.00  0.00     0.012 A 
ATOM     79  C   UNL A   1      42.117  25.888  27.788  1.00  0.00     0.148 A 
ATOM     80  C   UNL A   1      42.819  26.821  25.229  1.00  0.00     0.002 A 
ATOM     81  C   UNL A   1      42.081  25.032  26.695  1.00  0.00     0.091 A 
ATOM     82  F   UNL A   1      41.752  25.487  29.013  1.00  0.00    -0.205 F 
ATOM     83  C   UNL A   1      42.417  25.499  25.412  1.00  0.00     0.022 A 
BRANCH  81  84
ATOM     84  S   UNL A   1      41.652  23.295  26.838  1.00  0.00     0.127 S 
ATOM     85  O   UNL A   1      42.042  22.786  25.524  1.00  0.00    -0.237 OA
ATOM     86  O   UNL A   1      42.511  22.859  27.940  1.00  0.00    -0.237 OA
ATOM     87  O   UNL A   1      40.225  23.254  27.123  1.00  0.00    -0.744 OA
ENDBRANCH  81  84
ENDBRANCH  63  77
BRANCH  64  88
ATOM     88  C   UNL A   1      42.699  33.451  35.438  1.00  0.00     0.023 A 
ATOM     89  C   UNL A   1      43.249  34.745  35.374  1.00  0.00     0.012 A 
ATOM     90  C   UNL A   1      42.154  32.996  36.655  1.00  0.00     0.148 A 
ATOM     91  C   UNL A   1      43.289  35.557  36.509  1.00  0.00     0.002 A 
ATOM     92  C   UNL A   1      42.144  33.831  37.764  1.00  0.00     0.091 A 
ATOM     93  F   UNL A   1      41.652  31.754  36.700  1.00  0.00    -0.205 F 
ATOM     94  C   UNL A   1      42.727  35.105  37.701  1.00  0.00     0.022 A 
BRANCH  92  95
ATOM     95  S   UNL A   1      41.322  33.380  39.296  1.00  0.00     0.127 S 
ATOM     96  O   UNL A   1      41.679  34.498  40.166  1.00  0.00    -0.237 OA
ATOM     97  O   UNL A   1      39.920  33.340  38.881  1.00  0.00    -0.237 OA
ATOM     98  O   UNL A   1      41.875  32.085  39.672  1.00  0.00    -0.744 OA
ENDBRANCH  92  95
ENDBRANCH  64  88
BRANCH  76  99
ATOM     99  C   UNL A   1      47.245  28.820  32.842  1.00  0.00     0.023 A 
ATOM    100  C   UNL A   1      47.407  27.694  33.673  1.00  0.00     0.012 A 
ATOM    101  C   UNL A   1      48.385  29.488  32.353  1.00  0.00     0.148 A 
ATOM    102  C   UNL A   1      48.682  27.261  34.038  1.00  0.00     0.002 A 
ATOM    103  C   UNL A   1      49.652  29.020  32.676  1.00  0.00     0.091 A 
ATOM    104  F   UNL A   1      48.209  30.567  31.575  1.00  0.00    -0.205 F 
ATOM    105  C   UNL A   1      49.803  27.915  33.531  1.00  0.00     0.022 A 
BRANCH 103 106
ATOM    106  S   UNL A   1      51.149  29.736  31.991  1.00  0.00     0.127 S 
ATOM    107  O   UNL A   1      50.946  31.160  32.251  1.00  0.00    -0.237 OA
ATOM    108  O   UNL A   1      52.191  29.109  32.806  1.00  0.00    -0.237 OA
ATOM    109  O   UNL A   1      51.171  29.356  30.585  1.00  0.00    -0.744 OA
ENDBRANCH 103 106
ENDBRANCH  76  99
ENDBRANCH  50  51
ENDBRANCH  43  45
ENDBRANCH  42  43
ENDBRANCH  41  42
ENDBRANCH  40  41
ENDBRANCH  39  40
ENDBRANCH  38  39
ENDBRANCH  37  38
ENDBRANCH   1  37
TORSDOF 29
ENDMDL
MODEL 2
REMARK VINA RESULT:      -5.9      4.476      7.478
REMARK SMILES COc1ccccc1[C@@H]1CN(C(=O)c2cc(C(C)C)nc(N)n2)C[C@H]1C(=O)OCCOCCOCCOCCOC(=O)c1ccc(-c2c3nc(c(-c4cccc(S(=O)(=O)[O-])c4F)c4ccc([nH]4)c(-c4cccc(S(=O)(=O)[O-])c4F)c4nc(c(-c5cccc(S(=O)(=O)[O-])c5F)c5ccc2[nH]5)C=C4)C=C3)cc1
REMARK SMILES IDX 34 1 33 2 32 3 31 4 30 5 29 6 28 7 26 8 27 9 25 10 9 11
REMARK SMILES IDX 10 12 11 13 24 14 8 15 3 16 4 17 5 18 7 19 6 20 2 21 1 22
REMARK SMILES IDX 12 23 13 24 14 25 15 26 23 27 16 28 21 29 20 30 17 31 18 32
REMARK SMILES IDX 19 33 22 34 35 37 36 38 37 39 38 40 39 41 40 42 41 43 42 44
REMARK SMILES IDX 43 45 44 46 105 47 45 48 104 49 46 50 47 51 48 52 98 53
REMARK SMILES IDX 49 54 103 55 97 56 99 57 50 58 102 59 96 60 95 61 51 63
REMARK SMILES IDX 83 64 63 65 82 66 64 67 67 68 81 69 100 70 65 71 66 72 80 74
REMARK SMILES IDX 101 75 68 76 52 77 53 78 61 79 54 80 56 81 62 82 55 83 57 84
REMARK SMILES IDX 58 85 59 86 60 87 84 88 85 89 93 90 86 91 88 92 94 93 87 94
REMARK SMILES IDX 89 95 90 96 91 97 92 98 69 99 70 100 78 101 71 102 73 103
REMARK SMILES IDX 79 104 72 105 74 106 75 107 76 108 77 109
REMARK H PARENT 22 35 22 36 99 62 67 73
REMARK Flexibility Score: inf
ROOT
ATOM      1  O   UNL A   1      32.716  36.285  30.921  1.00  0.00    -0.377 OA
ENDROOT
BRANCH   1   2
ATOM      2  C   UNL A   1      33.745  35.910  31.809  1.00  0.00     0.188 C 
BRANCH   2   3
ATOM      3  C   UNL A   1      33.661  35.187  33.158  1.00  0.00     0.188 C 
BRANCH   3   4
ATOM      4  O   UNL A   1      33.766  33.799  33.311  1.00  0.00    -0.376 OA
BRANCH   4   5
ATOM      5  C   UNL A   1      34.918  33.092  33.705  1.00  0.00     0.202 C 
BRANCH   5   6
ATOM      6  C   UNL A   1      36.361  33.622  33.741  1.00  0.00     0.261 C 
BRANCH   6   7
ATOM      7  O   UNL A   1      37.434  32.745  33.365  1.00  0.00    -0.463 OA
BRANCH   7   8
ATOM      8  C   UNL A   1      38.100  32.204  34.409  1.00  0.00     0.311 C 
ATOM      9  O   UNL A   1      37.542  31.776  35.419  1.00  0.00    -0.252 OA
BRANCH   8  10
ATOM     10  C   UNL A   1      39.615  32.166  34.314  1.00  0.00     0.128 C 
ATOM     11  C   UNL A   1      40.494  31.210  33.452  1.00  0.00     0.058 C 
ATOM     12  C   UNL A   1      41.704  32.074  33.113  1.00  0.00     0.129 C 
ATOM     13  N   UNL A   1      41.152  33.404  32.995  1.00  0.00    -0.336 N 
ATOM     14  C   UNL A   1      40.021  33.573  33.875  1.00  0.00     0.136 C 
BRANCH  11  15
ATOM     15  C   UNL A   1      41.018  29.875  33.988  1.00  0.00    -0.000 A 
ATOM     16  C   UNL A   1      40.490  28.600  33.715  1.00  0.00     0.122 A 
ATOM     17  C   UNL A   1      41.136  27.440  34.175  1.00  0.00     0.047 A 
ATOM     18  C   UNL A   1      42.252  27.530  35.008  1.00  0.00     0.004 A 
ATOM     19  C   UNL A   1      42.089  29.933  34.910  1.00  0.00     0.008 A 
ATOM     20  C   UNL A   1      42.689  28.780  35.425  1.00  0.00     0.001 A 
BRANCH  16  21
ATOM     21  O   UNL A   1      39.175  28.449  33.349  1.00  0.00    -0.496 OA
ATOM     22  C   UNL A   1      38.933  27.671  32.188  1.00  0.00     0.278 C 
ENDBRANCH  16  21
ENDBRANCH  11  15
BRANCH  13  23
ATOM     23  C   UNL A   1      41.661  34.472  32.279  1.00  0.00     0.272 C 
ATOM     24  O   UNL A   1      42.495  35.245  32.739  1.00  0.00    -0.267 OA
BRANCH  23  25
ATOM     25  C   UNL A   1      41.164  34.650  30.893  1.00  0.00     0.134 A 
ATOM     26  C   UNL A   1      42.042  35.048  29.906  1.00  0.00     0.058 A 
ATOM     27  N   UNL A   1      39.835  34.519  30.735  1.00  0.00    -0.208 NA
ATOM     28  C   UNL A   1      41.461  35.386  28.708  1.00  0.00     0.049 A 
ATOM     29  C   UNL A   1      39.381  34.807  29.524  1.00  0.00     0.220 A 
ATOM     30  N   UNL A   1      40.128  35.260  28.509  1.00  0.00    -0.218 NA
BRANCH  28  31
ATOM     31  C   UNL A   1      42.266  35.989  27.573  1.00  0.00     0.032 C 
ATOM     32  C   UNL A   1      41.950  37.480  27.406  1.00  0.00     0.014 C 
ATOM     33  C   UNL A   1      43.769  35.767  27.742  1.00  0.00     0.014 C 
ENDBRANCH  28  31
BRANCH  29  34
ATOM     34  N   UNL A   1      38.047  34.611  29.301  1.00  0.00    -0.368 N 
ATOM     35  H   UNL A   1      37.743  33.819  28.801  1.00  0.00     0.159 HD
ATOM     36  H   UNL A   1      37.390  35.261  29.639  1.00  0.00     0.159 HD
ENDBRANCH  29  34
ENDBRANCH  23  25
ENDBRANCH  13  23
ENDBRANCH   8  10
ENDBRANCH   7   8
ENDBRANCH   6   7
ENDBRANCH   5   6
ENDBRANCH   4   5
ENDBRANCH   3   4
ENDBRANCH   2   3
ENDBRANCH   1   2
BRANCH   1  37
ATOM     37  C   UNL A   1      32.941  36.322  29.536  1.00  0.00     0.188 C 
BRANCH  37  38
ATOM     38  C   UNL A   1      33.300  34.985  28.886  1.00  0.00     0.188 C 
BRANCH  38  39
ATOM     39  O   UNL A   1      33.591  33.961  29.830  1.00  0.00    -0.376 OA
BRANCH  39  40
ATOM     40  C   UNL A   1      34.326  32.837  29.360  1.00  0.00     0.202 C 
BRANCH  40  41
ATOM     41  C   UNL A   1      35.463  32.284  30.235  1.00  0.00     0.261 C 
BRANCH  41  42
ATOM     42  O   UNL A   1      36.091  31.067  29.806  1.00  0.00    -0.460 OA
BRANCH  42  43
ATOM     43  C   UNL A   1      36.575  31.002  28.550  1.00  0.00     0.338 C 
ATOM     44  O   UNL A   1      36.078  31.473  27.540  1.00  0.00    -0.246 OA
BRANCH  43  45
ATOM     45  C   UNL A   1      37.937  30.439  28.638  1.00  0.00     0.060 A 
ATOM     46  C   UNL A   1      38.666  30.633  29.819  1.00  0.00     0.016 A 
ATOM     47  C   UNL A   1      38.468  29.685  27.589  1.00  0.00     0.016 A 
ATOM     48  C   UNL A   1      39.944  30.093  29.943  1.00  0.00     0.010 A 
ATOM     49  C   UNL A   1      39.761  29.169  27.703  1.00  0.00     0.010 A 
ATOM     50  C   UNL A   1      40.515  29.401  28.867  1.00  0.00    -0.014 A 
BRANCH  50  51
ATOM     51  C   UNL A   1      41.972  29.131  28.880  1.00  0.00     0.031 A 
ATOM     52  C   UNL A   1      42.432  27.750  28.501  1.00  0.00     0.074 A 
ATOM     53  C   UNL A   1      42.864  30.088  29.190  1.00  0.00     0.049 A 
ATOM     54  N   UNL A   1      43.644  27.267  28.442  1.00  0.00    -0.248 NA
ATOM     55  C   UNL A   1      41.380  26.785  28.140  1.00  0.00     0.031 C 
ATOM     56  C   UNL A   1      42.538  31.463  29.563  1.00  0.00     0.029 A 
ATOM     57  N   UNL A   1      44.234  30.034  29.258  1.00  0.00    -0.354 N 
ATOM     58  C   UNL A   1      43.501  25.941  28.057  1.00  0.00     0.074 A 
ATOM     59  C   UNL A   1      42.085  25.686  27.917  1.00  0.00     0.031 C 
ATOM     60  C   UNL A   1      43.677  32.114  29.856  1.00  0.00     0.029 A 
ATOM     61  C   UNL A   1      44.807  31.198  29.712  1.00  0.00     0.049 A 
ATOM     62  H   UNL A   1      44.756  29.238  29.007  1.00  0.00     0.167 HD
ATOM     63  C   UNL A   1      44.462  25.018  27.822  1.00  0.00     0.034 A 
ATOM     64  C   UNL A   1      46.094  31.476  30.005  1.00  0.00     0.034 A 
ATOM     65  C   UNL A   1      45.869  25.274  27.961  1.00  0.00     0.049 A 
ATOM     66  C   UNL A   1      47.146  30.421  29.775  1.00  0.00     0.074 A 
ATOM     67  C   UNL A   1      46.926  24.415  27.723  1.00  0.00     0.029 A 
ATOM     68  N   UNL A   1      46.413  26.474  28.391  1.00  0.00    -0.354 N 
ATOM     69  N   UNL A   1      47.005  29.201  29.312  1.00  0.00    -0.248 NA
ATOM     70  C   UNL A   1      48.537  30.789  30.075  1.00  0.00     0.031 C 
ATOM     71  C   UNL A   1      48.111  25.085  28.044  1.00  0.00     0.029 A 
ATOM     72  C   UNL A   1      47.794  26.376  28.437  1.00  0.00     0.049 A 
ATOM     73  H   UNL A   1      45.896  27.276  28.629  1.00  0.00     0.167 HD
ATOM     74  C   UNL A   1      48.289  28.672  29.229  1.00  0.00     0.074 A 
ATOM     75  C   UNL A   1      49.197  29.711  29.672  1.00  0.00     0.031 C 
ATOM     76  C   UNL A   1      48.684  27.436  28.834  1.00  0.00     0.034 A 
BRANCH  63  77
ATOM     77  C   UNL A   1      44.019  23.651  27.375  1.00  0.00     0.023 A 
ATOM     78  C   UNL A   1      43.032  22.960  28.109  1.00  0.00     0.012 A 
ATOM     79  C   UNL A   1      44.549  23.067  26.208  1.00  0.00     0.148 A 
ATOM     80  C   UNL A   1      42.606  21.694  27.708  1.00  0.00     0.002 A 
ATOM     81  C   UNL A   1      44.084  21.828  25.787  1.00  0.00     0.091 A 
ATOM     82  F   UNL A   1      45.503  23.729  25.539  1.00  0.00    -0.205 F 
ATOM     83  C   UNL A   1      43.123  21.133  26.543  1.00  0.00     0.022 A 
BRANCH  81  84
ATOM     84  S   UNL A   1      44.629  21.055  24.261  1.00  0.00     0.127 S 
ATOM     85  O   UNL A   1      46.060  20.892  24.508  1.00  0.00    -0.237 OA
ATOM     86  O   UNL A   1      43.864  19.807  24.262  1.00  0.00    -0.237 OA
ATOM     87  O   UNL A   1      44.282  21.982  23.194  1.00  0.00    -0.744 OA
ENDBRANCH  81  84
ENDBRANCH  63  77
BRANCH  64  88
ATOM     88  C   UNL A   1      46.465  32.815  30.545  1.00  0.00     0.023 A 
ATOM     89  C   UNL A   1      46.330  33.085  31.921  1.00  0.00     0.012 A 
ATOM     90  C   UNL A   1      46.953  33.825  29.693  1.00  0.00     0.148 A 
ATOM     91  C   UNL A   1      46.641  34.347  32.431  1.00  0.00     0.002 A 
ATOM     92  C   UNL A   1      47.317  35.059  30.216  1.00  0.00     0.091 A 
ATOM     93  F   UNL A   1      47.056  33.555  28.384  1.00  0.00    -0.205 F 
ATOM     94  C   UNL A   1      47.144  35.329  31.581  1.00  0.00     0.022 A 
BRANCH  92  95
ATOM     95  S   UNL A   1      48.097  36.332  29.219  1.00  0.00     0.127 S 
ATOM     96  O   UNL A   1      47.047  36.635  28.249  1.00  0.00    -0.237 OA
ATOM     97  O   UNL A   1      48.345  37.377  30.211  1.00  0.00    -0.237 OA
ATOM     98  O   UNL A   1      49.303  35.721  28.675  1.00  0.00    -0.744 OA
ENDBRANCH  92  95
ENDBRANCH  64  88
BRANCH  76  99
ATOM     99  C   UNL A   1      50.163  27.144  28.809  1.00  0.00     0.023 A 
ATOM    100  C   UNL A   1      50.888  27.268  27.608  1.00  0.00     0.012 A 
ATOM    101  C   UNL A   1      50.845  26.820  29.998  1.00  0.00     0.148 A 
ATOM    102  C   UNL A   1      52.264  27.041  27.586  1.00  0.00     0.002 A 
ATOM    103  C   UNL A   1      52.222  26.647  29.979  1.00  0.00     0.091 A 
ATOM    104  F   UNL A   1      50.133  26.692  31.128  1.00  0.00    -0.205 F 
ATOM    105  C   UNL A   1      52.932  26.743  28.771  1.00  0.00     0.022 A 
BRANCH 103 106
ATOM    106  S   UNL A   1      53.179  26.361  31.471  1.00  0.00     0.127 S 
ATOM    107  O   UNL A   1      54.456  25.906  30.924  1.00  0.00    -0.237 OA
ATOM    108  O   UNL A   1      53.215  27.694  32.076  1.00  0.00    -0.237 OA
ATOM    109  O   UNL A   1      52.442  25.367  32.239  1.00  0.00    -0.744 OA
ENDBRANCH 103 106
ENDBRANCH  76  99
ENDBRANCH  50  51
ENDBRANCH  43  45
ENDBRANCH  42  43
ENDBRANCH  41  42
ENDBRANCH  40  41
ENDBRANCH  39  40
ENDBRANCH  38  39
ENDBRANCH  37  38
ENDBRANCH   1  37
TORSDOF 29
ENDMDL
MODEL 3
REMARK VINA RESULT:      -5.8      7.342     13.052
REMARK SMILES COc1ccccc1[C@@H]1CN(C(=O)c2cc(C(C)C)nc(N)n2)C[C@H]1C(=O)OCCOCCOCCOCCOC(=O)c1ccc(-c2c3nc(c(-c4cccc(S(=O)(=O)[O-])c4F)c4ccc([nH]4)c(-c4cccc(S(=O)(=O)[O-])c4F)c4nc(c(-c5cccc(S(=O)(=O)[O-])c5F)c5ccc2[nH]5)C=C4)C=C3)cc1
REMARK SMILES IDX 34 1 33 2 32 3 31 4 30 5 29 6 28 7 26 8 27 9 25 10 9 11
REMARK SMILES IDX 10 12 11 13 24 14 8 15 3 16 4 17 5 18 7 19 6 20 2 21 1 22
REMARK SMILES IDX 12 23 13 24 14 25 15 26 23 27 16 28 21 29 20 30 17 31 18 32
REMARK SMILES IDX 19 33 22 34 35 37 36 38 37 39 38 40 39 41 40 42 41 43 42 44
REMARK SMILES IDX 43 45 44 46 105 47 45 48 104 49 46 50 47 51 48 52 98 53
REMARK SMILES IDX 49 54 103 55 97 56 99 57 50 58 102 59 96 60 95 61 51 63
REMARK SMILES IDX 83 64 63 65 82 66 64 67 67 68 81 69 100 70 65 71 66 72 80 74
REMARK SMILES IDX 101 75 68 76 52 77 53 78 61 79 54 80 56 81 62 82 55 83 57 84
REMARK SMILES IDX 58 85 59 86 60 87 84 88 85 89 93 90 86 91 88 92 94 93 87 94
REMARK SMILES IDX 89 95 90 96 91 97 92 98 69 99 70 100 78 101 71 102 73 103
REMARK SMILES IDX 79 104 72 105 74 106 75 107 76 108 77 109
REMARK H PARENT 22 35 22 36 99 62 67 73
REMARK Flexibility Score: inf
ROOT
ATOM      1  O   UNL A   1      54.374  38.920  25.483  1.00  0.00    -0.377 OA
ENDROOT
BRANCH   1   2
ATOM      2  C   UNL A   1      54.169  39.323  26.818  1.00  0.00     0.188 C 
BRANCH   2   3
ATOM      3  C   UNL A   1      53.615  38.532  28.008  1.00  0.00     0.188 C 
BRANCH   3   4
ATOM      4  O   UNL A   1      53.176  37.203  27.929  1.00  0.00    -0.376 OA
BRANCH   4   5
ATOM      5  C   UNL A   1      52.185  36.707  27.061  1.00  0.00     0.202 C 
BRANCH   5   6
ATOM      6  C   UNL A   1      51.252  37.529  26.156  1.00  0.00     0.261 C 
BRANCH   6   7
ATOM      7  O   UNL A   1      49.861  37.627  26.497  1.00  0.00    -0.463 OA
BRANCH   7   8
ATOM      8  C   UNL A   1      49.578  38.590  27.402  1.00  0.00     0.311 C 
ATOM      9  O   UNL A   1      50.265  39.600  27.553  1.00  0.00    -0.252 OA
BRANCH   8  10
ATOM     10  C   UNL A   1      48.362  38.370  28.285  1.00  0.00     0.128 C 
ATOM     11  C   UNL A   1      47.653  39.404  29.210  1.00  0.00     0.058 C 
ATOM     12  C   UNL A   1      46.196  38.957  29.167  1.00  0.00     0.129 C 
ATOM     13  N   UNL A   1      46.035  38.448  27.824  1.00  0.00    -0.336 N 
ATOM     14  C   UNL A   1      47.268  37.878  27.337  1.00  0.00     0.136 C 
BRANCH  11  15
ATOM     15  C   UNL A   1      48.036  39.583  30.681  1.00  0.00    -0.000 A 
ATOM     16  C   UNL A   1      47.677  40.659  31.513  1.00  0.00     0.122 A 
ATOM     17  C   UNL A   1      47.993  40.646  32.883  1.00  0.00     0.047 A 
ATOM     18  C   UNL A   1      48.769  39.622  33.425  1.00  0.00     0.004 A 
ATOM     19  C   UNL A   1      48.901  38.613  31.239  1.00  0.00     0.008 A 
ATOM     20  C   UNL A   1      49.276  38.638  32.586  1.00  0.00     0.001 A 
BRANCH  16  21
ATOM     21  O   UNL A   1      47.369  41.886  30.981  1.00  0.00    -0.496 OA
ATOM     22  C   UNL A   1      47.918  43.014  31.645  1.00  0.00     0.278 C 
ENDBRANCH  16  21
ENDBRANCH  11  15
BRANCH  13  23
ATOM     23  C   UNL A   1      44.866  38.344  27.092  1.00  0.00     0.272 C 
ATOM     24  O   UNL A   1      44.249  37.291  26.970  1.00  0.00    -0.267 OA
BRANCH  23  25
ATOM     25  C   UNL A   1      44.361  39.583  26.454  1.00  0.00     0.134 A 
ATOM     26  C   UNL A   1      45.255  40.454  25.867  1.00  0.00     0.058 A 
ATOM     27  N   UNL A   1      43.045  39.818  26.609  1.00  0.00    -0.208 NA
ATOM     28  C   UNL A   1      44.729  41.665  25.486  1.00  0.00     0.049 A 
ATOM     29  C   UNL A   1      42.625  40.989  26.150  1.00  0.00     0.220 A 
ATOM     30  N   UNL A   1      43.409  41.935  25.620  1.00  0.00    -0.218 NA
BRANCH  28  31
ATOM     31  C   UNL A   1      45.606  42.789  24.970  1.00  0.00     0.032 C 
ATOM     32  C   UNL A   1      45.050  43.367  23.664  1.00  0.00     0.014 C 
ATOM     33  C   UNL A   1      45.810  43.892  26.009  1.00  0.00     0.014 C 
ENDBRANCH  28  31
BRANCH  29  34
ATOM     34  N   UNL A   1      41.282  41.232  26.218  1.00  0.00    -0.368 N 
ATOM     35  H   UNL A   1      40.691  40.602  26.691  1.00  0.00     0.159 HD
ATOM     36  H   UNL A   1      40.905  42.037  25.794  1.00  0.00     0.159 HD
ENDBRANCH  29  34
ENDBRANCH  23  25
ENDBRANCH  13  23
ENDBRANCH   8  10
ENDBRANCH   7   8
ENDBRANCH   6   7
ENDBRANCH   5   6
ENDBRANCH   4   5
ENDBRANCH   3   4
ENDBRANCH   2   3
ENDBRANCH   1   2
BRANCH   1  37
ATOM     37  C   UNL A   1      55.371  37.987  25.160  1.00  0.00     0.188 C 
BRANCH  37  38
ATOM     38  C   UNL A   1      54.875  36.652  24.601  1.00  0.00     0.188 C 
BRANCH  38  39
ATOM     39  O   UNL A   1      53.792  36.792  23.691  1.00  0.00    -0.376 OA
BRANCH  39  40
ATOM     40  C   UNL A   1      53.152  35.598  23.256  1.00  0.00     0.202 C 
BRANCH  40  41
ATOM     41  C   UNL A   1      52.946  34.461  24.271  1.00  0.00     0.261 C 
BRANCH  41  42
ATOM     42  O   UNL A   1      51.629  34.297  24.817  1.00  0.00    -0.460 OA
BRANCH  42  43
ATOM     43  C   UNL A   1      51.225  33.058  25.157  1.00  0.00     0.338 C 
ATOM     44  O   UNL A   1      51.780  32.002  24.902  1.00  0.00    -0.246 OA
BRANCH  43  45
ATOM     45  C   UNL A   1      50.090  33.212  26.089  1.00  0.00     0.060 A 
ATOM     46  C   UNL A   1      50.099  32.479  27.282  1.00  0.00     0.016 A 
ATOM     47  C   UNL A   1      49.055  34.109  25.812  1.00  0.00     0.016 A 
ATOM     48  C   UNL A   1      49.055  32.622  28.194  1.00  0.00     0.010 A 
ATOM     49  C   UNL A   1      47.995  34.231  26.713  1.00  0.00     0.010 A 
ATOM     50  C   UNL A   1      47.975  33.461  27.890  1.00  0.00    -0.014 A 
BRANCH  50  51
ATOM     51  C   UNL A   1      46.733  33.349  28.689  1.00  0.00     0.031 A 
ATOM     52  C   UNL A   1      45.772  32.246  28.341  1.00  0.00     0.074 A 
ATOM     53  C   UNL A   1      46.475  34.183  29.712  1.00  0.00     0.049 A 
ATOM     54  N   UNL A   1      44.621  31.946  28.883  1.00  0.00    -0.248 NA
ATOM     55  C   UNL A   1      46.163  31.362  27.230  1.00  0.00     0.031 C 
ATOM     56  C   UNL A   1      47.335  35.281  30.148  1.00  0.00     0.029 A 
ATOM     57  N   UNL A   1      45.395  34.241  30.557  1.00  0.00    -0.354 N 
ATOM     58  C   UNL A   1      44.144  30.855  28.170  1.00  0.00     0.074 A 
ATOM     59  C   UNL A   1      45.115  30.557  27.142  1.00  0.00     0.031 C 
ATOM     60  C   UNL A   1      46.731  35.929  31.160  1.00  0.00     0.029 A 
ATOM     61  C   UNL A   1      45.436  35.304  31.427  1.00  0.00     0.049 A 
ATOM     62  H   UNL A   1      44.661  33.586  30.542  1.00  0.00     0.167 HD
ATOM     63  C   UNL A   1      43.006  30.148  28.363  1.00  0.00     0.034 A 
ATOM     64  C   UNL A   1      44.517  35.737  32.315  1.00  0.00     0.034 A 
ATOM     65  C   UNL A   1      42.043  30.446  29.386  1.00  0.00     0.049 A 
ATOM     66  C   UNL A   1      43.237  34.960  32.486  1.00  0.00     0.074 A 
ATOM     67  C   UNL A   1      40.869  29.778  29.682  1.00  0.00     0.029 A 
ATOM     68  N   UNL A   1      42.133  31.511  30.269  1.00  0.00    -0.354 N 
ATOM     69  N   UNL A   1      42.845  33.868  31.873  1.00  0.00    -0.248 NA
ATOM     70  C   UNL A   1      42.286  35.453  33.493  1.00  0.00     0.031 C 
ATOM     71  C   UNL A   1      40.231  30.460  30.722  1.00  0.00     0.029 A 
ATOM     72  C   UNL A   1      41.030  31.526  31.105  1.00  0.00     0.049 A 
ATOM     73  H   UNL A   1      42.873  32.160  30.298  1.00  0.00     0.167 HD
ATOM     74  C   UNL A   1      41.625  33.524  32.447  1.00  0.00     0.074 A 
ATOM     75  C   UNL A   1      41.351  34.513  33.469  1.00  0.00     0.031 C 
ATOM     76  C   UNL A   1      40.799  32.490  32.149  1.00  0.00     0.034 A 
BRANCH  63  77
ATOM     77  C   UNL A   1      42.754  28.976  27.454  1.00  0.00     0.023 A 
ATOM     78  C   UNL A   1      42.096  29.172  26.222  1.00  0.00     0.012 A 
ATOM     79  C   UNL A   1      43.202  27.686  27.801  1.00  0.00     0.148 A 
ATOM     80  C   UNL A   1      41.857  28.099  25.366  1.00  0.00     0.002 A 
ATOM     81  C   UNL A   1      43.005  26.630  26.920  1.00  0.00     0.091 A 
ATOM     82  F   UNL A   1      43.804  27.516  28.986  1.00  0.00    -0.205 F 
ATOM     83  C   UNL A   1      42.321  26.831  25.709  1.00  0.00     0.022 A 
BRANCH  81  84
ATOM     84  S   UNL A   1      43.631  24.977  27.233  1.00  0.00     0.127 S 
ATOM     85  O   UNL A   1      45.070  25.220  27.331  1.00  0.00    -0.237 OA
ATOM     86  O   UNL A   1      42.982  24.641  28.501  1.00  0.00    -0.237 OA
ATOM     87  O   UNL A   1      43.212  24.166  26.099  1.00  0.00    -0.744 OA
ENDBRANCH  81  84
ENDBRANCH  63  77
BRANCH  64  88
ATOM     88  C   UNL A   1      44.773  36.968  33.116  1.00  0.00     0.023 A 
ATOM     89  C   UNL A   1      45.588  36.908  34.264  1.00  0.00     0.012 A 
ATOM     90  C   UNL A   1      44.209  38.202  32.740  1.00  0.00     0.148 A 
ATOM     91  C   UNL A   1      45.806  38.047  35.041  1.00  0.00     0.002 A 
ATOM     92  C   UNL A   1      44.477  39.343  33.484  1.00  0.00     0.091 A 
ATOM     93  F   UNL A   1      43.421  38.234  31.656  1.00  0.00    -0.205 F 
ATOM     94  C   UNL A   1      45.260  39.266  34.645  1.00  0.00     0.022 A 
BRANCH  92  95
ATOM     95  S   UNL A   1      43.926  40.974  32.972  1.00  0.00     0.127 S 
ATOM     96  O   UNL A   1      44.241  40.961  31.545  1.00  0.00    -0.237 OA
ATOM     97  O   UNL A   1      42.500  40.920  33.292  1.00  0.00    -0.237 OA
ATOM     98  O   UNL A   1      44.688  41.918  33.779  1.00  0.00    -0.744 OA
ENDBRANCH  92  95
ENDBRANCH  64  88
BRANCH  76  99
ATOM     99  C   UNL A   1      39.541  32.336  32.967  1.00  0.00     0.023 A 
ATOM    100  C   UNL A   1      39.566  31.606  34.171  1.00  0.00     0.012 A 
ATOM    101  C   UNL A   1      38.353  32.983  32.575  1.00  0.00     0.148 A 
ATOM    102  C   UNL A   1      38.417  31.494  34.955  1.00  0.00     0.002 A 
ATOM    103  C   UNL A   1      37.228  32.913  33.386  1.00  0.00     0.091 A 
ATOM    104  F   UNL A   1      38.347  33.661  31.417  1.00  0.00    -0.205 F 
ATOM    105  C   UNL A   1      37.253  32.157  34.569  1.00  0.00     0.022 A 
BRANCH 103 106
ATOM    106  S   UNL A   1      35.718  33.815  33.022  1.00  0.00     0.127 S 
ATOM    107  O   UNL A   1      34.831  33.352  34.087  1.00  0.00    -0.237 OA
ATOM    108  O   UNL A   1      36.152  35.207  33.151  1.00  0.00    -0.237 OA
ATOM    109  O   UNL A   1      35.331  33.424  31.673  1.00  0.00    -0.744 OA
ENDBRANCH 103 106
ENDBRANCH  76  99
ENDBRANCH  50  51
ENDBRANCH  43  45
ENDBRANCH  42  43
ENDBRANCH  41  42
ENDBRANCH  40  41
ENDBRANCH  39  40
ENDBRANCH  38  39
ENDBRANCH  37  38
ENDBRANCH   1  37
TORSDOF 29
ENDMDL
