MODEL 1
REMARK VINA RESULT:      -9.0      0.000      0.000
REMARK SMILES O=C(OCCOCCOCCOCCOC(=O)c1ccc(-c2c3nc(c(-c4cccc(S(=O)(=O)[O-])c4F)c4ccc([nH]4)c(-c4cccc(S(=O)(=O)[O-])c4F)c4nc(c(-c5cccc(S(=O)(=O)[O-])c5F)c5ccc2[nH]5)C=C4)C=C3)cc1)c1ccc(NC(=O)[C@@H]2CC=CC[C@H]2C(=O)Nc2cccc([N+](=O)[O-])c2)cc1
REMARK SMILES IDX 8 1 7 2 6 3 5 4 4 5 3 6 2 7 1 8 81 9 82 10 107 11 83 12
REMARK SMILES IDX 106 13 84 14 85 15 86 16 87 18 88 19 89 20 93 21 90 22 92 23
REMARK SMILES IDX 91 24 94 25 95 26 96 27 97 29 98 30 105 31 99 32 101 33
REMARK SMILES IDX 100 34 102 35 103 36 104 37 9 38 10 39 11 40 12 41 13 42
REMARK SMILES IDX 14 43 15 44 16 45 17 46 18 47 19 48 80 49 20 50 79 51 21 52
REMARK SMILES IDX 22 53 23 54 73 55 24 56 78 57 72 58 74 59 25 60 77 61 71 62
REMARK SMILES IDX 70 63 26 65 58 66 38 67 57 68 39 69 42 70 56 71 75 72 40 73
REMARK SMILES IDX 41 74 55 76 76 77 43 78 27 79 28 80 36 81 29 82 31 83 37 84
REMARK SMILES IDX 30 85 32 86 33 87 34 88 35 89 59 90 60 91 68 92 61 93 63 94
REMARK SMILES IDX 69 95 62 96 64 97 65 98 66 99 67 100 44 101 45 102 53 103
REMARK SMILES IDX 46 104 48 105 54 106 47 107 49 108 50 109 51 110 52 111
REMARK H PARENT 85 17 96 28 74 64 42 75
REMARK Flexibility Score: inf
ROOT
ATOM      1  C   UNL A   1      35.031  20.297  25.003  1.00  0.00     0.188 C 
ENDROOT
BRANCH   1   2
ATOM      2  C   UNL A   1      33.659  20.566  24.373  1.00  0.00     0.188 C 
BRANCH   2   3
ATOM      3  O   UNL A   1      32.847  21.345  25.243  1.00  0.00    -0.376 OA
BRANCH   3   4
ATOM      4  C   UNL A   1      32.379  22.607  24.800  1.00  0.00     0.202 C 
BRANCH   4   5
ATOM      5  C   UNL A   1      33.285  23.347  23.832  1.00  0.00     0.261 C 
BRANCH   5   6
ATOM      6  O   UNL A   1      32.832  24.635  23.346  1.00  0.00    -0.460 OA
BRANCH   6   7
ATOM      7  C   UNL A   1      33.506  25.794  23.168  1.00  0.00     0.338 C 
ATOM      8  O   UNL A   1      34.011  26.071  22.084  1.00  0.00    -0.246 OA
BRANCH   7   9
ATOM      9  C   UNL A   1      33.460  26.836  24.205  1.00  0.00     0.060 A 
ATOM     10  C   UNL A   1      33.263  26.554  25.555  1.00  0.00     0.018 A 
ATOM     11  C   UNL A   1      33.822  28.128  23.834  1.00  0.00     0.018 A 
ATOM     12  C   UNL A   1      33.182  27.588  26.492  1.00  0.00     0.027 A 
ATOM     13  C   UNL A   1      33.815  29.148  24.788  1.00  0.00     0.027 A 
ATOM     14  C   UNL A   1      33.394  28.900  26.102  1.00  0.00     0.041 A 
BRANCH  14  15
ATOM     15  N   UNL A   1      33.253  30.013  26.935  1.00  0.00    -0.326 N 
ATOM     16  C   UNL A   1      34.090  30.878  27.565  1.00  0.00     0.228 C 
ATOM     17  H   UNL A   1      32.306  30.224  27.108  1.00  0.00     0.169 HD
ATOM     18  O   UNL A   1      33.506  31.787  28.166  1.00  0.00    -0.274 OA
BRANCH  16  19
ATOM     19  C   UNL A   1      35.621  30.769  27.608  1.00  0.00     0.095 C 
ATOM     20  C   UNL A   1      36.076  29.334  27.962  1.00  0.00     0.041 C 
ATOM     21  C   UNL A   1      36.220  31.798  28.627  1.00  0.00     0.095 C 
ATOM     22  C   UNL A   1      37.519  29.216  28.352  1.00  0.00    -0.030 C 
ATOM     23  C   UNL A   1      37.729  31.636  28.910  1.00  0.00     0.041 C 
ATOM     24  C   UNL A   1      38.259  30.248  28.767  1.00  0.00    -0.030 C 
BRANCH  21  25
ATOM     25  C   UNL A   1      35.859  33.308  28.514  1.00  0.00     0.228 C 
ATOM     26  O   UNL A   1      35.666  33.801  27.393  1.00  0.00    -0.274 OA
ATOM     27  N   UNL A   1      35.540  34.134  29.562  1.00  0.00    -0.326 N 
ATOM     28  H   UNL A   1      35.242  35.034  29.294  1.00  0.00     0.169 HD
BRANCH  27  29
ATOM     29  C   UNL A   1      35.563  33.923  30.940  1.00  0.00     0.048 A 
ATOM     30  C   UNL A   1      34.382  33.603  31.616  1.00  0.00     0.026 A 
ATOM     31  C   UNL A   1      36.747  33.953  31.640  1.00  0.00     0.111 A 
ATOM     32  C   UNL A   1      34.429  33.141  32.940  1.00  0.00     0.009 A 
ATOM     33  C   UNL A   1      36.808  33.374  32.904  1.00  0.00     0.271 A 
ATOM     34  C   UNL A   1      35.655  32.971  33.576  1.00  0.00     0.086 A 
BRANCH  33  35
ATOM     35  N   UNL A   1      38.121  33.048  33.424  1.00  0.00     0.062 N 
ATOM     36  O   UNL A   1      38.855  33.988  33.745  1.00  0.00    -0.258 OA
ATOM     37  O   UNL A   1      38.382  31.847  33.568  1.00  0.00    -0.258 OA
ENDBRANCH  33  35
ENDBRANCH  27  29
ENDBRANCH  21  25
ENDBRANCH  16  19
ENDBRANCH  14  15
ENDBRANCH   7   9
ENDBRANCH   6   7
ENDBRANCH   5   6
ENDBRANCH   4   5
ENDBRANCH   3   4
ENDBRANCH   2   3
ENDBRANCH   1   2
BRANCH   1  38
ATOM     38  O   UNL A   1      35.701  21.423  25.569  1.00  0.00    -0.377 OA
BRANCH  38  39
ATOM     39  C   UNL A   1      36.914  21.822  24.941  1.00  0.00     0.188 C 
BRANCH  39  40
ATOM     40  C   UNL A   1      38.088  22.272  25.842  1.00  0.00     0.188 C 
BRANCH  40  41
ATOM     41  O   UNL A   1      39.249  21.473  25.750  1.00  0.00    -0.376 OA
BRANCH  41  42
ATOM     42  C   UNL A   1      40.453  21.831  26.403  1.00  0.00     0.202 C 
BRANCH  42  43
ATOM     43  C   UNL A   1      41.874  21.520  25.908  1.00  0.00     0.261 C 
BRANCH  43  44
ATOM     44  O   UNL A   1      42.928  22.296  26.460  1.00  0.00    -0.460 OA
BRANCH  44  45
ATOM     45  C   UNL A   1      43.217  23.450  25.815  1.00  0.00     0.338 C 
ATOM     46  O   UNL A   1      43.278  23.640  24.610  1.00  0.00    -0.246 OA
BRANCH  45  47
ATOM     47  C   UNL A   1      43.260  24.521  26.824  1.00  0.00     0.060 A 
ATOM     48  C   UNL A   1      44.343  25.412  26.813  1.00  0.00     0.016 A 
ATOM     49  C   UNL A   1      42.210  24.678  27.734  1.00  0.00     0.016 A 
ATOM     50  C   UNL A   1      44.409  26.428  27.761  1.00  0.00     0.010 A 
ATOM     51  C   UNL A   1      42.287  25.683  28.695  1.00  0.00     0.010 A 
ATOM     52  C   UNL A   1      43.416  26.520  28.745  1.00  0.00    -0.014 A 
BRANCH  52  53
ATOM     53  C   UNL A   1      43.719  27.256  29.993  1.00  0.00     0.031 A 
ATOM     54  C   UNL A   1      43.220  28.673  30.086  1.00  0.00     0.074 A 
ATOM     55  C   UNL A   1      44.392  26.694  31.010  1.00  0.00     0.049 A 
ATOM     56  N   UNL A   1      43.331  29.531  31.065  1.00  0.00    -0.248 NA
ATOM     57  C   UNL A   1      42.502  29.197  28.909  1.00  0.00     0.031 C 
ATOM     58  C   UNL A   1      44.921  25.332  31.033  1.00  0.00     0.029 A 
ATOM     59  N   UNL A   1      44.758  27.220  32.223  1.00  0.00    -0.354 N 
ATOM     60  C   UNL A   1      42.729  30.697  30.611  1.00  0.00     0.074 A 
ATOM     61  C   UNL A   1      42.269  30.448  29.264  1.00  0.00     0.031 C 
ATOM     62  C   UNL A   1      45.562  25.135  32.199  1.00  0.00     0.029 A 
ATOM     63  C   UNL A   1      45.505  26.362  32.993  1.00  0.00     0.049 A 
ATOM     64  H   UNL A   1      44.509  28.128  32.513  1.00  0.00     0.167 HD
ATOM     65  C   UNL A   1      42.559  31.871  31.260  1.00  0.00     0.034 A 
ATOM     66  C   UNL A   1      46.082  26.558  34.195  1.00  0.00     0.034 A 
ATOM     67  C   UNL A   1      43.009  32.112  32.600  1.00  0.00     0.049 A 
ATOM     68  C   UNL A   1      45.890  27.883  34.894  1.00  0.00     0.074 A 
ATOM     69  C   UNL A   1      42.848  33.249  33.371  1.00  0.00     0.029 A 
ATOM     70  N   UNL A   1      43.730  31.207  33.363  1.00  0.00    -0.354 N 
ATOM     71  N   UNL A   1      45.215  28.937  34.502  1.00  0.00    -0.248 NA
ATOM     72  C   UNL A   1      46.507  28.027  36.221  1.00  0.00     0.031 C 
ATOM     73  C   UNL A   1      43.509  33.046  34.586  1.00  0.00     0.029 A 
ATOM     74  C   UNL A   1      44.031  31.761  34.593  1.00  0.00     0.049 A 
ATOM     75  H   UNL A   1      43.988  30.302  33.074  1.00  0.00     0.167 HD
ATOM     76  C   UNL A   1      45.280  29.847  35.554  1.00  0.00     0.074 A 
ATOM     77  C   UNL A   1      46.051  29.213  36.603  1.00  0.00     0.031 C 
ATOM     78  C   UNL A   1      44.753  31.093  35.646  1.00  0.00     0.034 A 
BRANCH  65  79
ATOM     79  C   UNL A   1      41.856  32.979  30.521  1.00  0.00     0.023 A 
ATOM     80  C   UNL A   1      40.476  33.196  30.718  1.00  0.00     0.012 A 
ATOM     81  C   UNL A   1      42.574  33.825  29.654  1.00  0.00     0.148 A 
ATOM     82  C   UNL A   1      39.815  34.215  30.033  1.00  0.00     0.002 A 
ATOM     83  C   UNL A   1      41.918  34.871  29.018  1.00  0.00     0.091 A 
ATOM     84  F   UNL A   1      43.877  33.583  29.459  1.00  0.00    -0.205 F 
ATOM     85  C   UNL A   1      40.538  35.059  29.194  1.00  0.00     0.022 A 
BRANCH  83  86
ATOM     86  S   UNL A   1      42.777  36.063  27.985  1.00  0.00     0.127 S 
ATOM     87  O   UNL A   1      42.667  35.442  26.665  1.00  0.00    -0.237 OA
ATOM     88  O   UNL A   1      41.961  37.264  28.164  1.00  0.00    -0.237 OA
ATOM     89  O   UNL A   1      44.128  36.159  28.518  1.00  0.00    -0.744 OA
ENDBRANCH  83  86
ENDBRANCH  65  79
BRANCH  66  90
ATOM     90  C   UNL A   1      46.857  25.464  34.847  1.00  0.00     0.023 A 
ATOM     91  C   UNL A   1      48.260  25.435  34.721  1.00  0.00     0.012 A 
ATOM     92  C   UNL A   1      46.212  24.450  35.581  1.00  0.00     0.148 A 
ATOM     93  C   UNL A   1      49.003  24.393  35.279  1.00  0.00     0.002 A 
ATOM     94  C   UNL A   1      46.964  23.447  36.181  1.00  0.00     0.091 A 
ATOM     95  F   UNL A   1      44.876  24.490  35.679  1.00  0.00    -0.205 F 
ATOM     96  C   UNL A   1      48.357  23.405  36.014  1.00  0.00     0.022 A 
BRANCH  94  97
ATOM     97  S   UNL A   1      46.234  22.199  37.246  1.00  0.00     0.127 S 
ATOM     98  O   UNL A   1      45.355  21.491  36.320  1.00  0.00    -0.237 OA
ATOM     99  O   UNL A   1      47.414  21.447  37.674  1.00  0.00    -0.237 OA
ATOM    100  O   UNL A   1      45.567  22.932  38.314  1.00  0.00    -0.744 OA
ENDBRANCH  94  97
ENDBRANCH  66  90
BRANCH  78 101
ATOM    101  C   UNL A   1      44.918  31.832  36.950  1.00  0.00     0.023 A 
ATOM    102  C   UNL A   1      45.998  32.718  37.139  1.00  0.00     0.012 A 
ATOM    103  C   UNL A   1      43.956  31.690  37.970  1.00  0.00     0.148 A 
ATOM    104  C   UNL A   1      46.142  33.411  38.340  1.00  0.00     0.002 A 
ATOM    105  C   UNL A   1      44.075  32.428  39.140  1.00  0.00     0.091 A 
ATOM    106  F   UNL A   1      42.943  30.832  37.780  1.00  0.00    -0.205 F 
ATOM    107  C   UNL A   1      45.177  33.276  39.335  1.00  0.00     0.022 A 
BRANCH 105 108
ATOM    108  S   UNL A   1      42.821  32.395  40.426  1.00  0.00     0.127 S 
ATOM    109  O   UNL A   1      43.088  31.110  41.069  1.00  0.00    -0.237 OA
ATOM    110  O   UNL A   1      43.171  33.566  41.231  1.00  0.00    -0.237 OA
ATOM    111  O   UNL A   1      41.540  32.498  39.740  1.00  0.00    -0.744 OA
ENDBRANCH 105 108
ENDBRANCH  78 101
ENDBRANCH  52  53
ENDBRANCH  45  47
ENDBRANCH  44  45
ENDBRANCH  43  44
ENDBRANCH  42  43
ENDBRANCH  41  42
ENDBRANCH  40  41
ENDBRANCH  39  40
ENDBRANCH  38  39
ENDBRANCH   1  38
TORSDOF 28
ENDMDL
MODEL 2
REMARK VINA RESULT:      -8.8      4.803      7.464
REMARK SMILES O=C(OCCOCCOCCOCCOC(=O)c1ccc(-c2c3nc(c(-c4cccc(S(=O)(=O)[O-])c4F)c4ccc([nH]4)c(-c4cccc(S(=O)(=O)[O-])c4F)c4nc(c(-c5cccc(S(=O)(=O)[O-])c5F)c5ccc2[nH]5)C=C4)C=C3)cc1)c1ccc(NC(=O)[C@@H]2CC=CC[C@H]2C(=O)Nc2cccc([N+](=O)[O-])c2)cc1
REMARK SMILES IDX 8 1 7 2 6 3 5 4 4 5 3 6 2 7 1 8 81 9 82 10 107 11 83 12
REMARK SMILES IDX 106 13 84 14 85 15 86 16 87 18 88 19 89 20 93 21 90 22 92 23
REMARK SMILES IDX 91 24 94 25 95 26 96 27 97 29 98 30 105 31 99 32 101 33
REMARK SMILES IDX 100 34 102 35 103 36 104 37 9 38 10 39 11 40 12 41 13 42
REMARK SMILES IDX 14 43 15 44 16 45 17 46 18 47 19 48 80 49 20 50 79 51 21 52
REMARK SMILES IDX 22 53 23 54 73 55 24 56 78 57 72 58 74 59 25 60 77 61 71 62
REMARK SMILES IDX 70 63 26 65 58 66 38 67 57 68 39 69 42 70 56 71 75 72 40 73
REMARK SMILES IDX 41 74 55 76 76 77 43 78 27 79 28 80 36 81 29 82 31 83 37 84
REMARK SMILES IDX 30 85 32 86 33 87 34 88 35 89 59 90 60 91 68 92 61 93 63 94
REMARK SMILES IDX 69 95 62 96 64 97 65 98 66 99 67 100 44 101 45 102 53 103
REMARK SMILES IDX 46 104 48 105 54 106 47 107 49 108 50 109 51 110 52 111
REMARK H PARENT 85 17 96 28 74 64 42 75
REMARK Flexibility Score: inf
ROOT
ATOM      1  C   UNL A   1      33.356  21.086  25.240  1.00  0.00     0.188 C 
ENDROOT
BRANCH   1   2
ATOM      2  C   UNL A   1      32.143  21.553  24.427  1.00  0.00     0.188 C 
BRANCH   2   3
ATOM      3  O   UNL A   1      31.491  22.641  25.073  1.00  0.00    -0.376 OA
BRANCH   3   4
ATOM      4  C   UNL A   1      31.140  23.782  24.310  1.00  0.00     0.202 C 
BRANCH   4   5
ATOM      5  C   UNL A   1      32.038  24.090  23.125  1.00  0.00     0.261 C 
BRANCH   5   6
ATOM      6  O   UNL A   1      32.058  25.454  22.638  1.00  0.00    -0.460 OA
BRANCH   6   7
ATOM      7  C   UNL A   1      32.991  26.423  22.775  1.00  0.00     0.338 C 
ATOM      8  O   UNL A   1      33.900  26.545  21.960  1.00  0.00    -0.246 OA
BRANCH   7   9
ATOM      9  C   UNL A   1      32.810  27.479  23.783  1.00  0.00     0.060 A 
ATOM     10  C   UNL A   1      31.679  27.571  24.590  1.00  0.00     0.018 A 
ATOM     11  C   UNL A   1      33.903  28.295  24.062  1.00  0.00     0.018 A 
ATOM     12  C   UNL A   1      31.537  28.623  25.500  1.00  0.00     0.027 A 
ATOM     13  C   UNL A   1      33.787  29.299  25.027  1.00  0.00     0.027 A 
ATOM     14  C   UNL A   1      32.566  29.532  25.677  1.00  0.00     0.041 A 
BRANCH  14  15
ATOM     15  N   UNL A   1      32.499  30.665  26.492  1.00  0.00    -0.326 N 
ATOM     16  C   UNL A   1      33.371  31.380  27.251  1.00  0.00     0.228 C 
ATOM     17  H   UNL A   1      31.589  31.042  26.524  1.00  0.00     0.169 HD
ATOM     18  O   UNL A   1      32.871  32.385  27.769  1.00  0.00    -0.274 OA
BRANCH  16  19
ATOM     19  C   UNL A   1      34.835  31.005  27.523  1.00  0.00     0.095 C 
ATOM     20  C   UNL A   1      34.958  29.562  28.065  1.00  0.00     0.041 C 
ATOM     21  C   UNL A   1      35.489  32.021  28.521  1.00  0.00     0.095 C 
ATOM     22  C   UNL A   1      36.292  29.234  28.667  1.00  0.00    -0.030 C 
ATOM     23  C   UNL A   1      36.892  31.626  29.031  1.00  0.00     0.041 C 
ATOM     24  C   UNL A   1      37.159  30.158  29.090  1.00  0.00    -0.030 C 
BRANCH  21  25
ATOM     25  C   UNL A   1      35.442  33.548  28.223  1.00  0.00     0.228 C 
ATOM     26  O   UNL A   1      35.766  33.954  27.097  1.00  0.00    -0.274 OA
ATOM     27  N   UNL A   1      34.886  34.504  29.035  1.00  0.00    -0.326 N 
ATOM     28  H   UNL A   1      34.858  35.406  28.641  1.00  0.00     0.169 HD
BRANCH  27  29
ATOM     29  C   UNL A   1      34.355  34.423  30.322  1.00  0.00     0.048 A 
ATOM     30  C   UNL A   1      34.855  33.478  31.223  1.00  0.00     0.026 A 
ATOM     31  C   UNL A   1      33.393  35.308  30.748  1.00  0.00     0.111 A 
ATOM     32  C   UNL A   1      34.517  33.550  32.583  1.00  0.00     0.009 A 
ATOM     33  C   UNL A   1      33.160  35.462  32.111  1.00  0.00     0.271 A 
ATOM     34  C   UNL A   1      33.706  34.584  33.045  1.00  0.00     0.086 A 
BRANCH  33  35
ATOM     35  N   UNL A   1      32.472  36.664  32.538  1.00  0.00     0.062 N 
ATOM     36  O   UNL A   1      33.049  37.742  32.366  1.00  0.00    -0.258 OA
ATOM     37  O   UNL A   1      31.328  36.522  32.988  1.00  0.00    -0.258 OA
ENDBRANCH  33  35
ENDBRANCH  27  29
ENDBRANCH  21  25
ENDBRANCH  16  19
ENDBRANCH  14  15
ENDBRANCH   7   9
ENDBRANCH   6   7
ENDBRANCH   5   6
ENDBRANCH   4   5
ENDBRANCH   3   4
ENDBRANCH   2   3
ENDBRANCH   1   2
BRANCH   1  38
ATOM     38  O   UNL A   1      34.159  22.109  25.828  1.00  0.00    -0.377 OA
BRANCH  38  39
ATOM     39  C   UNL A   1      34.951  22.887  24.938  1.00  0.00     0.188 C 
BRANCH  39  40
ATOM     40  C   UNL A   1      36.307  23.426  25.449  1.00  0.00     0.188 C 
BRANCH  40  41
ATOM     41  O   UNL A   1      37.444  22.771  24.926  1.00  0.00    -0.376 OA
BRANCH  41  42
ATOM     42  C   UNL A   1      38.477  22.288  25.765  1.00  0.00     0.202 C 
BRANCH  42  43
ATOM     43  C   UNL A   1      39.137  20.903  25.676  1.00  0.00     0.261 C 
BRANCH  43  44
ATOM     44  O   UNL A   1      40.190  20.636  26.591  1.00  0.00    -0.460 OA
BRANCH  44  45
ATOM     45  C   UNL A   1      41.375  20.276  26.045  1.00  0.00     0.338 C 
ATOM     46  O   UNL A   1      41.595  19.356  25.273  1.00  0.00    -0.246 OA
BRANCH  45  47
ATOM     47  C   UNL A   1      42.355  21.318  26.391  1.00  0.00     0.060 A 
ATOM     48  C   UNL A   1      43.713  21.070  26.144  1.00  0.00     0.016 A 
ATOM     49  C   UNL A   1      41.929  22.548  26.899  1.00  0.00     0.016 A 
ATOM     50  C   UNL A   1      44.660  22.038  26.468  1.00  0.00     0.010 A 
ATOM     51  C   UNL A   1      42.879  23.508  27.242  1.00  0.00     0.010 A 
ATOM     52  C   UNL A   1      44.248  23.228  27.082  1.00  0.00    -0.014 A 
BRANCH  52  53
ATOM     53  C   UNL A   1      45.243  24.016  27.843  1.00  0.00     0.031 A 
ATOM     54  C   UNL A   1      44.975  24.217  29.311  1.00  0.00     0.074 A 
ATOM     55  C   UNL A   1      46.346  24.522  27.269  1.00  0.00     0.049 A 
ATOM     56  N   UNL A   1      45.686  24.847  30.207  1.00  0.00    -0.248 NA
ATOM     57  C   UNL A   1      43.730  23.629  29.838  1.00  0.00     0.031 C 
ATOM     58  C   UNL A   1      46.710  24.391  25.860  1.00  0.00     0.029 A 
ATOM     59  N   UNL A   1      47.361  25.268  27.813  1.00  0.00    -0.354 N 
ATOM     60  C   UNL A   1      44.961  24.759  31.389  1.00  0.00     0.074 A 
ATOM     61  C   UNL A   1      43.748  24.032  31.097  1.00  0.00     0.031 C 
ATOM     62  C   UNL A   1      47.862  25.054  25.645  1.00  0.00     0.029 A 
ATOM     63  C   UNL A   1      48.302  25.669  26.896  1.00  0.00     0.049 A 
ATOM     64  H   UNL A   1      47.409  25.495  28.770  1.00  0.00     0.167 HD
ATOM     65  C   UNL A   1      45.281  25.229  32.616  1.00  0.00     0.034 A 
ATOM     66  C   UNL A   1      49.387  26.454  27.057  1.00  0.00     0.034 A 
ATOM     67  C   UNL A   1      46.491  25.944  32.904  1.00  0.00     0.049 A 
ATOM     68  C   UNL A   1      49.715  26.980  28.434  1.00  0.00     0.074 A 
ATOM     69  C   UNL A   1      46.937  26.424  34.121  1.00  0.00     0.029 A 
ATOM     70  N   UNL A   1      47.439  26.300  31.958  1.00  0.00    -0.354 N 
ATOM     71  N   UNL A   1      49.083  26.787  29.568  1.00  0.00    -0.248 NA
ATOM     72  C   UNL A   1      50.931  27.796  28.559  1.00  0.00     0.031 C 
ATOM     73  C   UNL A   1      48.137  27.109  33.903  1.00  0.00     0.029 A 
ATOM     74  C   UNL A   1      48.465  27.004  32.560  1.00  0.00     0.049 A 
ATOM     75  H   UNL A   1      47.391  26.083  30.999  1.00  0.00     0.167 HD
ATOM     76  C   UNL A   1      49.852  27.412  30.545  1.00  0.00     0.074 A 
ATOM     77  C   UNL A   1      51.001  27.977  29.871  1.00  0.00     0.031 C 
ATOM     78  C   UNL A   1      49.629  27.511  31.880  1.00  0.00     0.034 A 
BRANCH  65  79
ATOM     79  C   UNL A   1      44.302  24.982  33.733  1.00  0.00     0.023 A 
ATOM     80  C   UNL A   1      44.159  23.688  34.275  1.00  0.00     0.012 A 
ATOM     81  C   UNL A   1      43.545  26.043  34.264  1.00  0.00     0.148 A 
ATOM     82  C   UNL A   1      43.250  23.448  35.304  1.00  0.00     0.002 A 
ATOM     83  C   UNL A   1      42.681  25.806  35.325  1.00  0.00     0.091 A 
ATOM     84  F   UNL A   1      43.674  27.258  33.714  1.00  0.00    -0.205 F 
ATOM     85  C   UNL A   1      42.520  24.508  35.837  1.00  0.00     0.022 A 
BRANCH  83  86
ATOM     86  S   UNL A   1      41.763  27.119  36.136  1.00  0.00     0.127 S 
ATOM     87  O   UNL A   1      42.840  27.895  36.751  1.00  0.00    -0.237 OA
ATOM     88  O   UNL A   1      41.108  27.776  35.004  1.00  0.00    -0.237 OA
ATOM     89  O   UNL A   1      40.857  26.463  37.068  1.00  0.00    -0.744 OA
ENDBRANCH  83  86
ENDBRANCH  65  79
BRANCH  66  90
ATOM     90  C   UNL A   1      50.275  26.758  25.899  1.00  0.00     0.023 A 
ATOM     91  C   UNL A   1      49.861  27.693  24.931  1.00  0.00     0.012 A 
ATOM     92  C   UNL A   1      51.522  26.120  25.749  1.00  0.00     0.148 A 
ATOM     93  C   UNL A   1      50.653  27.957  23.811  1.00  0.00     0.002 A 
ATOM     94  C   UNL A   1      52.329  26.430  24.662  1.00  0.00     0.091 A 
ATOM     95  F   UNL A   1      51.892  25.226  26.676  1.00  0.00    -0.205 F 
ATOM     96  C   UNL A   1      51.889  27.331  23.681  1.00  0.00     0.022 A 
BRANCH  94  97
ATOM     97  S   UNL A   1      53.988  25.767  24.471  1.00  0.00     0.127 S 
ATOM     98  O   UNL A   1      54.652  26.271  25.670  1.00  0.00    -0.237 OA
ATOM     99  O   UNL A   1      53.734  24.326  24.465  1.00  0.00    -0.237 OA
ATOM    100  O   UNL A   1      54.482  26.297  23.207  1.00  0.00    -0.744 OA
ENDBRANCH  94  97
ENDBRANCH  66  90
BRANCH  78 101
ATOM    101  C   UNL A   1      50.683  28.188  32.720  1.00  0.00     0.023 A 
ATOM    102  C   UNL A   1      51.710  27.436  33.322  1.00  0.00     0.012 A 
ATOM    103  C   UNL A   1      50.683  29.591  32.858  1.00  0.00     0.148 A 
ATOM    104  C   UNL A   1      52.692  28.065  34.088  1.00  0.00     0.002 A 
ATOM    105  C   UNL A   1      51.696  30.216  33.573  1.00  0.00     0.091 A 
ATOM    106  F   UNL A   1      49.689  30.290  32.290  1.00  0.00    -0.205 F 
ATOM    107  C   UNL A   1      52.692  29.453  34.203  1.00  0.00     0.022 A 
BRANCH 105 108
ATOM    108  S   UNL A   1      51.832  32.003  33.681  1.00  0.00     0.127 S 
ATOM    109  O   UNL A   1      53.045  32.161  34.481  1.00  0.00    -0.237 OA
ATOM    110  O   UNL A   1      51.971  32.390  32.277  1.00  0.00    -0.237 OA
ATOM    111  O   UNL A   1      50.601  32.462  34.312  1.00  0.00    -0.744 OA
ENDBRANCH 105 108
ENDBRANCH  78 101
ENDBRANCH  52  53
ENDBRANCH  45  47
ENDBRANCH  44  45
ENDBRANCH  43  44
ENDBRANCH  42  43
ENDBRANCH  41  42
ENDBRANCH  40  41
ENDBRANCH  39  40
ENDBRANCH  38  39
ENDBRANCH   1  38
TORSDOF 28
ENDMDL
MODEL 3
REMARK VINA RESULT:      -8.0      4.644      9.844
REMARK SMILES O=C(OCCOCCOCCOCCOC(=O)c1ccc(-c2c3nc(c(-c4cccc(S(=O)(=O)[O-])c4F)c4ccc([nH]4)c(-c4cccc(S(=O)(=O)[O-])c4F)c4nc(c(-c5cccc(S(=O)(=O)[O-])c5F)c5ccc2[nH]5)C=C4)C=C3)cc1)c1ccc(NC(=O)[C@@H]2CC=CC[C@H]2C(=O)Nc2cccc([N+](=O)[O-])c2)cc1
REMARK SMILES IDX 8 1 7 2 6 3 5 4 4 5 3 6 2 7 1 8 81 9 82 10 107 11 83 12
REMARK SMILES IDX 106 13 84 14 85 15 86 16 87 18 88 19 89 20 93 21 90 22 92 23
REMARK SMILES IDX 91 24 94 25 95 26 96 27 97 29 98 30 105 31 99 32 101 33
REMARK SMILES IDX 100 34 102 35 103 36 104 37 9 38 10 39 11 40 12 41 13 42
REMARK SMILES IDX 14 43 15 44 16 45 17 46 18 47 19 48 80 49 20 50 79 51 21 52
REMARK SMILES IDX 22 53 23 54 73 55 24 56 78 57 72 58 74 59 25 60 77 61 71 62
REMARK SMILES IDX 70 63 26 65 58 66 38 67 57 68 39 69 42 70 56 71 75 72 40 73
REMARK SMILES IDX 41 74 55 76 76 77 43 78 27 79 28 80 36 81 29 82 31 83 37 84
REMARK SMILES IDX 30 85 32 86 33 87 34 88 35 89 59 90 60 91 68 92 61 93 63 94
REMARK SMILES IDX 69 95 62 96 64 97 65 98 66 99 67 100 44 101 45 102 53 103
REMARK SMILES IDX 46 104 48 105 54 106 47 107 49 108 50 109 51 110 52 111
REMARK H PARENT 85 17 96 28 74 64 42 75
REMARK Flexibility Score: inf
ROOT
ATOM      1  C   UNL A   1      33.681  29.635  27.066  1.00  0.00     0.188 C 
ENDROOT
BRANCH   1   2
ATOM      2  C   UNL A   1      33.904  29.190  25.616  1.00  0.00     0.188 C 
BRANCH   2   3
ATOM      3  O   UNL A   1      32.902  28.263  25.212  1.00  0.00    -0.376 OA
BRANCH   3   4
ATOM      4  C   UNL A   1      31.539  28.601  25.393  1.00  0.00     0.202 C 
BRANCH   4   5
ATOM      5  C   UNL A   1      31.085  29.897  24.743  1.00  0.00     0.261 C 
BRANCH   5   6
ATOM      6  O   UNL A   1      30.771  29.861  23.330  1.00  0.00    -0.460 OA
BRANCH   6   7
ATOM      7  C   UNL A   1      30.070  28.958  22.608  1.00  0.00     0.338 C 
ATOM      8  O   UNL A   1      29.484  29.288  21.581  1.00  0.00    -0.246 OA
BRANCH   7   9
ATOM      9  C   UNL A   1      30.174  27.526  22.923  1.00  0.00     0.060 A 
ATOM     10  C   UNL A   1      29.199  26.833  23.637  1.00  0.00     0.018 A 
ATOM     11  C   UNL A   1      31.198  26.806  22.313  1.00  0.00     0.018 A 
ATOM     12  C   UNL A   1      29.372  25.481  23.950  1.00  0.00     0.027 A 
ATOM     13  C   UNL A   1      31.327  25.438  22.565  1.00  0.00     0.027 A 
ATOM     14  C   UNL A   1      30.471  24.791  23.469  1.00  0.00     0.041 A 
BRANCH  14  15
ATOM     15  N   UNL A   1      30.786  23.468  23.789  1.00  0.00    -0.326 N 
ATOM     16  C   UNL A   1      31.754  22.835  24.503  1.00  0.00     0.228 C 
ATOM     17  H   UNL A   1      30.142  22.832  23.399  1.00  0.00     0.169 HD
ATOM     18  O   UNL A   1      31.599  21.611  24.576  1.00  0.00    -0.274 OA
BRANCH  16  19
ATOM     19  C   UNL A   1      32.978  23.509  25.141  1.00  0.00     0.095 C 
ATOM     20  C   UNL A   1      33.830  24.252  24.085  1.00  0.00     0.041 C 
ATOM     21  C   UNL A   1      33.852  22.456  25.905  1.00  0.00     0.095 C 
ATOM     22  C   UNL A   1      35.199  24.645  24.553  1.00  0.00    -0.030 C 
ATOM     23  C   UNL A   1      35.216  22.979  26.407  1.00  0.00     0.041 C 
ATOM     24  C   UNL A   1      35.813  24.081  25.597  1.00  0.00    -0.030 C 
BRANCH  21  25
ATOM     25  C   UNL A   1      33.204  21.539  26.983  1.00  0.00     0.228 C 
ATOM     26  O   UNL A   1      32.643  22.058  27.960  1.00  0.00    -0.274 OA
ATOM     27  N   UNL A   1      33.018  20.184  26.873  1.00  0.00    -0.326 N 
ATOM     28  H   UNL A   1      32.502  19.784  27.609  1.00  0.00     0.169 HD
BRANCH  27  29
ATOM     29  C   UNL A   1      33.432  19.275  25.900  1.00  0.00     0.048 A 
ATOM     30  C   UNL A   1      34.510  19.589  25.067  1.00  0.00     0.026 A 
ATOM     31  C   UNL A   1      32.843  18.037  25.792  1.00  0.00     0.111 A 
ATOM     32  C   UNL A   1      35.097  18.597  24.267  1.00  0.00     0.009 A 
ATOM     33  C   UNL A   1      33.501  17.024  25.102  1.00  0.00     0.271 A 
ATOM     34  C   UNL A   1      34.626  17.288  24.323  1.00  0.00     0.086 A 
BRANCH  33  35
ATOM     35  N   UNL A   1      33.080  15.661  25.356  1.00  0.00     0.062 N 
ATOM     36  O   UNL A   1      33.951  14.785  25.350  1.00  0.00    -0.258 OA
ATOM     37  O   UNL A   1      31.884  15.487  25.623  1.00  0.00    -0.258 OA
ENDBRANCH  33  35
ENDBRANCH  27  29
ENDBRANCH  21  25
ENDBRANCH  16  19
ENDBRANCH  14  15
ENDBRANCH   7   9
ENDBRANCH   6   7
ENDBRANCH   5   6
ENDBRANCH   4   5
ENDBRANCH   3   4
ENDBRANCH   2   3
ENDBRANCH   1   2
BRANCH   1  38
ATOM     38  O   UNL A   1      34.075  30.968  27.389  1.00  0.00    -0.377 OA
BRANCH  38  39
ATOM     39  C   UNL A   1      34.942  31.121  28.507  1.00  0.00     0.188 C 
BRANCH  39  40
ATOM     40  C   UNL A   1      36.017  30.037  28.751  1.00  0.00     0.188 C 
BRANCH  40  41
ATOM     41  O   UNL A   1      36.553  30.013  30.058  1.00  0.00    -0.376 OA
BRANCH  41  42
ATOM     42  C   UNL A   1      36.870  31.204  30.755  1.00  0.00     0.202 C 
BRANCH  42  43
ATOM     43  C   UNL A   1      35.968  31.921  31.770  1.00  0.00     0.261 C 
BRANCH  43  44
ATOM     44  O   UNL A   1      35.604  33.261  31.469  1.00  0.00    -0.460 OA
BRANCH  44  45
ATOM     45  C   UNL A   1      35.262  34.035  32.525  1.00  0.00     0.338 C 
ATOM     46  O   UNL A   1      34.167  34.515  32.780  1.00  0.00    -0.246 OA
BRANCH  45  47
ATOM     47  C   UNL A   1      36.407  34.052  33.449  1.00  0.00     0.060 A 
ATOM     48  C   UNL A   1      37.652  34.484  32.968  1.00  0.00     0.016 A 
ATOM     49  C   UNL A   1      36.238  33.702  34.792  1.00  0.00     0.016 A 
ATOM     50  C   UNL A   1      38.751  34.503  33.821  1.00  0.00     0.010 A 
ATOM     51  C   UNL A   1      37.343  33.702  35.640  1.00  0.00     0.010 A 
ATOM     52  C   UNL A   1      38.611  34.045  35.138  1.00  0.00    -0.014 A 
BRANCH  52  53
ATOM     53  C   UNL A   1      39.822  33.619  35.874  1.00  0.00     0.031 A 
ATOM     54  C   UNL A   1      40.465  34.637  36.778  1.00  0.00     0.074 A 
ATOM     55  C   UNL A   1      40.327  32.380  35.764  1.00  0.00     0.049 A 
ATOM     56  N   UNL A   1      41.516  34.523  37.544  1.00  0.00    -0.248 NA
ATOM     57  C   UNL A   1      39.837  35.971  36.816  1.00  0.00     0.031 C 
ATOM     58  C   UNL A   1      39.791  31.312  34.923  1.00  0.00     0.029 A 
ATOM     59  N   UNL A   1      41.428  31.819  36.362  1.00  0.00    -0.354 N 
ATOM     60  C   UNL A   1      41.692  35.772  38.127  1.00  0.00     0.074 A 
ATOM     61  C   UNL A   1      40.653  36.636  37.615  1.00  0.00     0.031 C 
ATOM     62  C   UNL A   1      40.577  30.227  35.045  1.00  0.00     0.029 A 
ATOM     63  C   UNL A   1      41.680  30.531  35.956  1.00  0.00     0.049 A 
ATOM     64  H   UNL A   1      41.985  32.296  37.020  1.00  0.00     0.167 HD
ATOM     65  C   UNL A   1      42.626  36.166  39.021  1.00  0.00     0.034 A 
ATOM     66  C   UNL A   1      42.695  29.705  36.279  1.00  0.00     0.034 A 
ATOM     67  C   UNL A   1      43.652  35.303  39.532  1.00  0.00     0.049 A 
ATOM     68  C   UNL A   1      43.735  30.173  37.268  1.00  0.00     0.074 A 
ATOM     69  C   UNL A   1      44.621  35.585  40.477  1.00  0.00     0.029 A 
ATOM     70  N   UNL A   1      43.854  33.993  39.126  1.00  0.00    -0.354 N 
ATOM     71  N   UNL A   1      43.820  31.318  37.904  1.00  0.00    -0.248 NA
ATOM     72  C   UNL A   1      44.796  29.216  37.616  1.00  0.00     0.031 C 
ATOM     73  C   UNL A   1      45.437  34.457  40.611  1.00  0.00     0.029 A 
ATOM     74  C   UNL A   1      44.939  33.455  39.792  1.00  0.00     0.049 A 
ATOM     75  H   UNL A   1      43.306  33.516  38.463  1.00  0.00     0.167 HD
ATOM     76  C   UNL A   1      44.908  31.198  38.764  1.00  0.00     0.074 A 
ATOM     77  C   UNL A   1      45.442  29.866  38.575  1.00  0.00     0.031 C 
ATOM     78  C   UNL A   1      45.422  32.107  39.630  1.00  0.00     0.034 A 
BRANCH  65  79
ATOM     79  C   UNL A   1      42.577  37.593  39.496  1.00  0.00     0.023 A 
ATOM     80  C   UNL A   1      41.722  37.956  40.557  1.00  0.00     0.012 A 
ATOM     81  C   UNL A   1      43.404  38.569  38.908  1.00  0.00     0.148 A 
ATOM     82  C   UNL A   1      41.664  39.277  41.000  1.00  0.00     0.002 A 
ATOM     83  C   UNL A   1      43.379  39.871  39.391  1.00  0.00     0.091 A 
ATOM     84  F   UNL A   1      44.187  38.210  37.882  1.00  0.00    -0.205 F 
ATOM     85  C   UNL A   1      42.500  40.231  40.426  1.00  0.00     0.022 A 
BRANCH  83  86
ATOM     86  S   UNL A   1      44.479  41.150  38.776  1.00  0.00     0.127 S 
ATOM     87  O   UNL A   1      45.791  40.550  39.014  1.00  0.00    -0.237 OA
ATOM     88  O   UNL A   1      44.093  41.232  37.367  1.00  0.00    -0.237 OA
ATOM     89  O   UNL A   1      44.188  42.343  39.558  1.00  0.00    -0.744 OA
ENDBRANCH  83  86
ENDBRANCH  65  79
BRANCH  66  90
ATOM     90  C   UNL A   1      42.761  28.331  35.704  1.00  0.00     0.023 A 
ATOM     91  C   UNL A   1      42.005  27.296  36.287  1.00  0.00     0.012 A 
ATOM     92  C   UNL A   1      43.573  28.046  34.590  1.00  0.00     0.148 A 
ATOM     93  C   UNL A   1      42.089  25.991  35.798  1.00  0.00     0.002 A 
ATOM     94  C   UNL A   1      43.609  26.756  34.074  1.00  0.00     0.091 A 
ATOM     95  F   UNL A   1      44.293  29.043  34.057  1.00  0.00    -0.205 F 
ATOM     96  C   UNL A   1      42.884  25.723  34.688  1.00  0.00     0.022 A 
BRANCH  94  97
ATOM     97  S   UNL A   1      44.508  26.339  32.576  1.00  0.00     0.127 S 
ATOM     98  O   UNL A   1      43.877  27.216  31.593  1.00  0.00    -0.237 OA
ATOM     99  O   UNL A   1      45.877  26.705  32.940  1.00  0.00    -0.237 OA
ATOM    100  O   UNL A   1      44.299  24.912  32.373  1.00  0.00    -0.744 OA
ENDBRANCH  94  97
ENDBRANCH  66  90
BRANCH  78 101
ATOM    101  C   UNL A   1      46.573  31.674  40.502  1.00  0.00     0.023 A 
ATOM    102  C   UNL A   1      47.903  31.928  40.110  1.00  0.00     0.012 A 
ATOM    103  C   UNL A   1      46.326  31.067  41.750  1.00  0.00     0.148 A 
ATOM    104  C   UNL A   1      48.967  31.539  40.923  1.00  0.00     0.002 A 
ATOM    105  C   UNL A   1      47.389  30.736  42.581  1.00  0.00     0.091 A 
ATOM    106  F   UNL A   1      45.056  30.820  42.102  1.00  0.00    -0.205 F 
ATOM    107  C   UNL A   1      48.711  30.955  42.162  1.00  0.00     0.022 A 
BRANCH 105 108
ATOM    108  S   UNL A   1      47.145  30.080  44.235  1.00  0.00     0.127 S 
ATOM    109  O   UNL A   1      48.521  29.950  44.709  1.00  0.00    -0.237 OA
ATOM    110  O   UNL A   1      46.374  31.143  44.880  1.00  0.00    -0.237 OA
ATOM    111  O   UNL A   1      46.419  28.828  44.066  1.00  0.00    -0.744 OA
ENDBRANCH 105 108
ENDBRANCH  78 101
ENDBRANCH  52  53
ENDBRANCH  45  47
ENDBRANCH  44  45
ENDBRANCH  43  44
ENDBRANCH  42  43
ENDBRANCH  41  42
ENDBRANCH  40  41
ENDBRANCH  39  40
ENDBRANCH  38  39
ENDBRANCH   1  38
TORSDOF 28
ENDMDL
