MODEL 1
REMARK VINA RESULT:      -8.9      0.000      0.000
REMARK SMILES CC(C)(C)c1csc(C[NH2+][C@H]2CCC[C@@H](C(=O)OCCOCCOCCOCCOC(=O)c3ccc(-c4c5nc(c(-c6cccc(S(=O)(=O)[O-])c6F)c6ccc([nH]6)c(-c6cccc(S(=O)(=O)[O-])c6F)c6nc(c(-c7cccc(S(=O)(=O)[O-])c7F)c7ccc4[nH]7)C=C6)C=C5)cc3)C2)n1
REMARK SMILES IDX 23 1 22 2 21 3 20 4 19 5 18 6 16 7 17 8 15 9 11 10 12 11
REMARK SMILES IDX 96 12 13 13 14 14 10 15 9 18 8 19 5 20 6 21 97 22 7 23 2 24
REMARK SMILES IDX 1 25 3 26 4 27 24 28 25 29 26 30 27 31 28 32 29 33 30 34
REMARK SMILES IDX 31 35 32 36 33 37 34 38 95 39 35 40 94 41 36 42 37 43 38 44
REMARK SMILES IDX 88 45 39 46 93 47 87 48 89 49 40 50 92 51 86 52 85 53 41 55
REMARK SMILES IDX 73 56 53 57 72 58 54 59 57 60 71 61 90 62 55 63 56 64 70 66
REMARK SMILES IDX 91 67 58 68 42 69 43 70 51 71 44 72 46 73 52 74 45 75 47 76
REMARK SMILES IDX 48 77 49 78 50 79 74 80 75 81 83 82 76 83 78 84 84 85 77 86
REMARK SMILES IDX 79 87 80 88 81 89 82 90 59 91 60 92 68 93 61 94 63 95 69 96
REMARK SMILES IDX 62 97 64 98 65 99 66 100 67 101
REMARK H PARENT 10 16 10 17 89 54 57 65
REMARK Flexibility Score: inf
ROOT
ATOM      1  C   UNL A   1      32.307  27.227  27.281  1.00  0.00     0.188 C 
ENDROOT
BRANCH   1   2
ATOM      2  C   UNL A   1      31.123  26.608  26.502  1.00  0.00     0.188 C 
BRANCH   2   3
ATOM      3  O   UNL A   1      31.344  25.282  26.037  1.00  0.00    -0.376 OA
BRANCH   3   4
ATOM      4  C   UNL A   1      30.299  24.333  26.194  1.00  0.00     0.202 C 
BRANCH   4   5
ATOM      5  C   UNL A   1      30.692  22.973  26.802  1.00  0.00     0.261 C 
BRANCH   5   6
ATOM      6  O   UNL A   1      30.895  21.908  25.843  1.00  0.00    -0.463 OA
BRANCH   6   7
ATOM      7  C   UNL A   1      31.827  22.145  24.894  1.00  0.00     0.309 C 
ATOM      8  O   UNL A   1      31.607  22.862  23.930  1.00  0.00    -0.252 OA
BRANCH   7   9
ATOM      9  C   UNL A   1      33.157  21.436  25.164  1.00  0.00     0.105 C 
ATOM     10  C   UNL A   1      34.886  23.397  24.996  1.00  0.00     0.183 C 
ATOM     11  C   UNL A   1      35.297  23.098  26.445  1.00  0.00     0.065 C 
ATOM     12  C   UNL A   1      34.297  22.099  24.364  1.00  0.00     0.080 C 
ATOM     13  C   UNL A   1      34.139  22.557  27.272  1.00  0.00     0.007 C 
ATOM     14  C   UNL A   1      33.578  21.288  26.634  1.00  0.00     0.016 C 
BRANCH  10  15
ATOM     15  N   UNL A   1      33.967  24.514  24.793  1.00  0.00    -0.338 N 
ATOM     16  H   UNL A   1      33.079  24.111  24.493  1.00  0.00     0.346 HD
ATOM     17  H   UNL A   1      33.991  24.997  25.691  1.00  0.00     0.346 HD
BRANCH  15  18
ATOM     18  C   UNL A   1      34.286  25.574  23.842  1.00  0.00     0.329 C 
BRANCH  18  19
ATOM     19  C   UNL A   1      33.073  26.073  23.065  1.00  0.00     0.147 A 
ATOM     20  C   UNL A   1      31.200  27.217  22.615  1.00  0.00     0.057 A 
ATOM     21  C   UNL A   1      31.302  26.471  21.454  1.00  0.00     0.091 A 
ATOM     22  N   UNL A   1      32.227  26.974  23.528  1.00  0.00    -0.240 NA
ATOM     23  S   UNL A   1      32.712  25.500  21.482  1.00  0.00    -0.121 S 
BRANCH  20  24
ATOM     24  C   UNL A   1      30.164  28.280  22.959  1.00  0.00     0.005 C 
ATOM     25  C   UNL A   1      28.810  27.675  23.389  1.00  0.00     0.017 C 
ATOM     26  C   UNL A   1      29.922  29.160  21.716  1.00  0.00     0.017 C 
ATOM     27  C   UNL A   1      30.663  29.171  24.113  1.00  0.00     0.017 C 
ENDBRANCH  20  24
ENDBRANCH  18  19
ENDBRANCH  15  18
ENDBRANCH  10  15
ENDBRANCH   7   9
ENDBRANCH   6   7
ENDBRANCH   5   6
ENDBRANCH   4   5
ENDBRANCH   3   4
ENDBRANCH   2   3
ENDBRANCH   1   2
BRANCH   1  28
ATOM     28  O   UNL A   1      33.518  27.506  26.609  1.00  0.00    -0.377 OA
BRANCH  28  29
ATOM     29  C   UNL A   1      33.710  28.849  26.221  1.00  0.00     0.188 C 
BRANCH  29  30
ATOM     30  C   UNL A   1      33.111  29.845  27.228  1.00  0.00     0.188 C 
BRANCH  30  31
ATOM     31  O   UNL A   1      31.844  30.436  26.992  1.00  0.00    -0.376 OA
BRANCH  31  32
ATOM     32  C   UNL A   1      31.686  31.751  26.484  1.00  0.00     0.202 C 
BRANCH  32  33
ATOM     33  C   UNL A   1      31.786  33.066  27.287  1.00  0.00     0.261 C 
BRANCH  33  34
ATOM     34  O   UNL A   1      33.030  33.757  27.323  1.00  0.00    -0.460 OA
BRANCH  34  35
ATOM     35  C   UNL A   1      33.361  34.336  28.495  1.00  0.00     0.338 C 
ATOM     36  O   UNL A   1      32.699  35.139  29.134  1.00  0.00    -0.246 OA
BRANCH  35  37
ATOM     37  C   UNL A   1      34.578  33.663  28.991  1.00  0.00     0.060 A 
ATOM     38  C   UNL A   1      34.442  32.411  29.611  1.00  0.00     0.016 A 
ATOM     39  C   UNL A   1      35.843  34.220  28.787  1.00  0.00     0.016 A 
ATOM     40  C   UNL A   1      35.568  31.719  30.042  1.00  0.00     0.010 A 
ATOM     41  C   UNL A   1      36.969  33.550  29.266  1.00  0.00     0.010 A 
ATOM     42  C   UNL A   1      36.828  32.314  29.923  1.00  0.00    -0.014 A 
BRANCH  42  43
ATOM     43  C   UNL A   1      37.944  31.773  30.726  1.00  0.00     0.031 A 
ATOM     44  C   UNL A   1      38.849  30.772  30.064  1.00  0.00     0.074 A 
ATOM     45  C   UNL A   1      38.162  32.167  31.992  1.00  0.00     0.049 A 
ATOM     46  N   UNL A   1      39.880  30.137  30.551  1.00  0.00    -0.248 NA
ATOM     47  C   UNL A   1      38.546  30.443  28.659  1.00  0.00     0.031 C 
ATOM     48  C   UNL A   1      37.363  33.145  32.726  1.00  0.00     0.029 A 
ATOM     49  N   UNL A   1      39.117  31.765  32.891  1.00  0.00    -0.354 N 
ATOM     50  C   UNL A   1      40.330  29.315  29.525  1.00  0.00     0.074 A 
ATOM     51  C   UNL A   1      39.458  29.523  28.393  1.00  0.00     0.031 C 
ATOM     52  C   UNL A   1      37.843  33.243  33.980  1.00  0.00     0.029 A 
ATOM     53  C   UNL A   1      38.963  32.317  34.139  1.00  0.00     0.049 A 
ATOM     54  H   UNL A   1      39.844  31.141  32.663  1.00  0.00     0.167 HD
ATOM     55  C   UNL A   1      41.384  28.468  29.523  1.00  0.00     0.034 A 
ATOM     56  C   UNL A   1      39.636  32.077  35.282  1.00  0.00     0.034 A 
ATOM     57  C   UNL A   1      42.249  28.267  30.651  1.00  0.00     0.049 A 
ATOM     58  C   UNL A   1      40.783  31.095  35.265  1.00  0.00     0.074 A 
ATOM     59  C   UNL A   1      43.368  27.459  30.743  1.00  0.00     0.029 A 
ATOM     60  N   UNL A   1      42.081  28.864  31.890  1.00  0.00    -0.354 N 
ATOM     61  N   UNL A   1      41.268  30.406  34.260  1.00  0.00    -0.248 NA
ATOM     62  C   UNL A   1      41.493  30.882  36.535  1.00  0.00     0.031 C 
ATOM     63  C   UNL A   1      43.853  27.538  32.051  1.00  0.00     0.029 A 
ATOM     64  C   UNL A   1      43.065  28.430  32.761  1.00  0.00     0.049 A 
ATOM     65  H   UNL A   1      41.366  29.502  32.118  1.00  0.00     0.167 HD
ATOM     66  C   UNL A   1      42.364  29.713  34.764  1.00  0.00     0.074 A 
ATOM     67  C   UNL A   1      42.480  30.079  36.161  1.00  0.00     0.031 C 
ATOM     68  C   UNL A   1      43.195  28.845  34.135  1.00  0.00     0.034 A 
BRANCH  55  69
ATOM     69  C   UNL A   1      41.654  27.698  28.260  1.00  0.00     0.023 A 
ATOM     70  C   UNL A   1      42.273  28.335  27.165  1.00  0.00     0.012 A 
ATOM     71  C   UNL A   1      41.326  26.331  28.171  1.00  0.00     0.148 A 
ATOM     72  C   UNL A   1      42.532  27.633  25.989  1.00  0.00     0.002 A 
ATOM     73  C   UNL A   1      41.632  25.625  27.014  1.00  0.00     0.091 A 
ATOM     74  F   UNL A   1      40.711  25.752  29.211  1.00  0.00    -0.205 F 
ATOM     75  C   UNL A   1      42.223  26.276  25.918  1.00  0.00     0.022 A 
BRANCH  73  76
ATOM     76  S   UNL A   1      41.348  23.860  26.855  1.00  0.00     0.127 S 
ATOM     77  O   UNL A   1      42.075  23.339  28.011  1.00  0.00    -0.237 OA
ATOM     78  O   UNL A   1      39.891  23.775  26.962  1.00  0.00    -0.237 OA
ATOM     79  O   UNL A   1      41.887  23.479  25.557  1.00  0.00    -0.744 OA
ENDBRANCH  73  76
ENDBRANCH  55  69
BRANCH  56  80
ATOM     80  C   UNL A   1      39.261  32.787  36.537  1.00  0.00     0.023 A 
ATOM     81  C   UNL A   1      38.226  32.278  37.345  1.00  0.00     0.012 A 
ATOM     82  C   UNL A   1      39.925  33.965  36.933  1.00  0.00     0.148 A 
ATOM     83  C   UNL A   1      37.834  32.947  38.506  1.00  0.00     0.002 A 
ATOM     84  C   UNL A   1      39.568  34.596  38.119  1.00  0.00     0.091 A 
ATOM     85  F   UNL A   1      40.896  34.442  36.143  1.00  0.00    -0.205 F 
ATOM     86  C   UNL A   1      38.511  34.100  38.897  1.00  0.00     0.022 A 
BRANCH  84  87
ATOM     87  S   UNL A   1      40.463  36.012  38.767  1.00  0.00     0.127 S 
ATOM     88  O   UNL A   1      39.818  37.120  38.067  1.00  0.00    -0.237 OA
ATOM     89  O   UNL A   1      40.164  35.926  40.197  1.00  0.00    -0.237 OA
ATOM     90  O   UNL A   1      41.862  35.783  38.430  1.00  0.00    -0.744 OA
ENDBRANCH  84  87
ENDBRANCH  56  80
BRANCH  68  91
ATOM     91  C   UNL A   1      44.338  28.264  34.927  1.00  0.00     0.023 A 
ATOM     92  C   UNL A   1      45.638  28.786  34.780  1.00  0.00     0.012 A 
ATOM     93  C   UNL A   1      44.104  27.250  35.878  1.00  0.00     0.148 A 
ATOM     94  C   UNL A   1      46.693  28.284  35.541  1.00  0.00     0.002 A 
ATOM     95  C   UNL A   1      45.150  26.792  36.670  1.00  0.00     0.091 A 
ATOM     96  F   UNL A   1      42.863  26.755  35.993  1.00  0.00    -0.205 F 
ATOM     97  C   UNL A   1      46.447  27.298  36.493  1.00  0.00     0.022 A 
BRANCH  95  98
ATOM     98  S   UNL A   1      44.907  25.599  37.991  1.00  0.00     0.127 S 
ATOM     99  O   UNL A   1      46.276  25.393  38.461  1.00  0.00    -0.237 OA
ATOM    100  O   UNL A   1      44.048  26.336  38.919  1.00  0.00    -0.237 OA
ATOM    101  O   UNL A   1      44.277  24.439  37.376  1.00  0.00    -0.744 OA
ENDBRANCH  95  98
ENDBRANCH  68  91
ENDBRANCH  42  43
ENDBRANCH  35  37
ENDBRANCH  34  35
ENDBRANCH  33  34
ENDBRANCH  32  33
ENDBRANCH  31  32
ENDBRANCH  30  31
ENDBRANCH  29  30
ENDBRANCH  28  29
ENDBRANCH   1  28
TORSDOF 27
ENDMDL
MODEL 2
REMARK VINA RESULT:      -8.4      5.617      9.633
REMARK SMILES CC(C)(C)c1csc(C[NH2+][C@H]2CCC[C@@H](C(=O)OCCOCCOCCOCCOC(=O)c3ccc(-c4c5nc(c(-c6cccc(S(=O)(=O)[O-])c6F)c6ccc([nH]6)c(-c6cccc(S(=O)(=O)[O-])c6F)c6nc(c(-c7cccc(S(=O)(=O)[O-])c7F)c7ccc4[nH]7)C=C6)C=C5)cc3)C2)n1
REMARK SMILES IDX 23 1 22 2 21 3 20 4 19 5 18 6 16 7 17 8 15 9 11 10 12 11
REMARK SMILES IDX 96 12 13 13 14 14 10 15 9 18 8 19 5 20 6 21 97 22 7 23 2 24
REMARK SMILES IDX 1 25 3 26 4 27 24 28 25 29 26 30 27 31 28 32 29 33 30 34
REMARK SMILES IDX 31 35 32 36 33 37 34 38 95 39 35 40 94 41 36 42 37 43 38 44
REMARK SMILES IDX 88 45 39 46 93 47 87 48 89 49 40 50 92 51 86 52 85 53 41 55
REMARK SMILES IDX 73 56 53 57 72 58 54 59 57 60 71 61 90 62 55 63 56 64 70 66
REMARK SMILES IDX 91 67 58 68 42 69 43 70 51 71 44 72 46 73 52 74 45 75 47 76
REMARK SMILES IDX 48 77 49 78 50 79 74 80 75 81 83 82 76 83 78 84 84 85 77 86
REMARK SMILES IDX 79 87 80 88 81 89 82 90 59 91 60 92 68 93 61 94 63 95 69 96
REMARK SMILES IDX 62 97 64 98 65 99 66 100 67 101
REMARK H PARENT 10 16 10 17 89 54 57 65
REMARK Flexibility Score: inf
ROOT
ATOM      1  C   UNL A   1      39.353  21.452  25.842  1.00  0.00     0.188 C 
ENDROOT
BRANCH   1   2
ATOM      2  C   UNL A   1      37.858  21.497  25.445  1.00  0.00     0.188 C 
BRANCH   2   3
ATOM      3  O   UNL A   1      37.236  22.765  25.614  1.00  0.00    -0.376 OA
BRANCH   3   4
ATOM      4  C   UNL A   1      35.890  22.914  25.183  1.00  0.00     0.202 C 
BRANCH   4   5
ATOM      5  C   UNL A   1      35.186  24.227  25.575  1.00  0.00     0.261 C 
BRANCH   5   6
ATOM      6  O   UNL A   1      34.635  24.981  24.470  1.00  0.00    -0.463 OA
BRANCH   6   7
ATOM      7  C   UNL A   1      33.785  25.976  24.806  1.00  0.00     0.309 C 
ATOM      8  O   UNL A   1      33.225  26.015  25.892  1.00  0.00    -0.252 OA
BRANCH   7   9
ATOM      9  C   UNL A   1      33.617  27.026  23.704  1.00  0.00     0.105 C 
ATOM     10  C   UNL A   1      32.105  25.781  21.964  1.00  0.00     0.183 C 
ATOM     11  C   UNL A   1      31.064  26.896  22.141  1.00  0.00     0.065 C 
ATOM     12  C   UNL A   1      33.513  26.349  22.321  1.00  0.00     0.080 C 
ATOM     13  C   UNL A   1      31.082  27.482  23.545  1.00  0.00     0.007 C 
ATOM     14  C   UNL A   1      32.469  28.031  23.874  1.00  0.00     0.016 C 
BRANCH  10  15
ATOM     15  N   UNL A   1      31.866  24.539  22.695  1.00  0.00    -0.338 N 
ATOM     16  H   UNL A   1      32.073  24.733  23.675  1.00  0.00     0.346 HD
ATOM     17  H   UNL A   1      30.903  24.309  22.448  1.00  0.00     0.346 HD
BRANCH  15  18
ATOM     18  C   UNL A   1      32.594  23.322  22.348  1.00  0.00     0.329 C 
BRANCH  18  19
ATOM     19  C   UNL A   1      32.514  22.244  23.423  1.00  0.00     0.147 A 
ATOM     20  C   UNL A   1      32.675  20.225  24.380  1.00  0.00     0.057 A 
ATOM     21  C   UNL A   1      32.133  20.939  25.434  1.00  0.00     0.091 A 
ATOM     22  N   UNL A   1      32.886  20.992  23.234  1.00  0.00    -0.240 NA
ATOM     23  S   UNL A   1      31.934  22.586  25.008  1.00  0.00    -0.121 S 
BRANCH  20  24
ATOM     24  C   UNL A   1      33.109  18.765  24.363  1.00  0.00     0.005 C 
ATOM     25  C   UNL A   1      32.694  18.036  23.066  1.00  0.00     0.017 C 
ATOM     26  C   UNL A   1      32.454  18.036  25.553  1.00  0.00     0.017 C 
ATOM     27  C   UNL A   1      34.642  18.652  24.490  1.00  0.00     0.017 C 
ENDBRANCH  20  24
ENDBRANCH  18  19
ENDBRANCH  15  18
ENDBRANCH  10  15
ENDBRANCH   7   9
ENDBRANCH   6   7
ENDBRANCH   5   6
ENDBRANCH   4   5
ENDBRANCH   3   4
ENDBRANCH   2   3
ENDBRANCH   1   2
BRANCH   1  28
ATOM     28  O   UNL A   1      39.740  21.803  27.155  1.00  0.00    -0.377 OA
BRANCH  28  29
ATOM     29  C   UNL A   1      40.932  21.212  27.622  1.00  0.00     0.188 C 
BRANCH  29  30
ATOM     30  C   UNL A   1      42.146  22.147  27.488  1.00  0.00     0.188 C 
BRANCH  30  31
ATOM     31  O   UNL A   1      43.103  21.942  26.461  1.00  0.00    -0.376 OA
BRANCH  31  32
ATOM     32  C   UNL A   1      43.032  22.583  25.197  1.00  0.00     0.202 C 
BRANCH  32  33
ATOM     33  C   UNL A   1      44.203  22.823  24.220  1.00  0.00     0.261 C 
BRANCH  33  34
ATOM     34  O   UNL A   1      45.020  23.976  24.394  1.00  0.00    -0.460 OA
BRANCH  34  35
ATOM     35  C   UNL A   1      45.721  24.046  25.544  1.00  0.00     0.338 C 
ATOM     36  O   UNL A   1      46.660  23.342  25.879  1.00  0.00    -0.246 OA
BRANCH  35  37
ATOM     37  C   UNL A   1      45.294  25.274  26.245  1.00  0.00     0.060 A 
ATOM     38  C   UNL A   1      44.883  26.373  25.474  1.00  0.00     0.016 A 
ATOM     39  C   UNL A   1      45.231  25.321  27.640  1.00  0.00     0.016 A 
ATOM     40  C   UNL A   1      44.423  27.528  26.096  1.00  0.00     0.010 A 
ATOM     41  C   UNL A   1      44.818  26.499  28.264  1.00  0.00     0.010 A 
ATOM     42  C   UNL A   1      44.445  27.614  27.491  1.00  0.00    -0.014 A 
BRANCH  42  43
ATOM     43  C   UNL A   1      44.344  28.948  28.119  1.00  0.00     0.031 A 
ATOM     44  C   UNL A   1      45.581  29.801  28.131  1.00  0.00     0.074 A 
ATOM     45  C   UNL A   1      43.192  29.398  28.645  1.00  0.00     0.049 A 
ATOM     46  N   UNL A   1      45.762  30.993  28.633  1.00  0.00    -0.248 NA
ATOM     47  C   UNL A   1      46.779  29.228  27.489  1.00  0.00     0.031 C 
ATOM     48  C   UNL A   1      41.928  28.666  28.669  1.00  0.00     0.029 A 
ATOM     49  N   UNL A   1      42.914  30.580  29.282  1.00  0.00    -0.354 N 
ATOM     50  C   UNL A   1      47.096  31.299  28.393  1.00  0.00     0.074 A 
ATOM     51  C   UNL A   1      47.682  30.168  27.710  1.00  0.00     0.031 C 
ATOM     52  C   UNL A   1      41.013  29.405  29.324  1.00  0.00     0.029 A 
ATOM     53  C   UNL A   1      41.636  30.645  29.782  1.00  0.00     0.049 A 
ATOM     54  H   UNL A   1      43.567  31.311  29.372  1.00  0.00     0.167 HD
ATOM     55  C   UNL A   1      47.772  32.428  28.705  1.00  0.00     0.034 A 
ATOM     56  C   UNL A   1      41.053  31.590  30.546  1.00  0.00     0.034 A 
ATOM     57  C   UNL A   1      47.184  33.549  29.382  1.00  0.00     0.049 A 
ATOM     58  C   UNL A   1      41.841  32.823  30.917  1.00  0.00     0.074 A 
ATOM     59  C   UNL A   1      47.771  34.757  29.713  1.00  0.00     0.029 A 
ATOM     60  N   UNL A   1      45.880  33.594  29.848  1.00  0.00    -0.354 N 
ATOM     61  N   UNL A   1      43.068  33.152  30.591  1.00  0.00    -0.248 NA
ATOM     62  C   UNL A   1      41.151  33.830  31.738  1.00  0.00     0.031 C 
ATOM     63  C   UNL A   1      46.831  35.516  30.416  1.00  0.00     0.029 A 
ATOM     64  C   UNL A   1      45.646  34.801  30.482  1.00  0.00     0.049 A 
ATOM     65  H   UNL A   1      45.218  32.872  29.745  1.00  0.00     0.167 HD
ATOM     66  C   UNL A   1      43.282  34.417  31.127  1.00  0.00     0.074 A 
ATOM     67  C   UNL A   1      42.052  34.802  31.787  1.00  0.00     0.031 C 
ATOM     68  C   UNL A   1      44.397  35.188  31.088  1.00  0.00     0.034 A 
BRANCH  55  69
ATOM     69  C   UNL A   1      49.223  32.499  28.316  1.00  0.00     0.023 A 
ATOM     70  C   UNL A   1      50.217  32.085  29.227  1.00  0.00     0.012 A 
ATOM     71  C   UNL A   1      49.600  32.941  27.033  1.00  0.00     0.148 A 
ATOM     72  C   UNL A   1      51.566  32.142  28.879  1.00  0.00     0.002 A 
ATOM     73  C   UNL A   1      50.943  32.947  26.676  1.00  0.00     0.091 A 
ATOM     74  F   UNL A   1      48.642  33.356  26.193  1.00  0.00    -0.205 F 
ATOM     75  C   UNL A   1      51.927  32.562  27.601  1.00  0.00     0.022 A 
BRANCH  73  76
ATOM     76  S   UNL A   1      51.503  33.393  25.030  1.00  0.00     0.127 S 
ATOM     77  O   UNL A   1      50.519  34.405  24.648  1.00  0.00    -0.237 OA
ATOM     78  O   UNL A   1      52.844  33.915  25.294  1.00  0.00    -0.237 OA
ATOM     79  O   UNL A   1      51.470  32.166  24.247  1.00  0.00    -0.744 OA
ENDBRANCH  73  76
ENDBRANCH  55  69
BRANCH  56  80
ATOM     80  C   UNL A   1      39.642  31.424  30.999  1.00  0.00     0.023 A 
ATOM     81  C   UNL A   1      39.368  30.706  32.178  1.00  0.00     0.012 A 
ATOM     82  C   UNL A   1      38.573  31.974  30.265  1.00  0.00     0.148 A 
ATOM     83  C   UNL A   1      38.052  30.507  32.600  1.00  0.00     0.002 A 
ATOM     84  C   UNL A   1      37.269  31.821  30.721  1.00  0.00     0.091 A 
ATOM     85  F   UNL A   1      38.853  32.641  29.137  1.00  0.00    -0.205 F 
ATOM     86  C   UNL A   1      37.004  31.072  31.878  1.00  0.00     0.022 A 
BRANCH  84  87
ATOM     87  S   UNL A   1      35.868  32.616  29.926  1.00  0.00     0.127 S 
ATOM     88  O   UNL A   1      36.297  34.012  29.891  1.00  0.00    -0.237 OA
ATOM     89  O   UNL A   1      35.842  31.945  28.626  1.00  0.00    -0.237 OA
ATOM     90  O   UNL A   1      34.718  32.331  30.774  1.00  0.00    -0.744 OA
ENDBRANCH  84  87
ENDBRANCH  56  80
BRANCH  68  91
ATOM     91  C   UNL A   1      44.334  36.551  31.729  1.00  0.00     0.023 A 
ATOM     92  C   UNL A   1      43.975  37.677  30.963  1.00  0.00     0.012 A 
ATOM     93  C   UNL A   1      44.554  36.698  33.114  1.00  0.00     0.148 A 
ATOM     94  C   UNL A   1      43.871  38.934  31.557  1.00  0.00     0.002 A 
ATOM     95  C   UNL A   1      44.396  37.944  33.709  1.00  0.00     0.091 A 
ATOM     96  F   UNL A   1      44.909  35.618  33.824  1.00  0.00    -0.205 F 
ATOM     97  C   UNL A   1      44.069  39.066  32.930  1.00  0.00     0.022 A 
BRANCH  95  98
ATOM     98  S   UNL A   1      44.530  38.188  35.483  1.00  0.00     0.127 S 
ATOM     99  O   UNL A   1      43.509  37.270  35.987  1.00  0.00    -0.237 OA
ATOM    100  O   UNL A   1      45.907  37.774  35.749  1.00  0.00    -0.237 OA
ATOM    101  O   UNL A   1      44.268  39.602  35.717  1.00  0.00    -0.744 OA
ENDBRANCH  95  98
ENDBRANCH  68  91
ENDBRANCH  42  43
ENDBRANCH  35  37
ENDBRANCH  34  35
ENDBRANCH  33  34
ENDBRANCH  32  33
ENDBRANCH  31  32
ENDBRANCH  30  31
ENDBRANCH  29  30
ENDBRANCH  28  29
ENDBRANCH   1  28
TORSDOF 27
ENDMDL
MODEL 3
REMARK VINA RESULT:      -8.3      5.818      8.685
REMARK SMILES CC(C)(C)c1csc(C[NH2+][C@H]2CCC[C@@H](C(=O)OCCOCCOCCOCCOC(=O)c3ccc(-c4c5nc(c(-c6cccc(S(=O)(=O)[O-])c6F)c6ccc([nH]6)c(-c6cccc(S(=O)(=O)[O-])c6F)c6nc(c(-c7cccc(S(=O)(=O)[O-])c7F)c7ccc4[nH]7)C=C6)C=C5)cc3)C2)n1
REMARK SMILES IDX 23 1 22 2 21 3 20 4 19 5 18 6 16 7 17 8 15 9 11 10 12 11
REMARK SMILES IDX 96 12 13 13 14 14 10 15 9 18 8 19 5 20 6 21 97 22 7 23 2 24
REMARK SMILES IDX 1 25 3 26 4 27 24 28 25 29 26 30 27 31 28 32 29 33 30 34
REMARK SMILES IDX 31 35 32 36 33 37 34 38 95 39 35 40 94 41 36 42 37 43 38 44
REMARK SMILES IDX 88 45 39 46 93 47 87 48 89 49 40 50 92 51 86 52 85 53 41 55
REMARK SMILES IDX 73 56 53 57 72 58 54 59 57 60 71 61 90 62 55 63 56 64 70 66
REMARK SMILES IDX 91 67 58 68 42 69 43 70 51 71 44 72 46 73 52 74 45 75 47 76
REMARK SMILES IDX 48 77 49 78 50 79 74 80 75 81 83 82 76 83 78 84 84 85 77 86
REMARK SMILES IDX 79 87 80 88 81 89 82 90 59 91 60 92 68 93 61 94 63 95 69 96
REMARK SMILES IDX 62 97 64 98 65 99 66 100 67 101
REMARK H PARENT 10 16 10 17 89 54 57 65
REMARK Flexibility Score: inf
ROOT
ATOM      1  C   UNL A   1      40.281  22.444  27.076  1.00  0.00     0.188 C 
ENDROOT
BRANCH   1   2
ATOM      2  C   UNL A   1      39.537  21.469  26.134  1.00  0.00     0.188 C 
BRANCH   2   3
ATOM      3  O   UNL A   1      38.249  21.906  25.720  1.00  0.00    -0.376 OA
BRANCH   3   4
ATOM      4  C   UNL A   1      37.384  20.960  25.108  1.00  0.00     0.202 C 
BRANCH   4   5
ATOM      5  C   UNL A   1      35.959  21.445  24.777  1.00  0.00     0.261 C 
BRANCH   5   6
ATOM      6  O   UNL A   1      34.932  21.003  25.695  1.00  0.00    -0.463 OA
BRANCH   6   7
ATOM      7  C   UNL A   1      34.153  21.977  26.214  1.00  0.00     0.309 C 
ATOM      8  O   UNL A   1      34.618  22.921  26.837  1.00  0.00    -0.252 OA
BRANCH   7   9
ATOM      9  C   UNL A   1      32.662  21.772  25.933  1.00  0.00     0.105 C 
ATOM     10  C   UNL A   1      32.130  23.718  24.261  1.00  0.00     0.183 C 
ATOM     11  C   UNL A   1      31.698  22.658  23.237  1.00  0.00     0.065 C 
ATOM     12  C   UNL A   1      31.963  23.127  25.695  1.00  0.00     0.080 C 
ATOM     13  C   UNL A   1      32.474  21.358  23.392  1.00  0.00     0.007 C 
ATOM     14  C   UNL A   1      32.297  20.799  24.802  1.00  0.00     0.016 C 
BRANCH  10  15
ATOM     15  N   UNL A   1      33.471  24.275  24.102  1.00  0.00    -0.338 N 
ATOM     16  H   UNL A   1      33.801  24.511  25.037  1.00  0.00     0.346 HD
ATOM     17  H   UNL A   1      33.966  23.540  23.595  1.00  0.00     0.346 HD
BRANCH  15  18
ATOM     18  C   UNL A   1      33.691  25.454  23.270  1.00  0.00     0.329 C 
BRANCH  18  19
ATOM     19  C   UNL A   1      33.028  26.712  23.819  1.00  0.00     0.147 A 
ATOM     20  C   UNL A   1      32.419  28.285  25.293  1.00  0.00     0.057 A 
ATOM     21  C   UNL A   1      31.732  28.732  24.179  1.00  0.00     0.091 A 
ATOM     22  N   UNL A   1      33.157  27.123  25.067  1.00  0.00    -0.240 NA
ATOM     23  S   UNL A   1      32.050  27.727  22.830  1.00  0.00    -0.121 S 
BRANCH  20  24
ATOM     24  C   UNL A   1      32.503  28.938  26.668  1.00  0.00     0.005 C 
ATOM     25  C   UNL A   1      33.928  28.895  27.261  1.00  0.00     0.017 C 
ATOM     26  C   UNL A   1      31.560  28.191  27.633  1.00  0.00     0.017 C 
ATOM     27  C   UNL A   1      32.074  30.416  26.594  1.00  0.00     0.017 C 
ENDBRANCH  20  24
ENDBRANCH  18  19
ENDBRANCH  15  18
ENDBRANCH  10  15
ENDBRANCH   7   9
ENDBRANCH   6   7
ENDBRANCH   5   6
ENDBRANCH   4   5
ENDBRANCH   3   4
ENDBRANCH   2   3
ENDBRANCH   1   2
BRANCH   1  28
ATOM     28  O   UNL A   1      40.020  23.831  26.996  1.00  0.00    -0.377 OA
BRANCH  28  29
ATOM     29  C   UNL A   1      41.148  24.674  27.072  1.00  0.00     0.188 C 
BRANCH  29  30
ATOM     30  C   UNL A   1      40.985  25.782  28.126  1.00  0.00     0.188 C 
BRANCH  30  31
ATOM     31  O   UNL A   1      39.708  26.084  28.665  1.00  0.00    -0.376 OA
BRANCH  31  32
ATOM     32  C   UNL A   1      39.203  27.406  28.764  1.00  0.00     0.202 C 
BRANCH  32  33
ATOM     33  C   UNL A   1      38.674  28.096  30.040  1.00  0.00     0.261 C 
BRANCH  33  34
ATOM     34  O   UNL A   1      39.245  27.750  31.297  1.00  0.00    -0.460 OA
BRANCH  34  35
ATOM     35  C   UNL A   1      38.597  28.194  32.393  1.00  0.00     0.338 C 
ATOM     36  O   UNL A   1      37.724  27.615  33.019  1.00  0.00    -0.246 OA
BRANCH  35  37
ATOM     37  C   UNL A   1      39.282  29.424  32.841  1.00  0.00     0.060 A 
ATOM     38  C   UNL A   1      38.529  30.602  32.957  1.00  0.00     0.016 A 
ATOM     39  C   UNL A   1      40.629  29.402  33.211  1.00  0.00     0.016 A 
ATOM     40  C   UNL A   1      39.124  31.767  33.428  1.00  0.00     0.010 A 
ATOM     41  C   UNL A   1      41.238  30.584  33.635  1.00  0.00     0.010 A 
ATOM     42  C   UNL A   1      40.493  31.774  33.711  1.00  0.00    -0.014 A 
BRANCH  42  43
ATOM     43  C   UNL A   1      41.186  33.075  33.817  1.00  0.00     0.031 A 
ATOM     44  C   UNL A   1      41.691  33.694  32.544  1.00  0.00     0.074 A 
ATOM     45  C   UNL A   1      41.347  33.698  34.997  1.00  0.00     0.049 A 
ATOM     46  N   UNL A   1      42.344  34.811  32.367  1.00  0.00    -0.248 NA
ATOM     47  C   UNL A   1      41.423  32.948  31.301  1.00  0.00     0.031 C 
ATOM     48  C   UNL A   1      40.879  33.202  36.289  1.00  0.00     0.029 A 
ATOM     49  N   UNL A   1      41.975  34.881  35.294  1.00  0.00    -0.354 N 
ATOM     50  C   UNL A   1      42.589  34.886  31.001  1.00  0.00     0.074 A 
ATOM     51  C   UNL A   1      42.024  33.702  30.396  1.00  0.00     0.031 C 
ATOM     52  C   UNL A   1      41.269  34.060  37.249  1.00  0.00     0.029 A 
ATOM     53  C   UNL A   1      42.032  35.148  36.640  1.00  0.00     0.049 A 
ATOM     54  H   UNL A   1      42.350  35.479  34.608  1.00  0.00     0.167 HD
ATOM     55  C   UNL A   1      43.219  35.862  30.310  1.00  0.00     0.034 A 
ATOM     56  C   UNL A   1      42.654  36.146  37.299  1.00  0.00     0.034 A 
ATOM     57  C   UNL A   1      43.777  37.038  30.917  1.00  0.00     0.049 A 
ATOM     58  C   UNL A   1      43.388  37.202  36.508  1.00  0.00     0.074 A 
ATOM     59  C   UNL A   1      44.405  38.107  30.303  1.00  0.00     0.029 A 
ATOM     60  N   UNL A   1      43.791  37.292  32.279  1.00  0.00    -0.354 N 
ATOM     61  N   UNL A   1      43.518  37.322  35.208  1.00  0.00    -0.248 NA
ATOM     62  C   UNL A   1      44.035  38.277  37.275  1.00  0.00     0.031 C 
ATOM     63  C   UNL A   1      44.834  38.988  31.299  1.00  0.00     0.029 A 
ATOM     64  C   UNL A   1      44.432  38.492  32.529  1.00  0.00     0.049 A 
ATOM     65  H   UNL A   1      43.402  36.704  32.968  1.00  0.00     0.167 HD
ATOM     66  C   UNL A   1      44.222  38.503  35.001  1.00  0.00     0.074 A 
ATOM     67  C   UNL A   1      44.476  39.070  36.309  1.00  0.00     0.031 C 
ATOM     68  C   UNL A   1      44.631  39.066  33.836  1.00  0.00     0.034 A 
BRANCH  55  69
ATOM     69  C   UNL A   1      43.338  35.693  28.821  1.00  0.00     0.023 A 
ATOM     70  C   UNL A   1      42.331  36.196  27.972  1.00  0.00     0.012 A 
ATOM     71  C   UNL A   1      44.467  35.066  28.259  1.00  0.00     0.148 A 
ATOM     72  C   UNL A   1      42.429  36.049  26.589  1.00  0.00     0.002 A 
ATOM     73  C   UNL A   1      44.583  34.968  26.878  1.00  0.00     0.091 A 
ATOM     74  F   UNL A   1      45.399  34.569  29.084  1.00  0.00    -0.205 F 
ATOM     75  C   UNL A   1      43.559  35.446  26.042  1.00  0.00     0.022 A 
BRANCH  73  76
ATOM     76  S   UNL A   1      46.035  34.281  26.076  1.00  0.00     0.127 S 
ATOM     77  O   UNL A   1      45.664  34.376  24.664  1.00  0.00    -0.237 OA
ATOM     78  O   UNL A   1      47.083  35.212  26.494  1.00  0.00    -0.237 OA
ATOM     79  O   UNL A   1      46.179  32.928  26.591  1.00  0.00    -0.744 OA
ENDBRANCH  73  76
ENDBRANCH  55  69
BRANCH  56  80
ATOM     80  C   UNL A   1      42.598  36.212  38.787  1.00  0.00     0.023 A 
ATOM     81  C   UNL A   1      41.571  36.942  39.415  1.00  0.00     0.012 A 
ATOM     82  C   UNL A   1      43.557  35.554  39.581  1.00  0.00     0.148 A 
ATOM     83  C   UNL A   1      41.520  37.047  40.806  1.00  0.00     0.002 A 
ATOM     84  C   UNL A   1      43.469  35.615  40.967  1.00  0.00     0.091 A 
ATOM     85  F   UNL A   1      44.535  34.877  38.965  1.00  0.00    -0.205 F 
ATOM     86  C   UNL A   1      42.463  36.376  41.582  1.00  0.00     0.022 A 
BRANCH  84  87
ATOM     87  S   UNL A   1      44.562  34.685  42.046  1.00  0.00     0.127 S 
ATOM     88  O   UNL A   1      45.794  35.465  41.970  1.00  0.00    -0.237 OA
ATOM     89  O   UNL A   1      43.857  34.766  43.327  1.00  0.00    -0.237 OA
ATOM     90  O   UNL A   1      44.629  33.344  41.480  1.00  0.00    -0.744 OA
ENDBRANCH  84  87
ENDBRANCH  56  80
BRANCH  68  91
ATOM     91  C   UNL A   1      45.352  40.388  33.907  1.00  0.00     0.023 A 
ATOM     92  C   UNL A   1      46.760  40.425  33.951  1.00  0.00     0.012 A 
ATOM     93  C   UNL A   1      44.630  41.597  33.848  1.00  0.00     0.148 A 
ATOM     94  C   UNL A   1      47.435  41.644  33.972  1.00  0.00     0.002 A 
ATOM     95  C   UNL A   1      45.313  42.807  33.815  1.00  0.00     0.091 A 
ATOM     96  F   UNL A   1      43.291  41.542  33.822  1.00  0.00    -0.205 F 
ATOM     97  C   UNL A   1      46.714  42.833  33.891  1.00  0.00     0.022 A 
BRANCH  95  98
ATOM     98  S   UNL A   1      44.472  44.382  33.609  1.00  0.00     0.127 S 
ATOM     99  O   UNL A   1      43.367  44.255  34.557  1.00  0.00    -0.237 OA
ATOM    100  O   UNL A   1      45.507  45.338  34.003  1.00  0.00    -0.237 OA
ATOM    101  O   UNL A   1      44.086  44.452  32.207  1.00  0.00    -0.744 OA
ENDBRANCH  95  98
ENDBRANCH  68  91
ENDBRANCH  42  43
ENDBRANCH  35  37
ENDBRANCH  34  35
ENDBRANCH  33  34
ENDBRANCH  32  33
ENDBRANCH  31  32
ENDBRANCH  30  31
ENDBRANCH  29  30
ENDBRANCH  28  29
ENDBRANCH   1  28
TORSDOF 27
ENDMDL
