MODEL 1
REMARK VINA RESULT:      -6.2      0.000      0.000
REMARK SMILES Cc1c(CCC(=O)NCCCC(=O)OCCOCCOCCOCCOC(=O)c2ccc(-c3c4nc(c(-c5cccc(S(=O)(=O)[O-])c5F)c5ccc([nH]5)c(-c5cccc(S(=O)(=O)[O-])c5F)c5nc(c(-c6cccc(S(=O)(=O)[O-])c6F)c6ccc3[nH]6)C=C5)C=C4)cc2)c(=O)oc2cc3c(cc12)CCC(C)(C)O3
REMARK SMILES IDX 18 1 17 2 16 3 15 4 14 5 12 6 13 7 11 8 10 9 9 10 8 11 6 12
REMARK SMILES IDX 7 13 5 15 4 16 3 17 1 18 2 19 100 20 92 21 95 22 99 23 93 24
REMARK SMILES IDX 94 25 96 26 98 27 97 28 101 29 106 30 102 31 103 32 104 33
REMARK SMILES IDX 105 34 19 35 20 36 21 37 22 38 23 39 24 40 25 41 26 42 27 43
REMARK SMILES IDX 28 44 29 45 30 46 91 47 31 48 90 49 32 50 33 51 34 52 84 53
REMARK SMILES IDX 35 54 89 55 83 56 85 57 36 58 88 59 82 60 81 61 37 63 69 64
REMARK SMILES IDX 49 65 68 66 50 67 53 68 67 69 86 70 51 71 52 72 66 74 87 75
REMARK SMILES IDX 54 76 38 77 39 78 47 79 40 80 42 81 48 82 41 83 43 84 44 85
REMARK SMILES IDX 45 86 46 87 70 88 71 89 79 90 72 91 74 92 80 93 73 94 75 95
REMARK SMILES IDX 76 96 77 97 78 98 55 99 56 100 64 101 57 102 59 103 65 104
REMARK SMILES IDX 58 105 60 106 61 107 62 108 63 109
REMARK H PARENT 8 14 85 62 53 73
REMARK Flexibility Score: inf
ROOT
ATOM      1  C   UNL A   1      37.659  32.877  36.008  1.00  0.00     0.188 C 
ENDROOT
BRANCH   1   2
ATOM      2  O   UNL A   1      36.380  32.650  35.435  1.00  0.00    -0.376 OA
BRANCH   2   3
ATOM      3  C   UNL A   1      36.006  33.309  34.231  1.00  0.00     0.202 C 
BRANCH   3   4
ATOM      4  C   UNL A   1      36.555  34.694  33.875  1.00  0.00     0.261 C 
BRANCH   4   5
ATOM      5  O   UNL A   1      37.675  34.712  32.978  1.00  0.00    -0.463 OA
BRANCH   5   6
ATOM      6  C   UNL A   1      38.891  34.850  33.566  1.00  0.00     0.305 C 
ATOM      7  O   UNL A   1      39.127  35.536  34.553  1.00  0.00    -0.252 OA
BRANCH   6   8
ATOM      8  C   UNL A   1      39.976  34.096  32.840  1.00  0.00     0.124 C 
BRANCH   8   9
ATOM      9  C   UNL A   1      40.330  32.753  33.453  1.00  0.00     0.033 C 
BRANCH   9  10
ATOM     10  C   UNL A   1      39.428  31.584  33.070  1.00  0.00     0.116 C 
BRANCH  10  11
ATOM     11  N   UNL A   1      40.238  30.376  33.043  1.00  0.00    -0.356 N 
ATOM     12  C   UNL A   1      40.764  29.748  31.950  1.00  0.00     0.220 C 
ATOM     13  O   UNL A   1      40.934  28.530  31.996  1.00  0.00    -0.275 OA
ATOM     14  H   UNL A   1      40.429  29.961  33.915  1.00  0.00     0.163 HD
BRANCH  12  15
ATOM     15  C   UNL A   1      41.177  30.555  30.732  1.00  0.00     0.105 C 
BRANCH  15  16
ATOM     16  C   UNL A   1      40.230  30.404  29.532  1.00  0.00     0.053 C 
BRANCH  16  17
ATOM     17  C   UNL A   1      40.341  29.059  28.834  1.00  0.00     0.042 A 
ATOM     18  C   UNL A   1      42.559  29.513  27.698  1.00  0.00     0.046 C 
ATOM     19  C   UNL A   1      41.383  28.647  28.077  1.00  0.00    -0.030 A 
ATOM     20  C   UNL A   1      41.424  27.221  27.690  1.00  0.00     0.021 A 
ATOM     21  C   UNL A   1      39.130  28.191  28.991  1.00  0.00     0.339 A 
ATOM     22  C   UNL A   1      40.249  26.480  27.733  1.00  0.00     0.142 A 
ATOM     23  C   UNL A   1      42.613  26.521  27.432  1.00  0.00     0.019 A 
ATOM     24  O   UNL A   1      38.194  28.512  29.714  1.00  0.00    -0.246 OA
ATOM     25  O   UNL A   1      39.058  27.053  28.198  1.00  0.00    -0.422 OA
ATOM     26  C   UNL A   1      40.219  25.111  27.455  1.00  0.00     0.094 A 
ATOM     27  C   UNL A   1      42.623  25.120  27.292  1.00  0.00    -0.005 A 
ATOM     28  C   UNL A   1      41.415  24.425  27.253  1.00  0.00     0.127 A 
ATOM     29  C   UNL A   1      43.935  24.391  27.250  1.00  0.00     0.043 C 
ATOM     30  O   UNL A   1      41.318  23.069  27.127  1.00  0.00    -0.487 OA
ATOM     31  C   UNL A   1      43.762  22.913  27.565  1.00  0.00     0.053 C 
ATOM     32  C   UNL A   1      42.524  22.322  26.877  1.00  0.00     0.104 C 
ATOM     33  C   UNL A   1      42.734  22.223  25.362  1.00  0.00     0.056 C 
ATOM     34  C   UNL A   1      42.267  20.911  27.433  1.00  0.00     0.056 C 
ENDBRANCH  16  17
ENDBRANCH  15  16
ENDBRANCH  12  15
ENDBRANCH  10  11
ENDBRANCH   9  10
ENDBRANCH   8   9
ENDBRANCH   6   8
ENDBRANCH   5   6
ENDBRANCH   4   5
ENDBRANCH   3   4
ENDBRANCH   2   3
ENDBRANCH   1   2
BRANCH   1  35
ATOM     35  C   UNL A   1      38.006  32.341  37.394  1.00  0.00     0.188 C 
BRANCH  35  36
ATOM     36  O   UNL A   1      36.883  32.273  38.236  1.00  0.00    -0.377 OA
BRANCH  36  37
ATOM     37  C   UNL A   1      37.115  31.713  39.526  1.00  0.00     0.188 C 
BRANCH  37  38
ATOM     38  C   UNL A   1      37.321  32.620  40.768  1.00  0.00     0.188 C 
BRANCH  38  39
ATOM     39  O   UNL A   1      38.136  32.088  41.810  1.00  0.00    -0.376 OA
BRANCH  39  40
ATOM     40  C   UNL A   1      39.549  32.140  41.642  1.00  0.00     0.202 C 
BRANCH  40  41
ATOM     41  C   UNL A   1      40.044  33.001  40.470  1.00  0.00     0.261 C 
BRANCH  41  42
ATOM     42  O   UNL A   1      41.009  32.369  39.619  1.00  0.00    -0.460 OA
BRANCH  42  43
ATOM     43  C   UNL A   1      41.970  33.145  39.068  1.00  0.00     0.338 C 
ATOM     44  O   UNL A   1      42.495  34.125  39.566  1.00  0.00    -0.246 OA
BRANCH  43  45
ATOM     45  C   UNL A   1      42.447  32.438  37.859  1.00  0.00     0.060 A 
ATOM     46  C   UNL A   1      41.563  31.688  37.078  1.00  0.00     0.016 A 
ATOM     47  C   UNL A   1      43.820  32.441  37.573  1.00  0.00     0.016 A 
ATOM     48  C   UNL A   1      42.050  30.971  35.983  1.00  0.00     0.010 A 
ATOM     49  C   UNL A   1      44.307  31.706  36.490  1.00  0.00     0.010 A 
ATOM     50  C   UNL A   1      43.420  30.994  35.669  1.00  0.00    -0.014 A 
BRANCH  50  51
ATOM     51  C   UNL A   1      43.867  30.521  34.338  1.00  0.00     0.031 A 
ATOM     52  C   UNL A   1      43.975  31.416  33.142  1.00  0.00     0.074 A 
ATOM     53  C   UNL A   1      44.147  29.207  34.234  1.00  0.00     0.049 A 
ATOM     54  N   UNL A   1      44.460  31.134  31.961  1.00  0.00    -0.248 NA
ATOM     55  C   UNL A   1      43.474  32.792  33.274  1.00  0.00     0.031 C 
ATOM     56  C   UNL A   1      43.994  28.235  35.321  1.00  0.00     0.029 A 
ATOM     57  N   UNL A   1      44.600  28.458  33.180  1.00  0.00    -0.354 N 
ATOM     58  C   UNL A   1      44.328  32.290  31.202  1.00  0.00     0.074 A 
ATOM     59  C   UNL A   1      43.693  33.276  32.053  1.00  0.00     0.031 C 
ATOM     60  C   UNL A   1      44.347  27.022  34.879  1.00  0.00     0.029 A 
ATOM     61  C   UNL A   1      44.748  27.124  33.480  1.00  0.00     0.049 A 
ATOM     62  H   UNL A   1      44.801  28.838  32.295  1.00  0.00     0.167 HD
ATOM     63  C   UNL A   1      44.725  32.502  29.924  1.00  0.00     0.034 A 
ATOM     64  C   UNL A   1      45.170  26.096  32.722  1.00  0.00     0.034 A 
ATOM     65  C   UNL A   1      45.367  31.505  29.101  1.00  0.00     0.049 A 
ATOM     66  C   UNL A   1      45.637  26.375  31.323  1.00  0.00     0.074 A 
ATOM     67  C   UNL A   1      45.888  31.655  27.827  1.00  0.00     0.029 A 
ATOM     68  N   UNL A   1      45.560  30.179  29.456  1.00  0.00    -0.354 N 
ATOM     69  N   UNL A   1      45.692  27.521  30.689  1.00  0.00    -0.248 NA
ATOM     70  C   UNL A   1      46.142  25.235  30.546  1.00  0.00     0.031 C 
ATOM     71  C   UNL A   1      46.365  30.413  27.400  1.00  0.00     0.029 A 
ATOM     72  C   UNL A   1      46.174  29.496  28.419  1.00  0.00     0.049 A 
ATOM     73  H   UNL A   1      45.300  29.781  30.318  1.00  0.00     0.167 HD
ATOM     74  C   UNL A   1      46.267  27.248  29.456  1.00  0.00     0.074 A 
ATOM     75  C   UNL A   1      46.562  25.830  29.436  1.00  0.00     0.031 C 
ATOM     76  C   UNL A   1      46.514  28.096  28.429  1.00  0.00     0.034 A 
BRANCH  63  77
ATOM     77  C   UNL A   1      44.567  33.878  29.326  1.00  0.00     0.023 A 
ATOM     78  C   UNL A   1      43.318  34.247  28.788  1.00  0.00     0.012 A 
ATOM     79  C   UNL A   1      45.574  34.855  29.467  1.00  0.00     0.148 A 
ATOM     80  C   UNL A   1      43.073  35.563  28.398  1.00  0.00     0.002 A 
ATOM     81  C   UNL A   1      45.309  36.174  29.111  1.00  0.00     0.091 A 
ATOM     82  F   UNL A   1      46.758  34.483  29.976  1.00  0.00    -0.205 F 
ATOM     83  C   UNL A   1      44.061  36.528  28.573  1.00  0.00     0.022 A 
BRANCH  81  84
ATOM     84  S   UNL A   1      46.479  37.513  29.377  1.00  0.00     0.127 S 
ATOM     85  O   UNL A   1      47.606  37.086  28.548  1.00  0.00    -0.237 OA
ATOM     86  O   UNL A   1      45.746  38.668  28.860  1.00  0.00    -0.237 OA
ATOM     87  O   UNL A   1      46.742  37.542  30.809  1.00  0.00    -0.744 OA
ENDBRANCH  81  84
ENDBRANCH  63  77
BRANCH  64  88
ATOM     88  C   UNL A   1      45.256  24.735  33.319  1.00  0.00     0.023 A 
ATOM     89  C   UNL A   1      44.183  23.839  33.154  1.00  0.00     0.012 A 
ATOM     90  C   UNL A   1      46.422  24.300  33.978  1.00  0.00     0.148 A 
ATOM     91  C   UNL A   1      44.258  22.543  33.661  1.00  0.00     0.002 A 
ATOM     92  C   UNL A   1      46.513  22.988  34.427  1.00  0.00     0.091 A 
ATOM     93  F   UNL A   1      47.430  25.171  34.130  1.00  0.00    -0.205 F 
ATOM     94  C   UNL A   1      45.426  22.113  34.285  1.00  0.00     0.022 A 
BRANCH  92  95
ATOM     95  S   UNL A   1      48.034  22.311  35.104  1.00  0.00     0.127 S 
ATOM     96  O   UNL A   1      49.028  22.801  34.153  1.00  0.00    -0.237 OA
ATOM     97  O   UNL A   1      48.084  22.936  36.425  1.00  0.00    -0.237 OA
ATOM     98  O   UNL A   1      47.839  20.868  35.133  1.00  0.00    -0.744 OA
ENDBRANCH  92  95
ENDBRANCH  64  88
BRANCH  76  99
ATOM     99  C   UNL A   1      47.151  27.538  27.183  1.00  0.00     0.023 A 
ATOM    100  C   UNL A   1      46.339  26.977  26.179  1.00  0.00     0.012 A 
ATOM    101  C   UNL A   1      48.532  27.697  26.950  1.00  0.00     0.148 A 
ATOM    102  C   UNL A   1      46.892  26.573  24.964  1.00  0.00     0.002 A 
ATOM    103  C   UNL A   1      49.067  27.339  25.719  1.00  0.00     0.091 A 
ATOM    104  F   UNL A   1      49.287  28.219  27.926  1.00  0.00    -0.205 F 
ATOM    105  C   UNL A   1      48.250  26.769  24.728  1.00  0.00     0.022 A 
BRANCH 103 106
ATOM    106  S   UNL A   1      50.781  27.652  25.278  1.00  0.00     0.127 S 
ATOM    107  O   UNL A   1      50.773  29.098  25.063  1.00  0.00    -0.237 OA
ATOM    108  O   UNL A   1      51.492  27.218  26.480  1.00  0.00    -0.237 OA
ATOM    109  O   UNL A   1      51.047  26.851  24.090  1.00  0.00    -0.744 OA
ENDBRANCH 103 106
ENDBRANCH  76  99
ENDBRANCH  50  51
ENDBRANCH  43  45
ENDBRANCH  42  43
ENDBRANCH  41  42
ENDBRANCH  40  41
ENDBRANCH  39  40
ENDBRANCH  38  39
ENDBRANCH  37  38
ENDBRANCH  36  37
ENDBRANCH  35  36
ENDBRANCH   1  35
TORSDOF 29
ENDMDL
MODEL 2
REMARK VINA RESULT:      -6.1      6.079     13.917
REMARK SMILES Cc1c(CCC(=O)NCCCC(=O)OCCOCCOCCOCCOC(=O)c2ccc(-c3c4nc(c(-c5cccc(S(=O)(=O)[O-])c5F)c5ccc([nH]5)c(-c5cccc(S(=O)(=O)[O-])c5F)c5nc(c(-c6cccc(S(=O)(=O)[O-])c6F)c6ccc3[nH]6)C=C5)C=C4)cc2)c(=O)oc2cc3c(cc12)CCC(C)(C)O3
REMARK SMILES IDX 18 1 17 2 16 3 15 4 14 5 12 6 13 7 11 8 10 9 9 10 8 11 6 12
REMARK SMILES IDX 7 13 5 15 4 16 3 17 1 18 2 19 100 20 92 21 95 22 99 23 93 24
REMARK SMILES IDX 94 25 96 26 98 27 97 28 101 29 106 30 102 31 103 32 104 33
REMARK SMILES IDX 105 34 19 35 20 36 21 37 22 38 23 39 24 40 25 41 26 42 27 43
REMARK SMILES IDX 28 44 29 45 30 46 91 47 31 48 90 49 32 50 33 51 34 52 84 53
REMARK SMILES IDX 35 54 89 55 83 56 85 57 36 58 88 59 82 60 81 61 37 63 69 64
REMARK SMILES IDX 49 65 68 66 50 67 53 68 67 69 86 70 51 71 52 72 66 74 87 75
REMARK SMILES IDX 54 76 38 77 39 78 47 79 40 80 42 81 48 82 41 83 43 84 44 85
REMARK SMILES IDX 45 86 46 87 70 88 71 89 79 90 72 91 74 92 80 93 73 94 75 95
REMARK SMILES IDX 76 96 77 97 78 98 55 99 56 100 64 101 57 102 59 103 65 104
REMARK SMILES IDX 58 105 60 106 61 107 62 108 63 109
REMARK H PARENT 8 14 85 62 53 73
REMARK Flexibility Score: inf
ROOT
ATOM      1  C   UNL A   1      40.647  27.126  27.913  1.00  0.00     0.188 C 
ENDROOT
BRANCH   1   2
ATOM      2  O   UNL A   1      39.484  26.315  27.984  1.00  0.00    -0.376 OA
BRANCH   2   3
ATOM      3  C   UNL A   1      39.573  24.912  27.764  1.00  0.00     0.202 C 
BRANCH   3   4
ATOM      4  C   UNL A   1      39.203  24.291  26.412  1.00  0.00     0.261 C 
BRANCH   4   5
ATOM      5  O   UNL A   1      38.238  23.229  26.455  1.00  0.00    -0.463 OA
BRANCH   5   6
ATOM      6  C   UNL A   1      37.061  23.484  25.829  1.00  0.00     0.305 C 
ATOM      7  O   UNL A   1      36.940  23.820  24.657  1.00  0.00    -0.252 OA
BRANCH   6   8
ATOM      8  C   UNL A   1      35.874  23.362  26.751  1.00  0.00     0.124 C 
BRANCH   8   9
ATOM      9  C   UNL A   1      34.526  23.466  26.062  1.00  0.00     0.033 C 
BRANCH   9  10
ATOM     10  C   UNL A   1      33.617  22.246  26.182  1.00  0.00     0.116 C 
BRANCH  10  11
ATOM     11  N   UNL A   1      34.164  21.190  25.345  1.00  0.00    -0.356 N 
ATOM     12  C   UNL A   1      33.487  20.373  24.483  1.00  0.00     0.220 C 
ATOM     13  O   UNL A   1      33.927  19.242  24.277  1.00  0.00    -0.275 OA
ATOM     14  H   UNL A   1      35.136  21.045  25.406  1.00  0.00     0.163 HD
BRANCH  12  15
ATOM     15  C   UNL A   1      32.252  20.882  23.761  1.00  0.00     0.105 C 
BRANCH  15  16
ATOM     16  C   UNL A   1      32.560  21.786  22.559  1.00  0.00     0.053 C 
BRANCH  16  17
ATOM     17  C   UNL A   1      32.710  23.254  22.924  1.00  0.00     0.042 A 
ATOM     18  C   UNL A   1      30.281  23.643  23.529  1.00  0.00     0.046 C 
ATOM     19  C   UNL A   1      31.727  24.052  23.400  1.00  0.00    -0.030 A 
ATOM     20  C   UNL A   1      32.120  25.374  23.931  1.00  0.00     0.021 A 
ATOM     21  C   UNL A   1      34.072  23.813  22.649  1.00  0.00     0.339 A 
ATOM     22  C   UNL A   1      33.343  25.913  23.554  1.00  0.00     0.142 A 
ATOM     23  C   UNL A   1      31.401  26.054  24.928  1.00  0.00     0.019 A 
ATOM     24  O   UNL A   1      34.997  23.103  22.270  1.00  0.00    -0.246 OA
ATOM     25  O   UNL A   1      34.222  25.191  22.736  1.00  0.00    -0.422 OA
ATOM     26  C   UNL A   1      33.819  27.121  24.071  1.00  0.00     0.094 A 
ATOM     27  C   UNL A   1      31.929  27.194  25.564  1.00  0.00    -0.005 A 
ATOM     28  C   UNL A   1      33.116  27.754  25.095  1.00  0.00     0.127 A 
ATOM     29  C   UNL A   1      31.238  27.750  26.776  1.00  0.00     0.043 C 
ATOM     30  O   UNL A   1      33.713  28.851  25.645  1.00  0.00    -0.487 OA
ATOM     31  C   UNL A   1      32.165  28.647  27.583  1.00  0.00     0.053 C 
ATOM     32  C   UNL A   1      33.005  29.561  26.681  1.00  0.00     0.104 C 
ATOM     33  C   UNL A   1      32.134  30.639  26.029  1.00  0.00     0.056 C 
ATOM     34  C   UNL A   1      34.087  30.248  27.533  1.00  0.00     0.056 C 
ENDBRANCH  16  17
ENDBRANCH  15  16
ENDBRANCH  12  15
ENDBRANCH  10  11
ENDBRANCH   9  10
ENDBRANCH   8   9
ENDBRANCH   6   8
ENDBRANCH   5   6
ENDBRANCH   4   5
ENDBRANCH   3   4
ENDBRANCH   2   3
ENDBRANCH   1   2
BRANCH   1  35
ATOM     35  C   UNL A   1      41.893  26.650  27.173  1.00  0.00     0.188 C 
BRANCH  35  36
ATOM     36  O   UNL A   1      41.796  26.848  25.785  1.00  0.00    -0.377 OA
BRANCH  36  37
ATOM     37  C   UNL A   1      43.033  27.044  25.104  1.00  0.00     0.188 C 
BRANCH  37  38
ATOM     38  C   UNL A   1      44.301  27.513  25.866  1.00  0.00     0.188 C 
BRANCH  38  39
ATOM     39  O   UNL A   1      44.577  28.912  25.828  1.00  0.00    -0.376 OA
BRANCH  39  40
ATOM     40  C   UNL A   1      45.659  29.398  26.615  1.00  0.00     0.202 C 
BRANCH  40  41
ATOM     41  C   UNL A   1      45.969  30.895  26.462  1.00  0.00     0.261 C 
BRANCH  41  42
ATOM     42  O   UNL A   1      44.835  31.723  26.177  1.00  0.00    -0.460 OA
BRANCH  42  43
ATOM     43  C   UNL A   1      45.044  33.050  26.017  1.00  0.00     0.338 C 
ATOM     44  O   UNL A   1      45.170  33.649  24.963  1.00  0.00    -0.246 OA
BRANCH  43  45
ATOM     45  C   UNL A   1      44.839  33.676  27.341  1.00  0.00     0.060 A 
ATOM     46  C   UNL A   1      43.613  34.262  27.668  1.00  0.00     0.016 A 
ATOM     47  C   UNL A   1      45.928  33.770  28.219  1.00  0.00     0.016 A 
ATOM     48  C   UNL A   1      43.465  34.910  28.896  1.00  0.00     0.010 A 
ATOM     49  C   UNL A   1      45.784  34.437  29.438  1.00  0.00     0.010 A 
ATOM     50  C   UNL A   1      44.542  34.982  29.798  1.00  0.00    -0.014 A 
BRANCH  50  51
ATOM     51  C   UNL A   1      44.285  35.361  31.206  1.00  0.00     0.031 A 
ATOM     52  C   UNL A   1      43.759  34.404  32.232  1.00  0.00     0.074 A 
ATOM     53  C   UNL A   1      44.516  36.649  31.530  1.00  0.00     0.049 A 
ATOM     54  N   UNL A   1      43.603  34.598  33.516  1.00  0.00    -0.248 NA
ATOM     55  C   UNL A   1      43.347  33.071  31.771  1.00  0.00     0.031 C 
ATOM     56  C   UNL A   1      44.951  37.680  30.582  1.00  0.00     0.029 A 
ATOM     57  N   UNL A   1      44.410  37.317  32.722  1.00  0.00    -0.354 N 
ATOM     58  C   UNL A   1      43.078  33.418  34.025  1.00  0.00     0.074 A 
ATOM     59  C   UNL A   1      42.919  32.516  32.902  1.00  0.00     0.031 C 
ATOM     60  C   UNL A   1      45.075  38.846  31.228  1.00  0.00     0.029 A 
ATOM     61  C   UNL A   1      44.727  38.652  32.631  1.00  0.00     0.049 A 
ATOM     62  H   UNL A   1      44.134  36.883  33.561  1.00  0.00     0.167 HD
ATOM     63  C   UNL A   1      42.782  33.121  35.313  1.00  0.00     0.034 A 
ATOM     64  C   UNL A   1      44.748  39.613  33.571  1.00  0.00     0.034 A 
ATOM     65  C   UNL A   1      42.962  34.034  36.415  1.00  0.00     0.049 A 
ATOM     66  C   UNL A   1      44.452  39.239  34.994  1.00  0.00     0.074 A 
ATOM     67  C   UNL A   1      42.778  33.791  37.766  1.00  0.00     0.029 A 
ATOM     68  N   UNL A   1      43.346  35.361  36.299  1.00  0.00    -0.354 N 
ATOM     69  N   UNL A   1      44.151  38.062  35.488  1.00  0.00    -0.248 NA
ATOM     70  C   UNL A   1      44.540  40.307  35.999  1.00  0.00     0.031 C 
ATOM     71  C   UNL A   1      43.018  34.979  38.462  1.00  0.00     0.029 A 
ATOM     72  C   UNL A   1      43.385  35.954  37.551  1.00  0.00     0.049 A 
ATOM     73  H   UNL A   1      43.559  35.816  35.452  1.00  0.00     0.167 HD
ATOM     74  C   UNL A   1      44.048  38.240  36.860  1.00  0.00     0.074 A 
ATOM     75  C   UNL A   1      44.336  39.634  37.126  1.00  0.00     0.031 C 
ATOM     76  C   UNL A   1      43.727  37.329  37.811  1.00  0.00     0.034 A 
BRANCH  63  77
ATOM     77  C   UNL A   1      42.308  31.729  35.654  1.00  0.00     0.023 A 
ATOM     78  C   UNL A   1      40.956  31.399  35.432  1.00  0.00     0.012 A 
ATOM     79  C   UNL A   1      43.219  30.712  36.004  1.00  0.00     0.148 A 
ATOM     80  C   UNL A   1      40.518  30.080  35.554  1.00  0.00     0.002 A 
ATOM     81  C   UNL A   1      42.782  29.394  36.087  1.00  0.00     0.091 A 
ATOM     82  F   UNL A   1      44.500  31.048  36.216  1.00  0.00    -0.205 F 
ATOM     83  C   UNL A   1      41.432  29.077  35.866  1.00  0.00     0.022 A 
BRANCH  81  84
ATOM     84  S   UNL A   1      43.892  28.013  36.395  1.00  0.00     0.127 S 
ATOM     85  O   UNL A   1      43.111  26.889  35.880  1.00  0.00    -0.237 OA
ATOM     86  O   UNL A   1      45.056  28.368  35.583  1.00  0.00    -0.237 OA
ATOM     87  O   UNL A   1      44.127  27.996  37.831  1.00  0.00    -0.744 OA
ENDBRANCH  81  84
ENDBRANCH  63  77
BRANCH  64  88
ATOM     88  C   UNL A   1      45.160  40.994  33.195  1.00  0.00     0.023 A 
ATOM     89  C   UNL A   1      46.523  41.343  33.235  1.00  0.00     0.012 A 
ATOM     90  C   UNL A   1      44.222  41.933  32.725  1.00  0.00     0.148 A 
ATOM     91  C   UNL A   1      46.941  42.613  32.841  1.00  0.00     0.002 A 
ATOM     92  C   UNL A   1      44.653  43.176  32.277  1.00  0.00     0.091 A 
ATOM     93  F   UNL A   1      42.928  41.582  32.701  1.00  0.00    -0.205 F 
ATOM     94  C   UNL A   1      46.010  43.525  32.350  1.00  0.00     0.022 A 
BRANCH  92  95
ATOM     95  S   UNL A   1      43.541  44.348  31.490  1.00  0.00     0.127 S 
ATOM     96  O   UNL A   1      44.254  44.653  30.253  1.00  0.00    -0.237 OA
ATOM     97  O   UNL A   1      42.327  43.550  31.322  1.00  0.00    -0.237 OA
ATOM     98  O   UNL A   1      43.405  45.449  32.435  1.00  0.00    -0.744 OA
ENDBRANCH  92  95
ENDBRANCH  64  88
BRANCH  76  99
ATOM     99  C   UNL A   1      43.680  37.786  39.245  1.00  0.00     0.023 A 
ATOM    100  C   UNL A   1      44.874  37.877  39.986  1.00  0.00     0.012 A 
ATOM    101  C   UNL A   1      42.477  38.259  39.809  1.00  0.00     0.148 A 
ATOM    102  C   UNL A   1      44.872  38.420  41.269  1.00  0.00     0.002 A 
ATOM    103  C   UNL A   1      42.491  38.845  41.069  1.00  0.00     0.091 A 
ATOM    104  F   UNL A   1      41.350  38.148  39.092  1.00  0.00    -0.205 F 
ATOM    105  C   UNL A   1      43.686  38.918  41.804  1.00  0.00     0.022 A 
BRANCH 103 106
ATOM    106  S   UNL A   1      41.040  39.613  41.798  1.00  0.00     0.127 S 
ATOM    107  O   UNL A   1      41.294  39.432  43.227  1.00  0.00    -0.237 OA
ATOM    108  O   UNL A   1      41.153  40.993  41.328  1.00  0.00    -0.237 OA
ATOM    109  O   UNL A   1      39.891  38.883  41.278  1.00  0.00    -0.744 OA
ENDBRANCH 103 106
ENDBRANCH  76  99
ENDBRANCH  50  51
ENDBRANCH  43  45
ENDBRANCH  42  43
ENDBRANCH  41  42
ENDBRANCH  40  41
ENDBRANCH  39  40
ENDBRANCH  38  39
ENDBRANCH  37  38
ENDBRANCH  36  37
ENDBRANCH  35  36
ENDBRANCH   1  35
TORSDOF 29
ENDMDL
MODEL 3
REMARK VINA RESULT:      -6.0      4.553      8.134
REMARK SMILES Cc1c(CCC(=O)NCCCC(=O)OCCOCCOCCOCCOC(=O)c2ccc(-c3c4nc(c(-c5cccc(S(=O)(=O)[O-])c5F)c5ccc([nH]5)c(-c5cccc(S(=O)(=O)[O-])c5F)c5nc(c(-c6cccc(S(=O)(=O)[O-])c6F)c6ccc3[nH]6)C=C5)C=C4)cc2)c(=O)oc2cc3c(cc12)CCC(C)(C)O3
REMARK SMILES IDX 18 1 17 2 16 3 15 4 14 5 12 6 13 7 11 8 10 9 9 10 8 11 6 12
REMARK SMILES IDX 7 13 5 15 4 16 3 17 1 18 2 19 100 20 92 21 95 22 99 23 93 24
REMARK SMILES IDX 94 25 96 26 98 27 97 28 101 29 106 30 102 31 103 32 104 33
REMARK SMILES IDX 105 34 19 35 20 36 21 37 22 38 23 39 24 40 25 41 26 42 27 43
REMARK SMILES IDX 28 44 29 45 30 46 91 47 31 48 90 49 32 50 33 51 34 52 84 53
REMARK SMILES IDX 35 54 89 55 83 56 85 57 36 58 88 59 82 60 81 61 37 63 69 64
REMARK SMILES IDX 49 65 68 66 50 67 53 68 67 69 86 70 51 71 52 72 66 74 87 75
REMARK SMILES IDX 54 76 38 77 39 78 47 79 40 80 42 81 48 82 41 83 43 84 44 85
REMARK SMILES IDX 45 86 46 87 70 88 71 89 79 90 72 91 74 92 80 93 73 94 75 95
REMARK SMILES IDX 76 96 77 97 78 98 55 99 56 100 64 101 57 102 59 103 65 104
REMARK SMILES IDX 58 105 60 106 61 107 62 108 63 109
REMARK H PARENT 8 14 85 62 53 73
REMARK Flexibility Score: inf
ROOT
ATOM      1  C   UNL A   1      40.240  28.667  32.625  1.00  0.00     0.188 C 
ENDROOT
BRANCH   1   2
ATOM      2  O   UNL A   1      39.721  27.820  31.611  1.00  0.00    -0.376 OA
BRANCH   2   3
ATOM      3  C   UNL A   1      39.725  28.243  30.252  1.00  0.00     0.202 C 
BRANCH   3   4
ATOM      4  C   UNL A   1      40.584  27.536  29.198  1.00  0.00     0.261 C 
BRANCH   4   5
ATOM      5  O   UNL A   1      41.994  27.797  29.263  1.00  0.00    -0.463 OA
BRANCH   5   6
ATOM      6  C   UNL A   1      42.796  26.734  29.000  1.00  0.00     0.305 C 
ATOM      7  O   UNL A   1      43.660  26.295  29.749  1.00  0.00    -0.252 OA
BRANCH   6   8
ATOM      8  C   UNL A   1      42.556  26.150  27.631  1.00  0.00     0.124 C 
BRANCH   8   9
ATOM      9  C   UNL A   1      43.166  26.943  26.489  1.00  0.00     0.033 C 
BRANCH   9  10
ATOM     10  C   UNL A   1      44.238  27.956  26.876  1.00  0.00     0.116 C 
BRANCH  10  11
ATOM     11  N   UNL A   1      45.050  28.229  25.701  1.00  0.00    -0.356 N 
ATOM     12  C   UNL A   1      46.359  28.619  25.664  1.00  0.00     0.220 C 
ATOM     13  O   UNL A   1      46.740  29.311  24.719  1.00  0.00    -0.275 OA
ATOM     14  H   UNL A   1      44.605  28.121  24.830  1.00  0.00     0.163 HD
BRANCH  12  15
ATOM     15  C   UNL A   1      47.325  28.157  26.740  1.00  0.00     0.105 C 
BRANCH  15  16
ATOM     16  C   UNL A   1      48.094  26.877  26.381  1.00  0.00     0.053 C 
BRANCH  16  17
ATOM     17  C   UNL A   1      47.217  25.638  26.317  1.00  0.00     0.042 A 
ATOM     18  C   UNL A   1      47.119  25.231  28.815  1.00  0.00     0.046 C 
ATOM     19  C   UNL A   1      46.746  24.949  27.381  1.00  0.00    -0.030 A 
ATOM     20  C   UNL A   1      45.710  23.926  27.127  1.00  0.00     0.021 A 
ATOM     21  C   UNL A   1      46.943  25.159  24.924  1.00  0.00     0.339 A 
ATOM     22  C   UNL A   1      45.570  23.418  25.841  1.00  0.00     0.142 A 
ATOM     23  C   UNL A   1      44.744  23.549  28.073  1.00  0.00     0.019 A 
ATOM     24  O   UNL A   1      47.310  25.790  23.939  1.00  0.00    -0.246 OA
ATOM     25  O   UNL A   1      46.350  23.911  24.788  1.00  0.00    -0.422 OA
ATOM     26  C   UNL A   1      44.566  22.505  25.504  1.00  0.00     0.094 A 
ATOM     27  C   UNL A   1      43.644  22.745  27.718  1.00  0.00    -0.005 A 
ATOM     28  C   UNL A   1      43.588  22.182  26.443  1.00  0.00     0.127 A 
ATOM     29  C   UNL A   1      42.519  22.557  28.695  1.00  0.00     0.043 C 
ATOM     30  O   UNL A   1      42.564  21.396  25.999  1.00  0.00    -0.487 OA
ATOM     31  C   UNL A   1      41.253  22.078  28.001  1.00  0.00     0.053 C 
ATOM     32  C   UNL A   1      41.549  21.005  26.945  1.00  0.00     0.104 C 
ATOM     33  C   UNL A   1      41.976  19.689  27.604  1.00  0.00     0.056 C 
ATOM     34  C   UNL A   1      40.278  20.752  26.116  1.00  0.00     0.056 C 
ENDBRANCH  16  17
ENDBRANCH  15  16
ENDBRANCH  12  15
ENDBRANCH  10  11
ENDBRANCH   9  10
ENDBRANCH   8   9
ENDBRANCH   6   8
ENDBRANCH   5   6
ENDBRANCH   4   5
ENDBRANCH   3   4
ENDBRANCH   2   3
ENDBRANCH   1   2
BRANCH   1  35
ATOM     35  C   UNL A   1      41.744  28.867  32.790  1.00  0.00     0.188 C 
BRANCH  35  36
ATOM     36  O   UNL A   1      42.174  28.616  34.104  1.00  0.00    -0.377 OA
BRANCH  36  37
ATOM     37  C   UNL A   1      43.210  27.645  34.236  1.00  0.00     0.188 C 
BRANCH  37  38
ATOM     38  C   UNL A   1      43.114  26.270  33.525  1.00  0.00     0.188 C 
BRANCH  38  39
ATOM     39  O   UNL A   1      44.296  25.471  33.536  1.00  0.00    -0.376 OA
BRANCH  39  40
ATOM     40  C   UNL A   1      44.536  24.654  34.677  1.00  0.00     0.202 C 
BRANCH  40  41
ATOM     41  C   UNL A   1      45.617  25.165  35.641  1.00  0.00     0.261 C 
BRANCH  41  42
ATOM     42  O   UNL A   1      46.749  25.778  35.013  1.00  0.00    -0.460 OA
BRANCH  42  43
ATOM     43  C   UNL A   1      46.844  27.127  35.056  1.00  0.00     0.338 C 
ATOM     44  O   UNL A   1      46.672  27.842  36.028  1.00  0.00    -0.246 OA
BRANCH  43  45
ATOM     45  C   UNL A   1      47.444  27.554  33.773  1.00  0.00     0.060 A 
ATOM     46  C   UNL A   1      46.740  27.405  32.575  1.00  0.00     0.016 A 
ATOM     47  C   UNL A   1      48.770  28.007  33.766  1.00  0.00     0.016 A 
ATOM     48  C   UNL A   1      47.354  27.747  31.369  1.00  0.00     0.010 A 
ATOM     49  C   UNL A   1      49.389  28.330  32.557  1.00  0.00     0.010 A 
ATOM     50  C   UNL A   1      48.674  28.234  31.354  1.00  0.00    -0.014 A 
BRANCH  50  51
ATOM     51  C   UNL A   1      49.186  28.904  30.136  1.00  0.00     0.031 A 
ATOM     52  C   UNL A   1      48.754  30.272  29.707  1.00  0.00     0.074 A 
ATOM     53  C   UNL A   1      50.057  28.198  29.387  1.00  0.00     0.049 A 
ATOM     54  N   UNL A   1      49.219  30.998  28.724  1.00  0.00    -0.248 NA
ATOM     55  C   UNL A   1      47.662  30.908  30.459  1.00  0.00     0.031 C 
ATOM     56  C   UNL A   1      50.479  26.823  29.676  1.00  0.00     0.029 A 
ATOM     57  N   UNL A   1      50.730  28.518  28.238  1.00  0.00    -0.354 N 
ATOM     58  C   UNL A   1      48.486  32.177  28.731  1.00  0.00     0.074 A 
ATOM     59  C   UNL A   1      47.524  32.061  29.809  1.00  0.00     0.031 C 
ATOM     60  C   UNL A   1      51.338  26.420  28.732  1.00  0.00     0.029 A 
ATOM     61  C   UNL A   1      51.526  27.499  27.769  1.00  0.00     0.049 A 
ATOM     62  H   UNL A   1      50.652  29.391  27.792  1.00  0.00     0.167 HD
ATOM     63  C   UNL A   1      48.628  33.256  27.925  1.00  0.00     0.034 A 
ATOM     64  C   UNL A   1      52.331  27.440  26.693  1.00  0.00     0.034 A 
ATOM     65  C   UNL A   1      49.604  33.351  26.867  1.00  0.00     0.049 A 
ATOM     66  C   UNL A   1      52.493  28.667  25.844  1.00  0.00     0.074 A 
ATOM     67  C   UNL A   1      49.885  34.439  26.058  1.00  0.00     0.029 A 
ATOM     68  N   UNL A   1      50.441  32.325  26.457  1.00  0.00    -0.354 N 
ATOM     69  N   UNL A   1      51.937  29.846  25.990  1.00  0.00    -0.248 NA
ATOM     70  C   UNL A   1      53.422  28.579  24.710  1.00  0.00     0.031 C 
ATOM     71  C   UNL A   1      50.867  34.061  25.139  1.00  0.00     0.029 A 
ATOM     72  C   UNL A   1      51.224  32.748  25.395  1.00  0.00     0.049 A 
ATOM     73  H   UNL A   1      50.475  31.427  26.860  1.00  0.00     0.167 HD
ATOM     74  C   UNL A   1      52.473  30.647  24.991  1.00  0.00     0.074 A 
ATOM     75  C   UNL A   1      53.413  29.826  24.256  1.00  0.00     0.031 C 
ATOM     76  C   UNL A   1      52.197  31.942  24.703  1.00  0.00     0.034 A 
BRANCH  63  77
ATOM     77  C   UNL A   1      47.779  34.477  28.178  1.00  0.00     0.023 A 
ATOM     78  C   UNL A   1      48.376  35.612  28.763  1.00  0.00     0.012 A 
ATOM     79  C   UNL A   1      46.466  34.572  27.671  1.00  0.00     0.148 A 
ATOM     80  C   UNL A   1      47.682  36.819  28.843  1.00  0.00     0.002 A 
ATOM     81  C   UNL A   1      45.794  35.789  27.719  1.00  0.00     0.091 A 
ATOM     82  F   UNL A   1      45.914  33.480  27.122  1.00  0.00    -0.205 F 
ATOM     83  C   UNL A   1      46.399  36.912  28.308  1.00  0.00     0.022 A 
BRANCH  81  84
ATOM     84  S   UNL A   1      44.175  36.043  26.982  1.00  0.00     0.127 S 
ATOM     85  O   UNL A   1      44.274  35.232  25.770  1.00  0.00    -0.237 OA
ATOM     86  O   UNL A   1      43.283  35.499  28.007  1.00  0.00    -0.237 OA
ATOM     87  O   UNL A   1      44.052  37.476  26.759  1.00  0.00    -0.744 OA
ENDBRANCH  81  84
ENDBRANCH  63  77
BRANCH  64  88
ATOM     88  C   UNL A   1      53.111  26.199  26.431  1.00  0.00     0.023 A 
ATOM     89  C   UNL A   1      52.646  25.281  25.470  1.00  0.00     0.012 A 
ATOM     90  C   UNL A   1      54.343  25.964  27.069  1.00  0.00     0.148 A 
ATOM     91  C   UNL A   1      53.382  24.136  25.171  1.00  0.00     0.002 A 
ATOM     92  C   UNL A   1      55.101  24.851  26.722  1.00  0.00     0.091 A 
ATOM     93  F   UNL A   1      54.765  26.847  27.986  1.00  0.00    -0.205 F 
ATOM     94  C   UNL A   1      54.614  23.927  25.785  1.00  0.00     0.022 A 
BRANCH  92  95
ATOM     95  S   UNL A   1      56.763  24.589  27.353  1.00  0.00     0.127 S 
ATOM     96  O   UNL A   1      56.546  24.642  28.796  1.00  0.00    -0.237 OA
ATOM     97  O   UNL A   1      57.083  23.263  26.825  1.00  0.00    -0.237 OA
ATOM     98  O   UNL A   1      57.567  25.666  26.790  1.00  0.00    -0.744 OA
ENDBRANCH  92  95
ENDBRANCH  64  88
BRANCH  76  99
ATOM     99  C   UNL A   1      52.924  32.584  23.551  1.00  0.00     0.023 A 
ATOM    100  C   UNL A   1      52.448  32.397  22.239  1.00  0.00     0.012 A 
ATOM    101  C   UNL A   1      53.986  33.481  23.782  1.00  0.00     0.148 A 
ATOM    102  C   UNL A   1      53.025  33.085  21.172  1.00  0.00     0.002 A 
ATOM    103  C   UNL A   1      54.522  34.201  22.721  1.00  0.00     0.091 A 
ATOM    104  F   UNL A   1      54.432  33.631  25.038  1.00  0.00    -0.205 F 
ATOM    105  C   UNL A   1      54.048  33.997  21.415  1.00  0.00     0.022 A 
BRANCH 103 106
ATOM    106  S   UNL A   1      55.767  35.477  22.946  1.00  0.00     0.127 S 
ATOM    107  O   UNL A   1      55.970  35.938  21.573  1.00  0.00    -0.237 OA
ATOM    108  O   UNL A   1      55.078  36.431  23.814  1.00  0.00    -0.237 OA
ATOM    109  O   UNL A   1      56.916  34.820  23.554  1.00  0.00    -0.744 OA
ENDBRANCH 103 106
ENDBRANCH  76  99
ENDBRANCH  50  51
ENDBRANCH  43  45
ENDBRANCH  42  43
ENDBRANCH  41  42
ENDBRANCH  40  41
ENDBRANCH  39  40
ENDBRANCH  38  39
ENDBRANCH  37  38
ENDBRANCH  36  37
ENDBRANCH  35  36
ENDBRANCH   1  35
TORSDOF 29
ENDMDL
