MODEL 1
REMARK VINA RESULT:      -8.2      0.000      0.000
REMARK SMILES CCCN1CCC[C@@]2(CCN(c3ccc(C(=O)OCCOCCOCCOCCOC(=O)c4ccc(-c5c6nc(c(-c7cccc(S(=O)(=O)[O-])c7F)c7ccc([nH]7)c(-c7cccc(S(=O)(=O)[O-])c7F)c7nc(c(-c8cccc(S(=O)(=O)[O-])c8F)c8ccc5[nH]8)C=C7)C=C6)cc4)cn3)C2)C1=O
REMARK SMILES IDX 24 1 23 2 22 3 21 4 20 5 19 6 18 7 16 8 17 9 15 10 12 11
REMARK SMILES IDX 13 12 97 13 14 14 96 15 11 16 4 17 5 18 99 19 6 20 8 21
REMARK SMILES IDX 100 22 7 23 9 24 98 25 10 26 3 27 2 28 1 29 25 30 26 31
REMARK SMILES IDX 27 32 28 33 29 34 30 35 31 36 32 37 33 38 34 39 95 40 35 41
REMARK SMILES IDX 94 42 36 43 37 44 38 45 88 46 39 47 93 48 87 49 89 50 40 51
REMARK SMILES IDX 92 52 86 53 85 54 41 56 73 57 53 58 72 59 54 60 57 61 71 62
REMARK SMILES IDX 90 63 55 64 56 65 70 67 91 68 58 69 42 70 43 71 51 72 44 73
REMARK SMILES IDX 46 74 52 75 45 76 47 77 48 78 49 79 50 80 74 81 75 82 83 83
REMARK SMILES IDX 76 84 78 85 84 86 77 87 79 88 80 89 81 90 82 91 59 92 60 93
REMARK SMILES IDX 68 94 61 95 63 96 69 97 62 98 64 99 65 100 66 101 67 102
REMARK H PARENT 89 55 57 66
REMARK Flexibility Score: inf
ROOT
ATOM      1  O   UNL A   1      34.888  29.747  26.603  1.00  0.00    -0.377 OA
ENDROOT
BRANCH   1   2
ATOM      2  C   UNL A   1      33.686  29.120  26.197  1.00  0.00     0.188 C 
BRANCH   2   3
ATOM      3  C   UNL A   1      33.659  27.582  26.298  1.00  0.00     0.188 C 
BRANCH   3   4
ATOM      4  O   UNL A   1      33.581  26.930  25.045  1.00  0.00    -0.376 OA
BRANCH   4   5
ATOM      5  C   UNL A   1      33.504  25.520  24.954  1.00  0.00     0.202 C 
BRANCH   5   6
ATOM      6  C   UNL A   1      34.094  24.705  23.791  1.00  0.00     0.261 C 
BRANCH   6   7
ATOM      7  O   UNL A   1      35.306  23.996  24.034  1.00  0.00    -0.460 OA
BRANCH   7   8
ATOM      8  C   UNL A   1      35.234  22.784  24.621  1.00  0.00     0.339 C 
ATOM      9  O   UNL A   1      34.290  22.015  24.612  1.00  0.00    -0.246 OA
BRANCH   8  10
ATOM     10  C   UNL A   1      36.589  22.459  25.097  1.00  0.00     0.078 A 
ATOM     11  C   UNL A   1      39.093  21.982  26.145  1.00  0.00     0.128 A 
ATOM     12  C   UNL A   1      38.370  20.937  25.560  1.00  0.00     0.048 A 
ATOM     13  N   UNL A   1      38.574  23.222  26.265  1.00  0.00    -0.238 NA
ATOM     14  C   UNL A   1      37.104  21.170  25.037  1.00  0.00     0.021 A 
ATOM     15  C   UNL A   1      37.345  23.438  25.724  1.00  0.00     0.129 A 
BRANCH  11  16
ATOM     16  N   UNL A   1      40.414  21.752  26.474  1.00  0.00    -0.356 N 
ATOM     17  N   UNL A   1      43.408  24.821  26.047  1.00  0.00    -0.342 N 
ATOM     18  C   UNL A   1      44.397  24.400  25.065  1.00  0.00     0.119 C 
ATOM     19  C   UNL A   1      42.958  23.934  27.023  1.00  0.00     0.230 C 
ATOM     20  C   UNL A   1      44.096  23.035  24.475  1.00  0.00     0.023 C 
ATOM     21  C   UNL A   1      42.683  22.516  26.500  1.00  0.00     0.069 C 
ATOM     22  O   UNL A   1      42.636  24.300  28.151  1.00  0.00    -0.274 OA
ATOM     23  C   UNL A   1      43.819  22.031  25.591  1.00  0.00     0.021 C 
ATOM     24  C   UNL A   1      42.389  21.527  27.647  1.00  0.00     0.040 C 
ATOM     25  C   UNL A   1      41.347  22.586  25.720  1.00  0.00     0.135 C 
ATOM     26  C   UNL A   1      40.870  21.621  27.844  1.00  0.00     0.119 C 
BRANCH  17  27
ATOM     27  C   UNL A   1      42.945  26.205  26.077  1.00  0.00     0.119 C 
BRANCH  27  28
ATOM     28  C   UNL A   1      41.492  26.457  25.684  1.00  0.00     0.018 C 
ATOM     29  C   UNL A   1      40.728  27.339  26.658  1.00  0.00     0.006 C 
ENDBRANCH  27  28
ENDBRANCH  17  27
ENDBRANCH  11  16
ENDBRANCH   8  10
ENDBRANCH   7   8
ENDBRANCH   6   7
ENDBRANCH   5   6
ENDBRANCH   4   5
ENDBRANCH   3   4
ENDBRANCH   2   3
ENDBRANCH   1   2
BRANCH   1  30
ATOM     30  C   UNL A   1      35.507  29.368  27.831  1.00  0.00     0.188 C 
BRANCH  30  31
ATOM     31  C   UNL A   1      35.908  30.386  28.929  1.00  0.00     0.188 C 
BRANCH  31  32
ATOM     32  O   UNL A   1      36.169  31.702  28.470  1.00  0.00    -0.376 OA
BRANCH  32  33
ATOM     33  C   UNL A   1      35.144  32.387  27.775  1.00  0.00     0.202 C 
BRANCH  33  34
ATOM     34  C   UNL A   1      34.508  33.588  28.485  1.00  0.00     0.261 C 
BRANCH  34  35
ATOM     35  O   UNL A   1      33.861  33.307  29.735  1.00  0.00    -0.460 OA
BRANCH  35  36
ATOM     36  C   UNL A   1      33.948  34.245  30.701  1.00  0.00     0.338 C 
ATOM     37  O   UNL A   1      33.172  35.165  30.906  1.00  0.00    -0.246 OA
BRANCH  36  38
ATOM     38  C   UNL A   1      35.055  33.856  31.598  1.00  0.00     0.060 A 
ATOM     39  C   UNL A   1      36.159  34.707  31.733  1.00  0.00     0.016 A 
ATOM     40  C   UNL A   1      34.987  32.661  32.318  1.00  0.00     0.016 A 
ATOM     41  C   UNL A   1      37.219  34.346  32.567  1.00  0.00     0.010 A 
ATOM     42  C   UNL A   1      36.057  32.293  33.137  1.00  0.00     0.010 A 
ATOM     43  C   UNL A   1      37.191  33.116  33.238  1.00  0.00    -0.014 A 
BRANCH  43  44
ATOM     44  C   UNL A   1      38.420  32.598  33.889  1.00  0.00     0.031 A 
ATOM     45  C   UNL A   1      38.711  33.031  35.301  1.00  0.00     0.074 A 
ATOM     46  C   UNL A   1      39.262  31.770  33.245  1.00  0.00     0.049 A 
ATOM     47  N   UNL A   1      39.748  32.772  36.051  1.00  0.00    -0.248 NA
ATOM     48  C   UNL A   1      37.691  33.872  35.953  1.00  0.00     0.031 C 
ATOM     49  C   UNL A   1      39.081  31.265  31.885  1.00  0.00     0.029 A 
ATOM     50  N   UNL A   1      40.458  31.230  33.648  1.00  0.00    -0.354 N 
ATOM     51  C   UNL A   1      39.518  33.433  37.253  1.00  0.00     0.074 A 
ATOM     52  C   UNL A   1      38.255  34.124  37.124  1.00  0.00     0.031 C 
ATOM     53  C   UNL A   1      40.145  30.511  31.555  1.00  0.00     0.029 A 
ATOM     54  C   UNL A   1      41.095  30.508  32.665  1.00  0.00     0.049 A 
ATOM     55  H   UNL A   1      40.826  31.349  34.554  1.00  0.00     0.167 HD
ATOM     56  C   UNL A   1      40.282  33.450  38.371  1.00  0.00     0.034 A 
ATOM     57  C   UNL A   1      42.317  29.937  32.659  1.00  0.00     0.034 A 
ATOM     58  C   UNL A   1      41.536  32.762  38.498  1.00  0.00     0.049 A 
ATOM     59  C   UNL A   1      43.177  30.026  33.897  1.00  0.00     0.074 A 
ATOM     60  C   UNL A   1      42.380  32.704  39.594  1.00  0.00     0.029 A 
ATOM     61  N   UNL A   1      42.135  32.018  37.493  1.00  0.00    -0.354 N 
ATOM     62  N   UNL A   1      42.906  30.576  35.056  1.00  0.00    -0.248 NA
ATOM     63  C   UNL A   1      44.500  29.387  33.836  1.00  0.00     0.031 C 
ATOM     64  C   UNL A   1      43.504  31.952  39.240  1.00  0.00     0.029 A 
ATOM     65  C   UNL A   1      43.339  31.503  37.939  1.00  0.00     0.049 A 
ATOM     66  H   UNL A   1      41.758  31.877  36.594  1.00  0.00     0.167 HD
ATOM     67  C   UNL A   1      44.000  30.306  35.874  1.00  0.00     0.074 A 
ATOM     68  C   UNL A   1      44.930  29.529  35.082  1.00  0.00     0.031 C 
ATOM     69  C   UNL A   1      44.223  30.677  37.159  1.00  0.00     0.034 A 
BRANCH  56  70
ATOM     70  C   UNL A   1      39.765  34.222  39.557  1.00  0.00     0.023 A 
ATOM     71  C   UNL A   1      40.211  35.542  39.777  1.00  0.00     0.012 A 
ATOM     72  C   UNL A   1      38.800  33.666  40.418  1.00  0.00     0.148 A 
ATOM     73  C   UNL A   1      39.729  36.284  40.854  1.00  0.00     0.002 A 
ATOM     74  C   UNL A   1      38.289  34.428  41.462  1.00  0.00     0.091 A 
ATOM     75  F   UNL A   1      38.404  32.402  40.204  1.00  0.00    -0.205 F 
ATOM     76  C   UNL A   1      38.762  35.732  41.689  1.00  0.00     0.022 A 
BRANCH  74  77
ATOM     77  S   UNL A   1      36.984  33.839  42.547  1.00  0.00     0.127 S 
ATOM     78  O   UNL A   1      35.837  33.816  41.641  1.00  0.00    -0.237 OA
ATOM     79  O   UNL A   1      37.482  32.519  42.934  1.00  0.00    -0.237 OA
ATOM     80  O   UNL A   1      36.898  34.803  43.635  1.00  0.00    -0.744 OA
ENDBRANCH  74  77
ENDBRANCH  56  70
BRANCH  57  81
ATOM     81  C   UNL A   1      42.812  29.213  31.451  1.00  0.00     0.023 A 
ATOM     82  C   UNL A   1      42.586  27.827  31.329  1.00  0.00     0.012 A 
ATOM     83  C   UNL A   1      43.534  29.879  30.442  1.00  0.00     0.148 A 
ATOM     84  C   UNL A   1      43.112  27.111  30.253  1.00  0.00     0.002 A 
ATOM     85  C   UNL A   1      44.004  29.170  29.342  1.00  0.00     0.091 A 
ATOM     86  F   UNL A   1      43.756  31.193  30.582  1.00  0.00    -0.205 F 
ATOM     87  C   UNL A   1      43.814  27.782  29.257  1.00  0.00     0.022 A 
BRANCH  85  88
ATOM     88  S   UNL A   1      44.813  29.971  27.953  1.00  0.00     0.127 S 
ATOM     89  O   UNL A   1      43.800  30.936  27.532  1.00  0.00    -0.237 OA
ATOM     90  O   UNL A   1      45.994  30.555  28.589  1.00  0.00    -0.237 OA
ATOM     91  O   UNL A   1      45.108  28.908  27.002  1.00  0.00    -0.744 OA
ENDBRANCH  85  88
ENDBRANCH  57  81
BRANCH  69  92
ATOM     92  C   UNL A   1      45.488  30.193  37.823  1.00  0.00     0.023 A 
ATOM     93  C   UNL A   1      46.620  31.031  37.888  1.00  0.00     0.012 A 
ATOM     94  C   UNL A   1      45.526  28.932  38.449  1.00  0.00     0.148 A 
ATOM     95  C   UNL A   1      47.780  30.604  38.533  1.00  0.00     0.002 A 
ATOM     96  C   UNL A   1      46.667  28.536  39.137  1.00  0.00     0.091 A 
ATOM     97  F   UNL A   1      44.444  28.144  38.365  1.00  0.00    -0.205 F 
ATOM     98  C   UNL A   1      47.800  29.364  39.168  1.00  0.00     0.022 A 
BRANCH  96  99
ATOM     99  S   UNL A   1      46.749  27.001  40.068  1.00  0.00     0.127 S 
ATOM    100  O   UNL A   1      45.368  26.528  39.982  1.00  0.00    -0.237 OA
ATOM    101  O   UNL A   1      47.711  26.221  39.290  1.00  0.00    -0.237 OA
ATOM    102  O   UNL A   1      47.201  27.363  41.405  1.00  0.00    -0.744 OA
ENDBRANCH  96  99
ENDBRANCH  69  92
ENDBRANCH  43  44
ENDBRANCH  36  38
ENDBRANCH  35  36
ENDBRANCH  34  35
ENDBRANCH  33  34
ENDBRANCH  32  33
ENDBRANCH  31  32
ENDBRANCH  30  31
ENDBRANCH   1  30
TORSDOF 26
ENDMDL
MODEL 2
REMARK VINA RESULT:      -8.1      5.819     11.212
REMARK SMILES CCCN1CCC[C@@]2(CCN(c3ccc(C(=O)OCCOCCOCCOCCOC(=O)c4ccc(-c5c6nc(c(-c7cccc(S(=O)(=O)[O-])c7F)c7ccc([nH]7)c(-c7cccc(S(=O)(=O)[O-])c7F)c7nc(c(-c8cccc(S(=O)(=O)[O-])c8F)c8ccc5[nH]8)C=C7)C=C6)cc4)cn3)C2)C1=O
REMARK SMILES IDX 24 1 23 2 22 3 21 4 20 5 19 6 18 7 16 8 17 9 15 10 12 11
REMARK SMILES IDX 13 12 97 13 14 14 96 15 11 16 4 17 5 18 99 19 6 20 8 21
REMARK SMILES IDX 100 22 7 23 9 24 98 25 10 26 3 27 2 28 1 29 25 30 26 31
REMARK SMILES IDX 27 32 28 33 29 34 30 35 31 36 32 37 33 38 34 39 95 40 35 41
REMARK SMILES IDX 94 42 36 43 37 44 38 45 88 46 39 47 93 48 87 49 89 50 40 51
REMARK SMILES IDX 92 52 86 53 85 54 41 56 73 57 53 58 72 59 54 60 57 61 71 62
REMARK SMILES IDX 90 63 55 64 56 65 70 67 91 68 58 69 42 70 43 71 51 72 44 73
REMARK SMILES IDX 46 74 52 75 45 76 47 77 48 78 49 79 50 80 74 81 75 82 83 83
REMARK SMILES IDX 76 84 78 85 84 86 77 87 79 88 80 89 81 90 82 91 59 92 60 93
REMARK SMILES IDX 68 94 61 95 63 96 69 97 62 98 64 99 65 100 66 101 67 102
REMARK H PARENT 89 55 57 66
REMARK Flexibility Score: inf
ROOT
ATOM      1  O   UNL A   1      39.148  28.542  29.732  1.00  0.00    -0.377 OA
ENDROOT
BRANCH   1   2
ATOM      2  C   UNL A   1      39.038  29.810  29.110  1.00  0.00     0.188 C 
BRANCH   2   3
ATOM      3  C   UNL A   1      37.636  30.451  29.130  1.00  0.00     0.188 C 
BRANCH   3   4
ATOM      4  O   UNL A   1      37.609  31.747  29.694  1.00  0.00    -0.376 OA
BRANCH   4   5
ATOM      5  C   UNL A   1      37.545  32.903  28.879  1.00  0.00     0.202 C 
BRANCH   5   6
ATOM      6  C   UNL A   1      36.229  33.563  28.435  1.00  0.00     0.261 C 
BRANCH   6   7
ATOM      7  O   UNL A   1      35.309  32.765  27.698  1.00  0.00    -0.460 OA
BRANCH   7   8
ATOM      8  C   UNL A   1      34.376  32.068  28.378  1.00  0.00     0.339 C 
ATOM      9  O   UNL A   1      33.970  32.284  29.505  1.00  0.00    -0.246 OA
BRANCH   8  10
ATOM     10  C   UNL A   1      33.773  31.119  27.426  1.00  0.00     0.078 A 
ATOM     11  C   UNL A   1      32.733  29.190  25.755  1.00  0.00     0.128 A 
ATOM     12  C   UNL A   1      31.980  30.328  26.062  1.00  0.00     0.048 A 
ATOM     13  N   UNL A   1      33.948  28.976  26.302  1.00  0.00    -0.238 NA
ATOM     14  C   UNL A   1      32.496  31.300  26.911  1.00  0.00     0.021 A 
ATOM     15  C   UNL A   1      34.448  29.950  27.108  1.00  0.00     0.129 A 
BRANCH  11  16
ATOM     16  N   UNL A   1      32.265  28.351  24.763  1.00  0.00    -0.356 N 
ATOM     17  N   UNL A   1      32.107  24.081  25.314  1.00  0.00    -0.342 N 
ATOM     18  C   UNL A   1      32.991  23.435  24.354  1.00  0.00     0.119 C 
ATOM     19  C   UNL A   1      31.259  25.112  24.913  1.00  0.00     0.230 C 
ATOM     20  C   UNL A   1      33.709  24.426  23.457  1.00  0.00     0.023 C 
ATOM     21  C   UNL A   1      31.912  26.124  23.960  1.00  0.00     0.069 C 
ATOM     22  O   UNL A   1      30.155  25.293  25.420  1.00  0.00    -0.274 OA
ATOM     23  C   UNL A   1      32.711  25.413  22.860  1.00  0.00     0.021 C 
ATOM     24  C   UNL A   1      30.883  27.120  23.385  1.00  0.00     0.040 C 
ATOM     25  C   UNL A   1      32.839  27.009  24.827  1.00  0.00     0.135 C 
ATOM     26  C   UNL A   1      30.864  28.268  24.403  1.00  0.00     0.119 C 
BRANCH  17  27
ATOM     27  C   UNL A   1      32.033  23.594  26.689  1.00  0.00     0.119 C 
BRANCH  27  28
ATOM     28  C   UNL A   1      32.858  22.355  27.029  1.00  0.00     0.018 C 
ATOM     29  C   UNL A   1      34.206  22.661  27.663  1.00  0.00     0.006 C 
ENDBRANCH  27  28
ENDBRANCH  17  27
ENDBRANCH  11  16
ENDBRANCH   8  10
ENDBRANCH   7   8
ENDBRANCH   6   7
ENDBRANCH   5   6
ENDBRANCH   4   5
ENDBRANCH   3   4
ENDBRANCH   2   3
ENDBRANCH   1   2
BRANCH   1  30
ATOM     30  C   UNL A   1      40.057  27.574  29.211  1.00  0.00     0.188 C 
BRANCH  30  31
ATOM     31  C   UNL A   1      39.738  26.685  27.982  1.00  0.00     0.188 C 
BRANCH  31  32
ATOM     32  O   UNL A   1      40.332  27.100  26.762  1.00  0.00    -0.376 OA
BRANCH  32  33
ATOM     33  C   UNL A   1      41.149  26.180  26.065  1.00  0.00     0.202 C 
BRANCH  33  34
ATOM     34  C   UNL A   1      42.458  26.721  25.478  1.00  0.00     0.261 C 
BRANCH  34  35
ATOM     35  O   UNL A   1      43.555  26.839  26.395  1.00  0.00    -0.460 OA
BRANCH  35  36
ATOM     36  C   UNL A   1      44.467  27.803  26.149  1.00  0.00     0.338 C 
ATOM     37  O   UNL A   1      45.259  27.848  25.220  1.00  0.00    -0.246 OA
BRANCH  36  38
ATOM     38  C   UNL A   1      44.216  28.903  27.101  1.00  0.00     0.060 A 
ATOM     39  C   UNL A   1      43.490  30.025  26.677  1.00  0.00     0.016 A 
ATOM     40  C   UNL A   1      44.680  28.814  28.415  1.00  0.00     0.016 A 
ATOM     41  C   UNL A   1      43.257  31.078  27.563  1.00  0.00     0.010 A 
ATOM     42  C   UNL A   1      44.462  29.877  29.293  1.00  0.00     0.010 A 
ATOM     43  C   UNL A   1      43.780  31.028  28.861  1.00  0.00    -0.014 A 
BRANCH  43  44
ATOM     44  C   UNL A   1      43.787  32.247  29.706  1.00  0.00     0.031 A 
ATOM     45  C   UNL A   1      44.984  33.158  29.627  1.00  0.00     0.074 A 
ATOM     46  C   UNL A   1      42.766  32.539  30.531  1.00  0.00     0.049 A 
ATOM     47  N   UNL A   1      45.254  34.236  30.312  1.00  0.00    -0.248 NA
ATOM     48  C   UNL A   1      46.016  32.799  28.637  1.00  0.00     0.031 C 
ATOM     49  C   UNL A   1      41.546  31.749  30.683  1.00  0.00     0.029 A 
ATOM     50  N   UNL A   1      42.609  33.575  31.418  1.00  0.00    -0.354 N 
ATOM     51  C   UNL A   1      46.493  34.672  29.855  1.00  0.00     0.074 A 
ATOM     52  C   UNL A   1      46.932  33.731  28.850  1.00  0.00     0.031 C 
ATOM     53  C   UNL A   1      40.777  32.313  31.632  1.00  0.00     0.029 A 
ATOM     54  C   UNL A   1      41.463  33.483  32.175  1.00  0.00     0.049 A 
ATOM     55  H   UNL A   1      43.254  34.314  31.504  1.00  0.00     0.167 HD
ATOM     56  C   UNL A   1      47.195  35.770  30.226  1.00  0.00     0.034 A 
ATOM     57  C   UNL A   1      41.039  34.242  33.206  1.00  0.00     0.034 A 
ATOM     58  C   UNL A   1      46.756  36.705  31.224  1.00  0.00     0.049 A 
ATOM     59  C   UNL A   1      41.873  35.422  33.644  1.00  0.00     0.074 A 
ATOM     60  C   UNL A   1      47.388  37.856  31.662  1.00  0.00     0.029 A 
ATOM     61  N   UNL A   1      45.580  36.593  31.948  1.00  0.00    -0.354 N 
ATOM     62  N   UNL A   1      42.996  35.875  33.140  1.00  0.00    -0.248 NA
ATOM     63  C   UNL A   1      41.364  36.215  34.773  1.00  0.00     0.031 C 
ATOM     64  C   UNL A   1      46.607  38.424  32.673  1.00  0.00     0.029 A 
ATOM     65  C   UNL A   1      45.468  37.650  32.835  1.00  0.00     0.049 A 
ATOM     66  H   UNL A   1      44.920  35.870  31.846  1.00  0.00     0.167 HD
ATOM     67  C   UNL A   1      43.299  37.030  33.856  1.00  0.00     0.074 A 
ATOM     68  C   UNL A   1      42.233  37.216  34.818  1.00  0.00     0.031 C 
ATOM     69  C   UNL A   1      44.368  37.856  33.740  1.00  0.00     0.034 A 
BRANCH  56  70
ATOM     70  C   UNL A   1      48.504  36.028  29.527  1.00  0.00     0.023 A 
ATOM     71  C   UNL A   1      48.518  36.766  28.325  1.00  0.00     0.012 A 
ATOM     72  C   UNL A   1      49.721  35.593  30.085  1.00  0.00     0.148 A 
ATOM     73  C   UNL A   1      49.720  37.038  27.673  1.00  0.00     0.002 A 
ATOM     74  C   UNL A   1      50.919  35.908  29.454  1.00  0.00     0.091 A 
ATOM     75  F   UNL A   1      49.685  34.875  31.218  1.00  0.00    -0.205 F 
ATOM     76  C   UNL A   1      50.919  36.619  28.242  1.00  0.00     0.022 A 
BRANCH  74  77
ATOM     77  S   UNL A   1      52.522  35.483  30.144  1.00  0.00     0.127 S 
ATOM     78  O   UNL A   1      53.015  34.513  29.167  1.00  0.00    -0.237 OA
ATOM     79  O   UNL A   1      53.213  36.772  30.126  1.00  0.00    -0.237 OA
ATOM     80  O   UNL A   1      52.261  34.949  31.474  1.00  0.00    -0.744 OA
ENDBRANCH  74  77
ENDBRANCH  56  70
BRANCH  57  81
ATOM     81  C   UNL A   1      39.755  33.932  33.901  1.00  0.00     0.023 A 
ATOM     82  C   UNL A   1      38.559  34.529  33.452  1.00  0.00     0.012 A 
ATOM     83  C   UNL A   1      39.713  33.079  35.021  1.00  0.00     0.148 A 
ATOM     84  C   UNL A   1      37.359  34.324  34.135  1.00  0.00     0.002 A 
ATOM     85  C   UNL A   1      38.504  32.831  35.660  1.00  0.00     0.091 A 
ATOM     86  F   UNL A   1      40.862  32.533  35.445  1.00  0.00    -0.205 F 
ATOM     87  C   UNL A   1      37.331  33.470  35.234  1.00  0.00     0.022 A 
BRANCH  85  88
ATOM     88  S   UNL A   1      38.351  31.653  37.007  1.00  0.00     0.127 S 
ATOM     89  O   UNL A   1      39.459  32.042  37.875  1.00  0.00    -0.237 OA
ATOM     90  O   UNL A   1      37.019  31.964  37.529  1.00  0.00    -0.237 OA
ATOM     91  O   UNL A   1      38.461  30.336  36.393  1.00  0.00    -0.744 OA
ENDBRANCH  85  88
ENDBRANCH  57  81
BRANCH  69  92
ATOM     92  C   UNL A   1      44.413  39.079  34.622  1.00  0.00     0.023 A 
ATOM     93  C   UNL A   1      45.133  39.054  35.833  1.00  0.00     0.012 A 
ATOM     94  C   UNL A   1      43.801  40.278  34.207  1.00  0.00     0.148 A 
ATOM     95  C   UNL A   1      45.210  40.193  36.634  1.00  0.00     0.002 A 
ATOM     96  C   UNL A   1      43.928  41.424  34.984  1.00  0.00     0.091 A 
ATOM     97  F   UNL A   1      43.108  40.279  33.058  1.00  0.00    -0.205 F 
ATOM     98  C   UNL A   1      44.620  41.379  36.205  1.00  0.00     0.022 A 
BRANCH  96  99
ATOM     99  S   UNL A   1      43.287  43.019  34.465  1.00  0.00     0.127 S 
ATOM    100  O   UNL A   1      42.048  43.107  35.237  1.00  0.00    -0.237 OA
ATOM    101  O   UNL A   1      44.344  43.932  34.901  1.00  0.00    -0.237 OA
ATOM    102  O   UNL A   1      43.116  42.935  33.020  1.00  0.00    -0.744 OA
ENDBRANCH  96  99
ENDBRANCH  69  92
ENDBRANCH  43  44
ENDBRANCH  36  38
ENDBRANCH  35  36
ENDBRANCH  34  35
ENDBRANCH  33  34
ENDBRANCH  32  33
ENDBRANCH  31  32
ENDBRANCH  30  31
ENDBRANCH   1  30
TORSDOF 26
ENDMDL
MODEL 3
REMARK VINA RESULT:      -7.9      4.305     11.721
REMARK SMILES CCCN1CCC[C@@]2(CCN(c3ccc(C(=O)OCCOCCOCCOCCOC(=O)c4ccc(-c5c6nc(c(-c7cccc(S(=O)(=O)[O-])c7F)c7ccc([nH]7)c(-c7cccc(S(=O)(=O)[O-])c7F)c7nc(c(-c8cccc(S(=O)(=O)[O-])c8F)c8ccc5[nH]8)C=C7)C=C6)cc4)cn3)C2)C1=O
REMARK SMILES IDX 24 1 23 2 22 3 21 4 20 5 19 6 18 7 16 8 17 9 15 10 12 11
REMARK SMILES IDX 13 12 97 13 14 14 96 15 11 16 4 17 5 18 99 19 6 20 8 21
REMARK SMILES IDX 100 22 7 23 9 24 98 25 10 26 3 27 2 28 1 29 25 30 26 31
REMARK SMILES IDX 27 32 28 33 29 34 30 35 31 36 32 37 33 38 34 39 95 40 35 41
REMARK SMILES IDX 94 42 36 43 37 44 38 45 88 46 39 47 93 48 87 49 89 50 40 51
REMARK SMILES IDX 92 52 86 53 85 54 41 56 73 57 53 58 72 59 54 60 57 61 71 62
REMARK SMILES IDX 90 63 55 64 56 65 70 67 91 68 58 69 42 70 43 71 51 72 44 73
REMARK SMILES IDX 46 74 52 75 45 76 47 77 48 78 49 79 50 80 74 81 75 82 83 83
REMARK SMILES IDX 76 84 78 85 84 86 77 87 79 88 80 89 81 90 82 91 59 92 60 93
REMARK SMILES IDX 68 94 61 95 63 96 69 97 62 98 64 99 65 100 66 101 67 102
REMARK H PARENT 89 55 57 66
REMARK Flexibility Score: inf
ROOT
ATOM      1  O   UNL A   1      41.699  22.212  28.023  1.00  0.00    -0.377 OA
ENDROOT
BRANCH   1   2
ATOM      2  C   UNL A   1      40.372  21.994  27.580  1.00  0.00     0.188 C 
BRANCH   2   3
ATOM      3  C   UNL A   1      39.715  23.162  26.819  1.00  0.00     0.188 C 
BRANCH   3   4
ATOM      4  O   UNL A   1      40.642  24.040  26.210  1.00  0.00    -0.376 OA
BRANCH   4   5
ATOM      5  C   UNL A   1      40.756  25.389  26.621  1.00  0.00     0.202 C 
BRANCH   5   6
ATOM      6  C   UNL A   1      41.209  25.819  28.027  1.00  0.00     0.261 C 
BRANCH   6   7
ATOM      7  O   UNL A   1      40.313  26.623  28.789  1.00  0.00    -0.460 OA
BRANCH   7   8
ATOM      8  C   UNL A   1      40.831  27.564  29.604  1.00  0.00     0.339 C 
ATOM      9  O   UNL A   1      41.932  27.566  30.123  1.00  0.00    -0.246 OA
BRANCH   8  10
ATOM     10  C   UNL A   1      39.901  28.707  29.581  1.00  0.00     0.078 A 
ATOM     11  C   UNL A   1      38.327  30.969  29.575  1.00  0.00     0.128 A 
ATOM     12  C   UNL A   1      38.052  29.925  28.687  1.00  0.00     0.048 A 
ATOM     13  N   UNL A   1      39.387  30.928  30.409  1.00  0.00    -0.238 NA
ATOM     14  C   UNL A   1      38.848  28.784  28.679  1.00  0.00     0.021 A 
ATOM     15  C   UNL A   1      40.138  29.795  30.407  1.00  0.00     0.129 A 
BRANCH  11  16
ATOM     16  N   UNL A   1      37.403  31.990  29.682  1.00  0.00    -0.356 N 
ATOM     17  N   UNL A   1      36.704  34.011  33.423  1.00  0.00    -0.342 N 
ATOM     18  C   UNL A   1      35.332  33.781  33.849  1.00  0.00     0.119 C 
ATOM     19  C   UNL A   1      36.989  34.339  32.099  1.00  0.00     0.230 C 
ATOM     20  C   UNL A   1      34.554  32.907  32.883  1.00  0.00     0.023 C 
ATOM     21  C   UNL A   1      36.195  33.523  31.068  1.00  0.00     0.069 C 
ATOM     22  O   UNL A   1      37.920  35.079  31.787  1.00  0.00    -0.274 OA
ATOM     23  C   UNL A   1      34.714  33.429  31.457  1.00  0.00     0.021 C 
ATOM     24  C   UNL A   1      36.389  34.062  29.635  1.00  0.00     0.040 C 
ATOM     25  C   UNL A   1      36.843  32.118  31.026  1.00  0.00     0.135 C 
ATOM     26  C   UNL A   1      37.617  33.305  29.113  1.00  0.00     0.119 C 
BRANCH  17  27
ATOM     27  C   UNL A   1      37.790  33.989  34.399  1.00  0.00     0.119 C 
BRANCH  27  28
ATOM     28  C   UNL A   1      38.484  32.650  34.632  1.00  0.00     0.018 C 
ATOM     29  C   UNL A   1      37.638  31.440  34.270  1.00  0.00     0.006 C 
ENDBRANCH  27  28
ENDBRANCH  17  27
ENDBRANCH  11  16
ENDBRANCH   8  10
ENDBRANCH   7   8
ENDBRANCH   6   7
ENDBRANCH   5   6
ENDBRANCH   4   5
ENDBRANCH   3   4
ENDBRANCH   2   3
ENDBRANCH   1   2
BRANCH   1  30
ATOM     30  C   UNL A   1      42.787  21.590  27.340  1.00  0.00     0.188 C 
BRANCH  30  31
ATOM     31  C   UNL A   1      42.599  20.442  26.315  1.00  0.00     0.188 C 
BRANCH  31  32
ATOM     32  O   UNL A   1      43.145  20.683  25.028  1.00  0.00    -0.376 OA
BRANCH  32  33
ATOM     33  C   UNL A   1      44.036  21.770  24.869  1.00  0.00     0.202 C 
BRANCH  33  34
ATOM     34  C   UNL A   1      45.515  21.427  24.654  1.00  0.00     0.261 C 
BRANCH  34  35
ATOM     35  O   UNL A   1      46.457  22.238  25.370  1.00  0.00    -0.460 OA
BRANCH  35  36
ATOM     36  C   UNL A   1      46.611  23.515  24.962  1.00  0.00     0.338 C 
ATOM     37  O   UNL A   1      46.809  23.905  23.821  1.00  0.00    -0.246 OA
BRANCH  36  38
ATOM     38  C   UNL A   1      46.310  24.388  26.113  1.00  0.00     0.060 A 
ATOM     39  C   UNL A   1      45.026  24.933  26.243  1.00  0.00     0.016 A 
ATOM     40  C   UNL A   1      47.292  24.649  27.072  1.00  0.00     0.016 A 
ATOM     41  C   UNL A   1      44.731  25.771  27.320  1.00  0.00     0.010 A 
ATOM     42  C   UNL A   1      47.000  25.502  28.138  1.00  0.00     0.010 A 
ATOM     43  C   UNL A   1      45.730  26.094  28.248  1.00  0.00    -0.014 A 
BRANCH  43  44
ATOM     44  C   UNL A   1      45.514  27.196  29.218  1.00  0.00     0.031 A 
ATOM     45  C   UNL A   1      45.786  28.605  28.763  1.00  0.00     0.074 A 
ATOM     46  C   UNL A   1      45.096  26.957  30.474  1.00  0.00     0.049 A 
ATOM     47  N   UNL A   1      45.741  29.720  29.440  1.00  0.00    -0.248 NA
ATOM     48  C   UNL A   1      46.162  28.776  27.348  1.00  0.00     0.031 C 
ATOM     49  C   UNL A   1      44.781  25.641  31.027  1.00  0.00     0.029 A 
ATOM     50  N   UNL A   1      44.890  27.821  31.521  1.00  0.00    -0.354 N 
ATOM     51  C   UNL A   1      46.102  30.721  28.545  1.00  0.00     0.074 A 
ATOM     52  C   UNL A   1      46.385  30.079  27.281  1.00  0.00     0.031 C 
ATOM     53  C   UNL A   1      44.450  25.782  32.324  1.00  0.00     0.029 A 
ATOM     54  C   UNL A   1      44.560  27.190  32.698  1.00  0.00     0.049 A 
ATOM     55  H   UNL A   1      44.970  28.799  31.437  1.00  0.00     0.167 HD
ATOM     56  C   UNL A   1      46.173  32.057  28.751  1.00  0.00     0.034 A 
ATOM     57  C   UNL A   1      44.398  27.694  33.939  1.00  0.00     0.034 A 
ATOM     58  C   UNL A   1      45.889  32.694  30.007  1.00  0.00     0.049 A 
ATOM     59  C   UNL A   1      44.548  29.181  34.155  1.00  0.00     0.074 A 
ATOM     60  C   UNL A   1      45.919  34.043  30.315  1.00  0.00     0.029 A 
ATOM     61  N   UNL A   1      45.532  32.025  31.168  1.00  0.00    -0.354 N 
ATOM     62  N   UNL A   1      44.799  30.124  33.279  1.00  0.00    -0.248 NA
ATOM     63  C   UNL A   1      44.360  29.677  35.526  1.00  0.00     0.031 C 
ATOM     64  C   UNL A   1      45.611  34.187  31.671  1.00  0.00     0.029 A 
ATOM     65  C   UNL A   1      45.345  32.932  32.197  1.00  0.00     0.049 A 
ATOM     66  H   UNL A   1      45.427  31.050  31.248  1.00  0.00     0.167 HD
ATOM     67  C   UNL A   1      44.749  31.324  33.983  1.00  0.00     0.074 A 
ATOM     68  C   UNL A   1      44.428  30.989  35.355  1.00  0.00     0.031 C 
ATOM     69  C   UNL A   1      44.962  32.588  33.541  1.00  0.00     0.034 A 
BRANCH  56  70
ATOM     70  C   UNL A   1      46.553  32.923  27.579  1.00  0.00     0.023 A 
ATOM     71  C   UNL A   1      45.545  33.578  26.840  1.00  0.00     0.012 A 
ATOM     72  C   UNL A   1      47.904  33.135  27.242  1.00  0.00     0.148 A 
ATOM     73  C   UNL A   1      45.874  34.404  25.766  1.00  0.00     0.002 A 
ATOM     74  C   UNL A   1      48.226  33.996  26.199  1.00  0.00     0.091 A 
ATOM     75  F   UNL A   1      48.846  32.488  27.943  1.00  0.00    -0.205 F 
ATOM     76  C   UNL A   1      47.213  34.620  25.452  1.00  0.00     0.022 A 
BRANCH  74  77
ATOM     77  S   UNL A   1      49.920  34.405  25.765  1.00  0.00     0.127 S 
ATOM     78  O   UNL A   1      50.414  33.121  25.267  1.00  0.00    -0.237 OA
ATOM     79  O   UNL A   1      49.734  35.427  24.736  1.00  0.00    -0.237 OA
ATOM     80  O   UNL A   1      50.548  34.879  26.991  1.00  0.00    -0.744 OA
ENDBRANCH  74  77
ENDBRANCH  56  70
BRANCH  57  81
ATOM     81  C   UNL A   1      44.060  26.799  35.085  1.00  0.00     0.023 A 
ATOM     82  C   UNL A   1      42.708  26.542  35.392  1.00  0.00     0.012 A 
ATOM     83  C   UNL A   1      45.064  26.230  35.893  1.00  0.00     0.148 A 
ATOM     84  C   UNL A   1      42.363  25.778  36.508  1.00  0.00     0.002 A 
ATOM     85  C   UNL A   1      44.714  25.422  36.968  1.00  0.00     0.091 A 
ATOM     86  F   UNL A   1      46.344  26.500  35.598  1.00  0.00    -0.205 F 
ATOM     87  C   UNL A   1      43.366  25.214  37.292  1.00  0.00     0.022 A 
BRANCH  85  88
ATOM     88  S   UNL A   1      45.936  24.555  37.959  1.00  0.00     0.127 S 
ATOM     89  O   UNL A   1      46.742  23.897  36.933  1.00  0.00    -0.237 OA
ATOM     90  O   UNL A   1      46.601  25.660  38.651  1.00  0.00    -0.237 OA
ATOM     91  O   UNL A   1      45.178  23.669  38.833  1.00  0.00    -0.744 OA
ENDBRANCH  85  88
ENDBRANCH  57  81
BRANCH  69  92
ATOM     92  C   UNL A   1      44.789  33.718  34.525  1.00  0.00     0.023 A 
ATOM     93  C   UNL A   1      45.888  34.181  35.274  1.00  0.00     0.012 A 
ATOM     94  C   UNL A   1      43.546  34.370  34.647  1.00  0.00     0.148 A 
ATOM     95  C   UNL A   1      45.743  35.250  36.158  1.00  0.00     0.002 A 
ATOM     96  C   UNL A   1      43.422  35.469  35.489  1.00  0.00     0.091 A 
ATOM     97  F   UNL A   1      42.507  33.906  33.936  1.00  0.00    -0.205 F 
ATOM     98  C   UNL A   1      44.515  35.902  36.256  1.00  0.00     0.022 A 
BRANCH  96  99
ATOM     99  S   UNL A   1      41.910  36.431  35.605  1.00  0.00     0.127 S 
ATOM    100  O   UNL A   1      41.945  36.874  36.998  1.00  0.00    -0.237 OA
ATOM    101  O   UNL A   1      42.142  37.490  34.622  1.00  0.00    -0.237 OA
ATOM    102  O   UNL A   1      40.824  35.520  35.269  1.00  0.00    -0.744 OA
ENDBRANCH  96  99
ENDBRANCH  69  92
ENDBRANCH  43  44
ENDBRANCH  36  38
ENDBRANCH  35  36
ENDBRANCH  34  35
ENDBRANCH  33  34
ENDBRANCH  32  33
ENDBRANCH  31  32
ENDBRANCH  30  31
ENDBRANCH   1  30
TORSDOF 26
ENDMDL
