MODEL 1
REMARK VINA RESULT:      -6.8      0.000      0.000
REMARK SMILES Cc1c(CC(=O)OCCOCCOCCOCCOC(=O)c2ccc(-c3c4nc(c(-c5cccc(S(=O)(=O)[O-])c5F)c5ccc([nH]5)c(-c5cccc(S(=O)(=O)[O-])c5F)c5nc(c(-c6cccc(S(=O)(=O)[O-])c6F)c6ccc3[nH]6)C=C5)C=C4)cc2)cc(-c2ccc(S(C)(=O)=O)cc2)n1-c1cccc(F)c1
REMARK SMILES IDX 13 1 12 2 11 3 10 4 9 5 8 6 7 7 5 8 6 9 4 10 3 11 1 12 2 13
REMARK SMILES IDX 97 14 85 15 86 16 98 17 99 18 104 19 100 20 102 21 101 22
REMARK SMILES IDX 103 23 87 24 88 25 96 26 89 27 95 28 90 29 91 30 92 31 93 32
REMARK SMILES IDX 94 33 14 34 15 35 16 36 17 37 18 38 19 39 20 40 21 41 22 42
REMARK SMILES IDX 23 43 84 44 24 45 83 46 25 47 26 48 27 49 77 50 28 51 82 52
REMARK SMILES IDX 76 53 78 54 29 55 81 56 75 57 74 58 30 60 62 61 42 62 61 63
REMARK SMILES IDX 43 64 46 65 60 66 79 67 44 68 45 69 59 71 80 72 47 73 31 74
REMARK SMILES IDX 32 75 40 76 33 77 35 78 41 79 34 80 36 81 37 82 38 83 39 84
REMARK SMILES IDX 63 85 64 86 72 87 65 88 67 89 73 90 66 91 68 92 69 93 70 94
REMARK SMILES IDX 71 95 48 96 49 97 57 98 50 99 52 100 58 101 51 102 53 103
REMARK SMILES IDX 54 104 55 105 56 106
REMARK H PARENT 78 59 46 70
REMARK Flexibility Score: inf
ROOT
ATOM      1  O   UNL A   1      48.430  27.017  35.263  1.00  0.00    -0.377 OA
ENDROOT
BRANCH   1   2
ATOM      2  C   UNL A   1      48.428  25.719  34.730  1.00  0.00     0.188 C 
BRANCH   2   3
ATOM      3  C   UNL A   1      47.547  25.375  33.520  1.00  0.00     0.188 C 
BRANCH   3   4
ATOM      4  O   UNL A   1      46.615  24.302  33.530  1.00  0.00    -0.376 OA
BRANCH   4   5
ATOM      5  C   UNL A   1      45.272  24.514  33.903  1.00  0.00     0.202 C 
BRANCH   5   6
ATOM      6  C   UNL A   1      44.654  25.924  33.859  1.00  0.00     0.261 C 
BRANCH   6   7
ATOM      7  O   UNL A   1      43.224  26.005  34.016  1.00  0.00    -0.463 OA
BRANCH   7   8
ATOM      8  C   UNL A   1      42.751  26.972  34.837  1.00  0.00     0.310 C 
ATOM      9  O   UNL A   1      43.444  27.537  35.682  1.00  0.00    -0.252 OA
BRANCH   8  10
ATOM     10  C   UNL A   1      41.260  27.250  34.730  1.00  0.00     0.160 C 
BRANCH  10  11
ATOM     11  C   UNL A   1      40.738  28.528  34.109  1.00  0.00    -0.015 A 
ATOM     12  C   UNL A   1      41.378  30.320  35.909  1.00  0.00     0.065 C 
ATOM     13  C   UNL A   1      40.773  29.825  34.636  1.00  0.00     0.024 A 
ATOM     14  N   UNL A   1      40.134  30.676  33.737  1.00  0.00    -0.313 N 
ATOM     15  C   UNL A   1      39.902  28.605  32.951  1.00  0.00     0.033 A 
ATOM     16  C   UNL A   1      39.468  29.912  32.794  1.00  0.00     0.053 A 
BRANCH  14  17
ATOM     17  C   UNL A   1      40.136  32.092  33.754  1.00  0.00     0.049 A 
ATOM     18  C   UNL A   1      39.377  32.785  34.702  1.00  0.00     0.027 A 
ATOM     19  C   UNL A   1      40.760  32.768  32.702  1.00  0.00     0.065 A 
ATOM     20  C   UNL A   1      39.257  34.176  34.596  1.00  0.00     0.005 A 
ATOM     21  C   UNL A   1      40.627  34.147  32.614  1.00  0.00     0.125 A 
ATOM     22  C   UNL A   1      39.882  34.858  33.548  1.00  0.00     0.039 A 
ATOM     23  F   UNL A   1      41.206  34.797  31.598  1.00  0.00    -0.207 F 
ENDBRANCH  14  17
BRANCH  16  24
ATOM     24  C   UNL A   1      38.419  30.455  31.923  1.00  0.00    -0.001 A 
ATOM     25  C   UNL A   1      38.664  30.787  30.585  1.00  0.00     0.011 A 
ATOM     26  C   UNL A   1      37.155  30.718  32.472  1.00  0.00     0.011 A 
ATOM     27  C   UNL A   1      37.664  31.380  29.804  1.00  0.00     0.021 A 
ATOM     28  C   UNL A   1      36.152  31.309  31.700  1.00  0.00     0.021 A 
ATOM     29  C   UNL A   1      36.414  31.641  30.368  1.00  0.00     0.067 A 
BRANCH  29  30
ATOM     30  S   UNL A   1      35.106  32.333  29.378  1.00  0.00     0.175 S 
ATOM     31  C   UNL A   1      35.785  33.819  28.686  1.00  0.00     0.163 C 
ATOM     32  O   UNL A   1      34.878  31.372  28.287  1.00  0.00    -0.224 OA
ATOM     33  O   UNL A   1      34.038  32.699  30.255  1.00  0.00    -0.224 OA
ENDBRANCH  29  30
ENDBRANCH  16  24
ENDBRANCH  10  11
ENDBRANCH   8  10
ENDBRANCH   7   8
ENDBRANCH   6   7
ENDBRANCH   5   6
ENDBRANCH   4   5
ENDBRANCH   3   4
ENDBRANCH   2   3
ENDBRANCH   1   2
BRANCH   1  34
ATOM     34  C   UNL A   1      47.231  27.742  35.362  1.00  0.00     0.188 C 
BRANCH  34  35
ATOM     35  C   UNL A   1      47.461  29.241  35.170  1.00  0.00     0.188 C 
BRANCH  35  36
ATOM     36  O   UNL A   1      48.204  29.914  36.175  1.00  0.00    -0.376 OA
BRANCH  36  37
ATOM     37  C   UNL A   1      48.217  31.341  36.155  1.00  0.00     0.202 C 
BRANCH  37  38
ATOM     38  C   UNL A   1      46.926  32.162  36.497  1.00  0.00     0.261 C 
BRANCH  38  39
ATOM     39  O   UNL A   1      46.615  33.540  36.018  1.00  0.00    -0.460 OA
BRANCH  39  40
ATOM     40  C   UNL A   1      45.586  33.722  35.085  1.00  0.00     0.338 C 
ATOM     41  O   UNL A   1      44.917  34.749  35.079  1.00  0.00    -0.246 OA
BRANCH  40  42
ATOM     42  C   UNL A   1      45.281  32.571  34.043  1.00  0.00     0.060 A 
ATOM     43  C   UNL A   1      46.120  31.970  33.043  1.00  0.00     0.016 A 
ATOM     44  C   UNL A   1      44.041  32.044  33.947  1.00  0.00     0.016 A 
ATOM     45  C   UNL A   1      45.731  30.821  32.000  1.00  0.00     0.010 A 
ATOM     46  C   UNL A   1      43.769  30.980  32.955  1.00  0.00     0.010 A 
ATOM     47  C   UNL A   1      44.450  30.240  31.857  1.00  0.00    -0.014 A 
BRANCH  47  48
ATOM     48  C   UNL A   1      43.908  28.552  31.275  1.00  0.00     0.031 A 
ATOM     49  C   UNL A   1      42.532  28.930  30.820  1.00  0.00     0.074 A 
ATOM     50  C   UNL A   1      44.268  27.193  30.643  1.00  0.00     0.049 A 
ATOM     51  N   UNL A   1      42.449  30.149  30.346  1.00  0.00    -0.248 NA
ATOM     52  C   UNL A   1      41.571  28.089  30.146  1.00  0.00     0.031 C 
ATOM     53  C   UNL A   1      45.605  26.625  30.353  1.00  0.00     0.029 A 
ATOM     54  N   UNL A   1      43.464  25.972  29.907  1.00  0.00    -0.354 N 
ATOM     55  C   UNL A   1      42.584  29.863  29.015  1.00  0.00     0.074 A 
ATOM     56  C   UNL A   1      41.539  28.796  28.997  1.00  0.00     0.031 C 
ATOM     57  C   UNL A   1      45.631  25.577  29.463  1.00  0.00     0.029 A 
ATOM     58  C   UNL A   1      44.305  25.056  28.981  1.00  0.00     0.049 A 
ATOM     59  H   UNL A   1      42.501  25.828  30.044  1.00  0.00     0.167 HD
ATOM     60  C   UNL A   1      43.741  30.039  28.210  1.00  0.00     0.034 A 
ATOM     61  C   UNL A   1      44.275  23.949  27.972  1.00  0.00     0.034 A 
ATOM     62  C   UNL A   1      43.589  29.583  26.846  1.00  0.00     0.049 A 
ATOM     63  C   UNL A   1      44.738  24.747  26.781  1.00  0.00     0.074 A 
ATOM     64  C   UNL A   1      42.814  28.532  26.427  1.00  0.00     0.029 A 
ATOM     65  N   UNL A   1      44.759  29.295  26.123  1.00  0.00    -0.354 N 
ATOM     66  N   UNL A   1      45.944  24.957  26.359  1.00  0.00    -0.248 NA
ATOM     67  C   UNL A   1      43.652  25.259  25.875  1.00  0.00     0.031 C 
ATOM     68  C   UNL A   1      43.740  27.626  26.985  1.00  0.00     0.029 A 
ATOM     69  C   UNL A   1      44.991  27.978  26.444  1.00  0.00     0.049 A 
ATOM     70  H   UNL A   1      45.282  29.887  25.535  1.00  0.00     0.167 HD
ATOM     71  C   UNL A   1      45.735  26.015  25.478  1.00  0.00     0.074 A 
ATOM     72  C   UNL A   1      44.388  25.870  24.947  1.00  0.00     0.031 C 
ATOM     73  C   UNL A   1      46.134  27.220  25.994  1.00  0.00     0.034 A 
BRANCH  60  74
ATOM     74  C   UNL A   1      45.326  30.439  28.545  1.00  0.00     0.023 A 
ATOM     75  C   UNL A   1      46.395  29.573  28.913  1.00  0.00     0.012 A 
ATOM     76  C   UNL A   1      45.725  31.778  28.455  1.00  0.00     0.148 A 
ATOM     77  C   UNL A   1      47.668  29.991  29.370  1.00  0.00     0.002 A 
ATOM     78  C   UNL A   1      47.034  32.193  28.771  1.00  0.00     0.091 A 
ATOM     79  F   UNL A   1      44.815  32.667  28.033  1.00  0.00    -0.205 F 
ATOM     80  C   UNL A   1      47.989  31.323  29.301  1.00  0.00     0.022 A 
BRANCH  78  81
ATOM     81  S   UNL A   1      47.539  33.858  28.372  1.00  0.00     0.127 S 
ATOM     82  O   UNL A   1      48.927  33.869  28.831  1.00  0.00    -0.237 OA
ATOM     83  O   UNL A   1      47.372  33.940  26.922  1.00  0.00    -0.237 OA
ATOM     84  O   UNL A   1      46.609  34.694  29.127  1.00  0.00    -0.744 OA
ENDBRANCH  78  81
ENDBRANCH  60  74
BRANCH  61  85
ATOM     85  C   UNL A   1      43.683  22.603  27.007  1.00  0.00     0.023 A 
ATOM     86  C   UNL A   1      42.472  21.955  27.324  1.00  0.00     0.012 A 
ATOM     87  C   UNL A   1      44.482  21.645  26.176  1.00  0.00     0.148 A 
ATOM     88  C   UNL A   1      42.081  20.671  26.748  1.00  0.00     0.002 A 
ATOM     89  C   UNL A   1      44.028  20.548  25.418  1.00  0.00     0.091 A 
ATOM     90  F   UNL A   1      45.758  21.408  26.496  1.00  0.00    -0.205 F 
ATOM     91  C   UNL A   1      42.818  20.004  25.756  1.00  0.00     0.022 A 
BRANCH  89  92
ATOM     92  S   UNL A   1      45.112  19.687  24.214  1.00  0.00     0.127 S 
ATOM     93  O   UNL A   1      46.415  20.321  24.412  1.00  0.00    -0.237 OA
ATOM     94  O   UNL A   1      45.032  18.307  24.696  1.00  0.00    -0.237 OA
ATOM     95  O   UNL A   1      44.523  19.893  22.897  1.00  0.00    -0.744 OA
ENDBRANCH  89  92
ENDBRANCH  61  85
BRANCH  73  96
ATOM     96  C   UNL A   1      47.586  27.149  26.404  1.00  0.00     0.023 A 
ATOM     97  C   UNL A   1      47.810  26.794  27.757  1.00  0.00     0.012 A 
ATOM     98  C   UNL A   1      48.692  27.637  25.688  1.00  0.00     0.148 A 
ATOM     99  C   UNL A   1      49.042  26.987  28.382  1.00  0.00     0.002 A 
ATOM    100  C   UNL A   1      49.926  27.857  26.315  1.00  0.00     0.091 A 
ATOM    101  F   UNL A   1      48.542  27.930  24.402  1.00  0.00    -0.205 F 
ATOM    102  C   UNL A   1      50.096  27.535  27.665  1.00  0.00     0.022 A 
BRANCH 100 103
ATOM    103  S   UNL A   1      51.294  28.725  25.508  1.00  0.00     0.127 S 
ATOM    104  O   UNL A   1      50.872  30.128  25.564  1.00  0.00    -0.237 OA
ATOM    105  O   UNL A   1      52.434  28.406  26.362  1.00  0.00    -0.237 OA
ATOM    106  O   UNL A   1      51.361  28.200  24.149  1.00  0.00    -0.744 OA
ENDBRANCH 100 103
ENDBRANCH  73  96
ENDBRANCH  47  48
ENDBRANCH  40  42
ENDBRANCH  39  40
ENDBRANCH  38  39
ENDBRANCH  37  38
ENDBRANCH  36  37
ENDBRANCH  35  36
ENDBRANCH  34  35
ENDBRANCH   1  34
TORSDOF 27
ENDMDL
MODEL 2
REMARK VINA RESULT:      -6.7      4.962     10.315
REMARK SMILES Cc1c(CC(=O)OCCOCCOCCOCCOC(=O)c2ccc(-c3c4nc(c(-c5cccc(S(=O)(=O)[O-])c5F)c5ccc([nH]5)c(-c5cccc(S(=O)(=O)[O-])c5F)c5nc(c(-c6cccc(S(=O)(=O)[O-])c6F)c6ccc3[nH]6)C=C5)C=C4)cc2)cc(-c2ccc(S(C)(=O)=O)cc2)n1-c1cccc(F)c1
REMARK SMILES IDX 13 1 12 2 11 3 10 4 9 5 8 6 7 7 5 8 6 9 4 10 3 11 1 12 2 13
REMARK SMILES IDX 97 14 85 15 86 16 98 17 99 18 104 19 100 20 102 21 101 22
REMARK SMILES IDX 103 23 87 24 88 25 96 26 89 27 95 28 90 29 91 30 92 31 93 32
REMARK SMILES IDX 94 33 14 34 15 35 16 36 17 37 18 38 19 39 20 40 21 41 22 42
REMARK SMILES IDX 23 43 84 44 24 45 83 46 25 47 26 48 27 49 77 50 28 51 82 52
REMARK SMILES IDX 76 53 78 54 29 55 81 56 75 57 74 58 30 60 62 61 42 62 61 63
REMARK SMILES IDX 43 64 46 65 60 66 79 67 44 68 45 69 59 71 80 72 47 73 31 74
REMARK SMILES IDX 32 75 40 76 33 77 35 78 41 79 34 80 36 81 37 82 38 83 39 84
REMARK SMILES IDX 63 85 64 86 72 87 65 88 67 89 73 90 66 91 68 92 69 93 70 94
REMARK SMILES IDX 71 95 48 96 49 97 57 98 50 99 52 100 58 101 51 102 53 103
REMARK SMILES IDX 54 104 55 105 56 106
REMARK H PARENT 78 59 46 70
REMARK Flexibility Score: inf
ROOT
ATOM      1  O   UNL A   1      46.883  40.411  38.530  1.00  0.00    -0.377 OA
ENDROOT
BRANCH   1   2
ATOM      2  C   UNL A   1      47.092  41.782  38.317  1.00  0.00     0.188 C 
BRANCH   2   3
ATOM      3  C   UNL A   1      46.014  42.803  38.710  1.00  0.00     0.188 C 
BRANCH   3   4
ATOM      4  O   UNL A   1      44.858  43.039  37.918  1.00  0.00    -0.376 OA
BRANCH   4   5
ATOM      5  C   UNL A   1      44.610  42.282  36.755  1.00  0.00     0.202 C 
BRANCH   5   6
ATOM      6  C   UNL A   1      43.315  42.479  35.947  1.00  0.00     0.261 C 
BRANCH   6   7
ATOM      7  O   UNL A   1      43.377  43.409  34.847  1.00  0.00    -0.463 OA
BRANCH   7   8
ATOM      8  C   UNL A   1      42.575  43.158  33.786  1.00  0.00     0.310 C 
ATOM      9  O   UNL A   1      42.017  44.043  33.138  1.00  0.00    -0.252 OA
BRANCH   8  10
ATOM     10  C   UNL A   1      42.308  41.689  33.500  1.00  0.00     0.160 C 
BRANCH  10  11
ATOM     11  C   UNL A   1      42.815  41.025  32.237  1.00  0.00    -0.015 A 
ATOM     12  C   UNL A   1      41.172  41.956  30.423  1.00  0.00     0.065 C 
ATOM     13  C   UNL A   1      42.305  41.129  30.938  1.00  0.00     0.024 A 
ATOM     14  N   UNL A   1      43.062  40.308  30.107  1.00  0.00    -0.313 N 
ATOM     15  C   UNL A   1      43.790  39.979  32.186  1.00  0.00     0.033 A 
ATOM     16  C   UNL A   1      43.860  39.491  30.891  1.00  0.00     0.053 A 
BRANCH  14  17
ATOM     17  C   UNL A   1      43.045  40.278  28.691  1.00  0.00     0.049 A 
ATOM     18  C   UNL A   1      43.967  41.032  27.959  1.00  0.00     0.027 A 
ATOM     19  C   UNL A   1      41.984  39.628  28.054  1.00  0.00     0.065 A 
ATOM     20  C   UNL A   1      43.826  41.122  26.569  1.00  0.00     0.005 A 
ATOM     21  C   UNL A   1      41.861  39.731  26.675  1.00  0.00     0.125 A 
ATOM     22  C   UNL A   1      42.769  40.472  25.926  1.00  0.00     0.039 A 
ATOM     23  F   UNL A   1      40.837  39.128  26.062  1.00  0.00    -0.207 F 
ENDBRANCH  14  17
BRANCH  16  24
ATOM     24  C   UNL A   1      44.511  38.280  30.378  1.00  0.00    -0.001 A 
ATOM     25  C   UNL A   1      43.804  37.087  30.177  1.00  0.00     0.011 A 
ATOM     26  C   UNL A   1      45.895  38.301  30.155  1.00  0.00     0.011 A 
ATOM     27  C   UNL A   1      44.471  35.927  29.764  1.00  0.00     0.021 A 
ATOM     28  C   UNL A   1      46.568  37.147  29.743  1.00  0.00     0.021 A 
ATOM     29  C   UNL A   1      45.850  35.963  29.553  1.00  0.00     0.067 A 
BRANCH  29  30
ATOM     30  S   UNL A   1      46.709  34.519  28.965  1.00  0.00     0.175 S 
ATOM     31  C   UNL A   1      46.074  34.233  27.333  1.00  0.00     0.163 C 
ATOM     32  O   UNL A   1      48.123  34.911  28.853  1.00  0.00    -0.224 OA
ATOM     33  O   UNL A   1      46.328  33.415  29.789  1.00  0.00    -0.224 OA
ENDBRANCH  29  30
ENDBRANCH  16  24
ENDBRANCH  10  11
ENDBRANCH   8  10
ENDBRANCH   7   8
ENDBRANCH   6   7
ENDBRANCH   5   6
ENDBRANCH   4   5
ENDBRANCH   3   4
ENDBRANCH   2   3
ENDBRANCH   1   2
BRANCH   1  34
ATOM     34  C   UNL A   1      47.971  39.522  38.534  1.00  0.00     0.188 C 
BRANCH  34  35
ATOM     35  C   UNL A   1      47.733  38.343  39.477  1.00  0.00     0.188 C 
BRANCH  35  36
ATOM     36  O   UNL A   1      47.098  37.197  38.931  1.00  0.00    -0.376 OA
BRANCH  36  37
ATOM     37  C   UNL A   1      47.784  36.474  37.909  1.00  0.00     0.202 C 
BRANCH  37  38
ATOM     38  C   UNL A   1      47.398  36.651  36.400  1.00  0.00     0.261 C 
BRANCH  38  39
ATOM     39  O   UNL A   1      46.208  37.388  35.885  1.00  0.00    -0.460 OA
BRANCH  39  40
ATOM     40  C   UNL A   1      45.909  37.329  34.517  1.00  0.00     0.338 C 
ATOM     41  O   UNL A   1      46.124  38.288  33.785  1.00  0.00    -0.246 OA
BRANCH  40  42
ATOM     42  C   UNL A   1      45.271  36.008  33.926  1.00  0.00     0.060 A 
ATOM     43  C   UNL A   1      43.935  35.740  33.468  1.00  0.00     0.016 A 
ATOM     44  C   UNL A   1      45.991  34.868  33.860  1.00  0.00     0.016 A 
ATOM     45  C   UNL A   1      43.351  34.362  32.904  1.00  0.00     0.010 A 
ATOM     46  C   UNL A   1      45.373  33.637  33.319  1.00  0.00     0.010 A 
ATOM     47  C   UNL A   1      44.062  33.142  32.817  1.00  0.00    -0.014 A 
BRANCH  47  48
ATOM     48  C   UNL A   1      43.895  31.684  31.664  1.00  0.00     0.031 A 
ATOM     49  C   UNL A   1      44.466  30.642  32.576  1.00  0.00     0.074 A 
ATOM     50  C   UNL A   1      43.117  30.969  30.542  1.00  0.00     0.049 A 
ATOM     51  N   UNL A   1      44.219  30.858  33.845  1.00  0.00    -0.248 NA
ATOM     52  C   UNL A   1      44.542  29.219  32.340  1.00  0.00     0.031 C 
ATOM     53  C   UNL A   1      41.999  31.476  29.714  1.00  0.00     0.029 A 
ATOM     54  N   UNL A   1      43.026  29.450  29.938  1.00  0.00    -0.354 N 
ATOM     55  C   UNL A   1      43.110  30.069  33.978  1.00  0.00     0.074 A 
ATOM     56  C   UNL A   1      43.727  28.860  33.354  1.00  0.00     0.031 C 
ATOM     57  C   UNL A   1      41.259  30.521  29.056  1.00  0.00     0.029 A 
ATOM     58  C   UNL A   1      41.734  29.098  29.157  1.00  0.00     0.049 A 
ATOM     59  H   UNL A   1      43.751  28.797  30.063  1.00  0.00     0.167 HD
ATOM     60  C   UNL A   1      41.755  30.490  34.036  1.00  0.00     0.034 A 
ATOM     61  C   UNL A   1      40.937  28.011  28.503  1.00  0.00     0.034 A 
ATOM     62  C   UNL A   1      40.801  29.406  34.118  1.00  0.00     0.049 A 
ATOM     63  C   UNL A   1      39.772  28.010  29.459  1.00  0.00     0.074 A 
ATOM     64  C   UNL A   1      40.939  28.163  33.554  1.00  0.00     0.029 A 
ATOM     65  N   UNL A   1      39.476  29.677  33.731  1.00  0.00    -0.354 N 
ATOM     66  N   UNL A   1      38.676  28.698  29.409  1.00  0.00    -0.248 NA
ATOM     67  C   UNL A   1      39.819  26.972  30.546  1.00  0.00     0.031 C 
ATOM     68  C   UNL A   1      40.714  28.717  32.276  1.00  0.00     0.029 A 
ATOM     69  C   UNL A   1      39.506  29.433  32.378  1.00  0.00     0.049 A 
ATOM     70  H   UNL A   1      38.719  29.968  34.289  1.00  0.00     0.167 HD
ATOM     71  C   UNL A   1      38.196  28.524  30.705  1.00  0.00     0.074 A 
ATOM     72  C   UNL A   1      38.666  27.226  31.164  1.00  0.00     0.031 C 
ATOM     73  C   UNL A   1      38.384  29.630  31.491  1.00  0.00     0.034 A 
BRANCH  60  74
ATOM     74  C   UNL A   1      40.994  31.955  33.795  1.00  0.00     0.023 A 
ATOM     75  C   UNL A   1      40.429  32.467  32.592  1.00  0.00     0.012 A 
ATOM     76  C   UNL A   1      40.844  32.832  34.875  1.00  0.00     0.148 A 
ATOM     77  C   UNL A   1      39.969  33.792  32.401  1.00  0.00     0.002 A 
ATOM     78  C   UNL A   1      40.255  34.104  34.732  1.00  0.00     0.091 A 
ATOM     79  F   UNL A   1      41.265  32.411  36.076  1.00  0.00    -0.205 F 
ATOM     80  C   UNL A   1      39.885  34.623  33.490  1.00  0.00     0.022 A 
BRANCH  78  81
ATOM     81  S   UNL A   1      39.853  35.047  36.194  1.00  0.00     0.127 S 
ATOM     82  O   UNL A   1      39.626  36.379  35.638  1.00  0.00    -0.237 OA
ATOM     83  O   UNL A   1      38.657  34.390  36.719  1.00  0.00    -0.237 OA
ATOM     84  O   UNL A   1      41.034  34.899  37.039  1.00  0.00    -0.744 OA
ENDBRANCH  78  81
ENDBRANCH  60  74
BRANCH  61  85
ATOM     85  C   UNL A   1      40.529  26.453  27.796  1.00  0.00     0.023 A 
ATOM     86  C   UNL A   1      39.187  26.052  27.639  1.00  0.00     0.012 A 
ATOM     87  C   UNL A   1      41.359  25.205  27.777  1.00  0.00     0.148 A 
ATOM     88  C   UNL A   1      38.796  24.678  27.334  1.00  0.00     0.002 A 
ATOM     89  C   UNL A   1      41.039  23.944  27.238  1.00  0.00     0.091 A 
ATOM     90  F   UNL A   1      42.267  25.009  28.738  1.00  0.00    -0.205 F 
ATOM     91  C   UNL A   1      39.713  23.647  27.071  1.00  0.00     0.022 A 
BRANCH  89  92
ATOM     92  S   UNL A   1      42.302  22.631  27.027  1.00  0.00     0.127 S 
ATOM     93  O   UNL A   1      41.686  21.713  26.069  1.00  0.00    -0.237 OA
ATOM     94  O   UNL A   1      43.426  23.400  26.490  1.00  0.00    -0.237 OA
ATOM     95  O   UNL A   1      42.545  22.066  28.348  1.00  0.00    -0.744 OA
ENDBRANCH  89  92
ENDBRANCH  61  85
BRANCH  73  96
ATOM     96  C   UNL A   1      37.743  30.836  30.845  1.00  0.00     0.023 A 
ATOM     97  C   UNL A   1      38.572  31.540  29.938  1.00  0.00     0.012 A 
ATOM     98  C   UNL A   1      36.550  31.468  31.231  1.00  0.00     0.148 A 
ATOM     99  C   UNL A   1      38.269  32.829  29.501  1.00  0.00     0.002 A 
ATOM    100  C   UNL A   1      36.250  32.773  30.816  1.00  0.00     0.091 A 
ATOM    101  F   UNL A   1      35.716  30.822  32.036  1.00  0.00    -0.205 F 
ATOM    102  C   UNL A   1      37.115  33.453  29.953  1.00  0.00     0.022 A 
BRANCH 100 103
ATOM    103  S   UNL A   1      34.865  33.722  31.492  1.00  0.00     0.127 S 
ATOM    104  O   UNL A   1      35.526  34.671  32.393  1.00  0.00    -0.237 OA
ATOM    105  O   UNL A   1      34.275  34.332  30.305  1.00  0.00    -0.237 OA
ATOM    106  O   UNL A   1      34.019  32.761  32.191  1.00  0.00    -0.744 OA
ENDBRANCH 100 103
ENDBRANCH  73  96
ENDBRANCH  47  48
ENDBRANCH  40  42
ENDBRANCH  39  40
ENDBRANCH  38  39
ENDBRANCH  37  38
ENDBRANCH  36  37
ENDBRANCH  35  36
ENDBRANCH  34  35
ENDBRANCH   1  34
TORSDOF 27
ENDMDL
MODEL 3
REMARK VINA RESULT:      -6.4      4.920      9.278
REMARK SMILES Cc1c(CC(=O)OCCOCCOCCOCCOC(=O)c2ccc(-c3c4nc(c(-c5cccc(S(=O)(=O)[O-])c5F)c5ccc([nH]5)c(-c5cccc(S(=O)(=O)[O-])c5F)c5nc(c(-c6cccc(S(=O)(=O)[O-])c6F)c6ccc3[nH]6)C=C5)C=C4)cc2)cc(-c2ccc(S(C)(=O)=O)cc2)n1-c1cccc(F)c1
REMARK SMILES IDX 13 1 12 2 11 3 10 4 9 5 8 6 7 7 5 8 6 9 4 10 3 11 1 12 2 13
REMARK SMILES IDX 97 14 85 15 86 16 98 17 99 18 104 19 100 20 102 21 101 22
REMARK SMILES IDX 103 23 87 24 88 25 96 26 89 27 95 28 90 29 91 30 92 31 93 32
REMARK SMILES IDX 94 33 14 34 15 35 16 36 17 37 18 38 19 39 20 40 21 41 22 42
REMARK SMILES IDX 23 43 84 44 24 45 83 46 25 47 26 48 27 49 77 50 28 51 82 52
REMARK SMILES IDX 76 53 78 54 29 55 81 56 75 57 74 58 30 60 62 61 42 62 61 63
REMARK SMILES IDX 43 64 46 65 60 66 79 67 44 68 45 69 59 71 80 72 47 73 31 74
REMARK SMILES IDX 32 75 40 76 33 77 35 78 41 79 34 80 36 81 37 82 38 83 39 84
REMARK SMILES IDX 63 85 64 86 72 87 65 88 67 89 73 90 66 91 68 92 69 93 70 94
REMARK SMILES IDX 71 95 48 96 49 97 57 98 50 99 52 100 58 101 51 102 53 103
REMARK SMILES IDX 54 104 55 105 56 106
REMARK H PARENT 78 59 46 70
REMARK Flexibility Score: inf
ROOT
ATOM      1  O   UNL A   1      49.365  36.892  25.100  1.00  0.00    -0.377 OA
ENDROOT
BRANCH   1   2
ATOM      2  C   UNL A   1      48.115  37.529  25.093  1.00  0.00     0.188 C 
BRANCH   2   3
ATOM      3  C   UNL A   1      47.926  38.880  25.798  1.00  0.00     0.188 C 
BRANCH   3   4
ATOM      4  O   UNL A   1      47.066  39.893  25.295  1.00  0.00    -0.376 OA
BRANCH   4   5
ATOM      5  C   UNL A   1      45.900  40.265  25.995  1.00  0.00     0.202 C 
BRANCH   5   6
ATOM      6  C   UNL A   1      44.912  39.200  26.504  1.00  0.00     0.261 C 
BRANCH   6   7
ATOM      7  O   UNL A   1      43.515  39.435  26.233  1.00  0.00    -0.463 OA
BRANCH   7   8
ATOM      8  C   UNL A   1      43.065  40.701  26.392  1.00  0.00     0.310 C 
ATOM      9  O   UNL A   1      43.367  41.624  25.637  1.00  0.00    -0.252 OA
BRANCH   8  10
ATOM     10  C   UNL A   1      42.235  40.949  27.642  1.00  0.00     0.160 C 
BRANCH  10  11
ATOM     11  C   UNL A   1      42.861  40.929  29.021  1.00  0.00    -0.015 A 
ATOM     12  C   UNL A   1      44.332  43.096  28.994  1.00  0.00     0.065 C 
ATOM     13  C   UNL A   1      43.772  41.837  29.573  1.00  0.00     0.024 A 
ATOM     14  N   UNL A   1      44.107  41.394  30.849  1.00  0.00    -0.313 N 
ATOM     15  C   UNL A   1      42.801  39.836  29.941  1.00  0.00     0.033 A 
ATOM     16  C   UNL A   1      43.642  40.099  31.010  1.00  0.00     0.053 A 
BRANCH  14  17
ATOM     17  C   UNL A   1      44.813  42.113  31.845  1.00  0.00     0.049 A 
ATOM     18  C   UNL A   1      44.116  42.853  32.805  1.00  0.00     0.027 A 
ATOM     19  C   UNL A   1      46.203  42.210  31.734  1.00  0.00     0.065 A 
ATOM     20  C   UNL A   1      44.829  43.690  33.672  1.00  0.00     0.005 A 
ATOM     21  C   UNL A   1      46.891  43.047  32.603  1.00  0.00     0.125 A 
ATOM     22  C   UNL A   1      46.219  43.789  33.569  1.00  0.00     0.039 A 
ATOM     23  F   UNL A   1      48.218  43.159  32.489  1.00  0.00    -0.207 F 
ENDBRANCH  14  17
BRANCH  16  24
ATOM     24  C   UNL A   1      44.115  39.207  32.076  1.00  0.00    -0.001 A 
ATOM     25  C   UNL A   1      43.430  39.076  33.290  1.00  0.00     0.011 A 
ATOM     26  C   UNL A   1      45.328  38.527  31.898  1.00  0.00     0.011 A 
ATOM     27  C   UNL A   1      43.951  38.280  34.318  1.00  0.00     0.021 A 
ATOM     28  C   UNL A   1      45.856  37.732  32.918  1.00  0.00     0.021 A 
ATOM     29  C   UNL A   1      45.164  37.615  34.127  1.00  0.00     0.067 A 
BRANCH  29  30
ATOM     30  S   UNL A   1      45.813  36.546  35.393  1.00  0.00     0.175 S 
ATOM     31  C   UNL A   1      46.150  35.008  34.574  1.00  0.00     0.163 C 
ATOM     32  O   UNL A   1      47.092  37.145  35.807  1.00  0.00    -0.224 OA
ATOM     33  O   UNL A   1      44.777  36.320  36.352  1.00  0.00    -0.224 OA
ENDBRANCH  29  30
ENDBRANCH  16  24
ENDBRANCH  10  11
ENDBRANCH   8  10
ENDBRANCH   7   8
ENDBRANCH   6   7
ENDBRANCH   5   6
ENDBRANCH   4   5
ENDBRANCH   3   4
ENDBRANCH   2   3
ENDBRANCH   1   2
BRANCH   1  34
ATOM     34  C   UNL A   1      50.277  37.135  26.141  1.00  0.00     0.188 C 
BRANCH  34  35
ATOM     35  C   UNL A   1      50.265  36.011  27.176  1.00  0.00     0.188 C 
BRANCH  35  36
ATOM     36  O   UNL A   1      48.999  35.475  27.533  1.00  0.00    -0.376 OA
BRANCH  36  37
ATOM     37  C   UNL A   1      48.345  36.012  28.683  1.00  0.00     0.202 C 
BRANCH  37  38
ATOM     38  C   UNL A   1      46.964  36.743  28.555  1.00  0.00     0.261 C 
BRANCH  38  39
ATOM     39  O   UNL A   1      45.694  36.131  28.068  1.00  0.00    -0.460 OA
BRANCH  39  40
ATOM     40  C   UNL A   1      45.246  34.937  28.649  1.00  0.00     0.338 C 
ATOM     41  O   UNL A   1      44.395  34.949  29.532  1.00  0.00    -0.246 OA
BRANCH  40  42
ATOM     42  C   UNL A   1      45.866  33.565  28.164  1.00  0.00     0.060 A 
ATOM     43  C   UNL A   1      46.790  32.677  28.815  1.00  0.00     0.016 A 
ATOM     44  C   UNL A   1      45.605  33.094  26.927  1.00  0.00     0.016 A 
ATOM     45  C   UNL A   1      47.398  31.310  28.247  1.00  0.00     0.010 A 
ATOM     46  C   UNL A   1      46.206  31.816  26.483  1.00  0.00     0.010 A 
ATOM     47  C   UNL A   1      47.159  30.776  26.960  1.00  0.00    -0.014 A 
BRANCH  47  48
ATOM     48  C   UNL A   1      47.156  29.022  26.322  1.00  0.00     0.031 A 
ATOM     49  C   UNL A   1      48.334  28.524  27.101  1.00  0.00     0.074 A 
ATOM     50  C   UNL A   1      46.364  27.802  25.814  1.00  0.00     0.049 A 
ATOM     51  N   UNL A   1      48.465  29.087  28.277  1.00  0.00    -0.248 NA
ATOM     52  C   UNL A   1      48.837  27.172  27.160  1.00  0.00     0.031 C 
ATOM     53  C   UNL A   1      44.931  27.706  25.453  1.00  0.00     0.029 A 
ATOM     54  N   UNL A   1      46.632  26.196  25.640  1.00  0.00    -0.354 N 
ATOM     55  C   UNL A   1      47.829  28.139  29.032  1.00  0.00     0.074 A 
ATOM     56  C   UNL A   1      48.595  26.984  28.474  1.00  0.00     0.031 C 
ATOM     57  C   UNL A   1      44.412  26.433  25.389  1.00  0.00     0.029 A 
ATOM     58  C   UNL A   1      45.374  25.293  25.575  1.00  0.00     0.049 A 
ATOM     59  H   UNL A   1      47.541  25.825  25.580  1.00  0.00     0.167 HD
ATOM     60  C   UNL A   1      46.517  28.204  29.570  1.00  0.00     0.034 A 
ATOM     61  C   UNL A   1      44.856  23.887  25.566  1.00  0.00     0.034 A 
ATOM     62  C   UNL A   1      46.105  27.011  30.275  1.00  0.00     0.049 A 
ATOM     63  C   UNL A   1      44.160  23.918  26.903  1.00  0.00     0.074 A 
ATOM     64  C   UNL A   1      46.486  25.726  29.981  1.00  0.00     0.029 A 
ATOM     65  N   UNL A   1      44.725  26.797  30.440  1.00  0.00    -0.354 N 
ATOM     66  N   UNL A   1      42.941  24.254  27.180  1.00  0.00    -0.248 NA
ATOM     67  C   UNL A   1      44.939  23.353  28.059  1.00  0.00     0.031 C 
ATOM     68  C   UNL A   1      45.664  25.743  28.835  1.00  0.00     0.029 A 
ATOM     69  C   UNL A   1      44.388  26.127  29.287  1.00  0.00     0.049 A 
ATOM     70  H   UNL A   1      44.146  27.061  31.192  1.00  0.00     0.167 HD
ATOM     71  C   UNL A   1      43.018  24.414  28.561  1.00  0.00     0.074 A 
ATOM     72  C   UNL A   1      44.050  23.506  29.039  1.00  0.00     0.031 C 
ATOM     73  C   UNL A   1      43.043  25.729  28.942  1.00  0.00     0.034 A 
BRANCH  60  74
ATOM     74  C   UNL A   1      45.243  29.265  29.373  1.00  0.00     0.023 A 
ATOM     75  C   UNL A   1      44.337  29.359  28.279  1.00  0.00     0.012 A 
ATOM     76  C   UNL A   1      44.967  30.195  30.382  1.00  0.00     0.148 A 
ATOM     77  C   UNL A   1      43.399  30.400  28.079  1.00  0.00     0.002 A 
ATOM     78  C   UNL A   1      43.939  31.150  30.259  1.00  0.00     0.091 A 
ATOM     79  F   UNL A   1      45.709  30.135  31.496  1.00  0.00    -0.205 F 
ATOM     80  C   UNL A   1      43.202  31.312  29.085  1.00  0.00     0.022 A 
BRANCH  78  81
ATOM     81  S   UNL A   1      43.472  32.114  31.688  1.00  0.00     0.127 S 
ATOM     82  O   UNL A   1      43.202  31.073  32.677  1.00  0.00    -0.237 OA
ATOM     83  O   UNL A   1      44.653  32.930  31.964  1.00  0.00    -0.237 OA
ATOM     84  O   UNL A   1      42.315  32.878  31.230  1.00  0.00    -0.744 OA
ENDBRANCH  78  81
ENDBRANCH  60  74
BRANCH  61  85
ATOM     85  C   UNL A   1      44.828  22.133  25.444  1.00  0.00     0.023 A 
ATOM     86  C   UNL A   1      45.721  21.446  24.597  1.00  0.00     0.012 A 
ATOM     87  C   UNL A   1      43.672  21.212  25.693  1.00  0.00     0.148 A 
ATOM     88  C   UNL A   1      45.557  20.039  24.238  1.00  0.00     0.002 A 
ATOM     89  C   UNL A   1      43.625  19.809  25.576  1.00  0.00     0.091 A 
ATOM     90  F   UNL A   1      42.425  21.667  25.533  1.00  0.00    -0.205 F 
ATOM     91  C   UNL A   1      44.558  19.210  24.772  1.00  0.00     0.022 A 
BRANCH  89  92
ATOM     92  S   UNL A   1      42.218  18.828  26.228  1.00  0.00     0.127 S 
ATOM     93  O   UNL A   1      41.086  19.273  25.416  1.00  0.00    -0.237 OA
ATOM     94  O   UNL A   1      42.666  17.464  25.945  1.00  0.00    -0.237 OA
ATOM     95  O   UNL A   1      42.113  19.138  27.649  1.00  0.00    -0.744 OA
ENDBRANCH  89  92
ENDBRANCH  61  85
BRANCH  73  96
ATOM     96  C   UNL A   1      41.834  26.448  28.391  1.00  0.00     0.023 A 
ATOM     97  C   UNL A   1      41.795  26.561  26.979  1.00  0.00     0.012 A 
ATOM     98  C   UNL A   1      40.910  27.223  29.111  1.00  0.00     0.148 A 
ATOM     99  C   UNL A   1      40.941  27.449  26.328  1.00  0.00     0.002 A 
ATOM    100  C   UNL A   1      40.065  28.136  28.465  1.00  0.00     0.091 A 
ATOM    101  F   UNL A   1      40.873  27.108  30.433  1.00  0.00    -0.205 F 
ATOM    102  C   UNL A   1      40.086  28.249  27.072  1.00  0.00     0.022 A 
BRANCH 100 103
ATOM    103  S   UNL A   1      39.052  29.337  29.363  1.00  0.00     0.127 S 
ATOM    104  O   UNL A   1      38.337  30.033  28.289  1.00  0.00    -0.237 OA
ATOM    105  O   UNL A   1      38.205  28.491  30.198  1.00  0.00    -0.237 OA
ATOM    106  O   UNL A   1      39.985  30.196  30.083  1.00  0.00    -0.744 OA
ENDBRANCH 100 103
ENDBRANCH  73  96
ENDBRANCH  47  48
ENDBRANCH  40  42
ENDBRANCH  39  40
ENDBRANCH  38  39
ENDBRANCH  37  38
ENDBRANCH  36  37
ENDBRANCH  35  36
ENDBRANCH  34  35
ENDBRANCH   1  34
TORSDOF 27
ENDMDL
