MODEL 1
REMARK VINA RESULT:     -11.2      0.000      0.000
REMARK SMILES O=C(OCCOCCOCCOCCOC(=O)[C@@H]1CC=CC[C@@H]1C(=O)Nc1ccc(O)cc1)c1ccc(-c2c3nc(c(-c4cccc(S(=O)(=O)[O-])c4F)c4ccc([nH]4)c(-c4cccc(S(=O)(=O)[O-])c4F)c4nc(c(-c5cccc(S(=O)(=O)[O-])c5F)c5ccc2[nH]5)C=C4)C=C3)cc1
REMARK SMILES IDX 9 1 8 2 7 3 6 4 5 5 4 6 3 7 2 8 1 9 34 10 35 11 96 12 36 13
REMARK SMILES IDX 95 14 37 15 38 16 39 17 89 18 40 19 94 20 88 21 90 22 41 23
REMARK SMILES IDX 93 24 87 25 86 26 42 28 74 29 54 30 73 31 55 32 58 33 72 34
REMARK SMILES IDX 91 35 56 36 57 37 71 39 92 40 59 41 43 42 44 43 52 44 45 45
REMARK SMILES IDX 47 46 53 47 46 48 48 49 49 50 50 51 51 52 75 53 76 54 84 55
REMARK SMILES IDX 77 56 79 57 85 58 78 59 80 60 81 61 82 62 83 63 60 64 61 65
REMARK SMILES IDX 69 66 62 67 64 68 70 69 63 70 65 71 66 72 67 73 68 74 10 75
REMARK SMILES IDX 11 76 12 77 13 78 14 79 15 80 16 81 17 82 18 83 19 84 23 85
REMARK SMILES IDX 20 86 22 87 21 88 24 89 25 90 26 91 27 93 28 94 33 95 29 96
REMARK SMILES IDX 32 97 30 98 31 99
REMARK H PARENT 90 27 58 38 26 92 31 100
REMARK Flexibility Score: inf
ROOT
ATOM      1  O   UNL A   1      44.275  18.484  25.734  1.00  0.00    -0.377 OA
ENDROOT
BRANCH   1   2
ATOM      2  C   UNL A   1      45.669  18.437  25.382  1.00  0.00     0.188 C 
BRANCH   2   3
ATOM      3  C   UNL A   1      46.299  19.511  24.529  1.00  0.00     0.188 C 
BRANCH   3   4
ATOM      4  O   UNL A   1      46.413  20.690  25.280  1.00  0.00    -0.376 OA
BRANCH   4   5
ATOM      5  C   UNL A   1      45.931  21.873  24.677  1.00  0.00     0.202 C 
BRANCH   5   6
ATOM      6  C   UNL A   1      45.057  22.732  25.595  1.00  0.00     0.261 C 
BRANCH   6   7
ATOM      7  O   UNL A   1      44.405  23.739  24.805  1.00  0.00    -0.460 OA
BRANCH   7   8
ATOM      8  C   UNL A   1      44.849  25.015  24.953  1.00  0.00     0.338 C 
ATOM      9  O   UNL A   1      45.955  25.459  24.716  1.00  0.00    -0.246 OA
BRANCH   8  10
ATOM     10  C   UNL A   1      43.769  25.734  25.651  1.00  0.00     0.060 A 
ATOM     11  C   UNL A   1      43.675  27.109  25.422  1.00  0.00     0.016 A 
ATOM     12  C   UNL A   1      42.961  25.116  26.601  1.00  0.00     0.016 A 
ATOM     13  C   UNL A   1      42.923  27.908  26.239  1.00  0.00     0.010 A 
ATOM     14  C   UNL A   1      42.168  25.924  27.424  1.00  0.00     0.010 A 
ATOM     15  C   UNL A   1      42.220  27.324  27.286  1.00  0.00    -0.014 A 
BRANCH  15  16
ATOM     16  C   UNL A   1      41.836  28.252  28.360  1.00  0.00     0.031 A 
ATOM     17  C   UNL A   1      42.906  28.670  29.325  1.00  0.00     0.074 A 
ATOM     18  C   UNL A   1      40.651  28.882  28.297  1.00  0.00     0.049 A 
ATOM     19  N   UNL A   1      42.813  29.423  30.383  1.00  0.00    -0.248 NA
ATOM     20  C   UNL A   1      44.276  28.192  29.049  1.00  0.00     0.031 C 
ATOM     21  C   UNL A   1      39.644  28.679  27.251  1.00  0.00     0.029 A 
ATOM     22  N   UNL A   1      40.111  29.845  29.100  1.00  0.00    -0.354 N 
ATOM     23  C   UNL A   1      44.082  29.429  30.949  1.00  0.00     0.074 A 
ATOM     24  C   UNL A   1      44.944  28.649  30.095  1.00  0.00     0.031 C 
ATOM     25  C   UNL A   1      38.606  29.498  27.478  1.00  0.00     0.029 A 
ATOM     26  C   UNL A   1      38.835  30.200  28.734  1.00  0.00     0.049 A 
ATOM     27  H   UNL A   1      40.587  30.245  29.863  1.00  0.00     0.167 HD
ATOM     28  C   UNL A   1      44.474  30.025  32.096  1.00  0.00     0.034 A 
ATOM     29  C   UNL A   1      37.935  30.954  29.391  1.00  0.00     0.034 A 
ATOM     30  C   UNL A   1      43.585  30.827  32.888  1.00  0.00     0.049 A 
ATOM     31  C   UNL A   1      38.366  31.547  30.703  1.00  0.00     0.074 A 
ATOM     32  C   UNL A   1      43.815  31.432  34.106  1.00  0.00     0.029 A 
ATOM     33  N   UNL A   1      42.282  31.135  32.518  1.00  0.00    -0.354 N 
ATOM     34  N   UNL A   1      39.544  31.491  31.283  1.00  0.00    -0.248 NA
ATOM     35  C   UNL A   1      37.358  32.302  31.453  1.00  0.00     0.031 C 
ATOM     36  C   UNL A   1      42.636  32.085  34.486  1.00  0.00     0.029 A 
ATOM     37  C   UNL A   1      41.686  31.915  33.487  1.00  0.00     0.049 A 
ATOM     38  H   UNL A   1      41.847  30.839  31.686  1.00  0.00     0.167 HD
ATOM     39  C   UNL A   1      39.426  32.217  32.460  1.00  0.00     0.074 A 
ATOM     40  C   UNL A   1      38.067  32.727  32.491  1.00  0.00     0.031 C 
ATOM     41  C   UNL A   1      40.340  32.431  33.437  1.00  0.00     0.034 A 
BRANCH  28  42
ATOM     42  C   UNL A   1      45.873  29.754  32.575  1.00  0.00     0.023 A 
ATOM     43  C   UNL A   1      46.144  28.677  33.441  1.00  0.00     0.012 A 
ATOM     44  C   UNL A   1      46.926  30.607  32.182  1.00  0.00     0.148 A 
ATOM     45  C   UNL A   1      47.434  28.472  33.935  1.00  0.00     0.002 A 
ATOM     46  C   UNL A   1      48.214  30.373  32.647  1.00  0.00     0.091 A 
ATOM     47  F   UNL A   1      46.639  31.646  31.386  1.00  0.00    -0.205 F 
ATOM     48  C   UNL A   1      48.469  29.315  33.533  1.00  0.00     0.022 A 
BRANCH  46  49
ATOM     49  S   UNL A   1      49.620  31.375  32.150  1.00  0.00     0.127 S 
ATOM     50  O   UNL A   1      49.050  32.162  31.057  1.00  0.00    -0.237 OA
ATOM     51  O   UNL A   1      49.899  32.133  33.369  1.00  0.00    -0.237 OA
ATOM     52  O   UNL A   1      50.665  30.439  31.761  1.00  0.00    -0.744 OA
ENDBRANCH  46  49
ENDBRANCH  28  42
BRANCH  29  53
ATOM     53  C   UNL A   1      36.558  31.123  28.846  1.00  0.00     0.023 A 
ATOM     54  C   UNL A   1      35.780  29.995  28.529  1.00  0.00     0.012 A 
ATOM     55  C   UNL A   1      35.997  32.407  28.678  1.00  0.00     0.148 A 
ATOM     56  C   UNL A   1      34.481  30.142  28.038  1.00  0.00     0.002 A 
ATOM     57  C   UNL A   1      34.682  32.546  28.253  1.00  0.00     0.091 A 
ATOM     58  F   UNL A   1      36.759  33.475  28.958  1.00  0.00    -0.205 F 
ATOM     59  C   UNL A   1      33.927  31.415  27.914  1.00  0.00     0.022 A 
BRANCH  57  60
ATOM     60  S   UNL A   1      33.852  34.139  28.217  1.00  0.00     0.127 S 
ATOM     61  O   UNL A   1      33.928  34.549  29.616  1.00  0.00    -0.237 OA
ATOM     62  O   UNL A   1      34.702  34.904  27.302  1.00  0.00    -0.237 OA
ATOM     63  O   UNL A   1      32.516  33.871  27.702  1.00  0.00    -0.744 OA
ENDBRANCH  57  60
ENDBRANCH  29  53
BRANCH  41  64
ATOM     64  C   UNL A   1      39.907  33.279  34.597  1.00  0.00     0.023 A 
ATOM     65  C   UNL A   1      40.125  34.669  34.567  1.00  0.00     0.012 A 
ATOM     66  C   UNL A   1      39.201  32.703  35.668  1.00  0.00     0.148 A 
ATOM     67  C   UNL A   1      39.664  35.474  35.606  1.00  0.00     0.002 A 
ATOM     68  C   UNL A   1      38.697  33.517  36.671  1.00  0.00     0.091 A 
ATOM     69  F   UNL A   1      39.028  31.372  35.680  1.00  0.00    -0.205 F 
ATOM     70  C   UNL A   1      38.938  34.901  36.649  1.00  0.00     0.022 A 
BRANCH  68  71
ATOM     71  S   UNL A   1      37.658  32.875  37.986  1.00  0.00     0.127 S 
ATOM     72  O   UNL A   1      36.319  33.147  37.466  1.00  0.00    -0.237 OA
ATOM     73  O   UNL A   1      38.028  31.459  38.011  1.00  0.00    -0.237 OA
ATOM     74  O   UNL A   1      38.028  33.615  39.185  1.00  0.00    -0.744 OA
ENDBRANCH  68  71
ENDBRANCH  41  64
ENDBRANCH  15  16
ENDBRANCH   8  10
ENDBRANCH   7   8
ENDBRANCH   6   7
ENDBRANCH   5   6
ENDBRANCH   4   5
ENDBRANCH   3   4
ENDBRANCH   2   3
ENDBRANCH   1   2
BRANCH   1  75
ATOM     75  C   UNL A   1      43.302  19.508  25.419  1.00  0.00     0.188 C 
BRANCH  75  76
ATOM     76  C   UNL A   1      41.880  19.724  26.139  1.00  0.00     0.188 C 
BRANCH  76  77
ATOM     77  O   UNL A   1      41.228  21.032  25.974  1.00  0.00    -0.376 OA
BRANCH  77  78
ATOM     78  C   UNL A   1      40.528  21.643  27.123  1.00  0.00     0.202 C 
BRANCH  78  79
ATOM     79  C   UNL A   1      39.391  23.056  26.895  1.00  0.00     0.261 C 
BRANCH  79  80
ATOM     80  O   UNL A   1      37.961  23.218  25.454  1.00  0.00    -0.463 OA
BRANCH  80  81
ATOM     81  C   UNL A   1      36.755  22.764  24.791  1.00  0.00     0.310 C 
ATOM     82  O   UNL A   1      36.752  22.337  23.632  1.00  0.00    -0.252 OA
BRANCH  81  83
ATOM     83  C   UNL A   1      35.445  22.753  25.602  1.00  0.00     0.116 C 
ATOM     84  C   UNL A   1      34.918  21.555  26.429  1.00  0.00     0.043 C 
ATOM     85  C   UNL A   1      34.291  23.488  24.923  1.00  0.00     0.097 C 
ATOM     86  C   UNL A   1      33.785  22.009  27.332  1.00  0.00    -0.030 C 
ATOM     87  C   UNL A   1      33.518  24.172  26.080  1.00  0.00     0.041 C 
ATOM     88  C   UNL A   1      33.183  23.204  27.197  1.00  0.00    -0.030 C 
BRANCH  85  89
ATOM     89  C   UNL A   1      33.312  22.605  24.109  1.00  0.00     0.228 C 
ATOM     90  O   UNL A   1      33.077  21.437  24.434  1.00  0.00    -0.274 OA
ATOM     91  N   UNL A   1      32.626  23.127  23.036  1.00  0.00    -0.326 N 
ATOM     92  H   UNL A   1      32.350  22.531  22.302  1.00  0.00     0.169 HD
BRANCH  91  93
ATOM     93  C   UNL A   1      32.317  24.483  22.964  1.00  0.00     0.041 A 
ATOM     94  C   UNL A   1      33.583  25.693  22.529  1.00  0.00     0.030 A 
ATOM     95  C   UNL A   1      30.912  24.989  23.954  1.00  0.00     0.030 A 
ATOM     96  C   UNL A   1      33.392  27.407  23.193  1.00  0.00     0.048 A 
ATOM     97  C   UNL A   1      30.765  26.641  24.575  1.00  0.00     0.048 A 
ATOM     98  C   UNL A   1      31.979  27.850  24.189  1.00  0.00     0.115 A 
BRANCH  98  99
ATOM     99  O   UNL A   1      31.756  29.146  24.537  1.00  0.00    -0.508 OA
ATOM    100  H   UNL A   1      32.241  29.533  25.239  1.00  0.00     0.293 HD
ENDBRANCH  98  99
ENDBRANCH  91  93
ENDBRANCH  85  89
ENDBRANCH  81  83
ENDBRANCH  80  81
ENDBRANCH  79  80
ENDBRANCH  78  79
ENDBRANCH  77  78
ENDBRANCH  76  77
ENDBRANCH  75  76
ENDBRANCH   1  75
TORSDOF 26
ENDMDL
MODEL 2
REMARK VINA RESULT:     -10.7      6.477     11.074
REMARK SMILES O=C(OCCOCCOCCOCCOC(=O)[C@@H]1CC=CC[C@@H]1C(=O)Nc1ccc(O)cc1)c1ccc(-c2c3nc(c(-c4cccc(S(=O)(=O)[O-])c4F)c4ccc([nH]4)c(-c4cccc(S(=O)(=O)[O-])c4F)c4nc(c(-c5cccc(S(=O)(=O)[O-])c5F)c5ccc2[nH]5)C=C4)C=C3)cc1
REMARK SMILES IDX 9 1 8 2 7 3 6 4 5 5 4 6 3 7 2 8 1 9 34 10 35 11 96 12 36 13
REMARK SMILES IDX 95 14 37 15 38 16 39 17 89 18 40 19 94 20 88 21 90 22 41 23
REMARK SMILES IDX 93 24 87 25 86 26 42 28 74 29 54 30 73 31 55 32 58 33 72 34
REMARK SMILES IDX 91 35 56 36 57 37 71 39 92 40 59 41 43 42 44 43 52 44 45 45
REMARK SMILES IDX 47 46 53 47 46 48 48 49 49 50 50 51 51 52 75 53 76 54 84 55
REMARK SMILES IDX 77 56 79 57 85 58 78 59 80 60 81 61 82 62 83 63 60 64 61 65
REMARK SMILES IDX 69 66 62 67 64 68 70 69 63 70 65 71 66 72 67 73 68 74 10 75
REMARK SMILES IDX 11 76 12 77 13 78 14 79 15 80 16 81 17 82 18 83 19 84 23 85
REMARK SMILES IDX 20 86 22 87 21 88 24 89 25 90 26 91 27 93 28 94 33 95 29 96
REMARK SMILES IDX 32 97 30 98 31 99
REMARK H PARENT 90 27 58 38 26 92 31 100
REMARK Flexibility Score: inf
ROOT
ATOM      1  O   UNL A   1      34.233  30.150  27.213  1.00  0.00    -0.377 OA
ENDROOT
BRANCH   1   2
ATOM      2  C   UNL A   1      34.383  31.286  28.084  1.00  0.00     0.188 C 
BRANCH   2   3
ATOM      3  C   UNL A   1      33.691  32.595  27.790  1.00  0.00     0.188 C 
BRANCH   3   4
ATOM      4  O   UNL A   1      34.493  33.653  28.244  1.00  0.00    -0.376 OA
BRANCH   4   5
ATOM      5  C   UNL A   1      35.867  33.376  28.419  1.00  0.00     0.202 C 
BRANCH   5   6
ATOM      6  C   UNL A   1      36.402  33.717  29.812  1.00  0.00     0.261 C 
BRANCH   6   7
ATOM      7  O   UNL A   1      36.215  32.582  30.671  1.00  0.00    -0.460 OA
BRANCH   7   8
ATOM      8  C   UNL A   1      35.243  32.684  31.616  1.00  0.00     0.338 C 
ATOM      9  O   UNL A   1      34.055  32.892  31.455  1.00  0.00    -0.246 OA
BRANCH   8  10
ATOM     10  C   UNL A   1      35.944  32.684  32.911  1.00  0.00     0.060 A 
ATOM     11  C   UNL A   1      35.723  33.779  33.750  1.00  0.00     0.016 A 
ATOM     12  C   UNL A   1      36.890  31.718  33.241  1.00  0.00     0.016 A 
ATOM     13  C   UNL A   1      36.544  34.026  34.816  1.00  0.00     0.010 A 
ATOM     14  C   UNL A   1      37.718  31.949  34.346  1.00  0.00     0.010 A 
ATOM     15  C   UNL A   1      37.587  33.146  35.076  1.00  0.00    -0.014 A 
BRANCH  15  16
ATOM     16  C   UNL A   1      38.666  33.702  35.906  1.00  0.00     0.031 A 
ATOM     17  C   UNL A   1      38.632  33.400  37.375  1.00  0.00     0.074 A 
ATOM     18  C   UNL A   1      39.754  34.223  35.314  1.00  0.00     0.049 A 
ATOM     19  N   UNL A   1      39.425  33.816  38.320  1.00  0.00    -0.248 NA
ATOM     20  C   UNL A   1      37.572  32.484  37.843  1.00  0.00     0.031 C 
ATOM     21  C   UNL A   1      39.946  34.347  33.865  1.00  0.00     0.029 A 
ATOM     22  N   UNL A   1      40.914  34.704  35.848  1.00  0.00    -0.354 N 
ATOM     23  C   UNL A   1      38.905  33.295  39.499  1.00  0.00     0.074 A 
ATOM     24  C   UNL A   1      37.759  32.490  39.152  1.00  0.00     0.031 C 
ATOM     25  C   UNL A   1      41.157  34.872  33.627  1.00  0.00     0.029 A 
ATOM     26  C   UNL A   1      41.775  35.209  34.902  1.00  0.00     0.049 A 
ATOM     27  H   UNL A   1      41.115  34.690  36.811  1.00  0.00     0.167 HD
ATOM     28  C   UNL A   1      39.347  33.497  40.760  1.00  0.00     0.034 A 
ATOM     29  C   UNL A   1      42.899  35.929  35.068  1.00  0.00     0.034 A 
ATOM     30  C   UNL A   1      40.519  34.273  41.047  1.00  0.00     0.049 A 
ATOM     31  C   UNL A   1      43.334  36.208  36.479  1.00  0.00     0.074 A 
ATOM     32  C   UNL A   1      41.047  34.626  42.272  1.00  0.00     0.029 A 
ATOM     33  N   UNL A   1      41.349  34.813  40.073  1.00  0.00    -0.354 N 
ATOM     34  N   UNL A   1      42.800  35.782  37.602  1.00  0.00    -0.248 NA
ATOM     35  C   UNL A   1      44.515  37.057  36.655  1.00  0.00     0.031 C 
ATOM     36  C   UNL A   1      42.185  35.406  42.035  1.00  0.00     0.029 A 
ATOM     37  C   UNL A   1      42.385  35.507  40.665  1.00  0.00     0.049 A 
ATOM     38  H   UNL A   1      41.218  34.716  39.102  1.00  0.00     0.167 HD
ATOM     39  C   UNL A   1      43.588  36.299  38.621  1.00  0.00     0.074 A 
ATOM     40  C   UNL A   1      44.654  37.044  37.975  1.00  0.00     0.031 C 
ATOM     41  C   UNL A   1      43.443  36.191  39.964  1.00  0.00     0.034 A 
BRANCH  28  42
ATOM     42  C   UNL A   1      38.514  32.943  41.883  1.00  0.00     0.023 A 
ATOM     43  C   UNL A   1      38.710  31.628  42.346  1.00  0.00     0.012 A 
ATOM     44  C   UNL A   1      37.500  33.736  42.460  1.00  0.00     0.148 A 
ATOM     45  C   UNL A   1      37.888  31.098  43.343  1.00  0.00     0.002 A 
ATOM     46  C   UNL A   1      36.712  33.216  43.478  1.00  0.00     0.091 A 
ATOM     47  F   UNL A   1      37.309  34.973  41.980  1.00  0.00    -0.205 F 
ATOM     48  C   UNL A   1      36.895  31.893  43.913  1.00  0.00     0.022 A 
BRANCH  46  49
ATOM     49  S   UNL A   1      35.440  34.176  44.306  1.00  0.00     0.127 S 
ATOM     50  O   UNL A   1      34.412  34.260  43.270  1.00  0.00    -0.237 OA
ATOM     51  O   UNL A   1      35.098  33.315  45.438  1.00  0.00    -0.237 OA
ATOM     52  O   UNL A   1      36.060  35.442  44.669  1.00  0.00    -0.744 OA
ENDBRANCH  46  49
ENDBRANCH  28  42
BRANCH  29  53
ATOM     53  C   UNL A   1      43.625  36.467  33.882  1.00  0.00     0.023 A 
ATOM     54  C   UNL A   1      44.493  35.639  33.149  1.00  0.00     0.012 A 
ATOM     55  C   UNL A   1      43.424  37.796  33.451  1.00  0.00     0.148 A 
ATOM     56  C   UNL A   1      45.162  36.128  32.024  1.00  0.00     0.002 A 
ATOM     57  C   UNL A   1      44.039  38.256  32.294  1.00  0.00     0.091 A 
ATOM     58  F   UNL A   1      42.615  38.584  34.174  1.00  0.00    -0.205 F 
ATOM     59  C   UNL A   1      44.924  37.430  31.587  1.00  0.00     0.022 A 
BRANCH  57  60
ATOM     60  S   UNL A   1      43.664  39.865  31.586  1.00  0.00     0.127 S 
ATOM     61  O   UNL A   1      44.962  40.531  31.650  1.00  0.00    -0.237 OA
ATOM     62  O   UNL A   1      43.218  39.508  30.239  1.00  0.00    -0.237 OA
ATOM     63  O   UNL A   1      42.617  40.428  32.429  1.00  0.00    -0.744 OA
ENDBRANCH  57  60
ENDBRANCH  29  53
BRANCH  41  64
ATOM     64  C   UNL A   1      44.481  36.864  40.814  1.00  0.00     0.023 A 
ATOM     65  C   UNL A   1      45.649  36.167  41.175  1.00  0.00     0.012 A 
ATOM     66  C   UNL A   1      44.332  38.217  41.170  1.00  0.00     0.148 A 
ATOM     67  C   UNL A   1      46.649  36.806  41.905  1.00  0.00     0.002 A 
ATOM     68  C   UNL A   1      45.356  38.861  41.849  1.00  0.00     0.091 A 
ATOM     69  F   UNL A   1      43.197  38.847  40.832  1.00  0.00    -0.205 F 
ATOM     70  C   UNL A   1      46.509  38.155  42.228  1.00  0.00     0.022 A 
BRANCH  68  71
ATOM     71  S   UNL A   1      45.304  40.619  42.201  1.00  0.00     0.127 S 
ATOM     72  O   UNL A   1      44.857  40.630  43.593  1.00  0.00    -0.237 OA
ATOM     73  O   UNL A   1      46.699  41.017  42.004  1.00  0.00    -0.237 OA
ATOM     74  O   UNL A   1      44.373  41.193  41.239  1.00  0.00    -0.744 OA
ENDBRANCH  68  71
ENDBRANCH  41  64
ENDBRANCH  15  16
ENDBRANCH   8  10
ENDBRANCH   7   8
ENDBRANCH   6   7
ENDBRANCH   5   6
ENDBRANCH   4   5
ENDBRANCH   3   4
ENDBRANCH   2   3
ENDBRANCH   1   2
BRANCH   1  75
ATOM     75  C   UNL A   1      33.460  28.946  27.431  1.00  0.00     0.188 C 
BRANCH  75  76
ATOM     76  C   UNL A   1      31.859  28.817  27.362  1.00  0.00     0.188 C 
BRANCH  76  77
ATOM     77  O   UNL A   1      31.285  27.463  27.393  1.00  0.00    -0.376 OA
BRANCH  77  78
ATOM     78  C   UNL A   1      30.626  26.927  26.184  1.00  0.00     0.202 C 
BRANCH  78  79
ATOM     79  C   UNL A   1      30.222  25.151  26.036  1.00  0.00     0.261 C 
BRANCH  79  80
ATOM     80  O   UNL A   1      31.147  23.629  27.025  1.00  0.00    -0.463 OA
BRANCH  80  81
ATOM     81  C   UNL A   1      32.265  22.733  27.235  1.00  0.00     0.310 C 
ATOM     82  O   UNL A   1      32.905  22.701  28.292  1.00  0.00    -0.252 OA
BRANCH  81  83
ATOM     83  C   UNL A   1      32.613  21.734  26.114  1.00  0.00     0.116 C 
ATOM     84  C   UNL A   1      33.617  20.563  26.242  1.00  0.00     0.043 C 
ATOM     85  C   UNL A   1      32.698  22.368  24.727  1.00  0.00     0.097 C 
ATOM     86  C   UNL A   1      33.464  19.621  25.062  1.00  0.00    -0.030 C 
ATOM     87  C   UNL A   1      32.117  21.300  23.764  1.00  0.00     0.041 C 
ATOM     88  C   UNL A   1      32.756  19.940  23.963  1.00  0.00    -0.030 C 
BRANCH  85  89
ATOM     89  C   UNL A   1      34.119  22.764  24.250  1.00  0.00     0.228 C 
ATOM     90  O   UNL A   1      34.931  21.914  23.875  1.00  0.00    -0.274 OA
ATOM     91  N   UNL A   1      34.485  24.088  24.169  1.00  0.00    -0.326 N 
ATOM     92  H   UNL A   1      35.433  24.334  24.272  1.00  0.00     0.169 HD
BRANCH  91  93
ATOM     93  C   UNL A   1      33.542  25.089  23.945  1.00  0.00     0.041 A 
ATOM     94  C   UNL A   1      32.431  25.003  22.527  1.00  0.00     0.030 A 
ATOM     95  C   UNL A   1      33.953  26.683  24.654  1.00  0.00     0.030 A 
ATOM     96  C   UNL A   1      31.812  26.598  21.827  1.00  0.00     0.048 A 
ATOM     97  C   UNL A   1      33.342  28.191  23.953  1.00  0.00     0.048 A 
ATOM     98  C   UNL A   1      32.267  28.158  22.565  1.00  0.00     0.115 A 
BRANCH  98  99
ATOM     99  O   UNL A   1      31.682  29.315  22.155  1.00  0.00    -0.508 OA
ATOM    100  H   UNL A   1      32.034  29.785  21.424  1.00  0.00     0.293 HD
ENDBRANCH  98  99
ENDBRANCH  91  93
ENDBRANCH  85  89
ENDBRANCH  81  83
ENDBRANCH  80  81
ENDBRANCH  79  80
ENDBRANCH  78  79
ENDBRANCH  77  78
ENDBRANCH  76  77
ENDBRANCH  75  76
ENDBRANCH   1  75
TORSDOF 26
ENDMDL
MODEL 3
REMARK VINA RESULT:     -10.7      4.477      8.815
REMARK SMILES O=C(OCCOCCOCCOCCOC(=O)[C@@H]1CC=CC[C@@H]1C(=O)Nc1ccc(O)cc1)c1ccc(-c2c3nc(c(-c4cccc(S(=O)(=O)[O-])c4F)c4ccc([nH]4)c(-c4cccc(S(=O)(=O)[O-])c4F)c4nc(c(-c5cccc(S(=O)(=O)[O-])c5F)c5ccc2[nH]5)C=C4)C=C3)cc1
REMARK SMILES IDX 9 1 8 2 7 3 6 4 5 5 4 6 3 7 2 8 1 9 34 10 35 11 96 12 36 13
REMARK SMILES IDX 95 14 37 15 38 16 39 17 89 18 40 19 94 20 88 21 90 22 41 23
REMARK SMILES IDX 93 24 87 25 86 26 42 28 74 29 54 30 73 31 55 32 58 33 72 34
REMARK SMILES IDX 91 35 56 36 57 37 71 39 92 40 59 41 43 42 44 43 52 44 45 45
REMARK SMILES IDX 47 46 53 47 46 48 48 49 49 50 50 51 51 52 75 53 76 54 84 55
REMARK SMILES IDX 77 56 79 57 85 58 78 59 80 60 81 61 82 62 83 63 60 64 61 65
REMARK SMILES IDX 69 66 62 67 64 68 70 69 63 70 65 71 66 72 67 73 68 74 10 75
REMARK SMILES IDX 11 76 12 77 13 78 14 79 15 80 16 81 17 82 18 83 19 84 23 85
REMARK SMILES IDX 20 86 22 87 21 88 24 89 25 90 26 91 27 93 28 94 33 95 29 96
REMARK SMILES IDX 32 97 30 98 31 99
REMARK H PARENT 90 27 58 38 26 92 31 100
REMARK Flexibility Score: inf
ROOT
ATOM      1  O   UNL A   1      41.188  28.422  28.469  1.00  0.00    -0.377 OA
ENDROOT
BRANCH   1   2
ATOM      2  C   UNL A   1      40.541  29.175  29.511  1.00  0.00     0.188 C 
BRANCH   2   3
ATOM      3  C   UNL A   1      39.455  30.175  29.195  1.00  0.00     0.188 C 
BRANCH   3   4
ATOM      4  O   UNL A   1      38.267  29.489  28.903  1.00  0.00    -0.376 OA
BRANCH   4   5
ATOM      5  C   UNL A   1      37.550  29.921  27.766  1.00  0.00     0.202 C 
BRANCH   5   6
ATOM      6  C   UNL A   1      36.059  29.573  27.795  1.00  0.00     0.261 C 
BRANCH   6   7
ATOM      7  O   UNL A   1      35.539  29.877  29.099  1.00  0.00    -0.460 OA
BRANCH   7   8
ATOM      8  C   UNL A   1      35.029  31.125  29.277  1.00  0.00     0.338 C 
ATOM      9  O   UNL A   1      34.242  31.724  28.570  1.00  0.00    -0.246 OA
BRANCH   8  10
ATOM     10  C   UNL A   1      35.770  31.700  30.412  1.00  0.00     0.060 A 
ATOM     11  C   UNL A   1      35.836  33.094  30.482  1.00  0.00     0.016 A 
ATOM     12  C   UNL A   1      36.493  30.911  31.302  1.00  0.00     0.016 A 
ATOM     13  C   UNL A   1      36.739  33.715  31.302  1.00  0.00     0.010 A 
ATOM     14  C   UNL A   1      37.400  31.539  32.163  1.00  0.00     0.010 A 
ATOM     15  C   UNL A   1      37.571  32.936  32.095  1.00  0.00    -0.014 A 
BRANCH  15  16
ATOM     16  C   UNL A   1      38.784  33.619  32.570  1.00  0.00     0.031 A 
ATOM     17  C   UNL A   1      39.762  34.087  31.532  1.00  0.00     0.074 A 
ATOM     18  C   UNL A   1      38.856  34.025  33.848  1.00  0.00     0.049 A 
ATOM     19  N   UNL A   1      40.922  34.656  31.692  1.00  0.00    -0.248 NA
ATOM     20  C   UNL A   1      39.371  33.911  30.120  1.00  0.00     0.031 C 
ATOM     21  C   UNL A   1      37.827  33.790  34.866  1.00  0.00     0.029 A 
ATOM     22  N   UNL A   1      39.810  34.753  34.499  1.00  0.00    -0.354 N 
ATOM     23  C   UNL A   1      41.438  34.815  30.411  1.00  0.00     0.074 A 
ATOM     24  C   UNL A   1      40.448  34.332  29.479  1.00  0.00     0.031 C 
ATOM     25  C   UNL A   1      38.208  34.365  36.016  1.00  0.00     0.029 A 
ATOM     26  C   UNL A   1      39.545  34.916  35.837  1.00  0.00     0.049 A 
ATOM     27  H   UNL A   1      40.607  35.123  34.055  1.00  0.00     0.167 HD
ATOM     28  C   UNL A   1      42.646  35.307  30.061  1.00  0.00     0.034 A 
ATOM     29  C   UNL A   1      40.338  35.394  36.813  1.00  0.00     0.034 A 
ATOM     30  C   UNL A   1      43.578  35.815  31.027  1.00  0.00     0.049 A 
ATOM     31  C   UNL A   1      41.707  35.868  36.415  1.00  0.00     0.074 A 
ATOM     32  C   UNL A   1      44.863  36.277  30.833  1.00  0.00     0.029 A 
ATOM     33  N   UNL A   1      43.303  35.929  32.384  1.00  0.00    -0.354 N 
ATOM     34  N   UNL A   1      42.231  35.947  35.212  1.00  0.00    -0.248 NA
ATOM     35  C   UNL A   1      42.595  36.315  37.491  1.00  0.00     0.031 C 
ATOM     36  C   UNL A   1      45.377  36.644  32.083  1.00  0.00     0.029 A 
ATOM     37  C   UNL A   1      44.397  36.445  33.048  1.00  0.00     0.049 A 
ATOM     38  H   UNL A   1      42.452  35.677  32.811  1.00  0.00     0.167 HD
ATOM     39  C   UNL A   1      43.506  36.469  35.384  1.00  0.00     0.074 A 
ATOM     40  C   UNL A   1      43.659  36.713  36.807  1.00  0.00     0.031 C 
ATOM     41  C   UNL A   1      44.471  36.708  34.463  1.00  0.00     0.034 A 
BRANCH  28  42
ATOM     42  C   UNL A   1      43.031  35.232  28.609  1.00  0.00     0.023 A 
ATOM     43  C   UNL A   1      42.674  36.259  27.714  1.00  0.00     0.012 A 
ATOM     44  C   UNL A   1      43.727  34.105  28.127  1.00  0.00     0.148 A 
ATOM     45  C   UNL A   1      42.975  36.150  26.354  1.00  0.00     0.002 A 
ATOM     46  C   UNL A   1      44.058  34.021  26.780  1.00  0.00     0.091 A 
ATOM     47  F   UNL A   1      44.026  33.124  28.990  1.00  0.00    -0.205 F 
ATOM     48  C   UNL A   1      43.672  35.035  25.890  1.00  0.00     0.022 A 
BRANCH  46  49
ATOM     49  S   UNL A   1      44.993  32.650  26.095  1.00  0.00     0.127 S 
ATOM     50  O   UNL A   1      44.476  31.523  26.869  1.00  0.00    -0.237 OA
ATOM     51  O   UNL A   1      44.579  32.669  24.693  1.00  0.00    -0.237 OA
ATOM     52  O   UNL A   1      46.397  32.965  26.320  1.00  0.00    -0.744 OA
ENDBRANCH  46  49
ENDBRANCH  28  42
BRANCH  29  53
ATOM     53  C   UNL A   1      39.872  35.383  38.230  1.00  0.00     0.023 A 
ATOM     54  C   UNL A   1      39.314  36.541  38.799  1.00  0.00     0.012 A 
ATOM     55  C   UNL A   1      39.942  34.207  39.006  1.00  0.00     0.148 A 
ATOM     56  C   UNL A   1      38.855  36.535  40.119  1.00  0.00     0.002 A 
ATOM     57  C   UNL A   1      39.423  34.187  40.294  1.00  0.00     0.091 A 
ATOM     58  F   UNL A   1      40.501  33.117  38.461  1.00  0.00    -0.205 F 
ATOM     59  C   UNL A   1      38.895  35.356  40.861  1.00  0.00     0.022 A 
BRANCH  57  60
ATOM     60  S   UNL A   1      39.301  32.672  41.254  1.00  0.00     0.127 S 
ATOM     61  O   UNL A   1      38.653  33.142  42.475  1.00  0.00    -0.237 OA
ATOM     62  O   UNL A   1      38.464  31.835  40.393  1.00  0.00    -0.237 OA
ATOM     63  O   UNL A   1      40.668  32.192  41.401  1.00  0.00    -0.744 OA
ENDBRANCH  57  60
ENDBRANCH  29  53
BRANCH  41  64
ATOM     64  C   UNL A   1      45.758  37.294  34.967  1.00  0.00     0.023 A 
ATOM     65  C   UNL A   1      46.824  36.443  35.315  1.00  0.00     0.012 A 
ATOM     66  C   UNL A   1      45.934  38.688  35.000  1.00  0.00     0.148 A 
ATOM     67  C   UNL A   1      48.046  36.978  35.717  1.00  0.00     0.002 A 
ATOM     68  C   UNL A   1      47.170  39.214  35.348  1.00  0.00     0.091 A 
ATOM     69  F   UNL A   1      44.892  39.473  34.684  1.00  0.00    -0.205 F 
ATOM     70  C   UNL A   1      48.223  38.361  35.719  1.00  0.00     0.022 A 
BRANCH  68  71
ATOM     71  S   UNL A   1      47.513  40.973  35.266  1.00  0.00     0.127 S 
ATOM     72  O   UNL A   1      48.964  41.001  35.443  1.00  0.00    -0.237 OA
ATOM     73  O   UNL A   1      47.054  41.316  33.920  1.00  0.00    -0.237 OA
ATOM     74  O   UNL A   1      46.738  41.581  36.340  1.00  0.00    -0.744 OA
ENDBRANCH  68  71
ENDBRANCH  41  64
ENDBRANCH  15  16
ENDBRANCH   8  10
ENDBRANCH   7   8
ENDBRANCH   6   7
ENDBRANCH   5   6
ENDBRANCH   4   5
ENDBRANCH   3   4
ENDBRANCH   2   3
ENDBRANCH   1   2
BRANCH   1  75
ATOM     75  C   UNL A   1      40.651  27.339  27.675  1.00  0.00     0.188 C 
BRANCH  75  76
ATOM     76  C   UNL A   1      41.142  25.807  27.696  1.00  0.00     0.188 C 
BRANCH  76  77
ATOM     77  O   UNL A   1      40.112  24.766  27.833  1.00  0.00    -0.376 OA
BRANCH  77  78
ATOM     78  C   UNL A   1      39.126  24.575  26.748  1.00  0.00     0.202 C 
BRANCH  78  79
ATOM     79  C   UNL A   1      38.618  22.902  26.216  1.00  0.00     0.261 C 
BRANCH  79  80
ATOM     80  O   UNL A   1      37.490  22.460  24.580  1.00  0.00    -0.463 OA
BRANCH  80  81
ATOM     81  C   UNL A   1      36.378  22.712  23.686  1.00  0.00     0.310 C 
ATOM     82  O   UNL A   1      36.525  22.883  22.470  1.00  0.00    -0.252 OA
BRANCH  81  83
ATOM     83  C   UNL A   1      34.956  22.692  24.277  1.00  0.00     0.116 C 
ATOM     84  C   UNL A   1      34.090  21.424  24.478  1.00  0.00     0.043 C 
ATOM     85  C   UNL A   1      34.089  23.872  23.842  1.00  0.00     0.097 C 
ATOM     86  C   UNL A   1      32.900  21.746  25.364  1.00  0.00    -0.030 C 
ATOM     87  C   UNL A   1      33.236  24.222  25.090  1.00  0.00     0.041 C 
ATOM     88  C   UNL A   1      32.541  23.007  25.668  1.00  0.00    -0.030 C 
BRANCH  85  89
ATOM     89  C   UNL A   1      33.147  23.613  22.639  1.00  0.00     0.228 C 
ATOM     90  O   UNL A   1      32.971  22.475  22.193  1.00  0.00    -0.274 OA
ATOM     91  N   UNL A   1      32.428  24.645  22.078  1.00  0.00    -0.326 N 
ATOM     92  H   UNL A   1      32.176  24.596  21.127  1.00  0.00     0.169 HD
BRANCH  91  93
ATOM     93  C   UNL A   1      32.053  25.757  22.827  1.00  0.00     0.041 A 
ATOM     94  C   UNL A   1      30.376  25.901  23.479  1.00  0.00     0.030 A 
ATOM     95  C   UNL A   1      33.010  27.238  22.509  1.00  0.00     0.030 A 
ATOM     96  C   UNL A   1      29.700  27.603  23.731  1.00  0.00     0.048 A 
ATOM     97  C   UNL A   1      32.326  28.853  22.760  1.00  0.00     0.048 A 
ATOM     98  C   UNL A   1      30.695  29.044  23.382  1.00  0.00     0.115 A 
BRANCH  98  99
ATOM     99  O   UNL A   1      30.258  30.286  23.722  1.00  0.00    -0.508 OA
ATOM    100  H   UNL A   1      30.551  30.685  24.517  1.00  0.00     0.293 HD
ENDBRANCH  98  99
ENDBRANCH  91  93
ENDBRANCH  85  89
ENDBRANCH  81  83
ENDBRANCH  80  81
ENDBRANCH  79  80
ENDBRANCH  78  79
ENDBRANCH  77  78
ENDBRANCH  76  77
ENDBRANCH  75  76
ENDBRANCH   1  75
TORSDOF 26
ENDMDL
