MODEL 1
REMARK VINA RESULT:      -8.5      0.000      0.000
REMARK SMILES Cc1ccccc1OCc1nc2cc(C(=O)OCCOCCOCCOCCOC(=O)c3ccc(-c4c5nc(c(-c6cccc(S(=O)(=O)[O-])c6F)c6ccc([nH]6)c(-c6cccc(S(=O)(=O)[O-])c6F)c6nc(c(-c7cccc(S(=O)(=O)[O-])c7F)c7ccc4[nH]7)C=C6)C=C5)cc3)ccc2n1C[C@H](C)O
REMARK SMILES IDX 23 1 22 2 21 3 20 4 19 5 18 6 17 7 15 8 16 9 14 10 10 11
REMARK SMILES IDX 11 12 98 13 12 14 97 15 13 16 96 17 95 18 9 19 8 20 7 21
REMARK SMILES IDX 1 22 2 23 3 24 4 25 6 26 5 27 99 28 100 29 101 30 102 31
REMARK SMILES IDX 24 33 25 34 26 35 27 36 28 37 29 38 30 39 31 40 32 41 33 42
REMARK SMILES IDX 94 43 34 44 93 45 35 46 36 47 37 48 87 49 38 50 92 51 86 52
REMARK SMILES IDX 88 53 39 54 91 55 85 56 84 57 40 59 72 60 52 61 71 62 53 63
REMARK SMILES IDX 56 64 70 65 89 66 54 67 55 68 69 70 90 71 57 72 41 73 42 74
REMARK SMILES IDX 50 75 43 76 45 77 51 78 44 79 46 80 47 81 48 82 49 83 73 84
REMARK SMILES IDX 74 85 82 86 75 87 77 88 83 89 76 90 78 91 79 92 80 93 81 94
REMARK SMILES IDX 58 95 59 96 67 97 60 98 62 99 68 100 61 101 63 102 64 103
REMARK SMILES IDX 65 104 66 105
REMARK H PARENT 102 32 88 58 56 69
REMARK Flexibility Score: inf
ROOT
ATOM      1  O   UNL A   1      32.023  26.388  25.369  1.00  0.00    -0.377 OA
ENDROOT
BRANCH   1   2
ATOM      2  C   UNL A   1      33.095  27.286  25.203  1.00  0.00     0.188 C 
BRANCH   2   3
ATOM      3  C   UNL A   1      33.937  27.835  26.357  1.00  0.00     0.188 C 
BRANCH   3   4
ATOM      4  O   UNL A   1      34.396  29.175  26.315  1.00  0.00    -0.376 OA
BRANCH   4   5
ATOM      5  C   UNL A   1      34.374  29.928  27.521  1.00  0.00     0.202 C 
BRANCH   5   6
ATOM      6  C   UNL A   1      33.938  31.365  27.376  1.00  0.00     0.261 C 
BRANCH   6   7
ATOM      7  O   UNL A   1      35.128  32.139  27.550  1.00  0.00    -0.460 OA
BRANCH   7   8
ATOM      8  C   UNL A   1      34.990  33.363  28.047  1.00  0.00     0.338 C 
ATOM      9  O   UNL A   1      34.659  34.388  27.465  1.00  0.00    -0.246 OA
BRANCH   8  10
ATOM     10  C   UNL A   1      35.459  33.306  29.428  1.00  0.00     0.062 A 
ATOM     11  C   UNL A   1      36.427  32.822  33.651  1.00  0.00     0.148 A 
ATOM     12  N   UNL A   1      35.197  32.818  33.105  1.00  0.00    -0.229 NA
ATOM     13  N   UNL A   1      37.176  32.089  32.775  1.00  0.00    -0.322 N 
ATOM     14  C   UNL A   1      35.460  32.696  31.728  1.00  0.00     0.090 A 
ATOM     15  C   UNL A   1      36.838  32.685  31.585  1.00  0.00     0.068 A 
ATOM     16  C   UNL A   1      34.759  32.721  30.524  1.00  0.00     0.046 A 
ATOM     17  C   UNL A   1      37.399  33.635  30.731  1.00  0.00     0.029 A 
ATOM     18  C   UNL A   1      36.693  33.914  29.593  1.00  0.00     0.018 A 
BRANCH  11  19
ATOM     19  C   UNL A   1      37.253  33.835  34.422  1.00  0.00     0.304 C 
BRANCH  19  20
ATOM     20  O   UNL A   1      36.762  33.751  35.803  1.00  0.00    -0.485 OA
BRANCH  20  21
ATOM     21  C   UNL A   1      37.624  33.610  36.863  1.00  0.00     0.122 A 
ATOM     22  C   UNL A   1      39.487  35.361  36.119  1.00  0.00     0.048 C 
ATOM     23  C   UNL A   1      38.794  34.404  37.058  1.00  0.00    -0.009 A 
ATOM     24  C   UNL A   1      39.397  34.427  38.330  1.00  0.00     0.007 A 
ATOM     25  C   UNL A   1      38.879  33.703  39.387  1.00  0.00     0.001 A 
ATOM     26  C   UNL A   1      37.128  32.867  37.939  1.00  0.00     0.047 A 
ATOM     27  C   UNL A   1      37.751  32.918  39.191  1.00  0.00     0.004 A 
ENDBRANCH  20  21
ENDBRANCH  19  20
ENDBRANCH  11  19
BRANCH  13  28
ATOM     28  C   UNL A   1      37.469  30.677  33.010  1.00  0.00     0.155 C 
BRANCH  28  29
ATOM     29  C   UNL A   1      38.862  30.526  33.645  1.00  0.00     0.131 C 
ATOM     30  C   UNL A   1      38.818  30.605  35.162  1.00  0.00     0.040 C 
BRANCH  29  31
ATOM     31  O   UNL A   1      39.745  31.520  33.114  1.00  0.00    -0.392 OA
ATOM     32  H   UNL A   1      40.576  31.101  32.840  1.00  0.00     0.211 HD
ENDBRANCH  29  31
ENDBRANCH  28  29
ENDBRANCH  13  28
ENDBRANCH   8  10
ENDBRANCH   7   8
ENDBRANCH   6   7
ENDBRANCH   5   6
ENDBRANCH   4   5
ENDBRANCH   3   4
ENDBRANCH   2   3
ENDBRANCH   1   2
BRANCH   1  33
ATOM     33  C   UNL A   1      32.276  25.016  25.546  1.00  0.00     0.188 C 
BRANCH  33  34
ATOM     34  C   UNL A   1      33.208  24.372  24.521  1.00  0.00     0.188 C 
BRANCH  34  35
ATOM     35  O   UNL A   1      34.264  23.598  25.050  1.00  0.00    -0.376 OA
BRANCH  35  36
ATOM     36  C   UNL A   1      34.830  22.626  24.171  1.00  0.00     0.202 C 
BRANCH  36  37
ATOM     37  C   UNL A   1      36.346  22.211  24.270  1.00  0.00     0.261 C 
BRANCH  37  38
ATOM     38  O   UNL A   1      37.195  23.248  24.882  1.00  0.00    -0.460 OA
BRANCH  38  39
ATOM     39  C   UNL A   1      38.175  22.979  25.812  1.00  0.00     0.338 C 
ATOM     40  O   UNL A   1      38.593  21.852  26.027  1.00  0.00    -0.246 OA
BRANCH  39  41
ATOM     41  C   UNL A   1      38.809  24.205  26.449  1.00  0.00     0.060 A 
ATOM     42  C   UNL A   1      39.683  25.028  25.731  1.00  0.00     0.016 A 
ATOM     43  C   UNL A   1      38.610  24.542  27.784  1.00  0.00     0.016 A 
ATOM     44  C   UNL A   1      40.562  25.908  26.403  1.00  0.00     0.010 A 
ATOM     45  C   UNL A   1      39.566  25.308  28.470  1.00  0.00     0.010 A 
ATOM     46  C   UNL A   1      40.640  25.899  27.794  1.00  0.00    -0.014 A 
BRANCH  46  47
ATOM     47  C   UNL A   1      41.890  26.184  28.559  1.00  0.00     0.031 A 
ATOM     48  C   UNL A   1      42.007  27.320  29.558  1.00  0.00     0.074 A 
ATOM     49  C   UNL A   1      42.791  25.163  28.671  1.00  0.00     0.049 A 
ATOM     50  N   UNL A   1      43.039  27.528  30.318  1.00  0.00    -0.248 NA
ATOM     51  C   UNL A   1      40.971  28.321  29.803  1.00  0.00     0.031 C 
ATOM     52  C   UNL A   1      43.685  24.953  29.804  1.00  0.00     0.029 A 
ATOM     53  N   UNL A   1      43.119  24.077  27.840  1.00  0.00    -0.354 N 
ATOM     54  C   UNL A   1      42.682  28.375  31.349  1.00  0.00     0.074 A 
ATOM     55  C   UNL A   1      41.429  28.934  30.907  1.00  0.00     0.031 C 
ATOM     56  C   UNL A   1      44.472  23.896  29.608  1.00  0.00     0.029 A 
ATOM     57  C   UNL A   1      44.396  23.616  28.208  1.00  0.00     0.049 A 
ATOM     58  H   UNL A   1      42.553  23.704  27.126  1.00  0.00     0.167 HD
ATOM     59  C   UNL A   1      43.426  28.397  32.502  1.00  0.00     0.034 A 
ATOM     60  C   UNL A   1      45.515  23.584  27.423  1.00  0.00     0.034 A 
ATOM     61  C   UNL A   1      44.695  27.622  32.373  1.00  0.00     0.049 A 
ATOM     62  C   UNL A   1      46.636  24.476  27.962  1.00  0.00     0.074 A 
ATOM     63  C   UNL A   1      45.308  26.619  33.112  1.00  0.00     0.029 A 
ATOM     64  N   UNL A   1      45.507  27.798  31.248  1.00  0.00    -0.354 N 
ATOM     65  N   UNL A   1      46.507  25.222  29.031  1.00  0.00    -0.248 NA
ATOM     66  C   UNL A   1      47.980  24.607  27.406  1.00  0.00     0.031 C 
ATOM     67  C   UNL A   1      46.426  26.130  32.375  1.00  0.00     0.029 A 
ATOM     68  C   UNL A   1      46.552  26.890  31.225  1.00  0.00     0.049 A 
ATOM     69  H   UNL A   1      45.354  28.483  30.558  1.00  0.00     0.167 HD
ATOM     70  C   UNL A   1      47.605  25.998  29.249  1.00  0.00     0.074 A 
ATOM     71  C   UNL A   1      48.530  25.527  28.229  1.00  0.00     0.031 C 
ATOM     72  C   UNL A   1      47.605  26.981  30.209  1.00  0.00     0.034 A 
BRANCH  59  73
ATOM     73  C   UNL A   1      42.991  28.986  33.867  1.00  0.00     0.023 A 
ATOM     74  C   UNL A   1      42.379  28.103  34.795  1.00  0.00     0.012 A 
ATOM     75  C   UNL A   1      43.051  30.342  34.290  1.00  0.00     0.148 A 
ATOM     76  C   UNL A   1      41.827  28.523  36.016  1.00  0.00     0.002 A 
ATOM     77  C   UNL A   1      42.573  30.750  35.550  1.00  0.00     0.091 A 
ATOM     78  F   UNL A   1      43.509  31.280  33.459  1.00  0.00    -0.205 F 
ATOM     79  C   UNL A   1      41.934  29.847  36.402  1.00  0.00     0.022 A 
BRANCH  77  80
ATOM     80  S   UNL A   1      42.751  32.435  36.181  1.00  0.00     0.127 S 
ATOM     81  O   UNL A   1      44.200  32.633  36.140  1.00  0.00    -0.237 OA
ATOM     82  O   UNL A   1      42.006  33.217  35.192  1.00  0.00    -0.237 OA
ATOM     83  O   UNL A   1      42.169  32.434  37.516  1.00  0.00    -0.744 OA
ENDBRANCH  77  80
ENDBRANCH  59  73
BRANCH  60  84
ATOM     84  C   UNL A   1      45.227  23.104  26.045  1.00  0.00     0.023 A 
ATOM     85  C   UNL A   1      46.020  23.734  25.053  1.00  0.00     0.012 A 
ATOM     86  C   UNL A   1      44.807  21.783  25.836  1.00  0.00     0.148 A 
ATOM     87  C   UNL A   1      46.620  22.981  24.044  1.00  0.00     0.002 A 
ATOM     88  C   UNL A   1      45.402  21.038  24.818  1.00  0.00     0.091 A 
ATOM     89  F   UNL A   1      43.949  21.240  26.710  1.00  0.00    -0.205 F 
ATOM     90  C   UNL A   1      46.360  21.619  23.968  1.00  0.00     0.022 A 
BRANCH  88  91
ATOM     91  S   UNL A   1      45.140  19.263  24.708  1.00  0.00     0.127 S 
ATOM     92  O   UNL A   1      45.887  18.776  25.861  1.00  0.00    -0.237 OA
ATOM     93  O   UNL A   1      43.686  19.148  24.818  1.00  0.00    -0.237 OA
ATOM     94  O   UNL A   1      45.661  18.907  23.395  1.00  0.00    -0.744 OA
ENDBRANCH  88  91
ENDBRANCH  60  84
BRANCH  72  95
ATOM     95  C   UNL A   1      48.583  28.149  30.312  1.00  0.00     0.023 A 
ATOM     96  C   UNL A   1      49.822  28.038  30.967  1.00  0.00     0.012 A 
ATOM     97  C   UNL A   1      48.360  29.363  29.596  1.00  0.00     0.148 A 
ATOM     98  C   UNL A   1      50.775  29.064  30.939  1.00  0.00     0.002 A 
ATOM     99  C   UNL A   1      49.352  30.333  29.481  1.00  0.00     0.091 A 
ATOM    100  F   UNL A   1      47.169  29.607  29.033  1.00  0.00    -0.205 F 
ATOM    101  C   UNL A   1      50.554  30.198  30.172  1.00  0.00     0.022 A 
BRANCH  99 102
ATOM    102  S   UNL A   1      49.201  31.716  28.338  1.00  0.00     0.127 S 
ATOM    103  O   UNL A   1      49.160  32.855  29.252  1.00  0.00    -0.237 OA
ATOM    104  O   UNL A   1      50.437  31.604  27.560  1.00  0.00    -0.237 OA
ATOM    105  O   UNL A   1      47.988  31.467  27.574  1.00  0.00    -0.744 OA
ENDBRANCH  99 102
ENDBRANCH  72  95
ENDBRANCH  46  47
ENDBRANCH  39  41
ENDBRANCH  38  39
ENDBRANCH  37  38
ENDBRANCH  36  37
ENDBRANCH  35  36
ENDBRANCH  34  35
ENDBRANCH  33  34
ENDBRANCH   1  33
TORSDOF 29
ENDMDL
MODEL 2
REMARK VINA RESULT:      -8.0      3.867     11.113
REMARK SMILES Cc1ccccc1OCc1nc2cc(C(=O)OCCOCCOCCOCCOC(=O)c3ccc(-c4c5nc(c(-c6cccc(S(=O)(=O)[O-])c6F)c6ccc([nH]6)c(-c6cccc(S(=O)(=O)[O-])c6F)c6nc(c(-c7cccc(S(=O)(=O)[O-])c7F)c7ccc4[nH]7)C=C6)C=C5)cc3)ccc2n1C[C@H](C)O
REMARK SMILES IDX 23 1 22 2 21 3 20 4 19 5 18 6 17 7 15 8 16 9 14 10 10 11
REMARK SMILES IDX 11 12 98 13 12 14 97 15 13 16 96 17 95 18 9 19 8 20 7 21
REMARK SMILES IDX 1 22 2 23 3 24 4 25 6 26 5 27 99 28 100 29 101 30 102 31
REMARK SMILES IDX 24 33 25 34 26 35 27 36 28 37 29 38 30 39 31 40 32 41 33 42
REMARK SMILES IDX 94 43 34 44 93 45 35 46 36 47 37 48 87 49 38 50 92 51 86 52
REMARK SMILES IDX 88 53 39 54 91 55 85 56 84 57 40 59 72 60 52 61 71 62 53 63
REMARK SMILES IDX 56 64 70 65 89 66 54 67 55 68 69 70 90 71 57 72 41 73 42 74
REMARK SMILES IDX 50 75 43 76 45 77 51 78 44 79 46 80 47 81 48 82 49 83 73 84
REMARK SMILES IDX 74 85 82 86 75 87 77 88 83 89 76 90 78 91 79 92 80 93 81 94
REMARK SMILES IDX 58 95 59 96 67 97 60 98 62 99 68 100 61 101 63 102 64 103
REMARK SMILES IDX 65 104 66 105
REMARK H PARENT 102 32 88 58 56 69
REMARK Flexibility Score: inf
ROOT
ATOM      1  O   UNL A   1      43.860  25.399  24.742  1.00  0.00    -0.377 OA
ENDROOT
BRANCH   1   2
ATOM      2  C   UNL A   1      42.839  26.168  25.334  1.00  0.00     0.188 C 
BRANCH   2   3
ATOM      3  C   UNL A   1      41.448  25.628  25.670  1.00  0.00     0.188 C 
BRANCH   3   4
ATOM      4  O   UNL A   1      41.196  25.089  26.956  1.00  0.00    -0.376 OA
BRANCH   4   5
ATOM      5  C   UNL A   1      40.965  23.690  27.062  1.00  0.00     0.202 C 
BRANCH   5   6
ATOM      6  C   UNL A   1      39.573  23.297  27.490  1.00  0.00     0.261 C 
BRANCH   6   7
ATOM      7  O   UNL A   1      38.780  23.366  26.301  1.00  0.00    -0.460 OA
BRANCH   7   8
ATOM      8  C   UNL A   1      38.294  22.225  25.827  1.00  0.00     0.338 C 
ATOM      9  O   UNL A   1      38.865  21.150  25.696  1.00  0.00    -0.246 OA
BRANCH   8  10
ATOM     10  C   UNL A   1      36.951  22.519  25.333  1.00  0.00     0.062 A 
ATOM     11  C   UNL A   1      32.932  22.884  23.687  1.00  0.00     0.148 A 
ATOM     12  N   UNL A   1      33.911  22.078  23.238  1.00  0.00    -0.229 NA
ATOM     13  N   UNL A   1      33.017  22.778  25.046  1.00  0.00    -0.322 N 
ATOM     14  C   UNL A   1      34.857  22.115  24.280  1.00  0.00     0.090 A 
ATOM     15  C   UNL A   1      34.360  22.985  25.237  1.00  0.00     0.068 A 
ATOM     16  C   UNL A   1      36.145  21.652  24.538  1.00  0.00     0.046 A 
ATOM     17  C   UNL A   1      35.178  24.050  25.616  1.00  0.00     0.029 A 
ATOM     18  C   UNL A   1      36.517  23.781  25.705  1.00  0.00     0.018 A 
BRANCH  11  19
ATOM     19  C   UNL A   1      32.349  24.211  23.240  1.00  0.00     0.304 C 
BRANCH  19  20
ATOM     20  O   UNL A   1      33.445  25.176  23.385  1.00  0.00    -0.485 OA
BRANCH  20  21
ATOM     21  C   UNL A   1      33.206  26.524  23.504  1.00  0.00     0.122 A 
ATOM     22  C   UNL A   1      33.051  26.683  26.157  1.00  0.00     0.048 C 
ATOM     23  C   UNL A   1      33.131  27.218  24.749  1.00  0.00    -0.009 A 
ATOM     24  C   UNL A   1      33.240  28.621  24.753  1.00  0.00     0.007 A 
ATOM     25  C   UNL A   1      33.422  29.334  23.582  1.00  0.00     0.001 A 
ATOM     26  C   UNL A   1      33.367  27.264  22.329  1.00  0.00     0.047 A 
ATOM     27  C   UNL A   1      33.477  28.658  22.371  1.00  0.00     0.004 A 
ENDBRANCH  20  21
ENDBRANCH  19  20
ENDBRANCH  11  19
BRANCH  13  28
ATOM     28  C   UNL A   1      32.139  21.888  25.803  1.00  0.00     0.155 C 
BRANCH  28  29
ATOM     29  C   UNL A   1      31.380  22.685  26.878  1.00  0.00     0.131 C 
ATOM     30  C   UNL A   1      30.545  23.807  26.284  1.00  0.00     0.040 C 
BRANCH  29  31
ATOM     31  O   UNL A   1      32.306  23.201  27.840  1.00  0.00    -0.392 OA
ATOM     32  H   UNL A   1      33.020  23.671  27.382  1.00  0.00     0.211 HD
ENDBRANCH  29  31
ENDBRANCH  28  29
ENDBRANCH  13  28
ENDBRANCH   8  10
ENDBRANCH   7   8
ENDBRANCH   6   7
ENDBRANCH   5   6
ENDBRANCH   4   5
ENDBRANCH   3   4
ENDBRANCH   2   3
ENDBRANCH   1   2
BRANCH   1  33
ATOM     33  C   UNL A   1      43.815  23.995  24.815  1.00  0.00     0.188 C 
BRANCH  33  34
ATOM     34  C   UNL A   1      44.526  23.366  26.012  1.00  0.00     0.188 C 
BRANCH  34  35
ATOM     35  O   UNL A   1      45.916  23.167  25.868  1.00  0.00    -0.376 OA
BRANCH  35  36
ATOM     36  C   UNL A   1      46.527  23.801  24.744  1.00  0.00     0.202 C 
BRANCH  36  37
ATOM     37  C   UNL A   1      47.401  25.101  24.907  1.00  0.00     0.261 C 
BRANCH  37  38
ATOM     38  O   UNL A   1      47.393  25.640  26.279  1.00  0.00    -0.460 OA
BRANCH  38  39
ATOM     39  C   UNL A   1      46.606  26.699  26.675  1.00  0.00     0.338 C 
ATOM     40  O   UNL A   1      46.246  27.580  25.910  1.00  0.00    -0.246 OA
BRANCH  39  41
ATOM     41  C   UNL A   1      46.093  26.618  28.103  1.00  0.00     0.060 A 
ATOM     42  C   UNL A   1      44.848  26.052  28.397  1.00  0.00     0.016 A 
ATOM     43  C   UNL A   1      46.792  27.150  29.182  1.00  0.00     0.016 A 
ATOM     44  C   UNL A   1      44.204  26.322  29.626  1.00  0.00     0.010 A 
ATOM     45  C   UNL A   1      46.109  27.537  30.346  1.00  0.00     0.010 A 
ATOM     46  C   UNL A   1      44.755  27.235  30.524  1.00  0.00    -0.014 A 
BRANCH  46  47
ATOM     47  C   UNL A   1      43.944  28.109  31.423  1.00  0.00     0.031 A 
ATOM     48  C   UNL A   1      42.996  29.175  30.907  1.00  0.00     0.074 A 
ATOM     49  C   UNL A   1      43.741  27.661  32.698  1.00  0.00     0.049 A 
ATOM     50  N   UNL A   1      42.198  29.874  31.655  1.00  0.00    -0.248 NA
ATOM     51  C   UNL A   1      42.849  29.546  29.501  1.00  0.00     0.031 C 
ATOM     52  C   UNL A   1      42.557  27.936  33.504  1.00  0.00     0.029 A 
ATOM     53  N   UNL A   1      44.502  26.860  33.567  1.00  0.00    -0.354 N 
ATOM     54  C   UNL A   1      41.226  30.457  30.864  1.00  0.00     0.074 A 
ATOM     55  C   UNL A   1      41.755  30.324  29.529  1.00  0.00     0.031 C 
ATOM     56  C   UNL A   1      42.664  27.395  34.718  1.00  0.00     0.029 A 
ATOM     57  C   UNL A   1      44.052  27.088  34.880  1.00  0.00     0.049 A 
ATOM     58  H   UNL A   1      45.224  26.245  33.302  1.00  0.00     0.167 HD
ATOM     59  C   UNL A   1      40.041  30.861  31.426  1.00  0.00     0.034 A 
ATOM     60  C   UNL A   1      44.779  27.593  35.921  1.00  0.00     0.034 A 
ATOM     61  C   UNL A   1      40.072  30.803  32.917  1.00  0.00     0.049 A 
ATOM     62  C   UNL A   1      44.229  28.929  36.429  1.00  0.00     0.074 A 
ATOM     63  C   UNL A   1      39.257  30.241  33.891  1.00  0.00     0.029 A 
ATOM     64  N   UNL A   1      41.163  31.333  33.612  1.00  0.00    -0.354 N 
ATOM     65  N   UNL A   1      43.204  29.535  35.882  1.00  0.00    -0.248 NA
ATOM     66  C   UNL A   1      44.724  29.691  37.571  1.00  0.00     0.031 C 
ATOM     67  C   UNL A   1      39.915  30.348  35.151  1.00  0.00     0.029 A 
ATOM     68  C   UNL A   1      41.093  31.052  34.966  1.00  0.00     0.049 A 
ATOM     69  H   UNL A   1      41.891  31.844  33.190  1.00  0.00     0.167 HD
ATOM     70  C   UNL A   1      42.971  30.754  36.447  1.00  0.00     0.074 A 
ATOM     71  C   UNL A   1      43.921  30.777  37.549  1.00  0.00     0.031 C 
ATOM     72  C   UNL A   1      42.059  31.628  35.905  1.00  0.00     0.034 A 
BRANCH  59  73
ATOM     73  C   UNL A   1      38.728  31.186  30.671  1.00  0.00     0.023 A 
ATOM     74  C   UNL A   1      38.523  30.555  29.416  1.00  0.00     0.012 A 
ATOM     75  C   UNL A   1      37.719  32.117  31.038  1.00  0.00     0.148 A 
ATOM     76  C   UNL A   1      37.441  30.848  28.569  1.00  0.00     0.002 A 
ATOM     77  C   UNL A   1      36.592  32.350  30.229  1.00  0.00     0.091 A 
ATOM     78  F   UNL A   1      37.858  32.848  32.146  1.00  0.00    -0.205 F 
ATOM     79  C   UNL A   1      36.466  31.738  28.980  1.00  0.00     0.022 A 
BRANCH  77  80
ATOM     80  S   UNL A   1      35.221  33.422  30.720  1.00  0.00     0.127 S 
ATOM     81  O   UNL A   1      34.747  33.934  29.434  1.00  0.00    -0.237 OA
ATOM     82  O   UNL A   1      34.307  32.480  31.370  1.00  0.00    -0.237 OA
ATOM     83  O   UNL A   1      35.788  34.427  31.610  1.00  0.00    -0.744 OA
ENDBRANCH  77  80
ENDBRANCH  59  73
BRANCH  60  84
ATOM     84  C   UNL A   1      46.144  27.010  35.994  1.00  0.00     0.023 A 
ATOM     85  C   UNL A   1      47.171  27.942  35.699  1.00  0.00     0.012 A 
ATOM     86  C   UNL A   1      46.415  25.969  36.894  1.00  0.00     0.148 A 
ATOM     87  C   UNL A   1      48.314  28.011  36.495  1.00  0.00     0.002 A 
ATOM     88  C   UNL A   1      47.566  26.038  37.680  1.00  0.00     0.091 A 
ATOM     89  F   UNL A   1      45.489  25.017  37.066  1.00  0.00    -0.205 F 
ATOM     90  C   UNL A   1      48.478  27.097  37.528  1.00  0.00     0.022 A 
BRANCH  88  91
ATOM     91  S   UNL A   1      47.800  24.911  39.062  1.00  0.00     0.127 S 
ATOM     92  O   UNL A   1      46.975  23.776  38.667  1.00  0.00    -0.237 OA
ATOM     93  O   UNL A   1      49.242  24.668  39.034  1.00  0.00    -0.237 OA
ATOM     94  O   UNL A   1      47.353  25.672  40.220  1.00  0.00    -0.744 OA
ENDBRANCH  88  91
ENDBRANCH  60  84
BRANCH  72  95
ATOM     95  C   UNL A   1      41.965  33.126  36.182  1.00  0.00     0.023 A 
ATOM     96  C   UNL A   1      42.482  34.089  35.298  1.00  0.00     0.012 A 
ATOM     97  C   UNL A   1      41.195  33.628  37.273  1.00  0.00     0.148 A 
ATOM     98  C   UNL A   1      42.272  35.461  35.483  1.00  0.00     0.002 A 
ATOM     99  C   UNL A   1      40.899  34.983  37.393  1.00  0.00     0.091 A 
ATOM    100  F   UNL A   1      40.755  32.799  38.229  1.00  0.00    -0.205 F 
ATOM    101  C   UNL A   1      41.456  35.907  36.511  1.00  0.00     0.022 A 
BRANCH  99 102
ATOM    102  S   UNL A   1      39.684  35.591  38.576  1.00  0.00     0.127 S 
ATOM    103  O   UNL A   1      39.567  36.994  38.187  1.00  0.00    -0.237 OA
ATOM    104  O   UNL A   1      38.513  34.770  38.258  1.00  0.00    -0.237 OA
ATOM    105  O   UNL A   1      40.253  35.337  39.891  1.00  0.00    -0.744 OA
ENDBRANCH  99 102
ENDBRANCH  72  95
ENDBRANCH  46  47
ENDBRANCH  39  41
ENDBRANCH  38  39
ENDBRANCH  37  38
ENDBRANCH  36  37
ENDBRANCH  35  36
ENDBRANCH  34  35
ENDBRANCH  33  34
ENDBRANCH   1  33
TORSDOF 29
ENDMDL
MODEL 3
REMARK VINA RESULT:      -7.8      5.278     13.603
REMARK SMILES Cc1ccccc1OCc1nc2cc(C(=O)OCCOCCOCCOCCOC(=O)c3ccc(-c4c5nc(c(-c6cccc(S(=O)(=O)[O-])c6F)c6ccc([nH]6)c(-c6cccc(S(=O)(=O)[O-])c6F)c6nc(c(-c7cccc(S(=O)(=O)[O-])c7F)c7ccc4[nH]7)C=C6)C=C5)cc3)ccc2n1C[C@H](C)O
REMARK SMILES IDX 23 1 22 2 21 3 20 4 19 5 18 6 17 7 15 8 16 9 14 10 10 11
REMARK SMILES IDX 11 12 98 13 12 14 97 15 13 16 96 17 95 18 9 19 8 20 7 21
REMARK SMILES IDX 1 22 2 23 3 24 4 25 6 26 5 27 99 28 100 29 101 30 102 31
REMARK SMILES IDX 24 33 25 34 26 35 27 36 28 37 29 38 30 39 31 40 32 41 33 42
REMARK SMILES IDX 94 43 34 44 93 45 35 46 36 47 37 48 87 49 38 50 92 51 86 52
REMARK SMILES IDX 88 53 39 54 91 55 85 56 84 57 40 59 72 60 52 61 71 62 53 63
REMARK SMILES IDX 56 64 70 65 89 66 54 67 55 68 69 70 90 71 57 72 41 73 42 74
REMARK SMILES IDX 50 75 43 76 45 77 51 78 44 79 46 80 47 81 48 82 49 83 73 84
REMARK SMILES IDX 74 85 82 86 75 87 77 88 83 89 76 90 78 91 79 92 80 93 81 94
REMARK SMILES IDX 58 95 59 96 67 97 60 98 62 99 68 100 61 101 63 102 64 103
REMARK SMILES IDX 65 104 66 105
REMARK H PARENT 102 32 88 58 56 69
REMARK Flexibility Score: inf
ROOT
ATOM      1  O   UNL A   1      43.416  30.575  27.828  1.00  0.00    -0.377 OA
ENDROOT
BRANCH   1   2
ATOM      2  C   UNL A   1      43.918  29.259  27.805  1.00  0.00     0.188 C 
BRANCH   2   3
ATOM      3  C   UNL A   1      43.050  28.011  27.976  1.00  0.00     0.188 C 
BRANCH   3   4
ATOM      4  O   UNL A   1      42.449  27.414  26.840  1.00  0.00    -0.376 OA
BRANCH   4   5
ATOM      5  C   UNL A   1      42.162  26.022  26.887  1.00  0.00     0.202 C 
BRANCH   5   6
ATOM      6  C   UNL A   1      41.829  25.478  28.254  1.00  0.00     0.261 C 
BRANCH   6   7
ATOM      7  O   UNL A   1      40.645  24.696  28.069  1.00  0.00    -0.460 OA
BRANCH   7   8
ATOM      8  C   UNL A   1      40.797  23.464  27.596  1.00  0.00     0.338 C 
ATOM      9  O   UNL A   1      41.764  22.721  27.707  1.00  0.00    -0.246 OA
BRANCH   8  10
ATOM     10  C   UNL A   1      39.628  23.191  26.765  1.00  0.00     0.062 A 
ATOM     11  C   UNL A   1      36.261  21.850  24.343  1.00  0.00     0.148 A 
ATOM     12  N   UNL A   1      37.449  21.232  24.476  1.00  0.00    -0.229 NA
ATOM     13  N   UNL A   1      35.963  22.262  25.611  1.00  0.00    -0.322 N 
ATOM     14  C   UNL A   1      38.029  21.891  25.577  1.00  0.00     0.090 A 
ATOM     15  C   UNL A   1      37.138  22.877  25.965  1.00  0.00     0.068 A 
ATOM     16  C   UNL A   1      39.245  21.915  26.257  1.00  0.00     0.046 A 
ATOM     17  C   UNL A   1      37.620  24.185  26.025  1.00  0.00     0.029 A 
ATOM     18  C   UNL A   1      38.900  24.336  26.486  1.00  0.00     0.018 A 
BRANCH  11  19
ATOM     19  C   UNL A   1      35.621  22.721  23.279  1.00  0.00     0.304 C 
BRANCH  19  20
ATOM     20  O   UNL A   1      34.288  23.042  23.802  1.00  0.00    -0.485 OA
BRANCH  20  21
ATOM     21  C   UNL A   1      33.626  24.187  23.429  1.00  0.00     0.122 A 
ATOM     22  C   UNL A   1      34.290  25.738  25.489  1.00  0.00     0.048 C 
ATOM     23  C   UNL A   1      33.709  25.427  24.131  1.00  0.00    -0.009 A 
ATOM     24  C   UNL A   1      33.295  26.605  23.482  1.00  0.00     0.007 A 
ATOM     25  C   UNL A   1      32.815  26.584  22.186  1.00  0.00     0.001 A 
ATOM     26  C   UNL A   1      33.118  24.183  22.127  1.00  0.00     0.047 A 
ATOM     27  C   UNL A   1      32.720  25.375  21.511  1.00  0.00     0.004 A 
ENDBRANCH  20  21
ENDBRANCH  19  20
ENDBRANCH  11  19
BRANCH  13  28
ATOM     28  C   UNL A   1      35.063  21.501  26.474  1.00  0.00     0.155 C 
BRANCH  28  29
ATOM     29  C   UNL A   1      33.618  22.000  26.302  1.00  0.00     0.131 C 
ATOM     30  C   UNL A   1      33.175  22.892  27.451  1.00  0.00     0.040 C 
BRANCH  29  31
ATOM     31  O   UNL A   1      32.734  20.883  26.163  1.00  0.00    -0.392 OA
ATOM     32  H   UNL A   1      33.170  20.188  25.647  1.00  0.00     0.211 HD
ENDBRANCH  29  31
ENDBRANCH  28  29
ENDBRANCH  13  28
ENDBRANCH   8  10
ENDBRANCH   7   8
ENDBRANCH   6   7
ENDBRANCH   5   6
ENDBRANCH   4   5
ENDBRANCH   3   4
ENDBRANCH   2   3
ENDBRANCH   1   2
BRANCH   1  33
ATOM     33  C   UNL A   1      44.286  31.662  27.628  1.00  0.00     0.188 C 
BRANCH  33  34
ATOM     34  C   UNL A   1      44.688  31.937  26.179  1.00  0.00     0.188 C 
BRANCH  34  35
ATOM     35  O   UNL A   1      45.655  32.948  25.990  1.00  0.00    -0.376 OA
BRANCH  35  36
ATOM     36  C   UNL A   1      45.825  33.864  27.072  1.00  0.00     0.202 C 
BRANCH  36  37
ATOM     37  C   UNL A   1      45.126  35.275  27.073  1.00  0.00     0.261 C 
BRANCH  37  38
ATOM     38  O   UNL A   1      43.661  35.199  27.215  1.00  0.00    -0.460 OA
BRANCH  38  39
ATOM     39  C   UNL A   1      42.956  35.867  28.191  1.00  0.00     0.338 C 
ATOM     40  O   UNL A   1      41.954  36.524  27.953  1.00  0.00    -0.246 OA
BRANCH  39  41
ATOM     41  C   UNL A   1      43.426  35.608  29.613  1.00  0.00     0.060 A 
ATOM     42  C   UNL A   1      43.440  34.317  30.150  1.00  0.00     0.016 A 
ATOM     43  C   UNL A   1      43.806  36.633  30.474  1.00  0.00     0.016 A 
ATOM     44  C   UNL A   1      43.490  34.118  31.549  1.00  0.00     0.010 A 
ATOM     45  C   UNL A   1      43.720  36.457  31.864  1.00  0.00     0.010 A 
ATOM     46  C   UNL A   1      43.428  35.205  32.418  1.00  0.00    -0.014 A 
BRANCH  46  47
ATOM     47  C   UNL A   1      42.789  35.157  33.767  1.00  0.00     0.031 A 
ATOM     48  C   UNL A   1      43.499  35.595  35.034  1.00  0.00     0.074 A 
ATOM     49  C   UNL A   1      41.423  35.118  33.801  1.00  0.00     0.049 A 
ATOM     50  N   UNL A   1      42.938  35.670  36.203  1.00  0.00    -0.248 NA
ATOM     51  C   UNL A   1      44.901  36.000  35.103  1.00  0.00     0.031 C 
ATOM     52  C   UNL A   1      40.594  35.691  34.855  1.00  0.00     0.029 A 
ATOM     53  N   UNL A   1      40.456  34.592  32.927  1.00  0.00    -0.354 N 
ATOM     54  C   UNL A   1      43.721  36.446  37.035  1.00  0.00     0.074 A 
ATOM     55  C   UNL A   1      44.983  36.515  36.341  1.00  0.00     0.031 C 
ATOM     56  C   UNL A   1      39.300  35.462  34.630  1.00  0.00     0.029 A 
ATOM     57  C   UNL A   1      39.261  34.421  33.649  1.00  0.00     0.049 A 
ATOM     58  H   UNL A   1      40.591  34.381  31.975  1.00  0.00     0.167 HD
ATOM     59  C   UNL A   1      43.163  37.038  38.140  1.00  0.00     0.034 A 
ATOM     60  C   UNL A   1      38.602  33.246  33.880  1.00  0.00     0.034 A 
ATOM     61  C   UNL A   1      41.777  36.551  38.405  1.00  0.00     0.049 A 
ATOM     62  C   UNL A   1      38.532  32.894  35.369  1.00  0.00     0.074 A 
ATOM     63  C   UNL A   1      40.550  37.164  38.621  1.00  0.00     0.029 A 
ATOM     64  N   UNL A   1      41.504  35.181  38.378  1.00  0.00    -0.354 N 
ATOM     65  N   UNL A   1      39.091  33.622  36.303  1.00  0.00    -0.248 NA
ATOM     66  C   UNL A   1      37.837  31.753  35.957  1.00  0.00     0.031 C 
ATOM     67  C   UNL A   1      39.536  36.163  38.619  1.00  0.00     0.029 A 
ATOM     68  C   UNL A   1      40.146  34.927  38.490  1.00  0.00     0.049 A 
ATOM     69  H   UNL A   1      42.191  34.481  38.291  1.00  0.00     0.167 HD
ATOM     70  C   UNL A   1      38.976  33.050  37.535  1.00  0.00     0.074 A 
ATOM     71  C   UNL A   1      38.123  31.901  37.269  1.00  0.00     0.031 C 
ATOM     72  C   UNL A   1      39.645  33.557  38.622  1.00  0.00     0.034 A 
BRANCH  59  73
ATOM     73  C   UNL A   1      43.767  38.203  38.963  1.00  0.00     0.023 A 
ATOM     74  C   UNL A   1      43.771  38.072  40.377  1.00  0.00     0.012 A 
ATOM     75  C   UNL A   1      44.252  39.449  38.483  1.00  0.00     0.148 A 
ATOM     76  C   UNL A   1      44.173  39.096  41.249  1.00  0.00     0.002 A 
ATOM     77  C   UNL A   1      44.734  40.445  39.353  1.00  0.00     0.091 A 
ATOM     78  F   UNL A   1      44.199  39.728  37.179  1.00  0.00    -0.205 F 
ATOM     79  C   UNL A   1      44.668  40.282  40.738  1.00  0.00     0.022 A 
BRANCH  77  80
ATOM     80  S   UNL A   1      45.484  41.988  38.778  1.00  0.00     0.127 S 
ATOM     81  O   UNL A   1      46.076  42.523  40.004  1.00  0.00    -0.237 OA
ATOM     82  O   UNL A   1      46.458  41.512  37.794  1.00  0.00    -0.237 OA
ATOM     83  O   UNL A   1      44.400  42.786  38.221  1.00  0.00    -0.744 OA
ENDBRANCH  77  80
ENDBRANCH  59  73
BRANCH  60  84
ATOM     84  C   UNL A   1      38.540  32.384  32.671  1.00  0.00     0.023 A 
ATOM     85  C   UNL A   1      38.827  31.020  32.936  1.00  0.00     0.012 A 
ATOM     86  C   UNL A   1      37.655  32.698  31.630  1.00  0.00     0.148 A 
ATOM     87  C   UNL A   1      38.032  30.012  32.390  1.00  0.00     0.002 A 
ATOM     88  C   UNL A   1      36.872  31.683  31.080  1.00  0.00     0.091 A 
ATOM     89  F   UNL A   1      37.493  33.985  31.296  1.00  0.00    -0.205 F 
ATOM     90  C   UNL A   1      37.012  30.352  31.511  1.00  0.00     0.022 A 
BRANCH  88  91
ATOM     91  S   UNL A   1      35.506  32.075  29.978  1.00  0.00     0.127 S 
ATOM     92  O   UNL A   1      34.466  32.476  30.920  1.00  0.00    -0.237 OA
ATOM     93  O   UNL A   1      36.054  33.158  29.163  1.00  0.00    -0.237 OA
ATOM     94  O   UNL A   1      35.277  30.840  29.242  1.00  0.00    -0.744 OA
ENDBRANCH  88  91
ENDBRANCH  60  84
BRANCH  72  95
ATOM     95  C   UNL A   1      39.918  32.831  39.938  1.00  0.00     0.023 A 
ATOM     96  C   UNL A   1      41.217  32.492  40.355  1.00  0.00     0.012 A 
ATOM     97  C   UNL A   1      38.878  32.615  40.890  1.00  0.00     0.148 A 
ATOM     98  C   UNL A   1      41.477  31.954  41.622  1.00  0.00     0.002 A 
ATOM     99  C   UNL A   1      39.155  32.182  42.184  1.00  0.00     0.091 A 
ATOM    100  F   UNL A   1      37.597  32.802  40.548  1.00  0.00    -0.205 F 
ATOM    101  C   UNL A   1      40.453  31.827  42.547  1.00  0.00     0.022 A 
BRANCH  99 102
ATOM    102  S   UNL A   1      37.905  32.199  43.481  1.00  0.00     0.127 S 
ATOM    103  O   UNL A   1      38.689  31.821  44.655  1.00  0.00    -0.237 OA
ATOM    104  O   UNL A   1      37.468  33.596  43.464  1.00  0.00    -0.237 OA
ATOM    105  O   UNL A   1      36.887  31.248  43.060  1.00  0.00    -0.744 OA
ENDBRANCH  99 102
ENDBRANCH  72  95
ENDBRANCH  46  47
ENDBRANCH  39  41
ENDBRANCH  38  39
ENDBRANCH  37  38
ENDBRANCH  36  37
ENDBRANCH  35  36
ENDBRANCH  34  35
ENDBRANCH  33  34
ENDBRANCH   1  33
TORSDOF 29
ENDMDL
