MODEL 1
REMARK VINA RESULT:      -7.1      0.000      0.000
REMARK SMILES COc1cc(OC)cc(-c2ccc([C@@H](C)C(=O)OCCOCCOCCOCCOC(=O)c3ccc(-c4c5nc(c(-c6cccc(S(=O)(=O)[O-])c6F)c6ccc([nH]6)c(-c6cccc(S(=O)(=O)[O-])c6F)c6nc(c(-c7cccc(S(=O)(=O)[O-])c7F)c7ccc4[nH]7)C=C6)C=C5)cc3)cc2F)c1
REMARK SMILES IDX 24 1 23 2 22 3 21 4 20 5 19 6 18 7 16 8 17 9 14 10 15 11
REMARK SMILES IDX 13 12 10 13 11 14 97 15 12 16 96 17 98 18 9 19 3 20 4 21
REMARK SMILES IDX 99 22 5 23 8 24 2 25 1 26 6 27 7 28 25 29 26 30 27 31 28 32
REMARK SMILES IDX 29 33 30 34 31 35 32 36 33 37 34 38 95 39 35 40 94 41 36 42
REMARK SMILES IDX 37 43 38 44 88 45 39 46 93 47 87 48 89 49 40 50 92 51 86 52
REMARK SMILES IDX 85 53 41 55 73 56 53 57 72 58 54 59 57 60 71 61 90 62 55 63
REMARK SMILES IDX 56 64 70 66 91 67 58 68 42 69 43 70 51 71 44 72 46 73 52 74
REMARK SMILES IDX 45 75 47 76 48 77 49 78 50 79 74 80 75 81 83 82 76 83 78 84
REMARK SMILES IDX 84 85 77 86 79 87 80 88 81 89 82 90 59 91 60 92 68 93 61 94
REMARK SMILES IDX 63 95 69 96 62 97 64 98 65 99 66 100 67 101
REMARK H PARENT 89 54 57 65
REMARK Flexibility Score: inf
ROOT
ATOM      1  O   UNL A   1      34.891  23.826  25.791  1.00  0.00    -0.377 OA
ENDROOT
BRANCH   1   2
ATOM      2  C   UNL A   1      35.537  23.572  24.564  1.00  0.00     0.188 C 
BRANCH   2   3
ATOM      3  C   UNL A   1      37.020  23.188  24.663  1.00  0.00     0.188 C 
BRANCH   3   4
ATOM      4  O   UNL A   1      37.563  22.641  25.855  1.00  0.00    -0.376 OA
BRANCH   4   5
ATOM      5  C   UNL A   1      38.861  22.061  25.861  1.00  0.00     0.202 C 
BRANCH   5   6
ATOM      6  C   UNL A   1      39.904  22.455  26.926  1.00  0.00     0.261 C 
BRANCH   6   7
ATOM      7  O   UNL A   1      41.014  23.263  26.484  1.00  0.00    -0.463 OA
BRANCH   7   8
ATOM      8  C   UNL A   1      40.834  24.602  26.508  1.00  0.00     0.313 C 
ATOM      9  O   UNL A   1      39.921  25.156  27.121  1.00  0.00    -0.252 OA
BRANCH   8  10
ATOM     10  C   UNL A   1      41.839  25.424  25.700  1.00  0.00     0.126 C 
ATOM     11  C   UNL A   1      43.058  24.556  25.414  1.00  0.00     0.025 C 
BRANCH  10  12
ATOM     12  C   UNL A   1      42.245  26.831  26.141  1.00  0.00    -0.031 A 
ATOM     13  C   UNL A   1      43.135  29.435  26.970  1.00  0.00     0.018 A 
ATOM     14  C   UNL A   1      41.854  29.229  26.425  1.00  0.00     0.012 A 
ATOM     15  C   UNL A   1      43.960  28.311  27.079  1.00  0.00     0.131 A 
ATOM     16  C   UNL A   1      41.413  27.951  26.021  1.00  0.00     0.005 A 
ATOM     17  C   UNL A   1      43.527  27.036  26.692  1.00  0.00     0.044 A 
ATOM     18  F   UNL A   1      45.197  28.426  27.588  1.00  0.00    -0.206 F 
BRANCH  13  19
ATOM     19  C   UNL A   1      43.540  30.747  27.513  1.00  0.00    -0.008 A 
ATOM     20  C   UNL A   1      43.812  32.350  29.333  1.00  0.00     0.123 A 
ATOM     21  C   UNL A   1      44.163  33.339  28.413  1.00  0.00     0.092 A 
ATOM     22  C   UNL A   1      43.486  31.063  28.885  1.00  0.00     0.055 A 
ATOM     23  C   UNL A   1      44.216  33.054  27.052  1.00  0.00     0.123 A 
ATOM     24  C   UNL A   1      43.927  31.760  26.614  1.00  0.00     0.055 A 
BRANCH  20  25
ATOM     25  O   UNL A   1      43.717  32.777  30.632  1.00  0.00    -0.497 OA
ATOM     26  C   UNL A   1      44.222  31.875  31.608  1.00  0.00     0.278 C 
ENDBRANCH  20  25
BRANCH  23  27
ATOM     27  O   UNL A   1      44.542  34.113  26.248  1.00  0.00    -0.497 OA
ATOM     28  C   UNL A   1      44.232  33.975  24.866  1.00  0.00     0.278 C 
ENDBRANCH  23  27
ENDBRANCH  13  19
ENDBRANCH  10  12
ENDBRANCH   8  10
ENDBRANCH   7   8
ENDBRANCH   6   7
ENDBRANCH   5   6
ENDBRANCH   4   5
ENDBRANCH   3   4
ENDBRANCH   2   3
ENDBRANCH   1   2
BRANCH   1  29
ATOM     29  C   UNL A   1      33.846  24.785  25.783  1.00  0.00     0.188 C 
BRANCH  29  30
ATOM     30  C   UNL A   1      34.237  26.242  25.476  1.00  0.00     0.188 C 
BRANCH  30  31
ATOM     31  O   UNL A   1      33.151  27.161  25.542  1.00  0.00    -0.376 OA
BRANCH  31  32
ATOM     32  C   UNL A   1      33.416  28.541  25.330  1.00  0.00     0.202 C 
BRANCH  32  33
ATOM     33  C   UNL A   1      33.445  29.475  26.554  1.00  0.00     0.261 C 
BRANCH  33  34
ATOM     34  O   UNL A   1      34.601  29.400  27.405  1.00  0.00    -0.460 OA
BRANCH  34  35
ATOM     35  C   UNL A   1      35.257  30.546  27.679  1.00  0.00     0.338 C 
ATOM     36  O   UNL A   1      34.848  31.681  27.485  1.00  0.00    -0.246 OA
BRANCH  35  37
ATOM     37  C   UNL A   1      36.471  30.219  28.457  1.00  0.00     0.060 A 
ATOM     38  C   UNL A   1      36.353  29.319  29.524  1.00  0.00     0.016 A 
ATOM     39  C   UNL A   1      37.711  30.790  28.152  1.00  0.00     0.016 A 
ATOM     40  C   UNL A   1      37.461  29.024  30.316  1.00  0.00     0.010 A 
ATOM     41  C   UNL A   1      38.816  30.510  28.965  1.00  0.00     0.010 A 
ATOM     42  C   UNL A   1      38.687  29.655  30.075  1.00  0.00    -0.014 A 
BRANCH  42  43
ATOM     43  C   UNL A   1      39.764  29.530  31.090  1.00  0.00     0.031 A 
ATOM     44  C   UNL A   1      40.887  28.558  30.846  1.00  0.00     0.074 A 
ATOM     45  C   UNL A   1      39.780  30.310  32.186  1.00  0.00     0.049 A 
ATOM     46  N   UNL A   1      41.965  28.343  31.555  1.00  0.00    -0.248 NA
ATOM     47  C   UNL A   1      40.783  27.720  29.641  1.00  0.00     0.031 C 
ATOM     48  C   UNL A   1      38.753  31.289  32.539  1.00  0.00     0.029 A 
ATOM     49  N   UNL A   1      40.691  30.390  33.208  1.00  0.00    -0.354 N 
ATOM     50  C   UNL A   1      42.654  27.328  30.899  1.00  0.00     0.074 A 
ATOM     51  C   UNL A   1      41.866  26.964  29.741  1.00  0.00     0.031 C 
ATOM     52  C   UNL A   1      39.082  31.857  33.713  1.00  0.00     0.029 A 
ATOM     53  C   UNL A   1      40.329  31.270  34.200  1.00  0.00     0.049 A 
ATOM     54  H   UNL A   1      41.524  29.867  33.230  1.00  0.00     0.167 HD
ATOM     55  C   UNL A   1      43.839  26.757  31.223  1.00  0.00     0.034 A 
ATOM     56  C   UNL A   1      40.925  31.556  35.376  1.00  0.00     0.034 A 
ATOM     57  C   UNL A   1      44.625  27.122  32.371  1.00  0.00     0.049 A 
ATOM     58  C   UNL A   1      42.237  30.900  35.719  1.00  0.00     0.074 A 
ATOM     59  C   UNL A   1      45.867  26.640  32.751  1.00  0.00     0.029 A 
ATOM     60  N   UNL A   1      44.241  28.035  33.340  1.00  0.00    -0.354 N 
ATOM     61  N   UNL A   1      42.940  30.039  35.022  1.00  0.00    -0.248 NA
ATOM     62  C   UNL A   1      42.859  31.289  36.993  1.00  0.00     0.031 C 
ATOM     63  C   UNL A   1      46.210  27.227  33.974  1.00  0.00     0.029 A 
ATOM     64  C   UNL A   1      45.207  28.115  34.330  1.00  0.00     0.049 A 
ATOM     65  H   UNL A   1      43.402  28.551  33.328  1.00  0.00     0.167 HD
ATOM     66  C   UNL A   1      44.098  29.807  35.758  1.00  0.00     0.074 A 
ATOM     67  C   UNL A   1      44.015  30.643  36.938  1.00  0.00     0.031 C 
ATOM     68  C   UNL A   1      45.131  28.968  35.489  1.00  0.00     0.034 A 
BRANCH  55  69
ATOM     69  C   UNL A   1      44.358  25.667  30.319  1.00  0.00     0.023 A 
ATOM     70  C   UNL A   1      43.666  24.443  30.218  1.00  0.00     0.012 A 
ATOM     71  C   UNL A   1      45.509  25.878  29.536  1.00  0.00     0.148 A 
ATOM     72  C   UNL A   1      44.133  23.431  29.379  1.00  0.00     0.002 A 
ATOM     73  C   UNL A   1      45.940  24.884  28.664  1.00  0.00     0.091 A 
ATOM     74  F   UNL A   1      46.167  27.038  29.664  1.00  0.00    -0.205 F 
ATOM     75  C   UNL A   1      45.262  23.656  28.595  1.00  0.00     0.022 A 
BRANCH  73  76
ATOM     76  S   UNL A   1      47.333  25.109  27.553  1.00  0.00     0.127 S 
ATOM     77  O   UNL A   1      47.178  23.969  26.653  1.00  0.00    -0.237 OA
ATOM     78  O   UNL A   1      47.035  26.408  26.949  1.00  0.00    -0.237 OA
ATOM     79  O   UNL A   1      48.523  25.086  28.391  1.00  0.00    -0.744 OA
ENDBRANCH  73  76
ENDBRANCH  55  69
BRANCH  56  80
ATOM     80  C   UNL A   1      40.289  32.526  36.311  1.00  0.00     0.023 A 
ATOM     81  C   UNL A   1      39.395  32.072  37.300  1.00  0.00     0.012 A 
ATOM     82  C   UNL A   1      40.581  33.901  36.227  1.00  0.00     0.148 A 
ATOM     83  C   UNL A   1      38.781  32.975  38.170  1.00  0.00     0.002 A 
ATOM     84  C   UNL A   1      40.015  34.786  37.136  1.00  0.00     0.091 A 
ATOM     85  F   UNL A   1      41.420  34.314  35.266  1.00  0.00    -0.205 F 
ATOM     86  C   UNL A   1      39.099  34.328  38.096  1.00  0.00     0.022 A 
BRANCH  84  87
ATOM     87  S   UNL A   1      40.472  36.522  37.202  1.00  0.00     0.127 S 
ATOM     88  O   UNL A   1      40.119  36.976  35.860  1.00  0.00    -0.237 OA
ATOM     89  O   UNL A   1      39.605  37.017  38.271  1.00  0.00    -0.237 OA
ATOM     90  O   UNL A   1      41.893  36.545  37.522  1.00  0.00    -0.744 OA
ENDBRANCH  84  87
ENDBRANCH  56  80
BRANCH  68  91
ATOM     91  C   UNL A   1      46.274  28.935  36.475  1.00  0.00     0.023 A 
ATOM     92  C   UNL A   1      46.182  28.146  37.640  1.00  0.00     0.012 A 
ATOM     93  C   UNL A   1      47.453  29.669  36.234  1.00  0.00     0.148 A 
ATOM     94  C   UNL A   1      47.217  28.135  38.575  1.00  0.00     0.002 A 
ATOM     95  C   UNL A   1      48.503  29.608  37.143  1.00  0.00     0.091 A 
ATOM     96  F   UNL A   1      47.522  30.427  35.130  1.00  0.00    -0.205 F 
ATOM     97  C   UNL A   1      48.380  28.858  38.323  1.00  0.00     0.022 A 
BRANCH  95  98
ATOM     98  S   UNL A   1      50.075  30.428  36.850  1.00  0.00     0.127 S 
ATOM     99  O   UNL A   1      50.749  30.248  38.135  1.00  0.00    -0.237 OA
ATOM    100  O   UNL A   1      50.637  29.642  35.752  1.00  0.00    -0.237 OA
ATOM    101  O   UNL A   1      49.749  31.804  36.501  1.00  0.00    -0.744 OA
ENDBRANCH  95  98
ENDBRANCH  68  91
ENDBRANCH  42  43
ENDBRANCH  35  37
ENDBRANCH  34  35
ENDBRANCH  33  34
ENDBRANCH  32  33
ENDBRANCH  31  32
ENDBRANCH  30  31
ENDBRANCH  29  30
ENDBRANCH   1  29
TORSDOF 27
ENDMDL
MODEL 2
REMARK VINA RESULT:      -7.1      3.731      7.846
REMARK SMILES COc1cc(OC)cc(-c2ccc([C@@H](C)C(=O)OCCOCCOCCOCCOC(=O)c3ccc(-c4c5nc(c(-c6cccc(S(=O)(=O)[O-])c6F)c6ccc([nH]6)c(-c6cccc(S(=O)(=O)[O-])c6F)c6nc(c(-c7cccc(S(=O)(=O)[O-])c7F)c7ccc4[nH]7)C=C6)C=C5)cc3)cc2F)c1
REMARK SMILES IDX 24 1 23 2 22 3 21 4 20 5 19 6 18 7 16 8 17 9 14 10 15 11
REMARK SMILES IDX 13 12 10 13 11 14 97 15 12 16 96 17 98 18 9 19 3 20 4 21
REMARK SMILES IDX 99 22 5 23 8 24 2 25 1 26 6 27 7 28 25 29 26 30 27 31 28 32
REMARK SMILES IDX 29 33 30 34 31 35 32 36 33 37 34 38 95 39 35 40 94 41 36 42
REMARK SMILES IDX 37 43 38 44 88 45 39 46 93 47 87 48 89 49 40 50 92 51 86 52
REMARK SMILES IDX 85 53 41 55 73 56 53 57 72 58 54 59 57 60 71 61 90 62 55 63
REMARK SMILES IDX 56 64 70 66 91 67 58 68 42 69 43 70 51 71 44 72 46 73 52 74
REMARK SMILES IDX 45 75 47 76 48 77 49 78 50 79 74 80 75 81 83 82 76 83 78 84
REMARK SMILES IDX 84 85 77 86 79 87 80 88 81 89 82 90 59 91 60 92 68 93 61 94
REMARK SMILES IDX 63 95 69 96 62 97 64 98 65 99 66 100 67 101
REMARK H PARENT 89 54 57 65
REMARK Flexibility Score: inf
ROOT
ATOM      1  O   UNL A   1      39.923  22.530  26.194  1.00  0.00    -0.377 OA
ENDROOT
BRANCH   1   2
ATOM      2  C   UNL A   1      38.858  23.339  26.641  1.00  0.00     0.188 C 
BRANCH   2   3
ATOM      3  C   UNL A   1      37.755  23.612  25.610  1.00  0.00     0.188 C 
BRANCH   3   4
ATOM      4  O   UNL A   1      37.010  22.553  25.028  1.00  0.00    -0.376 OA
BRANCH   4   5
ATOM      5  C   UNL A   1      35.656  22.329  25.400  1.00  0.00     0.202 C 
BRANCH   5   6
ATOM      6  C   UNL A   1      35.149  20.915  25.743  1.00  0.00     0.261 C 
BRANCH   6   7
ATOM      7  O   UNL A   1      34.474  20.191  24.692  1.00  0.00    -0.463 OA
BRANCH   7   8
ATOM      8  C   UNL A   1      33.165  19.918  24.891  1.00  0.00     0.313 C 
ATOM      9  O   UNL A   1      32.754  19.157  25.766  1.00  0.00    -0.252 OA
BRANCH   8  10
ATOM     10  C   UNL A   1      32.189  20.610  23.938  1.00  0.00     0.126 C 
ATOM     11  C   UNL A   1      32.294  19.947  22.570  1.00  0.00     0.025 C 
BRANCH  10  12
ATOM     12  C   UNL A   1      32.146  22.134  23.822  1.00  0.00    -0.031 A 
ATOM     13  C   UNL A   1      32.017  25.003  23.727  1.00  0.00     0.018 A 
ATOM     14  C   UNL A   1      32.793  24.266  22.813  1.00  0.00     0.012 A 
ATOM     15  C   UNL A   1      31.319  24.271  24.693  1.00  0.00     0.131 A 
ATOM     16  C   UNL A   1      32.854  22.857  22.854  1.00  0.00     0.005 A 
ATOM     17  C   UNL A   1      31.364  22.872  24.735  1.00  0.00     0.044 A 
ATOM     18  F   UNL A   1      30.558  24.902  25.601  1.00  0.00    -0.206 F 
BRANCH  13  19
ATOM     19  C   UNL A   1      31.851  26.465  23.595  1.00  0.00    -0.008 A 
ATOM     20  C   UNL A   1      32.376  28.770  24.204  1.00  0.00     0.123 A 
ATOM     21  C   UNL A   1      31.325  29.222  23.404  1.00  0.00     0.092 A 
ATOM     22  C   UNL A   1      32.629  27.396  24.312  1.00  0.00     0.055 A 
ATOM     23  C   UNL A   1      30.537  28.322  22.693  1.00  0.00     0.123 A 
ATOM     24  C   UNL A   1      30.817  26.957  22.775  1.00  0.00     0.055 A 
BRANCH  20  25
ATOM     25  O   UNL A   1      33.023  29.746  24.914  1.00  0.00    -0.497 OA
ATOM     26  C   UNL A   1      33.330  29.417  26.263  1.00  0.00     0.278 C 
ENDBRANCH  20  25
BRANCH  23  27
ATOM     27  O   UNL A   1      29.519  28.884  21.971  1.00  0.00    -0.497 OA
ATOM     28  C   UNL A   1      28.260  28.985  22.628  1.00  0.00     0.278 C 
ENDBRANCH  23  27
ENDBRANCH  13  19
ENDBRANCH  10  12
ENDBRANCH   8  10
ENDBRANCH   7   8
ENDBRANCH   6   7
ENDBRANCH   5   6
ENDBRANCH   4   5
ENDBRANCH   3   4
ENDBRANCH   2   3
ENDBRANCH   1   2
BRANCH   1  29
ATOM     29  C   UNL A   1      40.490  21.632  27.134  1.00  0.00     0.188 C 
BRANCH  29  30
ATOM     30  C   UNL A   1      41.996  21.341  27.003  1.00  0.00     0.188 C 
BRANCH  30  31
ATOM     31  O   UNL A   1      42.450  21.219  25.659  1.00  0.00    -0.376 OA
BRANCH  31  32
ATOM     32  C   UNL A   1      43.602  21.950  25.262  1.00  0.00     0.202 C 
BRANCH  32  33
ATOM     33  C   UNL A   1      43.417  23.405  24.792  1.00  0.00     0.261 C 
BRANCH  33  34
ATOM     34  O   UNL A   1      43.758  24.441  25.728  1.00  0.00    -0.460 OA
BRANCH  34  35
ATOM     35  C   UNL A   1      42.922  25.494  25.835  1.00  0.00     0.338 C 
ATOM     36  O   UNL A   1      42.094  25.850  25.010  1.00  0.00    -0.246 OA
BRANCH  35  37
ATOM     37  C   UNL A   1      43.012  26.028  27.211  1.00  0.00     0.060 A 
ATOM     38  C   UNL A   1      44.164  26.739  27.572  1.00  0.00     0.016 A 
ATOM     39  C   UNL A   1      41.986  25.831  28.142  1.00  0.00     0.016 A 
ATOM     40  C   UNL A   1      44.313  27.214  28.874  1.00  0.00     0.010 A 
ATOM     41  C   UNL A   1      42.151  26.289  29.455  1.00  0.00     0.010 A 
ATOM     42  C   UNL A   1      43.333  26.949  29.837  1.00  0.00    -0.014 A 
BRANCH  42  43
ATOM     43  C   UNL A   1      43.641  27.226  31.263  1.00  0.00     0.031 A 
ATOM     44  C   UNL A   1      44.313  26.159  32.086  1.00  0.00     0.074 A 
ATOM     45  C   UNL A   1      43.384  28.429  31.808  1.00  0.00     0.049 A 
ATOM     46  N   UNL A   1      44.740  26.212  33.320  1.00  0.00    -0.248 NA
ATOM     47  C   UNL A   1      44.533  24.862  31.428  1.00  0.00     0.031 C 
ATOM     48  C   UNL A   1      42.738  29.546  31.120  1.00  0.00     0.029 A 
ATOM     49  N   UNL A   1      43.628  28.905  33.071  1.00  0.00    -0.354 N 
ATOM     50  C   UNL A   1      45.256  24.950  33.597  1.00  0.00     0.074 A 
ATOM     51  C   UNL A   1      45.077  24.152  32.404  1.00  0.00     0.031 C 
ATOM     52  C   UNL A   1      42.616  30.572  31.980  1.00  0.00     0.029 A 
ATOM     53  C   UNL A   1      43.158  30.179  33.280  1.00  0.00     0.049 A 
ATOM     54  H   UNL A   1      44.095  28.383  33.763  1.00  0.00     0.167 HD
ATOM     55  C   UNL A   1      45.835  24.500  34.736  1.00  0.00     0.034 A 
ATOM     56  C   UNL A   1      43.148  30.936  34.396  1.00  0.00     0.034 A 
ATOM     57  C   UNL A   1      46.019  25.295  35.920  1.00  0.00     0.049 A 
ATOM     58  C   UNL A   1      43.789  30.408  35.653  1.00  0.00     0.074 A 
ATOM     59  C   UNL A   1      46.646  24.943  37.103  1.00  0.00     0.029 A 
ATOM     60  N   UNL A   1      45.553  26.589  36.088  1.00  0.00    -0.354 N 
ATOM     61  N   UNL A   1      44.390  29.261  35.857  1.00  0.00    -0.248 NA
ATOM     62  C   UNL A   1      43.787  31.300  36.823  1.00  0.00     0.031 C 
ATOM     63  C   UNL A   1      46.518  26.009  38.002  1.00  0.00     0.029 A 
ATOM     64  C   UNL A   1      45.857  27.044  37.361  1.00  0.00     0.049 A 
ATOM     65  H   UNL A   1      45.075  27.110  35.402  1.00  0.00     0.167 HD
ATOM     66  C   UNL A   1      44.863  29.304  37.165  1.00  0.00     0.074 A 
ATOM     67  C   UNL A   1      44.506  30.604  37.693  1.00  0.00     0.031 C 
ATOM     68  C   UNL A   1      45.522  28.349  37.872  1.00  0.00     0.034 A 
BRANCH  55  69
ATOM     69  C   UNL A   1      46.313  23.069  34.755  1.00  0.00     0.023 A 
ATOM     70  C   UNL A   1      45.382  22.014  34.844  1.00  0.00     0.012 A 
ATOM     71  C   UNL A   1      47.685  22.773  34.640  1.00  0.00     0.148 A 
ATOM     72  C   UNL A   1      45.813  20.687  34.855  1.00  0.00     0.002 A 
ATOM     73  C   UNL A   1      48.102  21.448  34.601  1.00  0.00     0.091 A 
ATOM     74  F   UNL A   1      48.556  23.789  34.582  1.00  0.00    -0.205 F 
ATOM     75  C   UNL A   1      47.170  20.405  34.723  1.00  0.00     0.022 A 
BRANCH  73  76
ATOM     76  S   UNL A   1      49.818  20.981  34.350  1.00  0.00     0.127 S 
ATOM     77  O   UNL A   1      49.709  19.532  34.194  1.00  0.00    -0.237 OA
ATOM     78  O   UNL A   1      50.154  21.703  33.123  1.00  0.00    -0.237 OA
ATOM     79  O   UNL A   1      50.535  21.430  35.535  1.00  0.00    -0.744 OA
ENDBRANCH  73  76
ENDBRANCH  55  69
BRANCH  56  80
ATOM     80  C   UNL A   1      42.520  32.287  34.369  1.00  0.00     0.023 A 
ATOM     81  C   UNL A   1      43.302  33.423  34.083  1.00  0.00     0.012 A 
ATOM     82  C   UNL A   1      41.143  32.444  34.614  1.00  0.00     0.148 A 
ATOM     83  C   UNL A   1      42.727  34.695  34.071  1.00  0.00     0.002 A 
ATOM     84  C   UNL A   1      40.565  33.705  34.540  1.00  0.00     0.091 A 
ATOM     85  F   UNL A   1      40.421  31.352  34.903  1.00  0.00    -0.205 F 
ATOM     86  C   UNL A   1      41.359  34.836  34.288  1.00  0.00     0.022 A 
BRANCH  84  87
ATOM     87  S   UNL A   1      38.793  33.962  34.669  1.00  0.00     0.127 S 
ATOM     88  O   UNL A   1      38.463  33.189  35.863  1.00  0.00    -0.237 OA
ATOM     89  O   UNL A   1      38.714  35.414  34.831  1.00  0.00    -0.237 OA
ATOM     90  O   UNL A   1      38.229  33.465  33.421  1.00  0.00    -0.744 OA
ENDBRANCH  84  87
ENDBRANCH  56  80
BRANCH  68  91
ATOM     91  C   UNL A   1      45.928  28.688  39.286  1.00  0.00     0.023 A 
ATOM     92  C   UNL A   1      45.129  28.274  40.371  1.00  0.00     0.012 A 
ATOM     93  C   UNL A   1      47.119  29.398  39.542  1.00  0.00     0.148 A 
ATOM     94  C   UNL A   1      45.476  28.611  41.680  1.00  0.00     0.002 A 
ATOM     95  C   UNL A   1      47.487  29.680  40.852  1.00  0.00     0.091 A 
ATOM     96  F   UNL A   1      47.862  29.799  38.500  1.00  0.00    -0.205 F 
ATOM     97  C   UNL A   1      46.658  29.306  41.921  1.00  0.00     0.022 A 
BRANCH  95  98
ATOM     98  S   UNL A   1      49.042  30.484  41.260  1.00  0.00     0.127 S 
ATOM     99  O   UNL A   1      48.802  31.849  40.797  1.00  0.00    -0.237 OA
ATOM    100  O   UNL A   1      49.098  30.334  42.715  1.00  0.00    -0.237 OA
ATOM    101  O   UNL A   1      50.073  29.750  40.540  1.00  0.00    -0.744 OA
ENDBRANCH  95  98
ENDBRANCH  68  91
ENDBRANCH  42  43
ENDBRANCH  35  37
ENDBRANCH  34  35
ENDBRANCH  33  34
ENDBRANCH  32  33
ENDBRANCH  31  32
ENDBRANCH  30  31
ENDBRANCH  29  30
ENDBRANCH   1  29
TORSDOF 27
ENDMDL
MODEL 3
REMARK VINA RESULT:      -6.8      4.010     10.374
REMARK SMILES COc1cc(OC)cc(-c2ccc([C@@H](C)C(=O)OCCOCCOCCOCCOC(=O)c3ccc(-c4c5nc(c(-c6cccc(S(=O)(=O)[O-])c6F)c6ccc([nH]6)c(-c6cccc(S(=O)(=O)[O-])c6F)c6nc(c(-c7cccc(S(=O)(=O)[O-])c7F)c7ccc4[nH]7)C=C6)C=C5)cc3)cc2F)c1
REMARK SMILES IDX 24 1 23 2 22 3 21 4 20 5 19 6 18 7 16 8 17 9 14 10 15 11
REMARK SMILES IDX 13 12 10 13 11 14 97 15 12 16 96 17 98 18 9 19 3 20 4 21
REMARK SMILES IDX 99 22 5 23 8 24 2 25 1 26 6 27 7 28 25 29 26 30 27 31 28 32
REMARK SMILES IDX 29 33 30 34 31 35 32 36 33 37 34 38 95 39 35 40 94 41 36 42
REMARK SMILES IDX 37 43 38 44 88 45 39 46 93 47 87 48 89 49 40 50 92 51 86 52
REMARK SMILES IDX 85 53 41 55 73 56 53 57 72 58 54 59 57 60 71 61 90 62 55 63
REMARK SMILES IDX 56 64 70 66 91 67 58 68 42 69 43 70 51 71 44 72 46 73 52 74
REMARK SMILES IDX 45 75 47 76 48 77 49 78 50 79 74 80 75 81 83 82 76 83 78 84
REMARK SMILES IDX 84 85 77 86 79 87 80 88 81 89 82 90 59 91 60 92 68 93 61 94
REMARK SMILES IDX 63 95 69 96 62 97 64 98 65 99 66 100 67 101
REMARK H PARENT 89 54 57 65
REMARK Flexibility Score: inf
ROOT
ATOM      1  O   UNL A   1      37.834  29.497  30.294  1.00  0.00    -0.377 OA
ENDROOT
BRANCH   1   2
ATOM      2  C   UNL A   1      39.060  29.359  30.978  1.00  0.00     0.188 C 
BRANCH   2   3
ATOM      3  C   UNL A   1      40.230  28.825  30.140  1.00  0.00     0.188 C 
BRANCH   3   4
ATOM      4  O   UNL A   1      40.007  28.027  28.986  1.00  0.00    -0.376 OA
BRANCH   4   5
ATOM      5  C   UNL A   1      40.423  26.668  28.954  1.00  0.00     0.202 C 
BRANCH   5   6
ATOM      6  C   UNL A   1      41.661  26.234  28.146  1.00  0.00     0.261 C 
BRANCH   6   7
ATOM      7  O   UNL A   1      42.091  24.865  28.295  1.00  0.00    -0.463 OA
BRANCH   7   8
ATOM      8  C   UNL A   1      41.813  24.029  27.270  1.00  0.00     0.313 C 
ATOM      9  O   UNL A   1      42.304  24.141  26.147  1.00  0.00    -0.252 OA
BRANCH   8  10
ATOM     10  C   UNL A   1      40.815  22.911  27.574  1.00  0.00     0.126 C 
ATOM     11  C   UNL A   1      41.579  21.598  27.697  1.00  0.00     0.025 C 
BRANCH  10  12
ATOM     12  C   UNL A   1      39.541  22.742  26.745  1.00  0.00    -0.031 A 
ATOM     13  C   UNL A   1      37.129  22.558  25.194  1.00  0.00     0.018 A 
ATOM     14  C   UNL A   1      38.076  21.518  25.215  1.00  0.00     0.012 A 
ATOM     15  C   UNL A   1      37.423  23.693  25.956  1.00  0.00     0.131 A 
ATOM     16  C   UNL A   1      39.259  21.604  25.979  1.00  0.00     0.005 A 
ATOM     17  C   UNL A   1      38.588  23.783  26.728  1.00  0.00     0.044 A 
ATOM     18  F   UNL A   1      36.568  24.728  25.988  1.00  0.00    -0.206 F 
BRANCH  13  19
ATOM     19  C   UNL A   1      35.833  22.407  24.500  1.00  0.00    -0.008 A 
ATOM     20  C   UNL A   1      34.158  23.093  22.863  1.00  0.00     0.123 A 
ATOM     21  C   UNL A   1      33.268  22.147  23.374  1.00  0.00     0.092 A 
ATOM     22  C   UNL A   1      35.430  23.234  23.433  1.00  0.00     0.055 A 
ATOM     23  C   UNL A   1      33.639  21.324  24.434  1.00  0.00     0.123 A 
ATOM     24  C   UNL A   1      34.921  21.444  24.974  1.00  0.00     0.055 A 
BRANCH  20  25
ATOM     25  O   UNL A   1      33.645  23.894  21.877  1.00  0.00    -0.497 OA
ATOM     26  C   UNL A   1      32.467  24.611  22.224  1.00  0.00     0.278 C 
ENDBRANCH  20  25
BRANCH  23  27
ATOM     27  O   UNL A   1      32.670  20.460  24.867  1.00  0.00    -0.497 OA
ATOM     28  C   UNL A   1      32.441  19.312  24.058  1.00  0.00     0.278 C 
ENDBRANCH  23  27
ENDBRANCH  13  19
ENDBRANCH  10  12
ENDBRANCH   8  10
ENDBRANCH   7   8
ENDBRANCH   6   7
ENDBRANCH   5   6
ENDBRANCH   4   5
ENDBRANCH   3   4
ENDBRANCH   2   3
ENDBRANCH   1   2
BRANCH   1  29
ATOM     29  C   UNL A   1      37.590  30.739  29.654  1.00  0.00     0.188 C 
BRANCH  29  30
ATOM     30  C   UNL A   1      37.321  31.952  30.563  1.00  0.00     0.188 C 
BRANCH  30  31
ATOM     31  O   UNL A   1      36.208  31.789  31.437  1.00  0.00    -0.376 OA
BRANCH  31  32
ATOM     32  C   UNL A   1      34.939  32.274  31.019  1.00  0.00     0.202 C 
BRANCH  32  33
ATOM     33  C   UNL A   1      34.537  33.705  31.420  1.00  0.00     0.261 C 
BRANCH  33  34
ATOM     34  O   UNL A   1      34.447  33.988  32.827  1.00  0.00    -0.460 OA
BRANCH  34  35
ATOM     35  C   UNL A   1      35.214  34.980  33.321  1.00  0.00     0.338 C 
ATOM     36  O   UNL A   1      34.861  36.129  33.541  1.00  0.00    -0.246 OA
BRANCH  35  37
ATOM     37  C   UNL A   1      36.503  34.405  33.762  1.00  0.00     0.060 A 
ATOM     38  C   UNL A   1      36.519  33.629  34.928  1.00  0.00     0.016 A 
ATOM     39  C   UNL A   1      37.686  34.625  33.048  1.00  0.00     0.016 A 
ATOM     40  C   UNL A   1      37.720  33.112  35.409  1.00  0.00     0.010 A 
ATOM     41  C   UNL A   1      38.895  34.124  33.547  1.00  0.00     0.010 A 
ATOM     42  C   UNL A   1      38.923  33.398  34.752  1.00  0.00    -0.014 A 
BRANCH  42  43
ATOM     43  C   UNL A   1      40.202  33.067  35.429  1.00  0.00     0.031 A 
ATOM     44  C   UNL A   1      40.777  34.044  36.419  1.00  0.00     0.074 A 
ATOM     45  C   UNL A   1      40.816  31.889  35.216  1.00  0.00     0.049 A 
ATOM     46  N   UNL A   1      41.835  33.927  37.179  1.00  0.00    -0.248 NA
ATOM     47  C   UNL A   1      40.064  35.321  36.575  1.00  0.00     0.031 C 
ATOM     48  C   UNL A   1      40.363  30.858  34.284  1.00  0.00     0.029 A 
ATOM     49  N   UNL A   1      41.962  31.371  35.764  1.00  0.00    -0.354 N 
ATOM     50  C   UNL A   1      41.931  35.122  37.883  1.00  0.00     0.074 A 
ATOM     51  C   UNL A   1      40.829  35.954  37.451  1.00  0.00     0.031 C 
ATOM     52  C   UNL A   1      41.237  29.837  34.309  1.00  0.00     0.029 A 
ATOM     53  C   UNL A   1      42.318  30.150  35.243  1.00  0.00     0.049 A 
ATOM     54  H   UNL A   1      42.480  31.830  36.464  1.00  0.00     0.167 HD
ATOM     55  C   UNL A   1      42.845  35.491  38.812  1.00  0.00     0.034 A 
ATOM     56  C   UNL A   1      43.401  29.381  35.478  1.00  0.00     0.034 A 
ATOM     57  C   UNL A   1      43.938  34.663  39.246  1.00  0.00     0.049 A 
ATOM     58  C   UNL A   1      44.409  29.818  36.508  1.00  0.00     0.074 A 
ATOM     59  C   UNL A   1      44.882  34.927  40.224  1.00  0.00     0.029 A 
ATOM     60  N   UNL A   1      44.253  33.422  38.716  1.00  0.00    -0.354 N 
ATOM     61  N   UNL A   1      44.412  30.892  37.260  1.00  0.00    -0.248 NA
ATOM     62  C   UNL A   1      45.542  28.913  36.752  1.00  0.00     0.031 C 
ATOM     63  C   UNL A   1      45.795  33.867  40.250  1.00  0.00     0.029 A 
ATOM     64  C   UNL A   1      45.390  32.917  39.326  1.00  0.00     0.049 A 
ATOM     65  H   UNL A   1      43.744  32.965  38.007  1.00  0.00     0.167 HD
ATOM     66  C   UNL A   1      45.527  30.779  38.085  1.00  0.00     0.074 A 
ATOM     67  C   UNL A   1      46.156  29.515  37.761  1.00  0.00     0.031 C 
ATOM     68  C   UNL A   1      45.997  31.647  39.018  1.00  0.00     0.034 A 
BRANCH  55  69
ATOM     69  C   UNL A   1      42.703  36.863  39.423  1.00  0.00     0.023 A 
ATOM     70  C   UNL A   1      43.307  37.978  38.807  1.00  0.00     0.012 A 
ATOM     71  C   UNL A   1      41.930  37.050  40.586  1.00  0.00     0.148 A 
ATOM     72  C   UNL A   1      43.175  39.252  39.360  1.00  0.00     0.002 A 
ATOM     73  C   UNL A   1      41.762  38.329  41.102  1.00  0.00     0.091 A 
ATOM     74  F   UNL A   1      41.385  35.975  41.171  1.00  0.00    -0.205 F 
ATOM     75  C   UNL A   1      42.394  39.428  40.500  1.00  0.00     0.022 A 
BRANCH  73  76
ATOM     76  S   UNL A   1      40.709  38.671  42.516  1.00  0.00     0.127 S 
ATOM     77  O   UNL A   1      40.745  40.131  42.564  1.00  0.00    -0.237 OA
ATOM     78  O   UNL A   1      39.429  38.105  42.088  1.00  0.00    -0.237 OA
ATOM     79  O   UNL A   1      41.324  37.993  43.649  1.00  0.00    -0.744 OA
ENDBRANCH  73  76
ENDBRANCH  55  69
BRANCH  56  80
ATOM     80  C   UNL A   1      43.578  28.104  34.730  1.00  0.00     0.023 A 
ATOM     81  C   UNL A   1      44.235  28.101  33.485  1.00  0.00     0.012 A 
ATOM     82  C   UNL A   1      43.104  26.890  35.262  1.00  0.00     0.148 A 
ATOM     83  C   UNL A   1      44.391  26.912  32.768  1.00  0.00     0.002 A 
ATOM     84  C   UNL A   1      43.318  25.702  34.573  1.00  0.00     0.091 A 
ATOM     85  F   UNL A   1      42.465  26.918  36.440  1.00  0.00    -0.205 F 
ATOM     86  C   UNL A   1      43.944  25.713  33.317  1.00  0.00     0.022 A 
BRANCH  84  87
ATOM     87  S   UNL A   1      42.899  24.099  35.265  1.00  0.00     0.127 S 
ATOM     88  O   UNL A   1      43.774  24.038  36.433  1.00  0.00    -0.237 OA
ATOM     89  O   UNL A   1      41.477  24.267  35.566  1.00  0.00    -0.237 OA
ATOM     90  O   UNL A   1      43.181  23.128  34.216  1.00  0.00    -0.744 OA
ENDBRANCH  84  87
ENDBRANCH  56  80
BRANCH  68  91
ATOM     91  C   UNL A   1      47.237  31.245  39.779  1.00  0.00     0.023 A 
ATOM     92  C   UNL A   1      48.511  31.627  39.311  1.00  0.00     0.012 A 
ATOM     93  C   UNL A   1      47.139  30.507  40.976  1.00  0.00     0.148 A 
ATOM     94  C   UNL A   1      49.665  31.232  39.987  1.00  0.00     0.002 A 
ATOM     95  C   UNL A   1      48.291  30.166  41.674  1.00  0.00     0.091 A 
ATOM     96  F   UNL A   1      45.923  30.137  41.403  1.00  0.00    -0.205 F 
ATOM     97  C   UNL A   1      49.556  30.510  41.172  1.00  0.00     0.022 A 
BRANCH  95  98
ATOM     98  S   UNL A   1      48.239  29.322  43.260  1.00  0.00     0.127 S 
ATOM     99  O   UNL A   1      47.425  30.238  44.058  1.00  0.00    -0.237 OA
ATOM    100  O   UNL A   1      47.580  28.061  42.920  1.00  0.00    -0.237 OA
ATOM    101  O   UNL A   1      49.625  29.182  43.685  1.00  0.00    -0.744 OA
ENDBRANCH  95  98
ENDBRANCH  68  91
ENDBRANCH  42  43
ENDBRANCH  35  37
ENDBRANCH  34  35
ENDBRANCH  33  34
ENDBRANCH  32  33
ENDBRANCH  31  32
ENDBRANCH  30  31
ENDBRANCH  29  30
ENDBRANCH   1  29
TORSDOF 27
ENDMDL
