MODEL 1
REMARK VINA RESULT:      -9.2      0.000      0.000
REMARK SMILES O=C(OCCOCCOCCOCCOC(=O)c1cc(-c2ccc[nH]c2=O)ccc1Cl)c1ccc(-c2c3nc(c(-c4cccc(S(=O)(=O)[O-])c4F)c4ccc([nH]4)c(-c4cccc(S(=O)(=O)[O-])c4F)c4nc(c(-c5cccc(S(=O)(=O)[O-])c5F)c5ccc2[nH]5)C=C4)C=C3)cc1
REMARK SMILES IDX 8 1 7 2 6 3 5 4 4 5 3 6 2 7 1 8 32 9 33 10 94 11 34 12 93 13
REMARK SMILES IDX 35 14 36 15 37 16 87 17 38 18 92 19 86 20 88 21 39 22 91 23
REMARK SMILES IDX 85 24 84 25 40 27 72 28 52 29 71 30 53 31 56 32 70 33 89 34
REMARK SMILES IDX 54 35 55 36 69 38 90 39 57 40 41 41 42 42 50 43 43 44 45 45
REMARK SMILES IDX 51 46 44 47 46 48 47 49 48 50 49 51 73 52 74 53 82 54 75 55
REMARK SMILES IDX 77 56 83 57 76 58 78 59 79 60 80 61 81 62 58 63 59 64 67 65
REMARK SMILES IDX 60 66 62 67 68 68 61 69 63 70 64 71 65 72 66 73 9 74 10 75
REMARK SMILES IDX 11 76 12 77 13 78 14 79 15 80 16 81 17 82 18 83 19 84 30 85
REMARK SMILES IDX 20 86 29 87 31 88 28 89 21 90 22 91 26 92 23 93 25 94 27 95
REMARK SMILES IDX 24 96
REMARK H PARENT 88 26 56 37 25 97
REMARK Flexibility Score: inf
ROOT
ATOM      1  C   UNL A   1      32.836  30.938  26.744  1.00  0.00     0.188 C 
ENDROOT
BRANCH   1   2
ATOM      2  C   UNL A   1      31.568  31.779  26.618  1.00  0.00     0.188 C 
BRANCH   2   3
ATOM      3  O   UNL A   1      31.804  33.118  27.041  1.00  0.00    -0.376 OA
BRANCH   3   4
ATOM      4  C   UNL A   1      32.982  33.386  27.790  1.00  0.00     0.202 C 
BRANCH   4   5
ATOM      5  C   UNL A   1      33.085  34.757  28.469  1.00  0.00     0.261 C 
BRANCH   5   6
ATOM      6  O   UNL A   1      32.563  34.809  29.807  1.00  0.00    -0.460 OA
BRANCH   6   7
ATOM      7  C   UNL A   1      33.025  35.512  30.872  1.00  0.00     0.338 C 
ATOM      8  O   UNL A   1      32.544  36.620  31.097  1.00  0.00    -0.246 OA
BRANCH   7   9
ATOM      9  C   UNL A   1      34.086  35.005  31.788  1.00  0.00     0.060 A 
ATOM     10  C   UNL A   1      34.796  35.790  32.693  1.00  0.00     0.016 A 
ATOM     11  C   UNL A   1      34.334  33.625  31.792  1.00  0.00     0.016 A 
ATOM     12  C   UNL A   1      35.847  35.284  33.438  1.00  0.00     0.010 A 
ATOM     13  C   UNL A   1      35.343  33.085  32.597  1.00  0.00     0.010 A 
ATOM     14  C   UNL A   1      36.156  33.934  33.359  1.00  0.00    -0.014 A 
BRANCH  14  15
ATOM     15  C   UNL A   1      37.465  33.498  33.883  1.00  0.00     0.031 A 
ATOM     16  C   UNL A   1      37.622  33.439  35.377  1.00  0.00     0.074 A 
ATOM     17  C   UNL A   1      38.419  33.032  33.056  1.00  0.00     0.049 A 
ATOM     18  N   UNL A   1      38.677  33.166  36.089  1.00  0.00    -0.248 NA
ATOM     19  C   UNL A   1      36.418  33.729  36.180  1.00  0.00     0.031 C 
ATOM     20  C   UNL A   1      38.303  32.934  31.600  1.00  0.00     0.029 A 
ATOM     21  N   UNL A   1      39.664  32.531  33.325  1.00  0.00    -0.354 N 
ATOM     22  C   UNL A   1      38.290  33.345  37.412  1.00  0.00     0.074 A 
ATOM     23  C   UNL A   1      36.898  33.725  37.410  1.00  0.00     0.031 C 
ATOM     24  C   UNL A   1      39.423  32.381  31.105  1.00  0.00     0.029 A 
ATOM     25  C   UNL A   1      40.360  32.158  32.200  1.00  0.00     0.049 A 
ATOM     26  H   UNL A   1      40.025  32.444  34.237  1.00  0.00     0.167 HD
ATOM     27  C   UNL A   1      39.038  33.206  38.529  1.00  0.00     0.034 A 
ATOM     28  C   UNL A   1      41.628  31.718  32.078  1.00  0.00     0.034 A 
ATOM     29  C   UNL A   1      40.402  32.768  38.501  1.00  0.00     0.049 A 
ATOM     30  C   UNL A   1      42.444  31.581  33.336  1.00  0.00     0.074 A 
ATOM     31  C   UNL A   1      41.285  32.617  39.551  1.00  0.00     0.029 A 
ATOM     32  N   UNL A   1      41.077  32.397  37.345  1.00  0.00    -0.354 N 
ATOM     33  N   UNL A   1      42.078  31.778  34.582  1.00  0.00    -0.248 NA
ATOM     34  C   UNL A   1      43.839  31.156  33.179  1.00  0.00     0.031 C 
ATOM     35  C   UNL A   1      42.502  32.168  39.026  1.00  0.00     0.029 A 
ATOM     36  C   UNL A   1      42.364  32.012  37.652  1.00  0.00     0.049 A 
ATOM     37  H   UNL A   1      40.692  32.408  36.439  1.00  0.00     0.167 HD
ATOM     38  C   UNL A   1      43.187  31.472  35.360  1.00  0.00     0.074 A 
ATOM     39  C   UNL A   1      44.232  31.056  34.442  1.00  0.00     0.031 C 
ATOM     40  C   UNL A   1      43.346  31.546  36.704  1.00  0.00     0.034 A 
BRANCH  27  41
ATOM     41  C   UNL A   1      38.394  33.577  39.837  1.00  0.00     0.023 A 
ATOM     42  C   UNL A   1      38.578  34.862  40.385  1.00  0.00     0.012 A 
ATOM     43  C   UNL A   1      37.635  32.625  40.545  1.00  0.00     0.148 A 
ATOM     44  C   UNL A   1      38.053  35.179  41.640  1.00  0.00     0.002 A 
ATOM     45  C   UNL A   1      37.081  32.961  41.774  1.00  0.00     0.091 A 
ATOM     46  F   UNL A   1      37.502  31.398  40.022  1.00  0.00    -0.205 F 
ATOM     47  C   UNL A   1      37.300  34.232  42.329  1.00  0.00     0.022 A 
BRANCH  45  48
ATOM     48  S   UNL A   1      36.050  31.828  42.710  1.00  0.00     0.127 S 
ATOM     49  O   UNL A   1      35.608  32.677  43.816  1.00  0.00    -0.237 OA
ATOM     50  O   UNL A   1      35.004  31.496  41.742  1.00  0.00    -0.237 OA
ATOM     51  O   UNL A   1      36.910  30.714  43.082  1.00  0.00    -0.744 OA
ENDBRANCH  45  48
ENDBRANCH  27  41
BRANCH  28  52
ATOM     52  C   UNL A   1      42.188  31.375  30.738  1.00  0.00     0.023 A 
ATOM     53  C   UNL A   1      41.789  30.184  30.098  1.00  0.00     0.012 A 
ATOM     54  C   UNL A   1      43.095  32.229  30.079  1.00  0.00     0.148 A 
ATOM     55  C   UNL A   1      42.300  29.840  28.845  1.00  0.00     0.002 A 
ATOM     56  C   UNL A   1      43.556  31.910  28.806  1.00  0.00     0.091 A 
ATOM     57  F   UNL A   1      43.488  33.346  30.709  1.00  0.00    -0.205 F 
ATOM     58  C   UNL A   1      43.173  30.708  28.193  1.00  0.00     0.022 A 
BRANCH  56  59
ATOM     59  S   UNL A   1      44.575  33.036  27.847  1.00  0.00     0.127 S 
ATOM     60  O   UNL A   1      45.061  32.166  26.780  1.00  0.00    -0.237 OA
ATOM     61  O   UNL A   1      43.602  34.045  27.424  1.00  0.00    -0.237 OA
ATOM     62  O   UNL A   1      45.585  33.532  28.772  1.00  0.00    -0.744 OA
ENDBRANCH  56  59
ENDBRANCH  28  52
BRANCH  40  63
ATOM     63  C   UNL A   1      44.671  31.117  37.264  1.00  0.00     0.023 A 
ATOM     64  C   UNL A   1      45.684  32.070  37.480  1.00  0.00     0.012 A 
ATOM     65  C   UNL A   1      44.871  29.782  37.663  1.00  0.00     0.148 A 
ATOM     66  C   UNL A   1      46.893  31.692  38.059  1.00  0.00     0.002 A 
ATOM     67  C   UNL A   1      46.057  29.424  38.287  1.00  0.00     0.091 A 
ATOM     68  F   UNL A   1      43.899  28.889  37.425  1.00  0.00    -0.205 F 
ATOM     69  C   UNL A   1      47.074  30.375  38.476  1.00  0.00     0.022 A 
BRANCH  67  70
ATOM     70  S   UNL A   1      46.317  27.777  38.951  1.00  0.00     0.127 S 
ATOM     71  O   UNL A   1      46.546  26.998  37.736  1.00  0.00    -0.237 OA
ATOM     72  O   UNL A   1      47.502  27.961  39.791  1.00  0.00    -0.237 OA
ATOM     73  O   UNL A   1      45.104  27.453  39.690  1.00  0.00    -0.744 OA
ENDBRANCH  67  70
ENDBRANCH  40  63
ENDBRANCH  14  15
ENDBRANCH   7   9
ENDBRANCH   6   7
ENDBRANCH   5   6
ENDBRANCH   4   5
ENDBRANCH   3   4
ENDBRANCH   2   3
ENDBRANCH   1   2
BRANCH   1  74
ATOM     74  O   UNL A   1      32.761  29.660  26.123  1.00  0.00    -0.377 OA
BRANCH  74  75
ATOM     75  C   UNL A   1      31.843  28.740  26.700  1.00  0.00     0.188 C 
BRANCH  75  76
ATOM     76  C   UNL A   1      31.117  27.724  25.789  1.00  0.00     0.188 C 
BRANCH  76  77
ATOM     77  O   UNL A   1      30.875  28.202  24.476  1.00  0.00    -0.376 OA
BRANCH  77  78
ATOM     78  C   UNL A   1      29.873  27.503  23.747  1.00  0.00     0.202 C 
BRANCH  78  79
ATOM     79  C   UNL A   1      30.396  26.512  22.699  1.00  0.00     0.261 C 
BRANCH  79  80
ATOM     80  O   UNL A   1      31.511  26.978  21.914  1.00  0.00    -0.460 OA
BRANCH  80  81
ATOM     81  C   UNL A   1      32.614  26.208  21.778  1.00  0.00     0.339 C 
ATOM     82  O   UNL A   1      33.268  26.023  20.768  1.00  0.00    -0.246 OA
BRANCH  81  83
ATOM     83  C   UNL A   1      33.024  25.820  23.150  1.00  0.00     0.079 A 
ATOM     84  C   UNL A   1      32.770  24.493  23.566  1.00  0.00     0.026 A 
ATOM     85  C   UNL A   1      33.840  26.651  23.927  1.00  0.00     0.055 A 
ATOM     86  C   UNL A   1      33.414  23.973  24.702  1.00  0.00    -0.012 A 
ATOM     87  C   UNL A   1      34.427  26.150  25.091  1.00  0.00     0.022 A 
ATOM     88  Cl  UNL A   1      34.177  28.290  23.499  1.00  0.00    -0.083 Cl
ATOM     89  C   UNL A   1      34.232  24.817  25.465  1.00  0.00     0.010 A 
BRANCH  86  90
ATOM     90  C   UNL A   1      33.371  22.539  25.036  1.00  0.00     0.047 A 
ATOM     91  C   UNL A   1      34.005  21.643  24.251  1.00  0.00     0.016 A 
ATOM     92  C   UNL A   1      32.744  22.042  26.307  1.00  0.00     0.255 A 
ATOM     93  C   UNL A   1      34.063  20.239  24.590  1.00  0.00     0.019 A 
ATOM     94  N   UNL A   1      32.860  20.691  26.552  1.00  0.00    -0.329 N 
ATOM     95  O   UNL A   1      32.179  22.791  27.098  1.00  0.00    -0.269 OA
ATOM     96  C   UNL A   1      33.500  19.807  25.723  1.00  0.00     0.086 A 
ATOM     97  H   UNL A   1      32.458  20.337  27.377  1.00  0.00     0.169 HD
ENDBRANCH  86  90
ENDBRANCH  81  83
ENDBRANCH  80  81
ENDBRANCH  79  80
ENDBRANCH  78  79
ENDBRANCH  77  78
ENDBRANCH  76  77
ENDBRANCH  75  76
ENDBRANCH  74  75
ENDBRANCH   1  74
TORSDOF 24
ENDMDL
MODEL 2
REMARK VINA RESULT:      -8.8      6.688     10.546
REMARK SMILES O=C(OCCOCCOCCOCCOC(=O)c1cc(-c2ccc[nH]c2=O)ccc1Cl)c1ccc(-c2c3nc(c(-c4cccc(S(=O)(=O)[O-])c4F)c4ccc([nH]4)c(-c4cccc(S(=O)(=O)[O-])c4F)c4nc(c(-c5cccc(S(=O)(=O)[O-])c5F)c5ccc2[nH]5)C=C4)C=C3)cc1
REMARK SMILES IDX 8 1 7 2 6 3 5 4 4 5 3 6 2 7 1 8 32 9 33 10 94 11 34 12 93 13
REMARK SMILES IDX 35 14 36 15 37 16 87 17 38 18 92 19 86 20 88 21 39 22 91 23
REMARK SMILES IDX 85 24 84 25 40 27 72 28 52 29 71 30 53 31 56 32 70 33 89 34
REMARK SMILES IDX 54 35 55 36 69 38 90 39 57 40 41 41 42 42 50 43 43 44 45 45
REMARK SMILES IDX 51 46 44 47 46 48 47 49 48 50 49 51 73 52 74 53 82 54 75 55
REMARK SMILES IDX 77 56 83 57 76 58 78 59 79 60 80 61 81 62 58 63 59 64 67 65
REMARK SMILES IDX 60 66 62 67 68 68 61 69 63 70 64 71 65 72 66 73 9 74 10 75
REMARK SMILES IDX 11 76 12 77 13 78 14 79 15 80 16 81 17 82 18 83 19 84 30 85
REMARK SMILES IDX 20 86 29 87 31 88 28 89 21 90 22 91 26 92 23 93 25 94 27 95
REMARK SMILES IDX 24 96
REMARK H PARENT 88 26 56 37 25 97
REMARK Flexibility Score: inf
ROOT
ATOM      1  C   UNL A   1      40.326  22.995  27.297  1.00  0.00     0.188 C 
ENDROOT
BRANCH   1   2
ATOM      2  C   UNL A   1      41.727  23.161  27.880  1.00  0.00     0.188 C 
BRANCH   2   3
ATOM      3  O   UNL A   1      42.615  22.182  27.351  1.00  0.00    -0.376 OA
BRANCH   3   4
ATOM      4  C   UNL A   1      42.499  21.846  25.974  1.00  0.00     0.202 C 
BRANCH   4   5
ATOM      5  C   UNL A   1      43.066  22.845  24.958  1.00  0.00     0.261 C 
BRANCH   5   6
ATOM      6  O   UNL A   1      44.495  22.811  24.811  1.00  0.00    -0.460 OA
BRANCH   6   7
ATOM      7  C   UNL A   1      45.450  23.173  25.705  1.00  0.00     0.338 C 
ATOM      8  O   UNL A   1      46.160  22.295  26.190  1.00  0.00    -0.246 OA
BRANCH   7   9
ATOM      9  C   UNL A   1      45.684  24.583  26.126  1.00  0.00     0.060 A 
ATOM     10  C   UNL A   1      46.207  24.967  27.358  1.00  0.00     0.016 A 
ATOM     11  C   UNL A   1      45.430  25.591  25.186  1.00  0.00     0.016 A 
ATOM     12  C   UNL A   1      46.298  26.296  27.735  1.00  0.00     0.010 A 
ATOM     13  C   UNL A   1      45.590  26.939  25.525  1.00  0.00     0.010 A 
ATOM     14  C   UNL A   1      45.946  27.290  26.834  1.00  0.00    -0.014 A 
BRANCH  14  15
ATOM     15  C   UNL A   1      45.727  28.650  27.364  1.00  0.00     0.031 A 
ATOM     16  C   UNL A   1      44.403  28.926  28.020  1.00  0.00     0.074 A 
ATOM     17  C   UNL A   1      46.726  29.551  27.389  1.00  0.00     0.049 A 
ATOM     18  N   UNL A   1      43.930  30.043  28.495  1.00  0.00    -0.248 NA
ATOM     19  C   UNL A   1      43.483  27.780  28.160  1.00  0.00     0.031 C 
ATOM     20  C   UNL A   1      48.083  29.324  26.888  1.00  0.00     0.029 A 
ATOM     21  N   UNL A   1      46.761  30.829  27.878  1.00  0.00    -0.354 N 
ATOM     22  C   UNL A   1      42.631  29.756  28.898  1.00  0.00     0.074 A 
ATOM     23  C   UNL A   1      42.394  28.356  28.638  1.00  0.00     0.031 C 
ATOM     24  C   UNL A   1      48.826  30.419  27.119  1.00  0.00     0.029 A 
ATOM     25  C   UNL A   1      47.978  31.446  27.712  1.00  0.00     0.049 A 
ATOM     26  H   UNL A   1      45.990  31.263  28.308  1.00  0.00     0.167 HD
ATOM     27  C   UNL A   1      41.717  30.593  29.436  1.00  0.00     0.034 A 
ATOM     28  C   UNL A   1      48.345  32.714  27.983  1.00  0.00     0.034 A 
ATOM     29  C   UNL A   1      42.003  31.965  29.738  1.00  0.00     0.049 A 
ATOM     30  C   UNL A   1      47.306  33.631  28.573  1.00  0.00     0.074 A 
ATOM     31  C   UNL A   1      41.163  32.932  30.250  1.00  0.00     0.029 A 
ATOM     32  N   UNL A   1      43.246  32.558  29.559  1.00  0.00    -0.354 N 
ATOM     33  N   UNL A   1      46.071  33.358  28.927  1.00  0.00    -0.248 NA
ATOM     34  C   UNL A   1      47.706  35.023  28.808  1.00  0.00     0.031 C 
ATOM     35  C   UNL A   1      41.897  34.118  30.368  1.00  0.00     0.029 A 
ATOM     36  C   UNL A   1      43.201  33.878  29.955  1.00  0.00     0.049 A 
ATOM     37  H   UNL A   1      44.043  32.103  29.202  1.00  0.00     0.167 HD
ATOM     38  C   UNL A   1      45.556  34.534  29.455  1.00  0.00     0.074 A 
ATOM     39  C   UNL A   1      46.623  35.517  29.392  1.00  0.00     0.031 C 
ATOM     40  C   UNL A   1      44.312  34.796  29.929  1.00  0.00     0.034 A 
BRANCH  27  41
ATOM     41  C   UNL A   1      40.337  30.043  29.674  1.00  0.00     0.023 A 
ATOM     42  C   UNL A   1      39.426  29.911  28.608  1.00  0.00     0.012 A 
ATOM     43  C   UNL A   1      39.932  29.695  30.978  1.00  0.00     0.148 A 
ATOM     44  C   UNL A   1      38.118  29.482  28.843  1.00  0.00     0.002 A 
ATOM     45  C   UNL A   1      38.642  29.229  31.197  1.00  0.00     0.091 A 
ATOM     46  F   UNL A   1      40.804  29.862  31.983  1.00  0.00    -0.205 F 
ATOM     47  C   UNL A   1      37.730  29.135  30.134  1.00  0.00     0.022 A 
BRANCH  45  48
ATOM     48  S   UNL A   1      38.067  28.706  32.816  1.00  0.00     0.127 S 
ATOM     49  O   UNL A   1      38.173  27.251  32.710  1.00  0.00    -0.237 OA
ATOM     50  O   UNL A   1      39.051  29.326  33.704  1.00  0.00    -0.237 OA
ATOM     51  O   UNL A   1      36.714  29.226  32.951  1.00  0.00    -0.744 OA
ENDBRANCH  45  48
ENDBRANCH  27  41
BRANCH  28  52
ATOM     52  C   UNL A   1      49.738  33.178  27.711  1.00  0.00     0.023 A 
ATOM     53  C   UNL A   1      50.700  33.138  28.740  1.00  0.00     0.012 A 
ATOM     54  C   UNL A   1      50.124  33.635  26.435  1.00  0.00     0.148 A 
ATOM     55  C   UNL A   1      52.009  33.568  28.511  1.00  0.00     0.002 A 
ATOM     56  C   UNL A   1      51.443  34.007  26.198  1.00  0.00     0.091 A 
ATOM     57  F   UNL A   1      49.193  33.693  25.472  1.00  0.00    -0.205 F 
ATOM     58  C   UNL A   1      52.384  33.990  27.237  1.00  0.00     0.022 A 
BRANCH  56  59
ATOM     59  S   UNL A   1      52.036  34.435  24.556  1.00  0.00     0.127 S 
ATOM     60  O   UNL A   1      51.269  35.644  24.266  1.00  0.00    -0.237 OA
ATOM     61  O   UNL A   1      53.464  34.654  24.794  1.00  0.00    -0.237 OA
ATOM     62  O   UNL A   1      51.741  33.278  23.722  1.00  0.00    -0.744 OA
ENDBRANCH  56  59
ENDBRANCH  28  52
BRANCH  40  63
ATOM     63  C   UNL A   1      44.059  36.175  30.466  1.00  0.00     0.023 A 
ATOM     64  C   UNL A   1      44.298  36.456  31.824  1.00  0.00     0.012 A 
ATOM     65  C   UNL A   1      43.674  37.213  29.595  1.00  0.00     0.148 A 
ATOM     66  C   UNL A   1      44.128  37.748  32.315  1.00  0.00     0.002 A 
ATOM     67  C   UNL A   1      43.559  38.507  30.080  1.00  0.00     0.091 A 
ATOM     68  F   UNL A   1      43.430  36.914  28.310  1.00  0.00    -0.205 F 
ATOM     69  C   UNL A   1      43.774  38.775  31.442  1.00  0.00     0.022 A 
BRANCH  67  70
ATOM     70  S   UNL A   1      43.217  39.897  28.997  1.00  0.00     0.127 S 
ATOM     71  O   UNL A   1      44.293  39.783  28.016  1.00  0.00    -0.237 OA
ATOM     72  O   UNL A   1      41.885  39.573  28.483  1.00  0.00    -0.237 OA
ATOM     73  O   UNL A   1      43.260  41.079  29.847  1.00  0.00    -0.744 OA
ENDBRANCH  67  70
ENDBRANCH  40  63
ENDBRANCH  14  15
ENDBRANCH   7   9
ENDBRANCH   6   7
ENDBRANCH   5   6
ENDBRANCH   4   5
ENDBRANCH   3   4
ENDBRANCH   2   3
ENDBRANCH   1   2
BRANCH   1  74
ATOM     74  O   UNL A   1      39.461  24.105  27.510  1.00  0.00    -0.377 OA
BRANCH  74  75
ATOM     75  C   UNL A   1      38.252  24.106  26.761  1.00  0.00     0.188 C 
BRANCH  75  76
ATOM     76  C   UNL A   1      38.046  23.042  25.657  1.00  0.00     0.188 C 
BRANCH  76  77
ATOM     77  O   UNL A   1      36.695  22.885  25.258  1.00  0.00    -0.376 OA
BRANCH  77  78
ATOM     78  C   UNL A   1      35.861  24.018  25.466  1.00  0.00     0.202 C 
BRANCH  78  79
ATOM     79  C   UNL A   1      34.595  24.069  24.601  1.00  0.00     0.261 C 
BRANCH  79  80
ATOM     80  O   UNL A   1      33.355  24.156  25.329  1.00  0.00    -0.460 OA
BRANCH  80  81
ATOM     81  C   UNL A   1      32.782  23.039  25.831  1.00  0.00     0.339 C 
ATOM     82  O   UNL A   1      32.169  22.927  26.876  1.00  0.00    -0.246 OA
BRANCH  81  83
ATOM     83  C   UNL A   1      32.831  22.023  24.750  1.00  0.00     0.079 A 
ATOM     84  C   UNL A   1      33.489  20.802  25.020  1.00  0.00     0.026 A 
ATOM     85  C   UNL A   1      32.061  22.160  23.590  1.00  0.00     0.055 A 
ATOM     86  C   UNL A   1      33.291  19.692  24.180  1.00  0.00    -0.012 A 
ATOM     87  C   UNL A   1      31.919  21.074  22.723  1.00  0.00     0.022 A 
ATOM     88  Cl  UNL A   1      31.249  23.627  23.177  1.00  0.00    -0.083 Cl
ATOM     89  C   UNL A   1      32.513  19.844  23.025  1.00  0.00     0.010 A 
BRANCH  86  90
ATOM     90  C   UNL A   1      33.755  18.342  24.547  1.00  0.00     0.047 A 
ATOM     91  C   UNL A   1      35.015  17.957  24.253  1.00  0.00     0.016 A 
ATOM     92  C   UNL A   1      32.905  17.409  25.360  1.00  0.00     0.255 A 
ATOM     93  C   UNL A   1      35.538  16.677  24.672  1.00  0.00     0.019 A 
ATOM     94  N   UNL A   1      33.493  16.216  25.724  1.00  0.00    -0.329 N 
ATOM     95  O   UNL A   1      31.762  17.691  25.704  1.00  0.00    -0.269 OA
ATOM     96  C   UNL A   1      34.772  15.852  25.394  1.00  0.00     0.086 A 
ATOM     97  H   UNL A   1      32.959  15.584  26.257  1.00  0.00     0.169 HD
ENDBRANCH  86  90
ENDBRANCH  81  83
ENDBRANCH  80  81
ENDBRANCH  79  80
ENDBRANCH  78  79
ENDBRANCH  77  78
ENDBRANCH  76  77
ENDBRANCH  75  76
ENDBRANCH  74  75
ENDBRANCH   1  74
TORSDOF 24
ENDMDL
MODEL 3
REMARK VINA RESULT:      -8.8      8.455     15.566
REMARK SMILES O=C(OCCOCCOCCOCCOC(=O)c1cc(-c2ccc[nH]c2=O)ccc1Cl)c1ccc(-c2c3nc(c(-c4cccc(S(=O)(=O)[O-])c4F)c4ccc([nH]4)c(-c4cccc(S(=O)(=O)[O-])c4F)c4nc(c(-c5cccc(S(=O)(=O)[O-])c5F)c5ccc2[nH]5)C=C4)C=C3)cc1
REMARK SMILES IDX 8 1 7 2 6 3 5 4 4 5 3 6 2 7 1 8 32 9 33 10 94 11 34 12 93 13
REMARK SMILES IDX 35 14 36 15 37 16 87 17 38 18 92 19 86 20 88 21 39 22 91 23
REMARK SMILES IDX 85 24 84 25 40 27 72 28 52 29 71 30 53 31 56 32 70 33 89 34
REMARK SMILES IDX 54 35 55 36 69 38 90 39 57 40 41 41 42 42 50 43 43 44 45 45
REMARK SMILES IDX 51 46 44 47 46 48 47 49 48 50 49 51 73 52 74 53 82 54 75 55
REMARK SMILES IDX 77 56 83 57 76 58 78 59 79 60 80 61 81 62 58 63 59 64 67 65
REMARK SMILES IDX 60 66 62 67 68 68 61 69 63 70 64 71 65 72 66 73 9 74 10 75
REMARK SMILES IDX 11 76 12 77 13 78 14 79 15 80 16 81 17 82 18 83 19 84 30 85
REMARK SMILES IDX 20 86 29 87 31 88 28 89 21 90 22 91 26 92 23 93 25 94 27 95
REMARK SMILES IDX 24 96
REMARK H PARENT 88 26 56 37 25 97
REMARK Flexibility Score: inf
ROOT
ATOM      1  C   UNL A   1      49.254  21.520  39.493  1.00  0.00     0.188 C 
ENDROOT
BRANCH   1   2
ATOM      2  C   UNL A   1      47.879  22.001  39.038  1.00  0.00     0.188 C 
BRANCH   2   3
ATOM      3  O   UNL A   1      47.947  22.568  37.733  1.00  0.00    -0.376 OA
BRANCH   3   4
ATOM      4  C   UNL A   1      46.926  23.478  37.344  1.00  0.00     0.202 C 
BRANCH   4   5
ATOM      5  C   UNL A   1      46.926  24.858  38.012  1.00  0.00     0.261 C 
BRANCH   5   6
ATOM      6  O   UNL A   1      47.574  25.895  37.257  1.00  0.00    -0.460 OA
BRANCH   6   7
ATOM      7  C   UNL A   1      47.363  26.266  35.968  1.00  0.00     0.338 C 
ATOM      8  O   UNL A   1      48.239  26.028  35.140  1.00  0.00    -0.246 OA
BRANCH   7   9
ATOM      9  C   UNL A   1      46.119  26.944  35.505  1.00  0.00     0.060 A 
ATOM     10  C   UNL A   1      44.830  26.450  35.689  1.00  0.00     0.016 A 
ATOM     11  C   UNL A   1      46.252  28.205  34.909  1.00  0.00     0.016 A 
ATOM     12  C   UNL A   1      43.721  27.068  35.139  1.00  0.00     0.010 A 
ATOM     13  C   UNL A   1      45.131  28.881  34.415  1.00  0.00     0.010 A 
ATOM     14  C   UNL A   1      43.873  28.268  34.458  1.00  0.00    -0.014 A 
BRANCH  14  15
ATOM     15  C   UNL A   1      42.755  28.718  33.605  1.00  0.00     0.031 A 
ATOM     16  C   UNL A   1      41.792  29.707  34.200  1.00  0.00     0.074 A 
ATOM     17  C   UNL A   1      42.695  28.370  32.307  1.00  0.00     0.049 A 
ATOM     18  N   UNL A   1      40.695  30.200  33.699  1.00  0.00    -0.248 NA
ATOM     19  C   UNL A   1      42.111  30.209  35.550  1.00  0.00     0.031 C 
ATOM     20  C   UNL A   1      43.661  27.516  31.613  1.00  0.00     0.029 A 
ATOM     21  N   UNL A   1      41.796  28.714  31.333  1.00  0.00    -0.354 N 
ATOM     22  C   UNL A   1      40.150  30.990  34.704  1.00  0.00     0.074 A 
ATOM     23  C   UNL A   1      41.044  30.934  35.835  1.00  0.00     0.031 C 
ATOM     24  C   UNL A   1      43.315  27.422  30.318  1.00  0.00     0.029 A 
ATOM     25  C   UNL A   1      42.066  28.145  30.111  1.00  0.00     0.049 A 
ATOM     26  H   UNL A   1      41.030  29.312  31.493  1.00  0.00     0.167 HD
ATOM     27  C   UNL A   1      38.998  31.696  34.681  1.00  0.00     0.034 A 
ATOM     28  C   UNL A   1      41.357  28.186  28.966  1.00  0.00     0.034 A 
ATOM     29  C   UNL A   1      38.162  31.780  33.520  1.00  0.00     0.049 A 
ATOM     30  C   UNL A   1      40.072  28.972  28.968  1.00  0.00     0.074 A 
ATOM     31  C   UNL A   1      36.955  32.431  33.368  1.00  0.00     0.029 A 
ATOM     32  N   UNL A   1      38.466  31.194  32.298  1.00  0.00    -0.354 N 
ATOM     33  N   UNL A   1      39.549  29.695  29.931  1.00  0.00    -0.248 NA
ATOM     34  C   UNL A   1      39.283  28.957  27.731  1.00  0.00     0.031 C 
ATOM     35  C   UNL A   1      36.519  32.224  32.053  1.00  0.00     0.029 A 
ATOM     36  C   UNL A   1      37.473  31.470  31.382  1.00  0.00     0.049 A 
ATOM     37  H   UNL A   1      39.272  30.660  32.113  1.00  0.00     0.167 HD
ATOM     38  C   UNL A   1      38.387  30.246  29.409  1.00  0.00     0.074 A 
ATOM     39  C   UNL A   1      38.296  29.788  28.034  1.00  0.00     0.031 C 
ATOM     40  C   UNL A   1      37.463  31.039  30.006  1.00  0.00     0.034 A 
BRANCH  27  41
ATOM     41  C   UNL A   1      38.583  32.376  35.957  1.00  0.00     0.023 A 
ATOM     42  C   UNL A   1      38.852  33.744  36.158  1.00  0.00     0.012 A 
ATOM     43  C   UNL A   1      37.960  31.635  36.980  1.00  0.00     0.148 A 
ATOM     44  C   UNL A   1      38.545  34.355  37.376  1.00  0.00     0.002 A 
ATOM     45  C   UNL A   1      37.619  32.260  38.174  1.00  0.00     0.091 A 
ATOM     46  F   UNL A   1      37.745  30.327  36.781  1.00  0.00    -0.205 F 
ATOM     47  C   UNL A   1      37.923  33.615  38.379  1.00  0.00     0.022 A 
BRANCH  45  48
ATOM     48  S   UNL A   1      36.767  31.404  39.502  1.00  0.00     0.127 S 
ATOM     49  O   UNL A   1      37.888  30.908  40.300  1.00  0.00    -0.237 OA
ATOM     50  O   UNL A   1      36.007  32.488  40.125  1.00  0.00    -0.237 OA
ATOM     51  O   UNL A   1      35.952  30.380  38.864  1.00  0.00    -0.744 OA
ENDBRANCH  45  48
ENDBRANCH  27  41
BRANCH  28  52
ATOM     52  C   UNL A   1      41.842  27.478  27.745  1.00  0.00     0.023 A 
ATOM     53  C   UNL A   1      42.437  28.215  26.702  1.00  0.00     0.012 A 
ATOM     54  C   UNL A   1      41.742  26.078  27.618  1.00  0.00     0.148 A 
ATOM     55  C   UNL A   1      42.898  27.576  25.548  1.00  0.00     0.002 A 
ATOM     56  C   UNL A   1      42.255  25.442  26.492  1.00  0.00     0.091 A 
ATOM     57  F   UNL A   1      41.151  25.391  28.605  1.00  0.00    -0.205 F 
ATOM     58  C   UNL A   1      42.819  26.189  25.449  1.00  0.00     0.022 A 
BRANCH  56  59
ATOM     59  S   UNL A   1      42.312  23.652  26.348  1.00  0.00     0.127 S 
ATOM     60  O   UNL A   1      42.912  23.476  25.028  1.00  0.00    -0.237 OA
ATOM     61  O   UNL A   1      43.176  23.281  27.471  1.00  0.00    -0.237 OA
ATOM     62  O   UNL A   1      40.932  23.205  26.485  1.00  0.00    -0.744 OA
ENDBRANCH  56  59
ENDBRANCH  28  52
BRANCH  40  63
ATOM     63  C   UNL A   1      36.310  31.504  29.163  1.00  0.00     0.023 A 
ATOM     64  C   UNL A   1      36.213  32.858  28.792  1.00  0.00     0.012 A 
ATOM     65  C   UNL A   1      35.380  30.573  28.663  1.00  0.00     0.148 A 
ATOM     66  C   UNL A   1      35.184  33.286  27.956  1.00  0.00     0.002 A 
ATOM     67  C   UNL A   1      34.389  30.997  27.789  1.00  0.00     0.091 A 
ATOM     68  F   UNL A   1      35.481  29.293  29.051  1.00  0.00    -0.205 F 
ATOM     69  C   UNL A   1      34.282  32.355  27.444  1.00  0.00     0.022 A 
BRANCH  67  70
ATOM     70  S   UNL A   1      33.264  29.842  27.002  1.00  0.00     0.127 S 
ATOM     71  O   UNL A   1      33.262  28.732  27.953  1.00  0.00    -0.237 OA
ATOM     72  O   UNL A   1      32.016  30.605  26.951  1.00  0.00    -0.237 OA
ATOM     73  O   UNL A   1      33.843  29.553  25.697  1.00  0.00    -0.744 OA
ENDBRANCH  67  70
ENDBRANCH  40  63
ENDBRANCH  14  15
ENDBRANCH   7   9
ENDBRANCH   6   7
ENDBRANCH   5   6
ENDBRANCH   4   5
ENDBRANCH   3   4
ENDBRANCH   2   3
ENDBRANCH   1   2
BRANCH   1  74
ATOM     74  O   UNL A   1      49.356  21.255  40.888  1.00  0.00    -0.377 OA
BRANCH  74  75
ATOM     75  C   UNL A   1      50.454  20.445  41.289  1.00  0.00     0.188 C 
BRANCH  75  76
ATOM     76  C   UNL A   1      50.328  18.906  41.210  1.00  0.00     0.188 C 
BRANCH  76  77
ATOM     77  O   UNL A   1      49.083  18.409  41.670  1.00  0.00    -0.376 OA
BRANCH  77  78
ATOM     78  C   UNL A   1      48.170  18.012  40.653  1.00  0.00     0.202 C 
BRANCH  78  79
ATOM     79  C   UNL A   1      46.707  18.401  40.897  1.00  0.00     0.261 C 
BRANCH  79  80
ATOM     80  O   UNL A   1      45.964  17.504  41.745  1.00  0.00    -0.460 OA
BRANCH  80  81
ATOM     81  C   UNL A   1      45.764  17.809  43.047  1.00  0.00     0.339 C 
ATOM     82  O   UNL A   1      45.548  18.908  43.525  1.00  0.00    -0.246 OA
BRANCH  81  83
ATOM     83  C   UNL A   1      45.616  16.517  43.762  1.00  0.00     0.079 A 
ATOM     84  C   UNL A   1      44.411  15.800  43.590  1.00  0.00     0.026 A 
ATOM     85  C   UNL A   1      46.707  15.908  44.394  1.00  0.00     0.055 A 
ATOM     86  C   UNL A   1      44.334  14.447  43.959  1.00  0.00    -0.012 A 
ATOM     87  C   UNL A   1      46.605  14.581  44.818  1.00  0.00     0.022 A 
ATOM     88  Cl  UNL A   1      48.204  16.725  44.664  1.00  0.00    -0.083 Cl
ATOM     89  C   UNL A   1      45.436  13.850  44.586  1.00  0.00     0.010 A 
BRANCH  86  90
ATOM     90  C   UNL A   1      43.190  13.598  43.583  1.00  0.00     0.047 A 
ATOM     91  C   UNL A   1      43.164  12.298  43.945  1.00  0.00     0.016 A 
ATOM     92  C   UNL A   1      41.974  14.165  42.908  1.00  0.00     0.255 A 
ATOM     93  C   UNL A   1      42.023  11.454  43.674  1.00  0.00     0.019 A 
ATOM     94  N   UNL A   1      40.931  13.287  42.702  1.00  0.00    -0.329 N 
ATOM     95  O   UNL A   1      41.895  15.344  42.576  1.00  0.00    -0.269 OA
ATOM     96  C   UNL A   1      40.946  11.968  43.071  1.00  0.00     0.086 A 
ATOM     97  H   UNL A   1      40.121  13.631  42.261  1.00  0.00     0.169 HD
ENDBRANCH  86  90
ENDBRANCH  81  83
ENDBRANCH  80  81
ENDBRANCH  79  80
ENDBRANCH  78  79
ENDBRANCH  77  78
ENDBRANCH  76  77
ENDBRANCH  75  76
ENDBRANCH  74  75
ENDBRANCH   1  74
TORSDOF 24
ENDMDL
