MODEL 1
REMARK VINA RESULT:      -9.8      0.000      0.000
REMARK SMILES CC(C)[C@H](CO)Nc1ccc(C(=O)OCCOCCOCCOCCOC(=O)c2ccc(-c3c4nc(c(-c5cccc(S(=O)(=O)[O-])c5F)c5ccc([nH]5)c(-c5cccc(S(=O)(=O)[O-])c5F)c5nc(c(-c6cccc(S(=O)(=O)[O-])c6F)c6ccc3[nH]6)C=C5)C=C4)cc2)cc1
REMARK SMILES IDX 19 1 18 2 17 3 16 4 15 5 14 6 12 7 13 8 11 9 8 10 9 11 93 12
REMARK SMILES IDX 10 13 92 14 7 15 4 17 2 18 1 19 3 20 5 21 6 22 20 24 21 25
REMARK SMILES IDX 22 26 23 27 24 28 25 29 26 30 27 31 28 32 29 33 30 34 91 35
REMARK SMILES IDX 31 36 90 37 32 38 33 39 34 40 84 41 35 42 89 43 83 44 85 45
REMARK SMILES IDX 36 46 88 47 82 48 81 49 37 51 69 52 49 53 68 54 50 55 53 56
REMARK SMILES IDX 67 57 86 58 51 59 52 60 66 62 87 63 54 64 38 65 39 66 47 67
REMARK SMILES IDX 40 68 42 69 48 70 41 71 43 72 44 73 45 74 46 75 70 76 71 77
REMARK SMILES IDX 79 78 72 79 74 80 80 81 73 82 75 83 76 84 77 85 78 86 55 87
REMARK SMILES IDX 56 88 64 89 57 90 59 91 65 92 58 93 60 94 61 95 62 96 63 97
REMARK H PARENT 7 16 6 23 85 50 53 61
REMARK Flexibility Score: inf
ROOT
ATOM      1  C   UNL A   1      32.352  23.556  27.140  1.00  0.00     0.188 C 
ENDROOT
BRANCH   1   2
ATOM      2  C   UNL A   1      31.076  22.732  26.873  1.00  0.00     0.188 C 
BRANCH   2   3
ATOM      3  O   UNL A   1      30.413  23.063  25.667  1.00  0.00    -0.376 OA
BRANCH   3   4
ATOM      4  C   UNL A   1      31.125  23.697  24.622  1.00  0.00     0.202 C 
BRANCH   4   5
ATOM      5  C   UNL A   1      31.965  22.867  23.640  1.00  0.00     0.261 C 
BRANCH   5   6
ATOM      6  O   UNL A   1      32.552  23.580  22.549  1.00  0.00    -0.460 OA
BRANCH   6   7
ATOM      7  C   UNL A   1      33.487  24.506  22.844  1.00  0.00     0.338 C 
ATOM      8  O   UNL A   1      34.683  24.323  22.985  1.00  0.00    -0.246 OA
BRANCH   7   9
ATOM      9  C   UNL A   1      32.846  25.839  22.750  1.00  0.00     0.060 A 
ATOM     10  C   UNL A   1      31.680  28.395  22.624  1.00  0.00     0.034 A 
ATOM     11  C   UNL A   1      32.831  28.176  23.387  1.00  0.00     0.026 A 
ATOM     12  C   UNL A   1      31.168  27.329  21.871  1.00  0.00     0.026 A 
ATOM     13  C   UNL A   1      33.405  26.903  23.466  1.00  0.00     0.018 A 
ATOM     14  C   UNL A   1      31.747  26.061  21.921  1.00  0.00     0.018 A 
BRANCH  10  15
ATOM     15  N   UNL A   1      31.017  29.609  22.726  1.00  0.00    -0.380 N 
ATOM     16  H   UNL A   1      31.432  30.426  22.367  1.00  0.00     0.160 HD
BRANCH  15  17
ATOM     17  C   UNL A   1      29.700  29.678  23.370  1.00  0.00     0.107 C 
BRANCH  17  18
ATOM     18  C   UNL A   1      28.541  29.344  22.393  1.00  0.00     0.007 C 
ATOM     19  C   UNL A   1      27.279  28.775  23.048  1.00  0.00     0.009 C 
ATOM     20  C   UNL A   1      28.167  30.606  21.603  1.00  0.00     0.009 C 
ENDBRANCH  17  18
BRANCH  17  21
ATOM     21  C   UNL A   1      29.526  31.071  24.025  1.00  0.00     0.181 C 
BRANCH  21  22
ATOM     22  O   UNL A   1      30.610  31.413  24.888  1.00  0.00    -0.394 OA
ATOM     23  H   UNL A   1      30.322  32.094  25.515  1.00  0.00     0.210 HD
ENDBRANCH  21  22
ENDBRANCH  17  21
ENDBRANCH  15  17
ENDBRANCH  10  15
ENDBRANCH   7   9
ENDBRANCH   6   7
ENDBRANCH   5   6
ENDBRANCH   4   5
ENDBRANCH   3   4
ENDBRANCH   2   3
ENDBRANCH   1   2
BRANCH   1  24
ATOM     24  O   UNL A   1      33.557  22.873  27.447  1.00  0.00    -0.377 OA
BRANCH  24  25
ATOM     25  C   UNL A   1      34.452  22.485  26.408  1.00  0.00     0.188 C 
BRANCH  25  26
ATOM     26  C   UNL A   1      34.337  21.117  25.693  1.00  0.00     0.188 C 
BRANCH  26  27
ATOM     27  O   UNL A   1      35.289  20.894  24.666  1.00  0.00    -0.376 OA
BRANCH  27  28
ATOM     28  C   UNL A   1      36.463  20.180  25.008  1.00  0.00     0.202 C 
BRANCH  28  29
ATOM     29  C   UNL A   1      37.793  20.935  24.872  1.00  0.00     0.261 C 
BRANCH  29  30
ATOM     30  O   UNL A   1      38.233  21.647  26.038  1.00  0.00    -0.460 OA
BRANCH  30  31
ATOM     31  C   UNL A   1      39.551  21.578  26.340  1.00  0.00     0.338 C 
ATOM     32  O   UNL A   1      40.321  20.686  26.054  1.00  0.00    -0.246 OA
BRANCH  31  33
ATOM     33  C   UNL A   1      39.944  22.882  26.917  1.00  0.00     0.060 A 
ATOM     34  C   UNL A   1      39.219  24.026  26.560  1.00  0.00     0.016 A 
ATOM     35  C   UNL A   1      41.011  22.972  27.815  1.00  0.00     0.016 A 
ATOM     36  C   UNL A   1      39.583  25.271  27.073  1.00  0.00     0.010 A 
ATOM     37  C   UNL A   1      41.387  24.222  28.313  1.00  0.00     0.010 A 
ATOM     38  C   UNL A   1      40.696  25.382  27.918  1.00  0.00    -0.014 A 
BRANCH  38  39
ATOM     39  C   UNL A   1      41.226  26.726  28.252  1.00  0.00     0.031 A 
ATOM     40  C   UNL A   1      42.659  27.042  27.917  1.00  0.00     0.074 A 
ATOM     41  C   UNL A   1      40.445  27.661  28.823  1.00  0.00     0.049 A 
ATOM     42  N   UNL A   1      43.329  28.149  28.102  1.00  0.00    -0.248 NA
ATOM     43  C   UNL A   1      43.440  25.965  27.287  1.00  0.00     0.031 C 
ATOM     44  C   UNL A   1      39.043  27.479  29.196  1.00  0.00     0.029 A 
ATOM     45  N   UNL A   1      40.732  28.947  29.206  1.00  0.00    -0.354 N 
ATOM     46  C   UNL A   1      44.615  27.896  27.638  1.00  0.00     0.074 A 
ATOM     47  C   UNL A   1      44.635  26.525  27.174  1.00  0.00     0.031 C 
ATOM     48  C   UNL A   1      38.598  28.607  29.776  1.00  0.00     0.029 A 
ATOM     49  C   UNL A   1      39.688  29.579  29.838  1.00  0.00     0.049 A 
ATOM     50  H   UNL A   1      41.603  29.377  29.045  1.00  0.00     0.167 HD
ATOM     51  C   UNL A   1      45.679  28.730  27.588  1.00  0.00     0.034 A 
ATOM     52  C   UNL A   1      39.626  30.796  30.418  1.00  0.00     0.034 A 
ATOM     53  C   UNL A   1      45.656  30.095  28.041  1.00  0.00     0.049 A 
ATOM     54  C   UNL A   1      40.835  31.695  30.374  1.00  0.00     0.074 A 
ATOM     55  C   UNL A   1      46.670  31.035  27.988  1.00  0.00     0.029 A 
ATOM     56  N   UNL A   1      44.574  30.710  28.651  1.00  0.00    -0.354 N 
ATOM     57  N   UNL A   1      42.005  31.485  29.821  1.00  0.00    -0.248 NA
ATOM     58  C   UNL A   1      40.702  33.018  31.005  1.00  0.00     0.031 C 
ATOM     59  C   UNL A   1      46.215  32.206  28.605  1.00  0.00     0.029 A 
ATOM     60  C   UNL A   1      44.900  32.010  28.997  1.00  0.00     0.049 A 
ATOM     61  H   UNL A   1      43.701  30.284  28.812  1.00  0.00     0.167 HD
ATOM     62  C   UNL A   1      42.733  32.657  30.006  1.00  0.00     0.074 A 
ATOM     63  C   UNL A   1      41.860  33.582  30.698  1.00  0.00     0.031 C 
ATOM     64  C   UNL A   1      44.011  32.937  29.650  1.00  0.00     0.034 A 
BRANCH  51  65
ATOM     65  C   UNL A   1      46.963  28.192  27.012  1.00  0.00     0.023 A 
ATOM     66  C   UNL A   1      48.016  27.814  27.871  1.00  0.00     0.012 A 
ATOM     67  C   UNL A   1      47.105  28.008  25.623  1.00  0.00     0.148 A 
ATOM     68  C   UNL A   1      49.201  27.291  27.354  1.00  0.00     0.002 A 
ATOM     69  C   UNL A   1      48.269  27.441  25.119  1.00  0.00     0.091 A 
ATOM     70  F   UNL A   1      46.101  28.393  24.822  1.00  0.00    -0.205 F 
ATOM     71  C   UNL A   1      49.323  27.094  25.981  1.00  0.00     0.022 A 
BRANCH  69  72
ATOM     72  S   UNL A   1      48.492  27.071  23.376  1.00  0.00     0.127 S 
ATOM     73  O   UNL A   1      47.653  28.089  22.748  1.00  0.00    -0.237 OA
ATOM     74  O   UNL A   1      49.930  27.274  23.202  1.00  0.00    -0.237 OA
ATOM     75  O   UNL A   1      48.044  25.697  23.195  1.00  0.00    -0.744 OA
ENDBRANCH  69  72
ENDBRANCH  51  65
BRANCH  52  76
ATOM     76  C   UNL A   1      38.368  31.247  31.080  1.00  0.00     0.023 A 
ATOM     77  C   UNL A   1      38.208  31.078  32.469  1.00  0.00     0.012 A 
ATOM     78  C   UNL A   1      37.329  31.839  30.336  1.00  0.00     0.148 A 
ATOM     79  C   UNL A   1      37.021  31.455  33.099  1.00  0.00     0.002 A 
ATOM     80  C   UNL A   1      36.174  32.267  30.979  1.00  0.00     0.091 A 
ATOM     81  F   UNL A   1      37.494  31.975  29.014  1.00  0.00    -0.205 F 
ATOM     82  C   UNL A   1      36.009  32.058  32.357  1.00  0.00     0.022 A 
BRANCH  80  83
ATOM     83  S   UNL A   1      34.875  33.169  30.128  1.00  0.00     0.127 S 
ATOM     84  O   UNL A   1      34.004  33.553  31.237  1.00  0.00    -0.237 OA
ATOM     85  O   UNL A   1      35.622  34.269  29.520  1.00  0.00    -0.237 OA
ATOM     86  O   UNL A   1      34.302  32.230  29.173  1.00  0.00    -0.744 OA
ENDBRANCH  80  83
ENDBRANCH  52  76
BRANCH  64  87
ATOM     87  C   UNL A   1      44.538  34.317  29.965  1.00  0.00     0.023 A 
ATOM     88  C   UNL A   1      45.318  34.529  31.119  1.00  0.00     0.012 A 
ATOM     89  C   UNL A   1      44.297  35.394  29.089  1.00  0.00     0.148 A 
ATOM     90  C   UNL A   1      45.807  35.800  31.423  1.00  0.00     0.002 A 
ATOM     91  C   UNL A   1      44.834  36.646  29.369  1.00  0.00     0.091 A 
ATOM     92  F   UNL A   1      43.542  35.180  28.002  1.00  0.00    -0.205 F 
ATOM     93  C   UNL A   1      45.574  36.855  30.544  1.00  0.00     0.022 A 
BRANCH  91  94
ATOM     94  S   UNL A   1      44.669  38.038  28.246  1.00  0.00     0.127 S 
ATOM     95  O   UNL A   1      43.691  38.870  28.944  1.00  0.00    -0.237 OA
ATOM     96  O   UNL A   1      46.028  38.582  28.224  1.00  0.00    -0.237 OA
ATOM     97  O   UNL A   1      44.222  37.480  26.977  1.00  0.00    -0.744 OA
ENDBRANCH  91  94
ENDBRANCH  64  87
ENDBRANCH  38  39
ENDBRANCH  31  33
ENDBRANCH  30  31
ENDBRANCH  29  30
ENDBRANCH  28  29
ENDBRANCH  27  28
ENDBRANCH  26  27
ENDBRANCH  25  26
ENDBRANCH  24  25
ENDBRANCH   1  24
TORSDOF 28
ENDMDL
MODEL 2
REMARK VINA RESULT:      -9.6      1.582      2.029
REMARK SMILES CC(C)[C@H](CO)Nc1ccc(C(=O)OCCOCCOCCOCCOC(=O)c2ccc(-c3c4nc(c(-c5cccc(S(=O)(=O)[O-])c5F)c5ccc([nH]5)c(-c5cccc(S(=O)(=O)[O-])c5F)c5nc(c(-c6cccc(S(=O)(=O)[O-])c6F)c6ccc3[nH]6)C=C5)C=C4)cc2)cc1
REMARK SMILES IDX 19 1 18 2 17 3 16 4 15 5 14 6 12 7 13 8 11 9 8 10 9 11 93 12
REMARK SMILES IDX 10 13 92 14 7 15 4 17 2 18 1 19 3 20 5 21 6 22 20 24 21 25
REMARK SMILES IDX 22 26 23 27 24 28 25 29 26 30 27 31 28 32 29 33 30 34 91 35
REMARK SMILES IDX 31 36 90 37 32 38 33 39 34 40 84 41 35 42 89 43 83 44 85 45
REMARK SMILES IDX 36 46 88 47 82 48 81 49 37 51 69 52 49 53 68 54 50 55 53 56
REMARK SMILES IDX 67 57 86 58 51 59 52 60 66 62 87 63 54 64 38 65 39 66 47 67
REMARK SMILES IDX 40 68 42 69 48 70 41 71 43 72 44 73 45 74 46 75 70 76 71 77
REMARK SMILES IDX 79 78 72 79 74 80 80 81 73 82 75 83 76 84 77 85 78 86 55 87
REMARK SMILES IDX 56 88 64 89 57 90 59 91 65 92 58 93 60 94 61 95 62 96 63 97
REMARK H PARENT 7 16 6 23 85 50 53 61
REMARK Flexibility Score: inf
ROOT
ATOM      1  C   UNL A   1      32.351  23.363  27.231  1.00  0.00     0.188 C 
ENDROOT
BRANCH   1   2
ATOM      2  C   UNL A   1      31.026  22.636  26.923  1.00  0.00     0.188 C 
BRANCH   2   3
ATOM      3  O   UNL A   1      30.417  23.028  25.708  1.00  0.00    -0.376 OA
BRANCH   3   4
ATOM      4  C   UNL A   1      31.203  23.591  24.675  1.00  0.00     0.202 C 
BRANCH   4   5
ATOM      5  C   UNL A   1      31.992  22.685  23.718  1.00  0.00     0.261 C 
BRANCH   5   6
ATOM      6  O   UNL A   1      32.581  23.324  22.583  1.00  0.00    -0.460 OA
BRANCH   6   7
ATOM      7  C   UNL A   1      33.853  23.755  22.705  1.00  0.00     0.338 C 
ATOM      8  O   UNL A   1      34.861  23.183  22.334  1.00  0.00    -0.246 OA
BRANCH   7   9
ATOM      9  C   UNL A   1      33.808  25.161  23.172  1.00  0.00     0.060 A 
ATOM     10  C   UNL A   1      33.744  27.805  24.129  1.00  0.00     0.034 A 
ATOM     11  C   UNL A   1      34.184  26.762  24.950  1.00  0.00     0.026 A 
ATOM     12  C   UNL A   1      33.404  27.508  22.802  1.00  0.00     0.026 A 
ATOM     13  C   UNL A   1      34.202  25.444  24.484  1.00  0.00     0.018 A 
ATOM     14  C   UNL A   1      33.445  26.201  22.317  1.00  0.00     0.018 A 
BRANCH  10  15
ATOM     15  N   UNL A   1      33.541  29.063  24.677  1.00  0.00    -0.380 N 
ATOM     16  H   UNL A   1      34.184  29.785  24.498  1.00  0.00     0.160 HD
BRANCH  15  17
ATOM     17  C   UNL A   1      32.370  29.318  25.525  1.00  0.00     0.107 C 
BRANCH  17  18
ATOM     18  C   UNL A   1      31.908  28.055  26.300  1.00  0.00     0.007 C 
ATOM     19  C   UNL A   1      31.497  28.296  27.755  1.00  0.00     0.009 C 
ATOM     20  C   UNL A   1      30.735  27.405  25.551  1.00  0.00     0.009 C 
ENDBRANCH  17  18
BRANCH  17  21
ATOM     21  C   UNL A   1      31.235  29.917  24.658  1.00  0.00     0.181 C 
BRANCH  21  22
ATOM     22  O   UNL A   1      30.835  31.216  25.095  1.00  0.00    -0.394 OA
ATOM     23  H   UNL A   1      31.380  31.485  25.850  1.00  0.00     0.210 HD
ENDBRANCH  21  22
ENDBRANCH  17  21
ENDBRANCH  15  17
ENDBRANCH  10  15
ENDBRANCH   7   9
ENDBRANCH   6   7
ENDBRANCH   5   6
ENDBRANCH   4   5
ENDBRANCH   3   4
ENDBRANCH   2   3
ENDBRANCH   1   2
BRANCH   1  24
ATOM     24  O   UNL A   1      33.528  22.593  27.419  1.00  0.00    -0.377 OA
BRANCH  24  25
ATOM     25  C   UNL A   1      34.355  22.256  26.309  1.00  0.00     0.188 C 
BRANCH  25  26
ATOM     26  C   UNL A   1      34.359  20.838  25.689  1.00  0.00     0.188 C 
BRANCH  26  27
ATOM     27  O   UNL A   1      35.292  20.644  24.638  1.00  0.00    -0.376 OA
BRANCH  27  28
ATOM     28  C   UNL A   1      36.559  20.114  24.979  1.00  0.00     0.202 C 
BRANCH  28  29
ATOM     29  C   UNL A   1      37.763  21.056  24.831  1.00  0.00     0.261 C 
BRANCH  29  30
ATOM     30  O   UNL A   1      38.189  21.724  26.027  1.00  0.00    -0.460 OA
BRANCH  30  31
ATOM     31  C   UNL A   1      39.509  21.672  26.325  1.00  0.00     0.338 C 
ATOM     32  O   UNL A   1      40.290  20.791  26.033  1.00  0.00    -0.246 OA
BRANCH  31  33
ATOM     33  C   UNL A   1      39.886  22.980  26.904  1.00  0.00     0.060 A 
ATOM     34  C   UNL A   1      39.160  24.118  26.535  1.00  0.00     0.016 A 
ATOM     35  C   UNL A   1      40.940  23.077  27.816  1.00  0.00     0.016 A 
ATOM     36  C   UNL A   1      39.510  25.366  27.051  1.00  0.00     0.010 A 
ATOM     37  C   UNL A   1      41.302  24.331  28.316  1.00  0.00     0.010 A 
ATOM     38  C   UNL A   1      40.610  25.485  27.911  1.00  0.00    -0.014 A 
BRANCH  38  39
ATOM     39  C   UNL A   1      41.128  26.833  28.249  1.00  0.00     0.031 A 
ATOM     40  C   UNL A   1      42.558  27.163  27.918  1.00  0.00     0.074 A 
ATOM     41  C   UNL A   1      40.338  27.760  28.820  1.00  0.00     0.049 A 
ATOM     42  N   UNL A   1      43.219  28.274  28.108  1.00  0.00    -0.248 NA
ATOM     43  C   UNL A   1      43.351  26.093  27.287  1.00  0.00     0.031 C 
ATOM     44  C   UNL A   1      38.936  27.565  29.189  1.00  0.00     0.029 A 
ATOM     45  N   UNL A   1      40.612  29.048  29.207  1.00  0.00    -0.354 N 
ATOM     46  C   UNL A   1      44.508  28.033  27.646  1.00  0.00     0.074 A 
ATOM     47  C   UNL A   1      44.541  26.664  27.179  1.00  0.00     0.031 C 
ATOM     48  C   UNL A   1      38.480  28.688  29.771  1.00  0.00     0.029 A 
ATOM     49  C   UNL A   1      39.561  29.669  29.838  1.00  0.00     0.049 A 
ATOM     50  H   UNL A   1      41.480  29.486  29.049  1.00  0.00     0.167 HD
ATOM     51  C   UNL A   1      45.565  28.877  27.600  1.00  0.00     0.034 A 
ATOM     52  C   UNL A   1      39.488  30.884  30.420  1.00  0.00     0.034 A 
ATOM     53  C   UNL A   1      45.529  30.240  28.057  1.00  0.00     0.049 A 
ATOM     54  C   UNL A   1      40.689  31.794  30.382  1.00  0.00     0.074 A 
ATOM     55  C   UNL A   1      46.536  31.189  28.009  1.00  0.00     0.029 A 
ATOM     56  N   UNL A   1      44.440  30.845  28.665  1.00  0.00    -0.354 N 
ATOM     57  N   UNL A   1      41.862  31.595  29.831  1.00  0.00    -0.248 NA
ATOM     58  C   UNL A   1      40.542  33.114  31.016  1.00  0.00     0.031 C 
ATOM     59  C   UNL A   1      46.068  32.354  28.627  1.00  0.00     0.029 A 
ATOM     60  C   UNL A   1      44.755  32.147  29.015  1.00  0.00     0.049 A 
ATOM     61  H   UNL A   1      43.570  30.411  28.824  1.00  0.00     0.167 HD
ATOM     62  C   UNL A   1      42.579  32.772  30.021  1.00  0.00     0.074 A 
ATOM     63  C   UNL A   1      41.697  33.689  30.713  1.00  0.00     0.031 C 
ATOM     64  C   UNL A   1      43.856  33.065  29.668  1.00  0.00     0.034 A 
BRANCH  51  65
ATOM     65  C   UNL A   1      46.855  28.351  27.027  1.00  0.00     0.023 A 
ATOM     66  C   UNL A   1      47.889  27.930  27.888  1.00  0.00     0.012 A 
ATOM     67  C   UNL A   1      47.021  28.222  25.634  1.00  0.00     0.148 A 
ATOM     68  C   UNL A   1      49.079  27.418  27.372  1.00  0.00     0.002 A 
ATOM     69  C   UNL A   1      48.189  27.666  25.128  1.00  0.00     0.091 A 
ATOM     70  F   UNL A   1      46.036  28.649  24.831  1.00  0.00    -0.205 F 
ATOM     71  C   UNL A   1      49.224  27.275  25.995  1.00  0.00     0.022 A 
BRANCH  69  72
ATOM     72  S   UNL A   1      48.442  27.365  23.376  1.00  0.00     0.127 S 
ATOM     73  O   UNL A   1      49.822  27.811  23.196  1.00  0.00    -0.237 OA
ATOM     74  O   UNL A   1      48.252  25.918  23.285  1.00  0.00    -0.237 OA
ATOM     75  O   UNL A   1      47.436  28.158  22.682  1.00  0.00    -0.744 OA
ENDBRANCH  69  72
ENDBRANCH  51  65
BRANCH  52  76
ATOM     76  C   UNL A   1      38.224  31.323  31.080  1.00  0.00     0.023 A 
ATOM     77  C   UNL A   1      38.039  31.098  32.458  1.00  0.00     0.012 A 
ATOM     78  C   UNL A   1      37.204  31.958  30.345  1.00  0.00     0.148 A 
ATOM     79  C   UNL A   1      36.846  31.463  33.084  1.00  0.00     0.002 A 
ATOM     80  C   UNL A   1      36.044  32.373  30.986  1.00  0.00     0.091 A 
ATOM     81  F   UNL A   1      37.393  32.147  29.032  1.00  0.00    -0.205 F 
ATOM     82  C   UNL A   1      35.854  32.109  32.351  1.00  0.00     0.022 A 
BRANCH  80  83
ATOM     83  S   UNL A   1      34.770  33.326  30.154  1.00  0.00     0.127 S 
ATOM     84  O   UNL A   1      35.565  34.212  29.306  1.00  0.00    -0.237 OA
ATOM     85  O   UNL A   1      34.035  32.283  29.438  1.00  0.00    -0.237 OA
ATOM     86  O   UNL A   1      34.011  33.979  31.212  1.00  0.00    -0.744 OA
ENDBRANCH  80  83
ENDBRANCH  52  76
BRANCH  64  87
ATOM     87  C   UNL A   1      44.370  34.448  29.988  1.00  0.00     0.023 A 
ATOM     88  C   UNL A   1      44.222  35.490  29.052  1.00  0.00     0.012 A 
ATOM     89  C   UNL A   1      44.961  34.723  31.238  1.00  0.00     0.148 A 
ATOM     90  C   UNL A   1      44.696  36.772  29.334  1.00  0.00     0.002 A 
ATOM     91  C   UNL A   1      45.381  36.015  31.534  1.00  0.00     0.091 A 
ATOM     92  F   UNL A   1      45.108  33.718  32.112  1.00  0.00    -0.205 F 
ATOM     93  C   UNL A   1      45.266  37.036  30.577  1.00  0.00     0.022 A 
BRANCH  91  94
ATOM     94  S   UNL A   1      46.036  36.470  33.143  1.00  0.00     0.127 S 
ATOM     95  O   UNL A   1      45.029  35.910  34.043  1.00  0.00    -0.237 OA
ATOM     96  O   UNL A   1      47.324  35.774  33.161  1.00  0.00    -0.237 OA
ATOM     97  O   UNL A   1      46.134  37.923  33.142  1.00  0.00    -0.744 OA
ENDBRANCH  91  94
ENDBRANCH  64  87
ENDBRANCH  38  39
ENDBRANCH  31  33
ENDBRANCH  30  31
ENDBRANCH  29  30
ENDBRANCH  28  29
ENDBRANCH  27  28
ENDBRANCH  26  27
ENDBRANCH  25  26
ENDBRANCH  24  25
ENDBRANCH   1  24
TORSDOF 28
ENDMDL
MODEL 3
REMARK VINA RESULT:      -9.5      1.492      7.662
REMARK SMILES CC(C)[C@H](CO)Nc1ccc(C(=O)OCCOCCOCCOCCOC(=O)c2ccc(-c3c4nc(c(-c5cccc(S(=O)(=O)[O-])c5F)c5ccc([nH]5)c(-c5cccc(S(=O)(=O)[O-])c5F)c5nc(c(-c6cccc(S(=O)(=O)[O-])c6F)c6ccc3[nH]6)C=C5)C=C4)cc2)cc1
REMARK SMILES IDX 19 1 18 2 17 3 16 4 15 5 14 6 12 7 13 8 11 9 8 10 9 11 93 12
REMARK SMILES IDX 10 13 92 14 7 15 4 17 2 18 1 19 3 20 5 21 6 22 20 24 21 25
REMARK SMILES IDX 22 26 23 27 24 28 25 29 26 30 27 31 28 32 29 33 30 34 91 35
REMARK SMILES IDX 31 36 90 37 32 38 33 39 34 40 84 41 35 42 89 43 83 44 85 45
REMARK SMILES IDX 36 46 88 47 82 48 81 49 37 51 69 52 49 53 68 54 50 55 53 56
REMARK SMILES IDX 67 57 86 58 51 59 52 60 66 62 87 63 54 64 38 65 39 66 47 67
REMARK SMILES IDX 40 68 42 69 48 70 41 71 43 72 44 73 45 74 46 75 70 76 71 77
REMARK SMILES IDX 79 78 72 79 74 80 80 81 73 82 75 83 76 84 77 85 78 86 55 87
REMARK SMILES IDX 56 88 64 89 57 90 59 91 65 92 58 93 60 94 61 95 62 96 63 97
REMARK H PARENT 7 16 6 23 85 50 53 61
REMARK Flexibility Score: inf
ROOT
ATOM      1  C   UNL A   1      32.290  23.201  27.286  1.00  0.00     0.188 C 
ENDROOT
BRANCH   1   2
ATOM      2  C   UNL A   1      30.813  22.885  26.973  1.00  0.00     0.188 C 
BRANCH   2   3
ATOM      3  O   UNL A   1      30.300  23.564  25.842  1.00  0.00    -0.376 OA
BRANCH   3   4
ATOM      4  C   UNL A   1      31.170  24.315  25.017  1.00  0.00     0.202 C 
BRANCH   4   5
ATOM      5  C   UNL A   1      31.722  23.711  23.717  1.00  0.00     0.261 C 
BRANCH   5   6
ATOM      6  O   UNL A   1      31.440  24.430  22.514  1.00  0.00    -0.460 OA
BRANCH   6   7
ATOM      7  C   UNL A   1      32.466  25.077  21.924  1.00  0.00     0.338 C 
ATOM      8  O   UNL A   1      33.089  24.722  20.941  1.00  0.00    -0.246 OA
BRANCH   7   9
ATOM      9  C   UNL A   1      32.567  26.419  22.545  1.00  0.00     0.060 A 
ATOM     10  C   UNL A   1      32.836  28.956  23.730  1.00  0.00     0.034 A 
ATOM     11  C   UNL A   1      33.966  28.191  23.422  1.00  0.00     0.026 A 
ATOM     12  C   UNL A   1      31.577  28.457  23.368  1.00  0.00     0.026 A 
ATOM     13  C   UNL A   1      33.836  26.923  22.849  1.00  0.00     0.018 A 
ATOM     14  C   UNL A   1      31.436  27.204  22.770  1.00  0.00     0.018 A 
BRANCH  10  15
ATOM     15  N   UNL A   1      32.982  30.112  24.481  1.00  0.00    -0.380 N 
ATOM     16  H   UNL A   1      33.205  30.961  24.036  1.00  0.00     0.160 HD
BRANCH  15  17
ATOM     17  C   UNL A   1      32.805  30.073  25.937  1.00  0.00     0.107 C 
BRANCH  17  18
ATOM     18  C   UNL A   1      33.119  28.677  26.539  1.00  0.00     0.007 C 
ATOM     19  C   UNL A   1      34.465  28.565  27.260  1.00  0.00     0.009 C 
ATOM     20  C   UNL A   1      31.998  28.282  27.511  1.00  0.00     0.009 C 
ENDBRANCH  17  18
BRANCH  17  21
ATOM     21  C   UNL A   1      31.374  30.549  26.289  1.00  0.00     0.181 C 
BRANCH  21  22
ATOM     22  O   UNL A   1      31.021  31.766  25.631  1.00  0.00    -0.394 OA
ATOM     23  H   UNL A   1      31.098  32.505  26.254  1.00  0.00     0.210 HD
ENDBRANCH  21  22
ENDBRANCH  17  21
ENDBRANCH  15  17
ENDBRANCH  10  15
ENDBRANCH   7   9
ENDBRANCH   6   7
ENDBRANCH   5   6
ENDBRANCH   4   5
ENDBRANCH   3   4
ENDBRANCH   2   3
ENDBRANCH   1   2
BRANCH   1  24
ATOM     24  O   UNL A   1      33.231  22.139  27.294  1.00  0.00    -0.377 OA
BRANCH  24  25
ATOM     25  C   UNL A   1      33.841  21.706  26.081  1.00  0.00     0.188 C 
BRANCH  25  26
ATOM     26  C   UNL A   1      33.881  20.215  25.669  1.00  0.00     0.188 C 
BRANCH  26  27
ATOM     27  O   UNL A   1      34.769  19.909  24.606  1.00  0.00    -0.376 OA
BRANCH  27  28
ATOM     28  C   UNL A   1      36.118  19.637  24.940  1.00  0.00     0.202 C 
BRANCH  28  29
ATOM     29  C   UNL A   1      37.140  20.742  24.633  1.00  0.00     0.261 C 
BRANCH  29  30
ATOM     30  O   UNL A   1      37.654  21.454  25.768  1.00  0.00    -0.460 OA
BRANCH  30  31
ATOM     31  C   UNL A   1      38.953  21.246  26.089  1.00  0.00     0.338 C 
ATOM     32  O   UNL A   1      39.610  20.251  25.867  1.00  0.00    -0.246 OA
BRANCH  31  33
ATOM     33  C   UNL A   1      39.499  22.528  26.587  1.00  0.00     0.060 A 
ATOM     34  C   UNL A   1      38.987  23.726  26.074  1.00  0.00     0.016 A 
ATOM     35  C   UNL A   1      40.498  22.545  27.563  1.00  0.00     0.016 A 
ATOM     36  C   UNL A   1      39.500  24.947  26.511  1.00  0.00     0.010 A 
ATOM     37  C   UNL A   1      41.025  23.768  27.985  1.00  0.00     0.010 A 
ATOM     38  C   UNL A   1      40.551  24.974  27.438  1.00  0.00    -0.014 A 
BRANCH  38  39
ATOM     39  C   UNL A   1      41.256  26.251  27.703  1.00  0.00     0.031 A 
ATOM     40  C   UNL A   1      40.567  27.298  28.535  1.00  0.00     0.074 A 
ATOM     41  C   UNL A   1      42.497  26.473  27.234  1.00  0.00     0.049 A 
ATOM     42  N   UNL A   1      40.993  28.477  28.905  1.00  0.00    -0.248 NA
ATOM     43  C   UNL A   1      39.213  26.971  29.015  1.00  0.00     0.031 C 
ATOM     44  C   UNL A   1      43.272  25.539  26.418  1.00  0.00     0.029 A 
ATOM     45  N   UNL A   1      43.316  27.567  27.364  1.00  0.00    -0.354 N 
ATOM     46  C   UNL A   1      39.956  29.043  29.637  1.00  0.00     0.074 A 
ATOM     47  C   UNL A   1      38.873  28.084  29.648  1.00  0.00     0.031 C 
ATOM     48  C   UNL A   1      44.447  26.110  26.100  1.00  0.00     0.029 A 
ATOM     49  C   UNL A   1      44.496  27.456  26.668  1.00  0.00     0.049 A 
ATOM     50  H   UNL A   1      43.081  28.356  27.903  1.00  0.00     0.167 HD
ATOM     51  C   UNL A   1      39.912  30.246  30.257  1.00  0.00     0.034 A 
ATOM     52  C   UNL A   1      45.493  28.349  26.494  1.00  0.00     0.034 A 
ATOM     53  C   UNL A   1      40.992  31.195  30.254  1.00  0.00     0.049 A 
ATOM     54  C   UNL A   1      45.406  29.693  27.171  1.00  0.00     0.074 A 
ATOM     55  C   UNL A   1      41.060  32.421  30.893  1.00  0.00     0.029 A 
ATOM     56  N   UNL A   1      42.183  31.040  29.562  1.00  0.00    -0.354 N 
ATOM     57  N   UNL A   1      44.472  30.164  27.961  1.00  0.00    -0.248 NA
ATOM     58  C   UNL A   1      46.533  30.616  26.961  1.00  0.00     0.031 C 
ATOM     59  C   UNL A   1      42.276  33.025  30.552  1.00  0.00     0.029 A 
ATOM     60  C   UNL A   1      42.985  32.153  29.741  1.00  0.00     0.049 A 
ATOM     61  H   UNL A   1      42.423  30.251  29.022  1.00  0.00     0.167 HD
ATOM     62  C   UNL A   1      44.912  31.420  28.369  1.00  0.00     0.074 A 
ATOM     63  C   UNL A   1      46.210  31.623  27.760  1.00  0.00     0.031 C 
ATOM     64  C   UNL A   1      44.293  32.329  29.162  1.00  0.00     0.034 A 
BRANCH  51  65
ATOM     65  C   UNL A   1      38.652  30.602  31.003  1.00  0.00     0.023 A 
ATOM     66  C   UNL A   1      38.518  30.259  32.364  1.00  0.00     0.012 A 
ATOM     67  C   UNL A   1      37.624  31.328  30.369  1.00  0.00     0.148 A 
ATOM     68  C   UNL A   1      37.369  30.604  33.074  1.00  0.00     0.002 A 
ATOM     69  C   UNL A   1      36.504  31.711  31.095  1.00  0.00     0.091 A 
ATOM     70  F   UNL A   1      37.761  31.626  29.069  1.00  0.00    -0.205 F 
ATOM     71  C   UNL A   1      36.368  31.339  32.443  1.00  0.00     0.022 A 
BRANCH  69  72
ATOM     72  S   UNL A   1      35.197  32.727  30.399  1.00  0.00     0.127 S 
ATOM     73  O   UNL A   1      34.794  31.936  29.238  1.00  0.00    -0.237 OA
ATOM     74  O   UNL A   1      34.220  32.756  31.487  1.00  0.00    -0.237 OA
ATOM     75  O   UNL A   1      35.807  34.014  30.093  1.00  0.00    -0.744 OA
ENDBRANCH  69  72
ENDBRANCH  51  65
BRANCH  52  76
ATOM     76  C   UNL A   1      46.673  27.998  25.652  1.00  0.00     0.023 A 
ATOM     77  C   UNL A   1      46.546  27.958  24.250  1.00  0.00     0.012 A 
ATOM     78  C   UNL A   1      47.919  27.700  26.237  1.00  0.00     0.148 A 
ATOM     79  C   UNL A   1      47.627  27.591  23.447  1.00  0.00     0.002 A 
ATOM     80  C   UNL A   1      49.007  27.394  25.429  1.00  0.00     0.091 A 
ATOM     81  F   UNL A   1      48.015  27.727  27.572  1.00  0.00    -0.205 F 
ATOM     82  C   UNL A   1      48.860  27.319  24.036  1.00  0.00     0.022 A 
BRANCH  80  83
ATOM     83  S   UNL A   1      50.661  27.156  26.089  1.00  0.00     0.127 S 
ATOM     84  O   UNL A   1      51.460  27.074  24.869  1.00  0.00    -0.237 OA
ATOM     85  O   UNL A   1      50.851  28.378  26.870  1.00  0.00    -0.237 OA
ATOM     86  O   UNL A   1      50.597  25.938  26.885  1.00  0.00    -0.744 OA
ENDBRANCH  80  83
ENDBRANCH  52  76
BRANCH  64  87
ATOM     87  C   UNL A   1      45.026  33.616  29.455  1.00  0.00     0.023 A 
ATOM     88  C   UNL A   1      46.044  33.644  30.429  1.00  0.00     0.012 A 
ATOM     89  C   UNL A   1      44.736  34.789  28.728  1.00  0.00     0.148 A 
ATOM     90  C   UNL A   1      46.725  34.828  30.711  1.00  0.00     0.002 A 
ATOM     91  C   UNL A   1      45.457  35.951  28.976  1.00  0.00     0.091 A 
ATOM     92  F   UNL A   1      43.755  34.750  27.815  1.00  0.00    -0.205 F 
ATOM     93  C   UNL A   1      46.440  35.978  29.978  1.00  0.00     0.022 A 
BRANCH  91  94
ATOM     94  S   UNL A   1      45.226  37.451  28.015  1.00  0.00     0.127 S 
ATOM     95  O   UNL A   1      43.789  37.416  27.749  1.00  0.00    -0.237 OA
ATOM     96  O   UNL A   1      45.647  38.490  28.956  1.00  0.00    -0.237 OA
ATOM     97  O   UNL A   1      46.081  37.315  26.844  1.00  0.00    -0.744 OA
ENDBRANCH  91  94
ENDBRANCH  64  87
ENDBRANCH  38  39
ENDBRANCH  31  33
ENDBRANCH  30  31
ENDBRANCH  29  30
ENDBRANCH  28  29
ENDBRANCH  27  28
ENDBRANCH  26  27
ENDBRANCH  25  26
ENDBRANCH  24  25
ENDBRANCH   1  24
TORSDOF 28
ENDMDL
