MODEL 1
REMARK VINA RESULT:      -8.7      0.000      0.000
REMARK SMILES O=C(OCCOCCOCCOCCOC(=O)[C@@H]1C=C[C@H](NC(=O)C2CCOCC2)C1)c1ccc(-c2c3nc(c(-c4cccc(S(=O)(=O)[O-])c4F)c4ccc([nH]4)c(-c4cccc(S(=O)(=O)[O-])c4F)c4nc(c(-c5cccc(S(=O)(=O)[O-])c5F)c5ccc2[nH]5)C=C4)C=C3)cc1
REMARK SMILES IDX 8 1 7 2 6 3 5 4 4 5 3 6 2 7 1 8 32 9 33 10 94 11 34 12 93 13
REMARK SMILES IDX 35 14 36 15 37 16 87 17 38 18 92 19 86 20 88 21 39 22 91 23
REMARK SMILES IDX 85 24 84 25 40 27 72 28 52 29 71 30 53 31 56 32 70 33 89 34
REMARK SMILES IDX 54 35 55 36 69 38 90 39 57 40 41 41 42 42 50 43 43 44 45 45
REMARK SMILES IDX 51 46 44 47 46 48 47 49 48 50 49 51 73 52 74 53 82 54 75 55
REMARK SMILES IDX 77 56 83 57 76 58 78 59 79 60 80 61 81 62 58 63 59 64 67 65
REMARK SMILES IDX 60 66 62 67 68 68 61 69 63 70 64 71 65 72 66 73 9 74 10 75
REMARK SMILES IDX 11 76 12 77 13 78 14 79 15 80 16 81 17 82 18 83 19 84 31 85
REMARK SMILES IDX 20 86 21 87 22 88 23 89 24 91 25 92 26 93 30 94 27 95 29 96
REMARK SMILES IDX 28 97
REMARK H PARENT 88 26 56 37 22 90
REMARK Flexibility Score: inf
ROOT
ATOM      1  C   UNL A   1      42.036  19.127  25.957  1.00  0.00     0.188 C 
ENDROOT
BRANCH   1   2
ATOM      2  C   UNL A   1      42.517  20.006  27.094  1.00  0.00     0.188 C 
BRANCH   2   3
ATOM      3  O   UNL A   1      42.783  21.314  26.578  1.00  0.00    -0.376 OA
BRANCH   3   4
ATOM      4  C   UNL A   1      43.085  22.332  27.523  1.00  0.00     0.202 C 
BRANCH   4   5
ATOM      5  C   UNL A   1      41.875  23.187  27.909  1.00  0.00     0.261 C 
BRANCH   5   6
ATOM      6  O   UNL A   1      40.896  23.304  26.857  1.00  0.00    -0.460 OA
BRANCH   6   7
ATOM      7  C   UNL A   1      39.724  23.976  26.827  1.00  0.00     0.338 C 
ATOM      8  O   UNL A   1      38.750  23.475  26.269  1.00  0.00    -0.246 OA
BRANCH   7   9
ATOM      9  C   UNL A   1      39.540  25.280  27.522  1.00  0.00     0.060 A 
ATOM     10  C   UNL A   1      39.809  26.518  26.947  1.00  0.00     0.016 A 
ATOM     11  C   UNL A   1      39.038  25.257  28.830  1.00  0.00     0.016 A 
ATOM     12  C   UNL A   1      39.744  27.690  27.667  1.00  0.00     0.010 A 
ATOM     13  C   UNL A   1      38.943  26.439  29.570  1.00  0.00     0.010 A 
ATOM     14  C   UNL A   1      39.379  27.644  29.003  1.00  0.00    -0.014 A 
BRANCH  14  15
ATOM     15  C   UNL A   1      39.784  28.801  29.817  1.00  0.00     0.031 A 
ATOM     16  C   UNL A   1      41.257  29.007  30.017  1.00  0.00     0.074 A 
ATOM     17  C   UNL A   1      38.881  29.736  30.160  1.00  0.00     0.049 A 
ATOM     18  N   UNL A   1      41.878  29.918  30.711  1.00  0.00    -0.248 NA
ATOM     19  C   UNL A   1      42.160  28.064  29.328  1.00  0.00     0.031 C 
ATOM     20  C   UNL A   1      37.452  29.691  29.837  1.00  0.00     0.029 A 
ATOM     21  N   UNL A   1      39.037  30.923  30.818  1.00  0.00    -0.354 N 
ATOM     22  C   UNL A   1      43.228  29.597  30.622  1.00  0.00     0.074 A 
ATOM     23  C   UNL A   1      43.345  28.431  29.781  1.00  0.00     0.031 C 
ATOM     24  C   UNL A   1      36.866  30.810  30.289  1.00  0.00     0.029 A 
ATOM     25  C   UNL A   1      37.858  31.602  31.004  1.00  0.00     0.049 A 
ATOM     26  H   UNL A   1      39.910  31.258  31.127  1.00  0.00     0.167 HD
ATOM     27  C   UNL A   1      44.271  30.220  31.211  1.00  0.00     0.034 A 
ATOM     28  C   UNL A   1      37.616  32.716  31.719  1.00  0.00     0.034 A 
ATOM     29  C   UNL A   1      44.114  31.404  32.004  1.00  0.00     0.049 A 
ATOM     30  C   UNL A   1      38.786  33.359  32.413  1.00  0.00     0.074 A 
ATOM     31  C   UNL A   1      45.074  32.120  32.690  1.00  0.00     0.029 A 
ATOM     32  N   UNL A   1      42.899  32.044  32.214  1.00  0.00    -0.354 N 
ATOM     33  N   UNL A   1      40.056  33.027  32.367  1.00  0.00    -0.248 NA
ATOM     34  C   UNL A   1      38.497  34.530  33.247  1.00  0.00     0.031 C 
ATOM     35  C   UNL A   1      44.430  33.174  33.348  1.00  0.00     0.029 A 
ATOM     36  C   UNL A   1      43.079  33.144  33.027  1.00  0.00     0.049 A 
ATOM     37  H   UNL A   1      42.037  31.756  31.837  1.00  0.00     0.167 HD
ATOM     38  C   UNL A   1      40.724  33.967  33.138  1.00  0.00     0.074 A 
ATOM     39  C   UNL A   1      39.716  34.893  33.621  1.00  0.00     0.031 C 
ATOM     40  C   UNL A   1      42.044  34.060  33.436  1.00  0.00     0.034 A 
BRANCH  27  41
ATOM     41  C   UNL A   1      45.625  29.578  31.076  1.00  0.00     0.023 A 
ATOM     42  C   UNL A   1      46.504  29.943  30.036  1.00  0.00     0.012 A 
ATOM     43  C   UNL A   1      46.008  28.568  31.982  1.00  0.00     0.148 A 
ATOM     44  C   UNL A   1      47.723  29.283  29.875  1.00  0.00     0.002 A 
ATOM     45  C   UNL A   1      47.245  27.952  31.846  1.00  0.00     0.091 A 
ATOM     46  F   UNL A   1      45.144  28.210  32.940  1.00  0.00    -0.205 F 
ATOM     47  C   UNL A   1      48.097  28.295  30.784  1.00  0.00     0.022 A 
BRANCH  45  48
ATOM     48  S   UNL A   1      47.841  26.720  33.008  1.00  0.00     0.127 S 
ATOM     49  O   UNL A   1      49.164  26.414  32.460  1.00  0.00    -0.237 OA
ATOM     50  O   UNL A   1      47.863  27.475  34.263  1.00  0.00    -0.237 OA
ATOM     51  O   UNL A   1      46.884  25.629  32.969  1.00  0.00    -0.744 OA
ENDBRANCH  45  48
ENDBRANCH  27  41
BRANCH  28  52
ATOM     52  C   UNL A   1      36.232  33.259  31.836  1.00  0.00     0.023 A 
ATOM     53  C   UNL A   1      35.519  33.113  33.041  1.00  0.00     0.012 A 
ATOM     54  C   UNL A   1      35.620  33.933  30.758  1.00  0.00     0.148 A 
ATOM     55  C   UNL A   1      34.215  33.599  33.160  1.00  0.00     0.002 A 
ATOM     56  C   UNL A   1      34.345  34.467  30.903  1.00  0.00     0.091 A 
ATOM     57  F   UNL A   1      36.303  34.047  29.610  1.00  0.00    -0.205 F 
ATOM     58  C   UNL A   1      33.632  34.284  32.096  1.00  0.00     0.022 A 
BRANCH  56  59
ATOM     59  S   UNL A   1      33.573  35.471  29.629  1.00  0.00     0.127 S 
ATOM     60  O   UNL A   1      34.661  35.612  28.662  1.00  0.00    -0.237 OA
ATOM     61  O   UNL A   1      32.471  34.609  29.193  1.00  0.00    -0.237 OA
ATOM     62  O   UNL A   1      33.151  36.694  30.291  1.00  0.00    -0.744 OA
ENDBRANCH  56  59
ENDBRANCH  28  52
BRANCH  40  63
ATOM     63  C   UNL A   1      42.476  35.236  34.264  1.00  0.00     0.023 A 
ATOM     64  C   UNL A   1      42.880  36.433  33.643  1.00  0.00     0.012 A 
ATOM     65  C   UNL A   1      42.402  35.167  35.668  1.00  0.00     0.148 A 
ATOM     66  C   UNL A   1      43.244  37.535  34.413  1.00  0.00     0.002 A 
ATOM     67  C   UNL A   1      42.705  36.288  36.425  1.00  0.00     0.091 A 
ATOM     68  F   UNL A   1      42.032  34.008  36.234  1.00  0.00    -0.205 F 
ATOM     69  C   UNL A   1      43.142  37.467  35.801  1.00  0.00     0.022 A 
BRANCH  67  70
ATOM     70  S   UNL A   1      42.487  36.320  38.206  1.00  0.00     0.127 S 
ATOM     71  O   UNL A   1      43.151  37.572  38.564  1.00  0.00    -0.237 OA
ATOM     72  O   UNL A   1      41.030  36.341  38.339  1.00  0.00    -0.237 OA
ATOM     73  O   UNL A   1      43.121  35.109  38.710  1.00  0.00    -0.744 OA
ENDBRANCH  67  70
ENDBRANCH  40  63
ENDBRANCH  14  15
ENDBRANCH   7   9
ENDBRANCH   6   7
ENDBRANCH   5   6
ENDBRANCH   4   5
ENDBRANCH   3   4
ENDBRANCH   2   3
ENDBRANCH   1   2
BRANCH   1  74
ATOM     74  O   UNL A   1      42.918  19.020  24.845  1.00  0.00    -0.377 OA
BRANCH  74  75
ATOM     75  C   UNL A   1      44.311  19.094  25.075  1.00  0.00     0.188 C 
BRANCH  75  76
ATOM     76  C   UNL A   1      45.156  20.176  24.401  1.00  0.00     0.188 C 
BRANCH  76  77
ATOM     77  O   UNL A   1      44.531  21.105  23.551  1.00  0.00    -0.376 OA
BRANCH  77  78
ATOM     78  C   UNL A   1      44.897  22.475  23.636  1.00  0.00     0.202 C 
BRANCH  78  79
ATOM     79  C   UNL A   1      45.790  22.995  24.789  1.00  0.00     0.261 C 
BRANCH  79  80
ATOM     80  O   UNL A   1      46.576  24.196  24.562  1.00  0.00    -0.463 OA
BRANCH  80  81
ATOM     81  C   UNL A   1      47.282  24.714  25.607  1.00  0.00     0.312 C 
ATOM     82  O   UNL A   1      47.479  24.117  26.662  1.00  0.00    -0.252 OA
BRANCH  81  83
ATOM     83  C   UNL A   1      47.864  26.132  25.366  1.00  0.00     0.124 C 
ATOM     84  C   UNL A   1      47.007  27.100  24.613  1.00  0.00    -0.014 C 
ATOM     85  C   UNL A   1      49.235  26.263  24.644  1.00  0.00     0.048 C 
ATOM     86  C   UNL A   1      47.646  27.671  23.585  1.00  0.00    -0.006 C 
ATOM     87  C   UNL A   1      49.030  27.144  23.381  1.00  0.00     0.106 C 
BRANCH  87  88
ATOM     88  N   UNL A   1      48.997  26.461  22.098  1.00  0.00    -0.350 N 
ATOM     89  C   UNL A   1      49.504  26.814  20.878  1.00  0.00     0.223 C 
ATOM     90  H   UNL A   1      48.529  25.594  22.110  1.00  0.00     0.164 HD
ATOM     91  O   UNL A   1      49.042  26.268  19.875  1.00  0.00    -0.275 OA
BRANCH  89  92
ATOM     92  C   UNL A   1      50.624  27.833  20.755  1.00  0.00     0.083 C 
ATOM     93  C   UNL A   1      50.081  29.253  20.959  1.00  0.00     0.042 C 
ATOM     94  C   UNL A   1      51.265  27.757  19.364  1.00  0.00     0.042 C 
ATOM     95  C   UNL A   1      51.198  30.267  20.760  1.00  0.00     0.161 C 
ATOM     96  C   UNL A   1      52.327  28.842  19.224  1.00  0.00     0.161 C 
ATOM     97  O   UNL A   1      51.780  30.139  19.463  1.00  0.00    -0.381 OA
ENDBRANCH  89  92
ENDBRANCH  87  88
ENDBRANCH  81  83
ENDBRANCH  80  81
ENDBRANCH  79  80
ENDBRANCH  78  79
ENDBRANCH  77  78
ENDBRANCH  76  77
ENDBRANCH  75  76
ENDBRANCH  74  75
ENDBRANCH   1  74
TORSDOF 25
ENDMDL
MODEL 2
REMARK VINA RESULT:      -8.5      5.555     13.554
REMARK SMILES O=C(OCCOCCOCCOCCOC(=O)[C@@H]1C=C[C@H](NC(=O)C2CCOCC2)C1)c1ccc(-c2c3nc(c(-c4cccc(S(=O)(=O)[O-])c4F)c4ccc([nH]4)c(-c4cccc(S(=O)(=O)[O-])c4F)c4nc(c(-c5cccc(S(=O)(=O)[O-])c5F)c5ccc2[nH]5)C=C4)C=C3)cc1
REMARK SMILES IDX 8 1 7 2 6 3 5 4 4 5 3 6 2 7 1 8 32 9 33 10 94 11 34 12 93 13
REMARK SMILES IDX 35 14 36 15 37 16 87 17 38 18 92 19 86 20 88 21 39 22 91 23
REMARK SMILES IDX 85 24 84 25 40 27 72 28 52 29 71 30 53 31 56 32 70 33 89 34
REMARK SMILES IDX 54 35 55 36 69 38 90 39 57 40 41 41 42 42 50 43 43 44 45 45
REMARK SMILES IDX 51 46 44 47 46 48 47 49 48 50 49 51 73 52 74 53 82 54 75 55
REMARK SMILES IDX 77 56 83 57 76 58 78 59 79 60 80 61 81 62 58 63 59 64 67 65
REMARK SMILES IDX 60 66 62 67 68 68 61 69 63 70 64 71 65 72 66 73 9 74 10 75
REMARK SMILES IDX 11 76 12 77 13 78 14 79 15 80 16 81 17 82 18 83 19 84 31 85
REMARK SMILES IDX 20 86 21 87 22 88 23 89 24 91 25 92 26 93 30 94 27 95 29 96
REMARK SMILES IDX 28 97
REMARK H PARENT 88 26 56 37 22 90
REMARK Flexibility Score: inf
ROOT
ATOM      1  C   UNL A   1      34.324  34.538  29.206  1.00  0.00     0.188 C 
ENDROOT
BRANCH   1   2
ATOM      2  C   UNL A   1      35.024  33.920  30.400  1.00  0.00     0.188 C 
BRANCH   2   3
ATOM      3  O   UNL A   1      34.062  33.723  31.441  1.00  0.00    -0.376 OA
BRANCH   3   4
ATOM      4  C   UNL A   1      34.334  32.698  32.387  1.00  0.00     0.202 C 
BRANCH   4   5
ATOM      5  C   UNL A   1      35.465  33.047  33.358  1.00  0.00     0.261 C 
BRANCH   5   6
ATOM      6  O   UNL A   1      36.779  32.792  32.823  1.00  0.00    -0.460 OA
BRANCH   6   7
ATOM      7  C   UNL A   1      37.378  31.624  32.499  1.00  0.00     0.338 C 
ATOM      8  O   UNL A   1      36.741  30.575  32.569  1.00  0.00    -0.246 OA
BRANCH   7   9
ATOM      9  C   UNL A   1      38.770  31.565  31.976  1.00  0.00     0.060 A 
ATOM     10  C   UNL A   1      39.211  32.244  30.845  1.00  0.00     0.016 A 
ATOM     11  C   UNL A   1      39.702  30.796  32.687  1.00  0.00     0.016 A 
ATOM     12  C   UNL A   1      40.474  32.061  30.326  1.00  0.00     0.010 A 
ATOM     13  C   UNL A   1      40.995  30.617  32.189  1.00  0.00     0.010 A 
ATOM     14  C   UNL A   1      41.346  31.190  30.959  1.00  0.00    -0.014 A 
BRANCH  14  15
ATOM     15  C   UNL A   1      42.449  30.676  30.133  1.00  0.00     0.031 A 
ATOM     16  C   UNL A   1      42.164  29.461  29.299  1.00  0.00     0.074 A 
ATOM     17  C   UNL A   1      43.569  31.403  29.972  1.00  0.00     0.049 A 
ATOM     18  N   UNL A   1      42.959  28.790  28.515  1.00  0.00    -0.248 NA
ATOM     19  C   UNL A   1      40.786  28.933  29.344  1.00  0.00     0.031 C 
ATOM     20  C   UNL A   1      43.840  32.693  30.613  1.00  0.00     0.029 A 
ATOM     21  N   UNL A   1      44.668  31.180  29.191  1.00  0.00    -0.354 N 
ATOM     22  C   UNL A   1      42.207  27.714  28.057  1.00  0.00     0.074 A 
ATOM     23  C   UNL A   1      40.884  27.834  28.618  1.00  0.00     0.031 C 
ATOM     24  C   UNL A   1      45.026  33.153  30.186  1.00  0.00     0.029 A 
ATOM     25  C   UNL A   1      45.630  32.153  29.316  1.00  0.00     0.049 A 
ATOM     26  H   UNL A   1      44.760  30.400  28.597  1.00  0.00     0.167 HD
ATOM     27  C   UNL A   1      42.604  26.707  27.250  1.00  0.00     0.034 A 
ATOM     28  C   UNL A   1      46.878  32.191  28.814  1.00  0.00     0.034 A 
ATOM     29  C   UNL A   1      43.918  26.649  26.677  1.00  0.00     0.049 A 
ATOM     30  C   UNL A   1      47.316  31.029  27.964  1.00  0.00     0.074 A 
ATOM     31  C   UNL A   1      44.470  25.673  25.873  1.00  0.00     0.029 A 
ATOM     32  N   UNL A   1      44.888  27.627  26.858  1.00  0.00    -0.354 N 
ATOM     33  N   UNL A   1      46.620  29.987  27.570  1.00  0.00    -0.248 NA
ATOM     34  C   UNL A   1      48.701  31.047  27.482  1.00  0.00     0.031 C 
ATOM     35  C   UNL A   1      45.791  26.043  25.600  1.00  0.00     0.029 A 
ATOM     36  C   UNL A   1      46.042  27.275  26.190  1.00  0.00     0.049 A 
ATOM     37  H   UNL A   1      44.770  28.449  27.386  1.00  0.00     0.167 HD
ATOM     38  C   UNL A   1      47.470  29.241  26.766  1.00  0.00     0.074 A 
ATOM     39  C   UNL A   1      48.727  29.966  26.715  1.00  0.00     0.031 C 
ATOM     40  C   UNL A   1      47.249  28.062  26.134  1.00  0.00     0.034 A 
BRANCH  27  41
ATOM     41  C   UNL A   1      41.636  25.577  27.026  1.00  0.00     0.023 A 
ATOM     42  C   UNL A   1      40.315  25.824  26.599  1.00  0.00     0.012 A 
ATOM     43  C   UNL A   1      42.043  24.253  27.283  1.00  0.00     0.148 A 
ATOM     44  C   UNL A   1      39.403  24.774  26.473  1.00  0.00     0.002 A 
ATOM     45  C   UNL A   1      41.145  23.208  27.106  1.00  0.00     0.091 A 
ATOM     46  F   UNL A   1      43.290  24.043  27.724  1.00  0.00    -0.205 F 
ATOM     47  C   UNL A   1      39.820  23.468  26.718  1.00  0.00     0.022 A 
BRANCH  45  48
ATOM     48  S   UNL A   1      41.610  21.489  27.330  1.00  0.00     0.127 S 
ATOM     49  O   UNL A   1      42.216  21.177  26.033  1.00  0.00    -0.237 OA
ATOM     50  O   UNL A   1      42.562  21.577  28.439  1.00  0.00    -0.237 OA
ATOM     51  O   UNL A   1      40.385  20.772  27.632  1.00  0.00    -0.744 OA
ENDBRANCH  45  48
ENDBRANCH  27  41
BRANCH  28  52
ATOM     52  C   UNL A   1      47.789  33.330  29.124  1.00  0.00     0.023 A 
ATOM     53  C   UNL A   1      48.607  33.284  30.268  1.00  0.00     0.012 A 
ATOM     54  C   UNL A   1      47.857  34.459  28.280  1.00  0.00     0.148 A 
ATOM     55  C   UNL A   1      49.451  34.352  30.583  1.00  0.00     0.002 A 
ATOM     56  C   UNL A   1      48.742  35.491  28.567  1.00  0.00     0.091 A 
ATOM     57  F   UNL A   1      47.057  34.497  27.205  1.00  0.00    -0.205 F 
ATOM     58  C   UNL A   1      49.526  35.449  29.728  1.00  0.00     0.022 A 
BRANCH  56  59
ATOM     59  S   UNL A   1      48.993  36.878  27.454  1.00  0.00     0.127 S 
ATOM     60  O   UNL A   1      47.701  37.559  27.530  1.00  0.00    -0.237 OA
ATOM     61  O   UNL A   1      50.100  37.587  28.101  1.00  0.00    -0.237 OA
ATOM     62  O   UNL A   1      49.327  36.296  26.164  1.00  0.00    -0.744 OA
ENDBRANCH  56  59
ENDBRANCH  28  52
BRANCH  40  63
ATOM     63  C   UNL A   1      48.364  27.524  25.284  1.00  0.00     0.023 A 
ATOM     64  C   UNL A   1      48.322  27.665  23.884  1.00  0.00     0.012 A 
ATOM     65  C   UNL A   1      49.492  26.945  25.895  1.00  0.00     0.148 A 
ATOM     66  C   UNL A   1      49.375  27.199  23.100  1.00  0.00     0.002 A 
ATOM     67  C   UNL A   1      50.562  26.540  25.112  1.00  0.00     0.091 A 
ATOM     68  F   UNL A   1      49.497  26.804  27.229  1.00  0.00    -0.205 F 
ATOM     69  C   UNL A   1      50.500  26.651  23.714  1.00  0.00     0.022 A 
BRANCH  67  70
ATOM     70  S   UNL A   1      52.091  25.936  25.831  1.00  0.00     0.127 S 
ATOM     71  O   UNL A   1      51.626  24.776  26.588  1.00  0.00    -0.237 OA
ATOM     72  O   UNL A   1      52.884  25.613  24.644  1.00  0.00    -0.237 OA
ATOM     73  O   UNL A   1      52.621  27.033  26.629  1.00  0.00    -0.744 OA
ENDBRANCH  67  70
ENDBRANCH  40  63
ENDBRANCH  14  15
ENDBRANCH   7   9
ENDBRANCH   6   7
ENDBRANCH   5   6
ENDBRANCH   4   5
ENDBRANCH   3   4
ENDBRANCH   2   3
ENDBRANCH   1   2
BRANCH   1  74
ATOM     74  O   UNL A   1      34.530  33.880  27.962  1.00  0.00    -0.377 OA
BRANCH  74  75
ATOM     75  C   UNL A   1      34.992  32.543  27.970  1.00  0.00     0.188 C 
BRANCH  75  76
ATOM     76  C   UNL A   1      34.005  31.378  28.060  1.00  0.00     0.188 C 
BRANCH  76  77
ATOM     77  O   UNL A   1      32.962  31.288  27.120  1.00  0.00    -0.376 OA
BRANCH  77  78
ATOM     78  C   UNL A   1      32.376  30.022  26.858  1.00  0.00     0.202 C 
BRANCH  78  79
ATOM     79  C   UNL A   1      32.621  29.287  25.518  1.00  0.00     0.261 C 
BRANCH  79  80
ATOM     80  O   UNL A   1      31.561  29.295  24.524  1.00  0.00    -0.463 OA
BRANCH  80  81
ATOM     81  C   UNL A   1      31.818  28.753  23.299  1.00  0.00     0.312 C 
ATOM     82  O   UNL A   1      32.813  29.017  22.631  1.00  0.00    -0.252 OA
BRANCH  81  83
ATOM     83  C   UNL A   1      30.763  27.729  22.803  1.00  0.00     0.124 C 
ATOM     84  C   UNL A   1      29.374  27.870  23.338  1.00  0.00    -0.014 C 
ATOM     85  C   UNL A   1      31.047  26.212  22.995  1.00  0.00     0.048 C 
ATOM     86  C   UNL A   1      28.890  26.727  23.840  1.00  0.00    -0.006 C 
ATOM     87  C   UNL A   1      29.881  25.608  23.826  1.00  0.00     0.106 C 
BRANCH  87  88
ATOM     88  N   UNL A   1      30.151  25.314  25.224  1.00  0.00    -0.350 N 
ATOM     89  C   UNL A   1      30.686  24.208  25.822  1.00  0.00     0.223 C 
ATOM     90  H   UNL A   1      29.905  26.036  25.847  1.00  0.00     0.164 HD
ATOM     91  O   UNL A   1      30.479  24.038  27.025  1.00  0.00    -0.275 OA
BRANCH  89  92
ATOM     92  C   UNL A   1      31.537  23.222  25.039  1.00  0.00     0.083 C 
ATOM     93  C   UNL A   1      31.478  21.832  25.687  1.00  0.00     0.042 C 
ATOM     94  C   UNL A   1      33.000  23.681  25.014  1.00  0.00     0.042 C 
ATOM     95  C   UNL A   1      32.392  20.875  24.937  1.00  0.00     0.161 C 
ATOM     96  C   UNL A   1      33.857  22.639  24.301  1.00  0.00     0.161 C 
ATOM     97  O   UNL A   1      33.735  21.357  24.917  1.00  0.00    -0.381 OA
ENDBRANCH  89  92
ENDBRANCH  87  88
ENDBRANCH  81  83
ENDBRANCH  80  81
ENDBRANCH  79  80
ENDBRANCH  78  79
ENDBRANCH  77  78
ENDBRANCH  76  77
ENDBRANCH  75  76
ENDBRANCH  74  75
ENDBRANCH   1  74
TORSDOF 25
ENDMDL
MODEL 3
REMARK VINA RESULT:      -8.5      1.787      2.062
REMARK SMILES O=C(OCCOCCOCCOCCOC(=O)[C@@H]1C=C[C@H](NC(=O)C2CCOCC2)C1)c1ccc(-c2c3nc(c(-c4cccc(S(=O)(=O)[O-])c4F)c4ccc([nH]4)c(-c4cccc(S(=O)(=O)[O-])c4F)c4nc(c(-c5cccc(S(=O)(=O)[O-])c5F)c5ccc2[nH]5)C=C4)C=C3)cc1
REMARK SMILES IDX 8 1 7 2 6 3 5 4 4 5 3 6 2 7 1 8 32 9 33 10 94 11 34 12 93 13
REMARK SMILES IDX 35 14 36 15 37 16 87 17 38 18 92 19 86 20 88 21 39 22 91 23
REMARK SMILES IDX 85 24 84 25 40 27 72 28 52 29 71 30 53 31 56 32 70 33 89 34
REMARK SMILES IDX 54 35 55 36 69 38 90 39 57 40 41 41 42 42 50 43 43 44 45 45
REMARK SMILES IDX 51 46 44 47 46 48 47 49 48 50 49 51 73 52 74 53 82 54 75 55
REMARK SMILES IDX 77 56 83 57 76 58 78 59 79 60 80 61 81 62 58 63 59 64 67 65
REMARK SMILES IDX 60 66 62 67 68 68 61 69 63 70 64 71 65 72 66 73 9 74 10 75
REMARK SMILES IDX 11 76 12 77 13 78 14 79 15 80 16 81 17 82 18 83 19 84 31 85
REMARK SMILES IDX 20 86 21 87 22 88 23 89 24 91 25 92 26 93 30 94 27 95 29 96
REMARK SMILES IDX 28 97
REMARK H PARENT 88 26 56 37 22 90
REMARK Flexibility Score: inf
ROOT
ATOM      1  C   UNL A   1      42.010  19.249  25.863  1.00  0.00     0.188 C 
ENDROOT
BRANCH   1   2
ATOM      2  C   UNL A   1      42.533  20.154  26.960  1.00  0.00     0.188 C 
BRANCH   2   3
ATOM      3  O   UNL A   1      42.797  21.445  26.401  1.00  0.00    -0.376 OA
BRANCH   3   4
ATOM      4  C   UNL A   1      43.121  22.489  27.309  1.00  0.00     0.202 C 
BRANCH   4   5
ATOM      5  C   UNL A   1      41.901  23.270  27.802  1.00  0.00     0.261 C 
BRANCH   5   6
ATOM      6  O   UNL A   1      40.858  23.390  26.814  1.00  0.00    -0.460 OA
BRANCH   6   7
ATOM      7  C   UNL A   1      39.657  24.006  26.884  1.00  0.00     0.338 C 
ATOM      8  O   UNL A   1      38.666  23.461  26.402  1.00  0.00    -0.246 OA
BRANCH   7   9
ATOM      9  C   UNL A   1      39.468  25.296  27.601  1.00  0.00     0.060 A 
ATOM     10  C   UNL A   1      39.702  26.547  27.038  1.00  0.00     0.016 A 
ATOM     11  C   UNL A   1      38.998  25.247  28.921  1.00  0.00     0.016 A 
ATOM     12  C   UNL A   1      39.635  27.708  27.776  1.00  0.00     0.010 A 
ATOM     13  C   UNL A   1      38.902  26.417  29.680  1.00  0.00     0.010 A 
ATOM     14  C   UNL A   1      39.303  27.637  29.120  1.00  0.00    -0.014 A 
BRANCH  14  15
ATOM     15  C   UNL A   1      39.708  28.789  29.940  1.00  0.00     0.031 A 
ATOM     16  C   UNL A   1      41.181  28.983  30.158  1.00  0.00     0.074 A 
ATOM     17  C   UNL A   1      38.809  29.731  30.274  1.00  0.00     0.049 A 
ATOM     18  N   UNL A   1      41.801  29.887  30.860  1.00  0.00    -0.248 NA
ATOM     19  C   UNL A   1      42.083  28.032  29.478  1.00  0.00     0.031 C 
ATOM     20  C   UNL A   1      37.383  29.699  29.934  1.00  0.00     0.029 A 
ATOM     21  N   UNL A   1      38.968  30.916  30.935  1.00  0.00    -0.354 N 
ATOM     22  C   UNL A   1      43.149  29.555  30.786  1.00  0.00     0.074 A 
ATOM     23  C   UNL A   1      43.267  28.389  29.945  1.00  0.00     0.031 C 
ATOM     24  C   UNL A   1      36.802  30.822  30.380  1.00  0.00     0.029 A 
ATOM     25  C   UNL A   1      37.792  31.605  31.108  1.00  0.00     0.049 A 
ATOM     26  H   UNL A   1      39.839  31.244  31.255  1.00  0.00     0.167 HD
ATOM     27  C   UNL A   1      44.190  30.168  31.389  1.00  0.00     0.034 A 
ATOM     28  C   UNL A   1      37.551  32.720  31.822  1.00  0.00     0.034 A 
ATOM     29  C   UNL A   1      44.034  31.352  32.182  1.00  0.00     0.049 A 
ATOM     30  C   UNL A   1      38.718  33.352  32.530  1.00  0.00     0.074 A 
ATOM     31  C   UNL A   1      44.992  32.059  32.880  1.00  0.00     0.029 A 
ATOM     32  N   UNL A   1      42.822  32.003  32.378  1.00  0.00    -0.354 N 
ATOM     33  N   UNL A   1      39.985  33.009  32.499  1.00  0.00    -0.248 NA
ATOM     34  C   UNL A   1      38.430  34.525  33.362  1.00  0.00     0.031 C 
ATOM     35  C   UNL A   1      44.349  33.118  33.532  1.00  0.00     0.029 A 
ATOM     36  C   UNL A   1      43.002  33.100  33.194  1.00  0.00     0.049 A 
ATOM     37  H   UNL A   1      41.962  31.722  31.990  1.00  0.00     0.167 HD
ATOM     38  C   UNL A   1      40.653  33.943  33.279  1.00  0.00     0.074 A 
ATOM     39  C   UNL A   1      39.647  34.876  33.751  1.00  0.00     0.031 C 
ATOM     40  C   UNL A   1      41.970  34.024  33.592  1.00  0.00     0.034 A 
BRANCH  27  41
ATOM     41  C   UNL A   1      45.540  29.515  31.270  1.00  0.00     0.023 A 
ATOM     42  C   UNL A   1      45.987  28.586  32.231  1.00  0.00     0.012 A 
ATOM     43  C   UNL A   1      46.389  29.865  30.200  1.00  0.00     0.148 A 
ATOM     44  C   UNL A   1      47.274  28.049  32.153  1.00  0.00     0.002 A 
ATOM     45  C   UNL A   1      47.648  29.288  30.101  1.00  0.00     0.091 A 
ATOM     46  F   UNL A   1      45.961  30.778  29.319  1.00  0.00    -0.205 F 
ATOM     47  C   UNL A   1      48.099  28.393  31.084  1.00  0.00     0.022 A 
BRANCH  45  48
ATOM     48  S   UNL A   1      48.753  29.616  28.724  1.00  0.00     0.127 S 
ATOM     49  O   UNL A   1      47.874  30.348  27.809  1.00  0.00    -0.237 OA
ATOM     50  O   UNL A   1      49.788  30.436  29.358  1.00  0.00    -0.237 OA
ATOM     51  O   UNL A   1      49.205  28.321  28.248  1.00  0.00    -0.744 OA
ENDBRANCH  45  48
ENDBRANCH  27  41
BRANCH  28  52
ATOM     52  C   UNL A   1      36.170  33.275  31.923  1.00  0.00     0.023 A 
ATOM     53  C   UNL A   1      35.437  33.122  33.115  1.00  0.00     0.012 A 
ATOM     54  C   UNL A   1      35.582  33.966  30.843  1.00  0.00     0.148 A 
ATOM     55  C   UNL A   1      34.136  33.619  33.219  1.00  0.00     0.002 A 
ATOM     56  C   UNL A   1      34.310  34.510  30.973  1.00  0.00     0.091 A 
ATOM     57  F   UNL A   1      36.284  34.086  29.707  1.00  0.00    -0.205 F 
ATOM     58  C   UNL A   1      33.577  34.321  32.153  1.00  0.00     0.022 A 
BRANCH  56  59
ATOM     59  S   UNL A   1      33.567  35.535  29.699  1.00  0.00     0.127 S 
ATOM     60  O   UNL A   1      34.679  35.698  28.763  1.00  0.00    -0.237 OA
ATOM     61  O   UNL A   1      32.481  34.677  29.218  1.00  0.00    -0.237 OA
ATOM     62  O   UNL A   1      33.122  36.744  30.372  1.00  0.00    -0.744 OA
ENDBRANCH  56  59
ENDBRANCH  28  52
BRANCH  40  63
ATOM     63  C   UNL A   1      42.402  35.196  34.428  1.00  0.00     0.023 A 
ATOM     64  C   UNL A   1      42.446  35.089  35.831  1.00  0.00     0.012 A 
ATOM     65  C   UNL A   1      42.836  36.378  33.801  1.00  0.00     0.148 A 
ATOM     66  C   UNL A   1      42.882  36.165  36.602  1.00  0.00     0.002 A 
ATOM     67  C   UNL A   1      43.328  37.420  34.572  1.00  0.00     0.091 A 
ATOM     68  F   UNL A   1      42.765  36.459  32.464  1.00  0.00    -0.205 F 
ATOM     69  C   UNL A   1      43.337  37.322  35.973  1.00  0.00     0.022 A 
BRANCH  67  70
ATOM     70  S   UNL A   1      44.040  38.894  33.837  1.00  0.00     0.127 S 
ATOM     71  O   UNL A   1      42.864  39.749  33.687  1.00  0.00    -0.237 OA
ATOM     72  O   UNL A   1      44.983  39.329  34.868  1.00  0.00    -0.237 OA
ATOM     73  O   UNL A   1      44.663  38.461  32.594  1.00  0.00    -0.744 OA
ENDBRANCH  67  70
ENDBRANCH  40  63
ENDBRANCH  14  15
ENDBRANCH   7   9
ENDBRANCH   6   7
ENDBRANCH   5   6
ENDBRANCH   4   5
ENDBRANCH   3   4
ENDBRANCH   2   3
ENDBRANCH   1   2
BRANCH   1  74
ATOM     74  O   UNL A   1      42.908  19.003  24.787  1.00  0.00    -0.377 OA
BRANCH  74  75
ATOM     75  C   UNL A   1      44.298  19.031  25.044  1.00  0.00     0.188 C 
BRANCH  75  76
ATOM     76  C   UNL A   1      45.160  20.191  24.545  1.00  0.00     0.188 C 
BRANCH  76  77
ATOM     77  O   UNL A   1      44.617  21.103  23.623  1.00  0.00    -0.376 OA
BRANCH  77  78
ATOM     78  C   UNL A   1      45.035  22.459  23.664  1.00  0.00     0.202 C 
BRANCH  78  79
ATOM     79  C   UNL A   1      45.840  23.013  24.865  1.00  0.00     0.261 C 
BRANCH  79  80
ATOM     80  O   UNL A   1      46.664  24.192  24.656  1.00  0.00    -0.463 OA
BRANCH  80  81
ATOM     81  C   UNL A   1      47.274  24.755  25.738  1.00  0.00     0.312 C 
ATOM     82  O   UNL A   1      47.411  24.186  26.818  1.00  0.00    -0.252 OA
BRANCH  81  83
ATOM     83  C   UNL A   1      47.828  26.186  25.507  1.00  0.00     0.124 C 
ATOM     84  C   UNL A   1      46.933  27.155  24.802  1.00  0.00    -0.014 C 
ATOM     85  C   UNL A   1      49.173  26.351  24.744  1.00  0.00     0.048 C 
ATOM     86  C   UNL A   1      47.531  27.756  23.766  1.00  0.00    -0.006 C 
ATOM     87  C   UNL A   1      48.914  27.254  23.507  1.00  0.00     0.106 C 
BRANCH  87  88
ATOM     88  N   UNL A   1      48.850  26.596  22.212  1.00  0.00    -0.350 N 
ATOM     89  C   UNL A   1      49.543  26.819  21.055  1.00  0.00     0.223 C 
ATOM     90  H   UNL A   1      48.194  25.863  22.160  1.00  0.00     0.164 HD
ATOM     91  O   UNL A   1      49.068  26.395  20.000  1.00  0.00    -0.275 OA
BRANCH  89  92
ATOM     92  C   UNL A   1      50.876  27.548  21.062  1.00  0.00     0.083 C 
ATOM     93  C   UNL A   1      51.046  28.367  19.776  1.00  0.00     0.042 C 
ATOM     94  C   UNL A   1      52.033  26.544  21.151  1.00  0.00     0.042 C 
ATOM     95  C   UNL A   1      52.415  29.031  19.764  1.00  0.00     0.161 C 
ATOM     96  C   UNL A   1      53.365  27.282  21.069  1.00  0.00     0.161 C 
ATOM     97  O   UNL A   1      53.456  28.060  19.876  1.00  0.00    -0.381 OA
ENDBRANCH  89  92
ENDBRANCH  87  88
ENDBRANCH  81  83
ENDBRANCH  80  81
ENDBRANCH  79  80
ENDBRANCH  78  79
ENDBRANCH  77  78
ENDBRANCH  76  77
ENDBRANCH  75  76
ENDBRANCH  74  75
ENDBRANCH   1  74
TORSDOF 25
ENDMDL
