MODEL 1
REMARK VINA RESULT:      -7.9      0.000      0.000
REMARK SMILES Nc1ccc(S[C@@H](C(=O)OCCOCCOCCOCCOC(=O)c2ccc(-c3c4nc(c(-c5cccc(S(=O)(=O)[O-])c5F)c5ccc([nH]5)c(-c5cccc(S(=O)(=O)[O-])c5F)c5nc(c(-c6cccc(S(=O)(=O)[O-])c6F)c6ccc3[nH]6)C=C5)C=C4)cc2)C2CC2)cc1F
REMARK SMILES IDX 16 1 15 2 14 3 13 4 12 5 11 6 10 7 8 8 9 9 7 10 6 11 5 12
REMARK SMILES IDX 2 13 3 14 92 15 4 16 91 17 93 18 1 19 88 22 89 23 90 24
REMARK SMILES IDX 17 25 18 26 19 27 20 28 21 29 22 30 23 31 24 32 25 33 26 34
REMARK SMILES IDX 87 35 27 36 86 37 28 38 29 39 30 40 80 41 31 42 85 43 79 44
REMARK SMILES IDX 81 45 32 46 84 47 78 48 77 49 33 51 65 52 45 53 64 54 46 55
REMARK SMILES IDX 49 56 63 57 82 58 47 59 48 60 62 62 83 63 50 64 34 65 35 66
REMARK SMILES IDX 43 67 36 68 38 69 44 70 37 71 39 72 40 73 41 74 42 75 66 76
REMARK SMILES IDX 67 77 75 78 68 79 70 80 76 81 69 82 71 83 72 84 73 85 74 86
REMARK SMILES IDX 51 87 52 88 60 89 53 90 55 91 61 92 54 93 56 94 57 95 58 96
REMARK SMILES IDX 59 97
REMARK H PARENT 1 20 1 21 81 50 49 61
REMARK Flexibility Score: inf
ROOT
ATOM      1  O   UNL A   1      40.929  26.459  27.115  1.00  0.00    -0.377 OA
ENDROOT
BRANCH   1   2
ATOM      2  C   UNL A   1      39.691  25.955  27.560  1.00  0.00     0.188 C 
BRANCH   2   3
ATOM      3  C   UNL A   1      39.133  24.536  27.307  1.00  0.00     0.188 C 
BRANCH   3   4
ATOM      4  O   UNL A   1      38.467  24.281  26.092  1.00  0.00    -0.376 OA
BRANCH   4   5
ATOM      5  C   UNL A   1      37.246  23.568  26.034  1.00  0.00     0.202 C 
BRANCH   5   6
ATOM      6  C   UNL A   1      36.053  23.932  25.129  1.00  0.00     0.261 C 
BRANCH   6   7
ATOM      7  O   UNL A   1      35.053  22.917  24.920  1.00  0.00    -0.462 OA
BRANCH   7   8
ATOM      8  C   UNL A   1      33.815  23.129  25.410  1.00  0.00     0.319 C 
ATOM      9  O   UNL A   1      33.643  23.763  26.449  1.00  0.00    -0.251 OA
BRANCH   8  10
ATOM     10  C   UNL A   1      32.634  22.524  24.606  1.00  0.00     0.164 C 
BRANCH  10  11
ATOM     11  S   UNL A   1      31.179  23.576  24.113  1.00  0.00    -0.110 SA
BRANCH  11  12
ATOM     12  C   UNL A   1      31.570  25.297  23.725  1.00  0.00     0.011 A 
ATOM     13  C   UNL A   1      31.816  27.996  22.772  1.00  0.00     0.068 A 
ATOM     14  C   UNL A   1      32.866  27.097  22.661  1.00  0.00     0.030 A 
ATOM     15  C   UNL A   1      30.693  27.575  23.490  1.00  0.00     0.147 A 
ATOM     16  C   UNL A   1      32.737  25.776  23.136  1.00  0.00     0.017 A 
ATOM     17  C   UNL A   1      30.557  26.251  23.942  1.00  0.00     0.056 A 
ATOM     18  F   UNL A   1      29.678  28.437  23.674  1.00  0.00    -0.205 F 
BRANCH  13  19
ATOM     19  N   UNL A   1      31.927  29.280  22.248  1.00  0.00    -0.396 N 
ATOM     20  H   UNL A   1      32.772  29.572  21.836  1.00  0.00     0.156 HD
ATOM     21  H   UNL A   1      31.161  29.896  22.289  1.00  0.00     0.156 HD
ENDBRANCH  13  19
ENDBRANCH  11  12
ENDBRANCH  10  11
BRANCH  10  22
ATOM     22  C   UNL A   1      32.308  21.066  24.828  1.00  0.00     0.014 C 
ATOM     23  C   UNL A   1      32.745  19.985  23.851  1.00  0.00     0.006 C 
ATOM     24  C   UNL A   1      33.280  19.976  25.240  1.00  0.00     0.006 C 
ENDBRANCH  10  22
ENDBRANCH   8  10
ENDBRANCH   7   8
ENDBRANCH   6   7
ENDBRANCH   5   6
ENDBRANCH   4   5
ENDBRANCH   3   4
ENDBRANCH   2   3
ENDBRANCH   1   2
BRANCH   1  25
ATOM     25  C   UNL A   1      40.951  27.768  26.617  1.00  0.00     0.188 C 
BRANCH  25  26
ATOM     26  C   UNL A   1      40.396  28.758  27.644  1.00  0.00     0.188 C 
BRANCH  26  27
ATOM     27  O   UNL A   1      39.014  29.042  27.464  1.00  0.00    -0.376 OA
BRANCH  27  28
ATOM     28  C   UNL A   1      38.276  29.642  28.525  1.00  0.00     0.202 C 
BRANCH  28  29
ATOM     29  C   UNL A   1      38.023  28.949  29.878  1.00  0.00     0.261 C 
BRANCH  29  30
ATOM     30  O   UNL A   1      36.979  29.442  30.713  1.00  0.00    -0.460 OA
BRANCH  30  31
ATOM     31  C   UNL A   1      37.288  29.965  31.906  1.00  0.00     0.338 C 
ATOM     32  O   UNL A   1      36.557  30.587  32.660  1.00  0.00    -0.246 OA
BRANCH  31  33
ATOM     33  C   UNL A   1      38.618  29.418  32.225  1.00  0.00     0.060 A 
ATOM     34  C   UNL A   1      39.693  30.309  32.330  1.00  0.00     0.016 A 
ATOM     35  C   UNL A   1      38.775  28.060  32.531  1.00  0.00     0.016 A 
ATOM     36  C   UNL A   1      40.937  29.841  32.730  1.00  0.00     0.010 A 
ATOM     37  C   UNL A   1      40.033  27.583  32.890  1.00  0.00     0.010 A 
ATOM     38  C   UNL A   1      41.120  28.472  32.954  1.00  0.00    -0.014 A 
BRANCH  38  39
ATOM     39  C   UNL A   1      42.498  27.949  32.964  1.00  0.00     0.031 A 
ATOM     40  C   UNL A   1      43.123  27.710  34.308  1.00  0.00     0.074 A 
ATOM     41  C   UNL A   1      43.140  27.654  31.824  1.00  0.00     0.049 A 
ATOM     42  N   UNL A   1      44.307  27.249  34.601  1.00  0.00    -0.248 NA
ATOM     43  C   UNL A   1      42.293  28.033  35.485  1.00  0.00     0.031 C 
ATOM     44  C   UNL A   1      42.598  27.827  30.477  1.00  0.00     0.029 A 
ATOM     45  N   UNL A   1      44.401  27.158  31.622  1.00  0.00    -0.354 N 
ATOM     46  C   UNL A   1      44.376  27.255  35.988  1.00  0.00     0.074 A 
ATOM     47  C   UNL A   1      43.122  27.771  36.483  1.00  0.00     0.031 C 
ATOM     48  C   UNL A   1      43.538  27.470  29.583  1.00  0.00     0.029 A 
ATOM     49  C   UNL A   1      44.749  27.072  30.296  1.00  0.00     0.049 A 
ATOM     50  H   UNL A   1      45.000  26.891  32.356  1.00  0.00     0.167 HD
ATOM     51  C   UNL A   1      45.395  26.855  36.780  1.00  0.00     0.034 A 
ATOM     52  C   UNL A   1      45.927  26.736  29.736  1.00  0.00     0.034 A 
ATOM     53  C   UNL A   1      46.636  26.349  36.267  1.00  0.00     0.049 A 
ATOM     54  C   UNL A   1      47.065  26.336  30.640  1.00  0.00     0.074 A 
ATOM     55  C   UNL A   1      47.733  25.890  36.969  1.00  0.00     0.029 A 
ATOM     56  N   UNL A   1      46.948  26.256  34.918  1.00  0.00    -0.354 N 
ATOM     57  N   UNL A   1      47.091  26.257  31.950  1.00  0.00    -0.248 NA
ATOM     58  C   UNL A   1      48.325  25.949  29.992  1.00  0.00     0.031 C 
ATOM     59  C   UNL A   1      48.729  25.562  36.043  1.00  0.00     0.029 A 
ATOM     60  C   UNL A   1      48.230  25.762  34.765  1.00  0.00     0.049 A 
ATOM     61  H   UNL A   1      46.347  26.505  34.180  1.00  0.00     0.167 HD
ATOM     62  C   UNL A   1      48.350  25.770  32.281  1.00  0.00     0.074 A 
ATOM     63  C   UNL A   1      49.054  25.563  31.030  1.00  0.00     0.031 C 
ATOM     64  C   UNL A   1      48.882  25.522  33.503  1.00  0.00     0.034 A 
BRANCH  51  65
ATOM     65  C   UNL A   1      45.209  26.967  38.268  1.00  0.00     0.023 A 
ATOM     66  C   UNL A   1      44.836  25.835  39.023  1.00  0.00     0.012 A 
ATOM     67  C   UNL A   1      45.430  28.192  38.924  1.00  0.00     0.148 A 
ATOM     68  C   UNL A   1      44.654  25.931  40.401  1.00  0.00     0.002 A 
ATOM     69  C   UNL A   1      45.297  28.268  40.305  1.00  0.00     0.091 A 
ATOM     70  F   UNL A   1      45.752  29.263  38.185  1.00  0.00    -0.205 F 
ATOM     71  C   UNL A   1      44.895  27.143  41.043  1.00  0.00     0.022 A 
BRANCH  69  72
ATOM     72  S   UNL A   1      45.660  29.762  41.231  1.00  0.00     0.127 S 
ATOM     73  O   UNL A   1      46.980  30.118  40.712  1.00  0.00    -0.237 OA
ATOM     74  O   UNL A   1      44.577  30.651  40.810  1.00  0.00    -0.237 OA
ATOM     75  O   UNL A   1      45.627  29.384  42.637  1.00  0.00    -0.744 OA
ENDBRANCH  69  72
ENDBRANCH  51  65
BRANCH  52  76
ATOM     76  C   UNL A   1      46.084  26.750  28.254  1.00  0.00     0.023 A 
ATOM     77  C   UNL A   1      46.424  27.948  27.595  1.00  0.00     0.012 A 
ATOM     78  C   UNL A   1      45.912  25.576  27.495  1.00  0.00     0.148 A 
ATOM     79  C   UNL A   1      46.557  27.982  26.206  1.00  0.00     0.002 A 
ATOM     80  C   UNL A   1      46.101  25.604  26.120  1.00  0.00     0.091 A 
ATOM     81  F   UNL A   1      45.576  24.449  28.140  1.00  0.00    -0.205 F 
ATOM     82  C   UNL A   1      46.404  26.811  25.469  1.00  0.00     0.022 A 
BRANCH  80  83
ATOM     83  S   UNL A   1      46.050  24.122  25.107  1.00  0.00     0.127 S 
ATOM     84  O   UNL A   1      44.640  24.066  24.729  1.00  0.00    -0.237 OA
ATOM     85  O   UNL A   1      46.967  24.470  24.021  1.00  0.00    -0.237 OA
ATOM     86  O   UNL A   1      46.517  23.040  25.965  1.00  0.00    -0.744 OA
ENDBRANCH  80  83
ENDBRANCH  52  76
BRANCH  64  87
ATOM     87  C   UNL A   1      50.269  24.938  33.555  1.00  0.00     0.023 A 
ATOM     88  C   UNL A   1      51.393  25.781  33.634  1.00  0.00     0.012 A 
ATOM     89  C   UNL A   1      50.442  23.541  33.615  1.00  0.00     0.148 A 
ATOM     90  C   UNL A   1      52.674  25.241  33.738  1.00  0.00     0.002 A 
ATOM     91  C   UNL A   1      51.715  23.012  33.778  1.00  0.00     0.091 A 
ATOM     92  F   UNL A   1      49.358  22.757  33.525  1.00  0.00    -0.205 F 
ATOM     93  C   UNL A   1      52.834  23.861  33.823  1.00  0.00     0.022 A 
BRANCH  91  94
ATOM     94  S   UNL A   1      52.005  21.255  34.005  1.00  0.00     0.127 S 
ATOM     95  O   UNL A   1      51.269  20.990  35.240  1.00  0.00    -0.237 OA
ATOM     96  O   UNL A   1      51.401  20.685  32.801  1.00  0.00    -0.237 OA
ATOM     97  O   UNL A   1      53.450  21.092  34.095  1.00  0.00    -0.744 OA
ENDBRANCH  91  94
ENDBRANCH  64  87
ENDBRANCH  38  39
ENDBRANCH  31  33
ENDBRANCH  30  31
ENDBRANCH  29  30
ENDBRANCH  28  29
ENDBRANCH  27  28
ENDBRANCH  26  27
ENDBRANCH  25  26
ENDBRANCH   1  25
TORSDOF 27
ENDMDL
MODEL 2
REMARK VINA RESULT:      -7.7      6.345     10.414
REMARK SMILES Nc1ccc(S[C@@H](C(=O)OCCOCCOCCOCCOC(=O)c2ccc(-c3c4nc(c(-c5cccc(S(=O)(=O)[O-])c5F)c5ccc([nH]5)c(-c5cccc(S(=O)(=O)[O-])c5F)c5nc(c(-c6cccc(S(=O)(=O)[O-])c6F)c6ccc3[nH]6)C=C5)C=C4)cc2)C2CC2)cc1F
REMARK SMILES IDX 16 1 15 2 14 3 13 4 12 5 11 6 10 7 8 8 9 9 7 10 6 11 5 12
REMARK SMILES IDX 2 13 3 14 92 15 4 16 91 17 93 18 1 19 88 22 89 23 90 24
REMARK SMILES IDX 17 25 18 26 19 27 20 28 21 29 22 30 23 31 24 32 25 33 26 34
REMARK SMILES IDX 87 35 27 36 86 37 28 38 29 39 30 40 80 41 31 42 85 43 79 44
REMARK SMILES IDX 81 45 32 46 84 47 78 48 77 49 33 51 65 52 45 53 64 54 46 55
REMARK SMILES IDX 49 56 63 57 82 58 47 59 48 60 62 62 83 63 50 64 34 65 35 66
REMARK SMILES IDX 43 67 36 68 38 69 44 70 37 71 39 72 40 73 41 74 42 75 66 76
REMARK SMILES IDX 67 77 75 78 68 79 70 80 76 81 69 82 71 83 72 84 73 85 74 86
REMARK SMILES IDX 51 87 52 88 60 89 53 90 55 91 61 92 54 93 56 94 57 95 58 96
REMARK SMILES IDX 59 97
REMARK H PARENT 1 20 1 21 81 50 49 61
REMARK Flexibility Score: inf
ROOT
ATOM      1  O   UNL A   1      40.681  24.676  26.487  1.00  0.00    -0.377 OA
ENDROOT
BRANCH   1   2
ATOM      2  C   UNL A   1      40.073  23.647  27.231  1.00  0.00     0.188 C 
BRANCH   2   3
ATOM      3  C   UNL A   1      39.933  22.167  26.807  1.00  0.00     0.188 C 
BRANCH   3   4
ATOM      4  O   UNL A   1      38.880  21.810  25.942  1.00  0.00    -0.376 OA
BRANCH   4   5
ATOM      5  C   UNL A   1      37.994  22.767  25.393  1.00  0.00     0.202 C 
BRANCH   5   6
ATOM      6  C   UNL A   1      36.465  22.600  25.294  1.00  0.00     0.261 C 
BRANCH   6   7
ATOM      7  O   UNL A   1      35.655  23.469  26.109  1.00  0.00    -0.462 OA
BRANCH   7   8
ATOM      8  C   UNL A   1      34.323  23.260  26.136  1.00  0.00     0.319 C 
ATOM      9  O   UNL A   1      33.846  22.275  26.696  1.00  0.00    -0.251 OA
BRANCH   8  10
ATOM     10  C   UNL A   1      33.439  24.311  25.416  1.00  0.00     0.164 C 
BRANCH  10  11
ATOM     11  S   UNL A   1      33.232  26.023  26.118  1.00  0.00    -0.110 SA
BRANCH  11  12
ATOM     12  C   UNL A   1      32.764  27.294  24.922  1.00  0.00     0.011 A 
ATOM     13  C   UNL A   1      31.729  28.953  22.818  1.00  0.00     0.068 A 
ATOM     14  C   UNL A   1      33.087  28.694  22.926  1.00  0.00     0.030 A 
ATOM     15  C   UNL A   1      30.910  28.490  23.851  1.00  0.00     0.147 A 
ATOM     16  C   UNL A   1      33.586  27.883  23.965  1.00  0.00     0.017 A 
ATOM     17  C   UNL A   1      31.405  27.661  24.874  1.00  0.00     0.056 A 
ATOM     18  F   UNL A   1      29.596  28.772  23.816  1.00  0.00    -0.205 F 
BRANCH  13  19
ATOM     19  N   UNL A   1      31.236  29.705  21.756  1.00  0.00    -0.396 N 
ATOM     20  H   UNL A   1      31.804  30.385  21.329  1.00  0.00     0.156 HD
ATOM     21  H   UNL A   1      30.318  29.556  21.432  1.00  0.00     0.156 HD
ENDBRANCH  13  19
ENDBRANCH  11  12
ENDBRANCH  10  11
BRANCH  10  22
ATOM     22  C   UNL A   1      32.252  23.809  24.627  1.00  0.00     0.014 C 
ATOM     23  C   UNL A   1      32.016  24.217  23.181  1.00  0.00     0.006 C 
ATOM     24  C   UNL A   1      32.282  22.789  23.504  1.00  0.00     0.006 C 
ENDBRANCH  10  22
ENDBRANCH   8  10
ENDBRANCH   7   8
ENDBRANCH   6   7
ENDBRANCH   5   6
ENDBRANCH   4   5
ENDBRANCH   3   4
ENDBRANCH   2   3
ENDBRANCH   1   2
BRANCH   1  25
ATOM     25  C   UNL A   1      42.068  24.827  26.608  1.00  0.00     0.188 C 
BRANCH  25  26
ATOM     26  C   UNL A   1      42.784  24.394  25.326  1.00  0.00     0.188 C 
BRANCH  26  27
ATOM     27  O   UNL A   1      43.167  23.025  25.329  1.00  0.00    -0.376 OA
BRANCH  27  28
ATOM     28  C   UNL A   1      44.152  22.572  26.253  1.00  0.00     0.202 C 
BRANCH  28  29
ATOM     29  C   UNL A   1      45.668  22.661  25.986  1.00  0.00     0.261 C 
BRANCH  29  30
ATOM     30  O   UNL A   1      46.360  23.846  26.367  1.00  0.00    -0.460 OA
BRANCH  30  31
ATOM     31  C   UNL A   1      46.567  24.805  25.454  1.00  0.00     0.338 C 
ATOM     32  O   UNL A   1      46.785  24.664  24.262  1.00  0.00    -0.246 OA
BRANCH  31  33
ATOM     33  C   UNL A   1      46.232  26.062  26.144  1.00  0.00     0.060 A 
ATOM     34  C   UNL A   1      45.362  26.955  25.508  1.00  0.00     0.016 A 
ATOM     35  C   UNL A   1      46.679  26.299  27.451  1.00  0.00     0.016 A 
ATOM     36  C   UNL A   1      44.944  28.100  26.173  1.00  0.00     0.010 A 
ATOM     37  C   UNL A   1      46.294  27.468  28.101  1.00  0.00     0.010 A 
ATOM     38  C   UNL A   1      45.455  28.384  27.444  1.00  0.00    -0.014 A 
BRANCH  38  39
ATOM     39  C   UNL A   1      45.337  29.765  27.946  1.00  0.00     0.031 A 
ATOM     40  C   UNL A   1      44.183  30.059  28.860  1.00  0.00     0.074 A 
ATOM     41  C   UNL A   1      46.250  30.699  27.638  1.00  0.00     0.049 A 
ATOM     42  N   UNL A   1      43.854  31.176  29.446  1.00  0.00    -0.248 NA
ATOM     43  C   UNL A   1      43.276  28.933  29.156  1.00  0.00     0.031 C 
ATOM     44  C   UNL A   1      47.417  30.493  26.782  1.00  0.00     0.029 A 
ATOM     45  N   UNL A   1      46.325  32.017  28.004  1.00  0.00    -0.354 N 
ATOM     46  C   UNL A   1      42.692  30.897  30.153  1.00  0.00     0.074 A 
ATOM     47  C   UNL A   1      42.364  29.511  29.920  1.00  0.00     0.031 C 
ATOM     48  C   UNL A   1      48.079  31.658  26.664  1.00  0.00     0.029 A 
ATOM     49  C   UNL A   1      47.365  32.690  27.412  1.00  0.00     0.049 A 
ATOM     50  H   UNL A   1      45.694  32.440  28.629  1.00  0.00     0.167 HD
ATOM     51  C   UNL A   1      41.966  31.725  30.936  1.00  0.00     0.034 A 
ATOM     52  C   UNL A   1      47.677  34.000  27.454  1.00  0.00     0.034 A 
ATOM     53  C   UNL A   1      42.307  33.102  31.151  1.00  0.00     0.049 A 
ATOM     54  C   UNL A   1      46.827  34.914  28.299  1.00  0.00     0.074 A 
ATOM     55  C   UNL A   1      41.665  34.034  31.942  1.00  0.00     0.029 A 
ATOM     56  N   UNL A   1      43.379  33.748  30.552  1.00  0.00    -0.354 N 
ATOM     57  N   UNL A   1      45.783  34.623  29.038  1.00  0.00    -0.248 NA
ATOM     58  C   UNL A   1      47.215  36.331  28.343  1.00  0.00     0.031 C 
ATOM     59  C   UNL A   1      42.322  35.258  31.784  1.00  0.00     0.029 A 
ATOM     60  C   UNL A   1      43.408  35.074  30.941  1.00  0.00     0.049 A 
ATOM     61  H   UNL A   1      44.023  33.325  29.940  1.00  0.00     0.167 HD
ATOM     62  C   UNL A   1      45.415  35.805  29.668  1.00  0.00     0.074 A 
ATOM     63  C   UNL A   1      46.358  36.816  29.231  1.00  0.00     0.031 C 
ATOM     64  C   UNL A   1      44.390  36.042  30.525  1.00  0.00     0.034 A 
BRANCH  51  65
ATOM     65  C   UNL A   1      40.736  31.164  31.595  1.00  0.00     0.023 A 
ATOM     66  C   UNL A   1      40.840  30.479  32.823  1.00  0.00     0.012 A 
ATOM     67  C   UNL A   1      39.469  31.340  31.007  1.00  0.00     0.148 A 
ATOM     68  C   UNL A   1      39.706  29.949  33.438  1.00  0.00     0.002 A 
ATOM     69  C   UNL A   1      38.338  30.854  31.650  1.00  0.00     0.091 A 
ATOM     70  F   UNL A   1      39.396  31.966  29.824  1.00  0.00    -0.205 F 
ATOM     71  C   UNL A   1      38.456  30.146  32.857  1.00  0.00     0.022 A 
BRANCH  69  72
ATOM     72  S   UNL A   1      36.677  31.125  31.024  1.00  0.00     0.127 S 
ATOM     73  O   UNL A   1      36.338  29.801  30.504  1.00  0.00    -0.237 OA
ATOM     74  O   UNL A   1      35.955  31.508  32.238  1.00  0.00    -0.237 OA
ATOM     75  O   UNL A   1      36.789  32.175  30.024  1.00  0.00    -0.744 OA
ENDBRANCH  69  72
ENDBRANCH  51  65
BRANCH  52  76
ATOM     76  C   UNL A   1      48.847  34.518  26.689  1.00  0.00     0.023 A 
ATOM     77  C   UNL A   1      48.665  35.026  25.388  1.00  0.00     0.012 A 
ATOM     78  C   UNL A   1      50.138  34.522  27.254  1.00  0.00     0.148 A 
ATOM     79  C   UNL A   1      49.754  35.498  24.651  1.00  0.00     0.002 A 
ATOM     80  C   UNL A   1      51.207  35.044  26.537  1.00  0.00     0.091 A 
ATOM     81  F   UNL A   1      50.291  34.021  28.488  1.00  0.00    -0.205 F 
ATOM     82  C   UNL A   1      51.021  35.515  25.228  1.00  0.00     0.022 A 
BRANCH  80  83
ATOM     83  S   UNL A   1      52.847  35.223  27.244  1.00  0.00     0.127 S 
ATOM     84  O   UNL A   1      53.702  34.884  26.109  1.00  0.00    -0.237 OA
ATOM     85  O   UNL A   1      52.857  36.637  27.623  1.00  0.00    -0.237 OA
ATOM     86  O   UNL A   1      52.897  34.299  28.370  1.00  0.00    -0.744 OA
ENDBRANCH  80  83
ENDBRANCH  52  76
BRANCH  64  87
ATOM     87  C   UNL A   1      44.267  37.427  31.101  1.00  0.00     0.023 A 
ATOM     88  C   UNL A   1      44.874  37.743  32.331  1.00  0.00     0.012 A 
ATOM     89  C   UNL A   1      43.618  38.439  30.365  1.00  0.00     0.148 A 
ATOM     90  C   UNL A   1      44.808  39.039  32.837  1.00  0.00     0.002 A 
ATOM     91  C   UNL A   1      43.607  39.740  30.848  1.00  0.00     0.091 A 
ATOM     92  F   UNL A   1      43.036  38.112  29.202  1.00  0.00    -0.205 F 
ATOM     93  C   UNL A   1      44.188  40.039  32.092  1.00  0.00     0.022 A 
BRANCH  91  94
ATOM     94  S   UNL A   1      42.927  41.110  29.907  1.00  0.00     0.127 S 
ATOM     95  O   UNL A   1      42.599  42.063  30.966  1.00  0.00    -0.237 OA
ATOM     96  O   UNL A   1      44.059  41.498  29.066  1.00  0.00    -0.237 OA
ATOM     97  O   UNL A   1      41.786  40.573  29.178  1.00  0.00    -0.744 OA
ENDBRANCH  91  94
ENDBRANCH  64  87
ENDBRANCH  38  39
ENDBRANCH  31  33
ENDBRANCH  30  31
ENDBRANCH  29  30
ENDBRANCH  28  29
ENDBRANCH  27  28
ENDBRANCH  26  27
ENDBRANCH  25  26
ENDBRANCH   1  25
TORSDOF 27
ENDMDL
MODEL 3
REMARK VINA RESULT:      -7.6      5.360     12.927
REMARK SMILES Nc1ccc(S[C@@H](C(=O)OCCOCCOCCOCCOC(=O)c2ccc(-c3c4nc(c(-c5cccc(S(=O)(=O)[O-])c5F)c5ccc([nH]5)c(-c5cccc(S(=O)(=O)[O-])c5F)c5nc(c(-c6cccc(S(=O)(=O)[O-])c6F)c6ccc3[nH]6)C=C5)C=C4)cc2)C2CC2)cc1F
REMARK SMILES IDX 16 1 15 2 14 3 13 4 12 5 11 6 10 7 8 8 9 9 7 10 6 11 5 12
REMARK SMILES IDX 2 13 3 14 92 15 4 16 91 17 93 18 1 19 88 22 89 23 90 24
REMARK SMILES IDX 17 25 18 26 19 27 20 28 21 29 22 30 23 31 24 32 25 33 26 34
REMARK SMILES IDX 87 35 27 36 86 37 28 38 29 39 30 40 80 41 31 42 85 43 79 44
REMARK SMILES IDX 81 45 32 46 84 47 78 48 77 49 33 51 65 52 45 53 64 54 46 55
REMARK SMILES IDX 49 56 63 57 82 58 47 59 48 60 62 62 83 63 50 64 34 65 35 66
REMARK SMILES IDX 43 67 36 68 38 69 44 70 37 71 39 72 40 73 41 74 42 75 66 76
REMARK SMILES IDX 67 77 75 78 68 79 70 80 76 81 69 82 71 83 72 84 73 85 74 86
REMARK SMILES IDX 51 87 52 88 60 89 53 90 55 91 61 92 54 93 56 94 57 95 58 96
REMARK SMILES IDX 59 97
REMARK H PARENT 1 20 1 21 81 50 49 61
REMARK Flexibility Score: inf
ROOT
ATOM      1  O   UNL A   1      47.559  34.182  35.296  1.00  0.00    -0.377 OA
ENDROOT
BRANCH   1   2
ATOM      2  C   UNL A   1      48.574  34.826  34.561  1.00  0.00     0.188 C 
BRANCH   2   3
ATOM      3  C   UNL A   1      48.417  35.511  33.185  1.00  0.00     0.188 C 
BRANCH   3   4
ATOM      4  O   UNL A   1      47.200  36.157  32.888  1.00  0.00    -0.376 OA
BRANCH   4   5
ATOM      5  C   UNL A   1      47.089  37.130  31.868  1.00  0.00     0.202 C 
BRANCH   5   6
ATOM      6  C   UNL A   1      46.062  37.094  30.719  1.00  0.00     0.261 C 
BRANCH   6   7
ATOM      7  O   UNL A   1      44.847  36.353  30.948  1.00  0.00    -0.462 OA
BRANCH   7   8
ATOM      8  C   UNL A   1      44.665  35.201  30.272  1.00  0.00     0.319 C 
ATOM      9  O   UNL A   1      45.551  34.737  29.556  1.00  0.00    -0.251 OA
BRANCH   8  10
ATOM     10  C   UNL A   1      43.286  34.509  30.434  1.00  0.00     0.164 C 
BRANCH  10  11
ATOM     11  S   UNL A   1      42.225  34.839  31.928  1.00  0.00    -0.110 SA
BRANCH  11  12
ATOM     12  C   UNL A   1      42.825  34.118  33.472  1.00  0.00     0.011 A 
ATOM     13  C   UNL A   1      43.834  33.453  36.078  1.00  0.00     0.068 A 
ATOM     14  C   UNL A   1      44.502  33.061  34.927  1.00  0.00     0.030 A 
ATOM     15  C   UNL A   1      42.586  34.058  35.912  1.00  0.00     0.147 A 
ATOM     16  C   UNL A   1      43.997  33.389  33.653  1.00  0.00     0.017 A 
ATOM     17  C   UNL A   1      42.093  34.405  34.642  1.00  0.00     0.056 A 
ATOM     18  F   UNL A   1      41.878  34.398  37.003  1.00  0.00    -0.205 F 
BRANCH  13  19
ATOM     19  N   UNL A   1      44.369  33.179  37.333  1.00  0.00    -0.396 N 
ATOM     20  H   UNL A   1      45.015  33.801  37.739  1.00  0.00     0.156 HD
ATOM     21  H   UNL A   1      44.100  32.364  37.815  1.00  0.00     0.156 HD
ENDBRANCH  13  19
ENDBRANCH  11  12
ENDBRANCH  10  11
BRANCH  10  22
ATOM     22  C   UNL A   1      43.116  33.133  29.835  1.00  0.00     0.014 C 
ATOM     23  C   UNL A   1      43.723  31.894  30.477  1.00  0.00     0.006 C 
ATOM     24  C   UNL A   1      42.243  32.015  30.374  1.00  0.00     0.006 C 
ENDBRANCH  10  22
ENDBRANCH   8  10
ENDBRANCH   7   8
ENDBRANCH   6   7
ENDBRANCH   5   6
ENDBRANCH   4   5
ENDBRANCH   3   4
ENDBRANCH   2   3
ENDBRANCH   1   2
BRANCH   1  25
ATOM     25  C   UNL A   1      47.928  33.558  36.495  1.00  0.00     0.188 C 
BRANCH  25  26
ATOM     26  C   UNL A   1      48.350  32.107  36.254  1.00  0.00     0.188 C 
BRANCH  26  27
ATOM     27  O   UNL A   1      49.482  31.714  37.019  1.00  0.00    -0.376 OA
BRANCH  27  28
ATOM     28  C   UNL A   1      49.926  30.361  36.974  1.00  0.00     0.202 C 
BRANCH  28  29
ATOM     29  C   UNL A   1      48.976  29.165  36.760  1.00  0.00     0.261 C 
BRANCH  29  30
ATOM     30  O   UNL A   1      48.906  28.571  35.468  1.00  0.00    -0.460 OA
BRANCH  30  31
ATOM     31  C   UNL A   1      48.195  27.448  35.302  1.00  0.00     0.338 C 
ATOM     32  O   UNL A   1      48.464  26.329  35.704  1.00  0.00    -0.246 OA
BRANCH  31  33
ATOM     33  C   UNL A   1      46.905  27.896  34.749  1.00  0.00     0.060 A 
ATOM     34  C   UNL A   1      45.790  27.065  34.910  1.00  0.00     0.016 A 
ATOM     35  C   UNL A   1      46.777  29.172  34.184  1.00  0.00     0.016 A 
ATOM     36  C   UNL A   1      44.541  27.502  34.493  1.00  0.00     0.010 A 
ATOM     37  C   UNL A   1      45.531  29.593  33.728  1.00  0.00     0.010 A 
ATOM     38  C   UNL A   1      44.422  28.740  33.851  1.00  0.00    -0.014 A 
BRANCH  38  39
ATOM     39  C   UNL A   1      43.204  28.997  33.062  1.00  0.00     0.031 A 
ATOM     40  C   UNL A   1      42.116  29.787  33.730  1.00  0.00     0.074 A 
ATOM     41  C   UNL A   1      43.098  28.585  31.789  1.00  0.00     0.049 A 
ATOM     42  N   UNL A   1      40.957  30.160  33.263  1.00  0.00    -0.248 NA
ATOM     43  C   UNL A   1      42.375  30.219  35.117  1.00  0.00     0.031 C 
ATOM     44  C   UNL A   1      44.117  27.838  31.053  1.00  0.00     0.029 A 
ATOM     45  N   UNL A   1      42.070  28.729  30.895  1.00  0.00    -0.354 N 
ATOM     46  C   UNL A   1      40.339  30.842  34.303  1.00  0.00     0.074 A 
ATOM     47  C   UNL A   1      41.242  30.827  35.429  1.00  0.00     0.031 C 
ATOM     48  C   UNL A   1      43.648  27.562  29.823  1.00  0.00     0.029 A 
ATOM     49  C   UNL A   1      42.290  28.089  29.701  1.00  0.00     0.049 A 
ATOM     50  H   UNL A   1      41.252  29.241  31.091  1.00  0.00     0.167 HD
ATOM     51  C   UNL A   1      39.126  31.436  34.313  1.00  0.00     0.034 A 
ATOM     52  C   UNL A   1      41.468  27.928  28.646  1.00  0.00     0.034 A 
ATOM     53  C   UNL A   1      38.241  31.436  33.184  1.00  0.00     0.049 A 
ATOM     54  C   UNL A   1      40.101  28.562  28.697  1.00  0.00     0.074 A 
ATOM     55  C   UNL A   1      36.998  32.025  33.065  1.00  0.00     0.029 A 
ATOM     56  N   UNL A   1      38.503  30.794  31.982  1.00  0.00    -0.354 N 
ATOM     57  N   UNL A   1      39.560  29.284  29.651  1.00  0.00    -0.248 NA
ATOM     58  C   UNL A   1      39.243  28.389  27.517  1.00  0.00     0.031 C 
ATOM     59  C   UNL A   1      36.487  31.700  31.805  1.00  0.00     0.029 A 
ATOM     60  C   UNL A   1      37.436  30.957  31.118  1.00  0.00     0.049 A 
ATOM     61  H   UNL A   1      39.326  30.296  31.775  1.00  0.00     0.167 HD
ATOM     62  C   UNL A   1      38.320  29.687  29.172  1.00  0.00     0.074 A 
ATOM     63  C   UNL A   1      38.195  29.137  27.836  1.00  0.00     0.031 C 
ATOM     64  C   UNL A   1      37.366  30.437  29.777  1.00  0.00     0.034 A 
BRANCH  51  65
ATOM     65  C   UNL A   1      38.691  32.114  35.584  1.00  0.00     0.023 A 
ATOM     66  C   UNL A   1      38.845  33.508  35.732  1.00  0.00     0.012 A 
ATOM     67  C   UNL A   1      38.103  31.370  36.624  1.00  0.00     0.148 A 
ATOM     68  C   UNL A   1      38.452  34.144  36.909  1.00  0.00     0.002 A 
ATOM     69  C   UNL A   1      37.667  32.018  37.773  1.00  0.00     0.091 A 
ATOM     70  F   UNL A   1      37.994  30.042  36.476  1.00  0.00    -0.205 F 
ATOM     71  C   UNL A   1      37.854  33.401  37.923  1.00  0.00     0.022 A 
BRANCH  69  72
ATOM     72  S   UNL A   1      36.813  31.163  39.101  1.00  0.00     0.127 S 
ATOM     73  O   UNL A   1      35.551  31.898  39.163  1.00  0.00    -0.237 OA
ATOM     74  O   UNL A   1      36.704  29.805  38.566  1.00  0.00    -0.237 OA
ATOM     75  O   UNL A   1      37.664  31.289  40.275  1.00  0.00    -0.744 OA
ENDBRANCH  69  72
ENDBRANCH  51  65
BRANCH  52  76
ATOM     76  C   UNL A   1      41.916  27.150  27.457  1.00  0.00     0.023 A 
ATOM     77  C   UNL A   1      42.486  27.816  26.355  1.00  0.00     0.012 A 
ATOM     78  C   UNL A   1      41.792  25.747  27.420  1.00  0.00     0.148 A 
ATOM     79  C   UNL A   1      42.893  27.103  25.225  1.00  0.00     0.002 A 
ATOM     80  C   UNL A   1      42.250  25.038  26.318  1.00  0.00     0.091 A 
ATOM     81  F   UNL A   1      41.234  25.133  28.473  1.00  0.00    -0.205 F 
ATOM     82  C   UNL A   1      42.784  25.715  25.210  1.00  0.00     0.022 A 
BRANCH  80  83
ATOM     83  S   UNL A   1      42.266  23.243  26.262  1.00  0.00     0.127 S 
ATOM     84  O   UNL A   1      43.121  22.916  27.400  1.00  0.00    -0.237 OA
ATOM     85  O   UNL A   1      40.850  22.925  26.442  1.00  0.00    -0.237 OA
ATOM     86  O   UNL A   1      42.799  22.893  24.952  1.00  0.00    -0.744 OA
ENDBRANCH  80  83
ENDBRANCH  52  76
BRANCH  64  87
ATOM     87  C   UNL A   1      36.129  30.766  28.984  1.00  0.00     0.023 A 
ATOM     88  C   UNL A   1      35.348  29.737  28.425  1.00  0.00     0.012 A 
ATOM     89  C   UNL A   1      35.699  32.103  28.875  1.00  0.00     0.148 A 
ATOM     90  C   UNL A   1      34.173  30.037  27.739  1.00  0.00     0.002 A 
ATOM     91  C   UNL A   1      34.497  32.389  28.240  1.00  0.00     0.091 A 
ATOM     92  F   UNL A   1      36.465  33.068  29.403  1.00  0.00    -0.205 F 
ATOM     93  C   UNL A   1      33.741  31.358  27.658  1.00  0.00     0.022 A 
BRANCH  91  94
ATOM     94  S   UNL A   1      33.811  34.047  28.183  1.00  0.00     0.127 S 
ATOM     95  O   UNL A   1      34.705  34.706  27.233  1.00  0.00    -0.237 OA
ATOM     96  O   UNL A   1      32.459  33.803  27.680  1.00  0.00    -0.237 OA
ATOM     97  O   UNL A   1      33.867  34.556  29.547  1.00  0.00    -0.744 OA
ENDBRANCH  91  94
ENDBRANCH  64  87
ENDBRANCH  38  39
ENDBRANCH  31  33
ENDBRANCH  30  31
ENDBRANCH  29  30
ENDBRANCH  28  29
ENDBRANCH  27  28
ENDBRANCH  26  27
ENDBRANCH  25  26
ENDBRANCH   1  25
TORSDOF 27
ENDMDL
