MODEL 1
REMARK VINA RESULT:      -9.5      0.000      0.000
REMARK SMILES C[N@@H+]1CCC[C@@H](C[NH2+]CC(=O)OCCOCCOCCOCCOC(=O)c2ccc(-c3c4nc(c(-c5cccc(S(=O)(=O)[O-])c5F)c5ccc([nH]5)c(-c5cccc(S(=O)(=O)[O-])c5F)c5nc(c(-c6cccc(S(=O)(=O)[O-])c6F)c6ccc3[nH]6)C=C5)C=C4)cc2)C1
REMARK SMILES IDX 18 1 17 2 16 3 15 4 14 5 13 6 12 7 10 8 11 9 9 10 8 11 7 14
REMARK SMILES IDX 6 15 1 16 2 17 3 18 90 19 4 21 5 22 19 23 20 24 21 25 22 26
REMARK SMILES IDX 23 27 24 28 25 29 26 30 27 31 28 32 89 33 29 34 88 35 30 36
REMARK SMILES IDX 31 37 32 38 82 39 33 40 87 41 81 42 83 43 34 44 86 45 80 46
REMARK SMILES IDX 79 47 35 49 67 50 47 51 66 52 48 53 51 54 65 55 84 56 49 57
REMARK SMILES IDX 50 58 64 60 85 61 52 62 36 63 37 64 45 65 38 66 40 67 46 68
REMARK SMILES IDX 39 69 41 70 42 71 43 72 44 73 68 74 69 75 77 76 70 77 72 78
REMARK SMILES IDX 78 79 71 80 73 81 74 82 75 83 76 84 53 85 54 86 62 87 55 88
REMARK SMILES IDX 57 89 63 90 56 91 58 92 59 93 60 94 61 95
REMARK H PARENT 8 12 8 13 2 20 83 48 51 59
REMARK Flexibility Score: inf
ROOT
ATOM      1  O   UNL A   1      31.398  22.623  23.117  1.00  0.00    -0.377 OA
ENDROOT
BRANCH   1   2
ATOM      2  C   UNL A   1      31.019  23.521  24.139  1.00  0.00     0.188 C 
BRANCH   2   3
ATOM      3  C   UNL A   1      31.069  23.013  25.584  1.00  0.00     0.188 C 
BRANCH   3   4
ATOM      4  O   UNL A   1      31.503  23.855  26.631  1.00  0.00    -0.376 OA
BRANCH   4   5
ATOM      5  C   UNL A   1      32.289  25.005  26.375  1.00  0.00     0.202 C 
BRANCH   5   6
ATOM      6  C   UNL A   1      31.830  26.467  26.552  1.00  0.00     0.261 C 
BRANCH   6   7
ATOM      7  O   UNL A   1      32.758  27.520  26.262  1.00  0.00    -0.459 OA
BRANCH   7   8
ATOM      8  C   UNL A   1      32.707  28.058  25.024  1.00  0.00     0.361 C 
ATOM      9  O   UNL A   1      33.529  27.810  24.142  1.00  0.00    -0.245 OA
BRANCH   8  10
ATOM     10  C   UNL A   1      31.552  29.033  24.783  1.00  0.00     0.384 C 
BRANCH  10  11
ATOM     11  N   UNL A   1      31.395  29.692  23.469  1.00  0.00    -0.337 N 
ATOM     12  H   UNL A   1      31.328  30.697  23.624  1.00  0.00     0.346 HD
ATOM     13  H   UNL A   1      32.208  29.424  22.914  1.00  0.00     0.346 HD
BRANCH  11  14
ATOM     14  C   UNL A   1      30.217  29.269  22.707  1.00  0.00     0.270 C 
BRANCH  14  15
ATOM     15  C   UNL A   1      28.907  29.923  23.221  1.00  0.00     0.099 C 
ATOM     16  C   UNL A   1      29.142  33.735  23.180  1.00  0.00     0.332 C 
ATOM     17  N   UNL A   1      29.186  32.381  22.627  1.00  0.00    -0.337 N 
ATOM     18  C   UNL A   1      28.180  32.250  21.563  1.00  0.00     0.262 C 
ATOM     19  C   UNL A   1      29.014  31.388  23.697  1.00  0.00     0.271 C 
ATOM     20  H   UNL A   1      30.099  32.206  22.207  1.00  0.00     0.347 HD
ATOM     21  C   UNL A   1      28.067  30.830  21.018  1.00  0.00     0.062 C 
ATOM     22  C   UNL A   1      27.813  29.836  22.145  1.00  0.00     0.021 C 
ENDBRANCH  14  15
ENDBRANCH  11  14
ENDBRANCH  10  11
ENDBRANCH   8  10
ENDBRANCH   7   8
ENDBRANCH   6   7
ENDBRANCH   5   6
ENDBRANCH   4   5
ENDBRANCH   3   4
ENDBRANCH   2   3
ENDBRANCH   1   2
BRANCH   1  23
ATOM     23  C   UNL A   1      32.624  22.831  22.437  1.00  0.00     0.188 C 
BRANCH  23  24
ATOM     24  C   UNL A   1      33.848  23.131  23.278  1.00  0.00     0.188 C 
BRANCH  24  25
ATOM     25  O   UNL A   1      34.638  22.007  23.638  1.00  0.00    -0.376 OA
BRANCH  25  26
ATOM     26  C   UNL A   1      36.021  22.283  23.880  1.00  0.00     0.202 C 
BRANCH  26  27
ATOM     27  C   UNL A   1      36.804  21.312  24.795  1.00  0.00     0.261 C 
BRANCH  27  28
ATOM     28  O   UNL A   1      37.525  21.879  25.917  1.00  0.00    -0.460 OA
BRANCH  28  29
ATOM     29  C   UNL A   1      38.843  21.590  26.080  1.00  0.00     0.338 C 
ATOM     30  O   UNL A   1      39.427  20.632  25.632  1.00  0.00    -0.246 OA
BRANCH  29  31
ATOM     31  C   UNL A   1      39.517  22.794  26.665  1.00  0.00     0.060 A 
ATOM     32  C   UNL A   1      38.954  24.057  26.419  1.00  0.00     0.016 A 
ATOM     33  C   UNL A   1      40.634  22.696  27.499  1.00  0.00     0.016 A 
ATOM     34  C   UNL A   1      39.534  25.216  26.949  1.00  0.00     0.010 A 
ATOM     35  C   UNL A   1      41.215  23.856  28.033  1.00  0.00     0.010 A 
ATOM     36  C   UNL A   1      40.703  25.129  27.716  1.00  0.00    -0.014 A 
BRANCH  36  37
ATOM     37  C   UNL A   1      41.553  26.338  27.911  1.00  0.00     0.031 A 
ATOM     38  C   UNL A   1      40.939  27.498  28.658  1.00  0.00     0.074 A 
ATOM     39  C   UNL A   1      42.826  26.438  27.478  1.00  0.00     0.049 A 
ATOM     40  N   UNL A   1      41.444  28.670  28.942  1.00  0.00    -0.248 NA
ATOM     41  C   UNL A   1      39.559  27.310  29.141  1.00  0.00     0.031 C 
ATOM     42  C   UNL A   1      43.567  25.410  26.750  1.00  0.00     0.029 A 
ATOM     43  N   UNL A   1      43.718  27.481  27.586  1.00  0.00    -0.354 N 
ATOM     44  C   UNL A   1      40.435  29.366  29.597  1.00  0.00     0.074 A 
ATOM     45  C   UNL A   1      39.279  28.501  29.642  1.00  0.00     0.031 C 
ATOM     46  C   UNL A   1      44.796  25.881  26.463  1.00  0.00     0.029 A 
ATOM     47  C   UNL A   1      44.928  27.249  26.971  1.00  0.00     0.049 A 
ATOM     48  H   UNL A   1      43.509  28.318  28.059  1.00  0.00     0.167 HD
ATOM     49  C   UNL A   1      40.462  30.602  30.144  1.00  0.00     0.034 A 
ATOM     50  C   UNL A   1      46.009  28.048  26.829  1.00  0.00     0.034 A 
ATOM     51  C   UNL A   1      41.611  31.460  30.159  1.00  0.00     0.049 A 
ATOM     52  C   UNL A   1      46.012  29.433  27.438  1.00  0.00     0.074 A 
ATOM     53  C   UNL A   1      41.738  32.710  30.737  1.00  0.00     0.029 A 
ATOM     54  N   UNL A   1      42.826  31.162  29.571  1.00  0.00    -0.354 N 
ATOM     55  N   UNL A   1      45.091  30.024  28.158  1.00  0.00    -0.248 NA
ATOM     56  C   UNL A   1      47.223  30.250  27.242  1.00  0.00     0.031 C 
ATOM     57  C   UNL A   1      43.029  33.179  30.481  1.00  0.00     0.029 A 
ATOM     58  C   UNL A   1      43.710  32.206  29.769  1.00  0.00     0.049 A 
ATOM     59  H   UNL A   1      43.032  30.331  29.084  1.00  0.00     0.167 HD
ATOM     60  C   UNL A   1      45.630  31.250  28.544  1.00  0.00     0.074 A 
ATOM     61  C   UNL A   1      46.961  31.320  27.982  1.00  0.00     0.031 C 
ATOM     62  C   UNL A   1      45.067  32.234  29.288  1.00  0.00     0.034 A 
BRANCH  49  63
ATOM     63  C   UNL A   1      39.207  31.086  30.813  1.00  0.00     0.023 A 
ATOM     64  C   UNL A   1      39.083  30.993  32.215  1.00  0.00     0.012 A 
ATOM     65  C   UNL A   1      38.169  31.665  30.059  1.00  0.00     0.148 A 
ATOM     66  C   UNL A   1      37.927  31.437  32.852  1.00  0.00     0.002 A 
ATOM     67  C   UNL A   1      37.042  32.150  30.707  1.00  0.00     0.091 A 
ATOM     68  F   UNL A   1      38.299  31.717  28.725  1.00  0.00    -0.205 F 
ATOM     69  C   UNL A   1      36.913  32.025  32.101  1.00  0.00     0.022 A 
BRANCH  67  70
ATOM     70  S   UNL A   1      35.720  32.995  29.836  1.00  0.00     0.127 S 
ATOM     71  O   UNL A   1      35.514  34.170  30.682  1.00  0.00    -0.237 OA
ATOM     72  O   UNL A   1      36.335  33.276  28.539  1.00  0.00    -0.237 OA
ATOM     73  O   UNL A   1      34.607  32.056  29.789  1.00  0.00    -0.744 OA
ENDBRANCH  67  70
ENDBRANCH  49  63
BRANCH  50  74
ATOM     74  C   UNL A   1      47.223  27.558  26.110  1.00  0.00     0.023 A 
ATOM     75  C   UNL A   1      48.242  26.904  26.832  1.00  0.00     0.012 A 
ATOM     76  C   UNL A   1      47.392  27.771  24.728  1.00  0.00     0.148 A 
ATOM     77  C   UNL A   1      49.423  26.508  26.201  1.00  0.00     0.002 A 
ATOM     78  C   UNL A   1      48.549  27.328  24.096  1.00  0.00     0.091 A 
ATOM     79  F   UNL A   1      46.423  28.415  24.063  1.00  0.00    -0.205 F 
ATOM     80  C   UNL A   1      49.573  26.714  24.833  1.00  0.00     0.022 A 
BRANCH  78  81
ATOM     81  S   UNL A   1      48.784  27.450  22.319  1.00  0.00     0.127 S 
ATOM     82  O   UNL A   1      47.616  28.227  21.915  1.00  0.00    -0.237 OA
ATOM     83  O   UNL A   1      50.059  28.162  22.233  1.00  0.00    -0.237 OA
ATOM     84  O   UNL A   1      48.828  26.077  21.834  1.00  0.00    -0.744 OA
ENDBRANCH  78  81
ENDBRANCH  50  74
BRANCH  62  85
ATOM     85  C   UNL A   1      45.885  33.455  29.625  1.00  0.00     0.023 A 
ATOM     86  C   UNL A   1      46.723  33.454  30.757  1.00  0.00     0.012 A 
ATOM     87  C   UNL A   1      45.926  34.549  28.735  1.00  0.00     0.148 A 
ATOM     88  C   UNL A   1      47.577  34.529  31.005  1.00  0.00     0.002 A 
ATOM     89  C   UNL A   1      46.814  35.593  28.964  1.00  0.00     0.091 A 
ATOM     90  F   UNL A   1      45.112  34.535  27.670  1.00  0.00    -0.205 F 
ATOM     91  C   UNL A   1      47.634  35.589  30.103  1.00  0.00     0.022 A 
BRANCH  89  92
ATOM     92  S   UNL A   1      47.033  36.948  27.803  1.00  0.00     0.127 S 
ATOM     93  O   UNL A   1      45.698  37.544  27.787  1.00  0.00    -0.237 OA
ATOM     94  O   UNL A   1      48.055  37.760  28.463  1.00  0.00    -0.237 OA
ATOM     95  O   UNL A   1      47.458  36.340  26.549  1.00  0.00    -0.744 OA
ENDBRANCH  89  92
ENDBRANCH  62  85
ENDBRANCH  36  37
ENDBRANCH  29  31
ENDBRANCH  28  29
ENDBRANCH  27  28
ENDBRANCH  26  27
ENDBRANCH  25  26
ENDBRANCH  24  25
ENDBRANCH  23  24
ENDBRANCH   1  23
TORSDOF 26
ENDMDL
MODEL 2
REMARK VINA RESULT:      -9.4      1.994      8.010
REMARK SMILES C[N@@H+]1CCC[C@@H](C[NH2+]CC(=O)OCCOCCOCCOCCOC(=O)c2ccc(-c3c4nc(c(-c5cccc(S(=O)(=O)[O-])c5F)c5ccc([nH]5)c(-c5cccc(S(=O)(=O)[O-])c5F)c5nc(c(-c6cccc(S(=O)(=O)[O-])c6F)c6ccc3[nH]6)C=C5)C=C4)cc2)C1
REMARK SMILES IDX 18 1 17 2 16 3 15 4 14 5 13 6 12 7 10 8 11 9 9 10 8 11 7 14
REMARK SMILES IDX 6 15 1 16 2 17 3 18 90 19 4 21 5 22 19 23 20 24 21 25 22 26
REMARK SMILES IDX 23 27 24 28 25 29 26 30 27 31 28 32 89 33 29 34 88 35 30 36
REMARK SMILES IDX 31 37 32 38 82 39 33 40 87 41 81 42 83 43 34 44 86 45 80 46
REMARK SMILES IDX 79 47 35 49 67 50 47 51 66 52 48 53 51 54 65 55 84 56 49 57
REMARK SMILES IDX 50 58 64 60 85 61 52 62 36 63 37 64 45 65 38 66 40 67 46 68
REMARK SMILES IDX 39 69 41 70 42 71 43 72 44 73 68 74 69 75 77 76 70 77 72 78
REMARK SMILES IDX 78 79 71 80 73 81 74 82 75 83 76 84 53 85 54 86 62 87 55 88
REMARK SMILES IDX 57 89 63 90 56 91 58 92 59 93 60 94 61 95
REMARK H PARENT 8 12 8 13 2 20 83 48 51 59
REMARK Flexibility Score: inf
ROOT
ATOM      1  O   UNL A   1      31.473  22.518  24.639  1.00  0.00    -0.377 OA
ENDROOT
BRANCH   1   2
ATOM      2  C   UNL A   1      31.405  23.164  25.893  1.00  0.00     0.188 C 
BRANCH   2   3
ATOM      3  C   UNL A   1      30.679  24.512  25.958  1.00  0.00     0.188 C 
BRANCH   3   4
ATOM      4  O   UNL A   1      31.035  25.567  25.090  1.00  0.00    -0.376 OA
BRANCH   4   5
ATOM      5  C   UNL A   1      30.346  25.785  23.872  1.00  0.00     0.202 C 
BRANCH   5   6
ATOM      6  C   UNL A   1      29.031  26.576  23.710  1.00  0.00     0.261 C 
BRANCH   6   7
ATOM      7  O   UNL A   1      29.073  28.006  23.799  1.00  0.00    -0.459 OA
BRANCH   7   8
ATOM      8  C   UNL A   1      29.848  28.653  22.901  1.00  0.00     0.361 C 
ATOM      9  O   UNL A   1      30.051  28.242  21.759  1.00  0.00    -0.245 OA
BRANCH   8  10
ATOM     10  C   UNL A   1      30.492  29.946  23.406  1.00  0.00     0.384 C 
BRANCH  10  11
ATOM     11  N   UNL A   1      31.223  29.962  24.691  1.00  0.00    -0.337 N 
ATOM     12  H   UNL A   1      31.620  30.893  24.818  1.00  0.00     0.346 HD
ATOM     13  H   UNL A   1      30.546  29.713  25.411  1.00  0.00     0.346 HD
BRANCH  11  14
ATOM     14  C   UNL A   1      32.311  28.985  24.790  1.00  0.00     0.270 C 
BRANCH  14  15
ATOM     15  C   UNL A   1      32.630  28.594  26.258  1.00  0.00     0.099 C 
ATOM     16  C   UNL A   1      36.174  29.632  27.237  1.00  0.00     0.332 C 
ATOM     17  N   UNL A   1      34.808  29.817  26.747  1.00  0.00    -0.337 N 
ATOM     18  C   UNL A   1      34.094  30.762  27.620  1.00  0.00     0.262 C 
ATOM     19  C   UNL A   1      34.126  28.520  26.637  1.00  0.00     0.271 C 
ATOM     20  H   UNL A   1      34.825  30.221  25.811  1.00  0.00     0.347 HD
ATOM     21  C   UNL A   1      32.620  30.915  27.258  1.00  0.00     0.062 C 
ATOM     22  C   UNL A   1      31.926  29.558  27.227  1.00  0.00     0.021 C 
ENDBRANCH  14  15
ENDBRANCH  11  14
ENDBRANCH  10  11
ENDBRANCH   8  10
ENDBRANCH   7   8
ENDBRANCH   6   7
ENDBRANCH   5   6
ENDBRANCH   4   5
ENDBRANCH   3   4
ENDBRANCH   2   3
ENDBRANCH   1   2
BRANCH   1  23
ATOM     23  C   UNL A   1      32.607  21.726  24.332  1.00  0.00     0.188 C 
BRANCH  23  24
ATOM     24  C   UNL A   1      33.438  21.215  25.491  1.00  0.00     0.188 C 
BRANCH  24  25
ATOM     25  O   UNL A   1      34.653  20.568  25.139  1.00  0.00    -0.376 OA
BRANCH  25  26
ATOM     26  C   UNL A   1      35.799  21.421  25.058  1.00  0.00     0.202 C 
BRANCH  26  27
ATOM     27  C   UNL A   1      37.197  20.759  25.077  1.00  0.00     0.261 C 
BRANCH  27  28
ATOM     28  O   UNL A   1      38.353  21.631  25.152  1.00  0.00    -0.460 OA
BRANCH  28  29
ATOM     29  C   UNL A   1      39.344  21.352  26.040  1.00  0.00     0.338 C 
ATOM     30  O   UNL A   1      39.974  20.325  26.110  1.00  0.00    -0.246 OA
BRANCH  29  31
ATOM     31  C   UNL A   1      39.723  22.627  26.733  1.00  0.00     0.060 A 
ATOM     32  C   UNL A   1      38.942  23.770  26.496  1.00  0.00     0.016 A 
ATOM     33  C   UNL A   1      40.772  22.696  27.653  1.00  0.00     0.016 A 
ATOM     34  C   UNL A   1      39.242  24.984  27.124  1.00  0.00     0.010 A 
ATOM     35  C   UNL A   1      41.072  23.911  28.284  1.00  0.00     0.010 A 
ATOM     36  C   UNL A   1      40.345  25.078  27.983  1.00  0.00    -0.014 A 
BRANCH  36  37
ATOM     37  C   UNL A   1      40.923  26.415  28.302  1.00  0.00     0.031 A 
ATOM     38  C   UNL A   1      42.285  26.730  27.728  1.00  0.00     0.074 A 
ATOM     39  C   UNL A   1      40.294  27.346  29.045  1.00  0.00     0.049 A 
ATOM     40  N   UNL A   1      43.022  27.800  27.869  1.00  0.00    -0.248 NA
ATOM     41  C   UNL A   1      42.900  25.686  26.889  1.00  0.00     0.031 C 
ATOM     42  C   UNL A   1      38.978  27.204  29.664  1.00  0.00     0.029 A 
ATOM     43  N   UNL A   1      40.704  28.607  29.416  1.00  0.00    -0.354 N 
ATOM     44  C   UNL A   1      44.198  27.541  27.173  1.00  0.00     0.074 A 
ATOM     45  C   UNL A   1      44.090  26.204  26.637  1.00  0.00     0.031 C 
ATOM     46  C   UNL A   1      38.696  28.329  30.350  1.00  0.00     0.029 A 
ATOM     47  C   UNL A   1      39.815  29.267  30.236  1.00  0.00     0.049 A 
ATOM     48  H   UNL A   1      41.556  29.002  29.122  1.00  0.00     0.167 HD
ATOM     49  C   UNL A   1      45.265  28.344  26.964  1.00  0.00     0.034 A 
ATOM     50  C   UNL A   1      39.899  30.478  30.828  1.00  0.00     0.034 A 
ATOM     51  C   UNL A   1      45.375  29.692  27.440  1.00  0.00     0.049 A 
ATOM     52  C   UNL A   1      41.110  31.355  30.591  1.00  0.00     0.074 A 
ATOM     53  C   UNL A   1      46.403  30.592  27.231  1.00  0.00     0.029 A 
ATOM     54  N   UNL A   1      44.430  30.332  28.220  1.00  0.00    -0.354 N 
ATOM     55  N   UNL A   1      42.155  31.138  29.830  1.00  0.00    -0.248 NA
ATOM     56  C   UNL A   1      41.136  32.663  31.271  1.00  0.00     0.031 C 
ATOM     57  C   UNL A   1      46.088  31.776  27.902  1.00  0.00     0.029 A 
ATOM     58  C   UNL A   1      44.851  31.618  28.504  1.00  0.00     0.049 A 
ATOM     59  H   UNL A   1      43.583  29.933  28.527  1.00  0.00     0.167 HD
ATOM     60  C   UNL A   1      42.927  32.296  29.897  1.00  0.00     0.074 A 
ATOM     61  C   UNL A   1      42.232  33.216  30.769  1.00  0.00     0.031 C 
ATOM     62  C   UNL A   1      44.113  32.566  29.297  1.00  0.00     0.034 A 
BRANCH  49  63
ATOM     63  C   UNL A   1      46.394  27.787  26.143  1.00  0.00     0.023 A 
ATOM     64  C   UNL A   1      46.396  27.970  24.745  1.00  0.00     0.012 A 
ATOM     65  C   UNL A   1      47.469  27.120  26.759  1.00  0.00     0.148 A 
ATOM     66  C   UNL A   1      47.434  27.462  23.968  1.00  0.00     0.002 A 
ATOM     67  C   UNL A   1      48.523  26.660  25.983  1.00  0.00     0.091 A 
ATOM     68  F   UNL A   1      47.431  26.935  28.087  1.00  0.00    -0.205 F 
ATOM     69  C   UNL A   1      48.502  26.818  24.587  1.00  0.00     0.022 A 
BRANCH  67  70
ATOM     70  S   UNL A   1      49.980  25.891  26.696  1.00  0.00     0.127 S 
ATOM     71  O   UNL A   1      49.416  24.675  27.279  1.00  0.00    -0.237 OA
ATOM     72  O   UNL A   1      50.820  25.672  25.519  1.00  0.00    -0.237 OA
ATOM     73  O   UNL A   1      50.513  26.853  27.651  1.00  0.00    -0.744 OA
ENDBRANCH  67  70
ENDBRANCH  49  63
BRANCH  50  74
ATOM     74  C   UNL A   1      38.784  30.981  31.684  1.00  0.00     0.023 A 
ATOM     75  C   UNL A   1      38.754  30.648  33.054  1.00  0.00     0.012 A 
ATOM     76  C   UNL A   1      37.735  31.751  31.145  1.00  0.00     0.148 A 
ATOM     77  C   UNL A   1      37.683  31.037  33.860  1.00  0.00     0.002 A 
ATOM     78  C   UNL A   1      36.697  32.179  31.965  1.00  0.00     0.091 A 
ATOM     79  F   UNL A   1      37.769  32.038  29.836  1.00  0.00    -0.205 F 
ATOM     80  C   UNL A   1      36.658  31.807  33.318  1.00  0.00     0.022 A 
BRANCH  78  81
ATOM     81  S   UNL A   1      35.391  33.266  31.381  1.00  0.00     0.127 S 
ATOM     82  O   UNL A   1      36.107  34.107  30.425  1.00  0.00    -0.237 OA
ATOM     83  O   UNL A   1      34.453  32.315  30.784  1.00  0.00    -0.237 OA
ATOM     84  O   UNL A   1      34.888  33.945  32.566  1.00  0.00    -0.744 OA
ENDBRANCH  78  81
ENDBRANCH  50  74
BRANCH  62  85
ATOM     85  C   UNL A   1      44.729  33.931  29.476  1.00  0.00     0.023 A 
ATOM     86  C   UNL A   1      45.808  34.108  30.363  1.00  0.00     0.012 A 
ATOM     87  C   UNL A   1      44.324  35.005  28.656  1.00  0.00     0.148 A 
ATOM     88  C   UNL A   1      46.464  35.338  30.442  1.00  0.00     0.002 A 
ATOM     89  C   UNL A   1      45.012  36.211  28.706  1.00  0.00     0.091 A 
ATOM     90  F   UNL A   1      43.286  34.818  27.827  1.00  0.00    -0.205 F 
ATOM     91  C   UNL A   1      46.077  36.381  29.604  1.00  0.00     0.022 A 
BRANCH  89  92
ATOM     92  S   UNL A   1      44.654  37.575  27.592  1.00  0.00     0.127 S 
ATOM     93  O   UNL A   1      45.997  37.993  27.191  1.00  0.00    -0.237 OA
ATOM     94  O   UNL A   1      43.879  36.921  26.538  1.00  0.00    -0.237 OA
ATOM     95  O   UNL A   1      43.909  38.551  28.377  1.00  0.00    -0.744 OA
ENDBRANCH  89  92
ENDBRANCH  62  85
ENDBRANCH  36  37
ENDBRANCH  29  31
ENDBRANCH  28  29
ENDBRANCH  27  28
ENDBRANCH  26  27
ENDBRANCH  25  26
ENDBRANCH  24  25
ENDBRANCH  23  24
ENDBRANCH   1  23
TORSDOF 26
ENDMDL
MODEL 3
REMARK VINA RESULT:      -9.2      1.823      2.091
REMARK SMILES C[N@@H+]1CCC[C@@H](C[NH2+]CC(=O)OCCOCCOCCOCCOC(=O)c2ccc(-c3c4nc(c(-c5cccc(S(=O)(=O)[O-])c5F)c5ccc([nH]5)c(-c5cccc(S(=O)(=O)[O-])c5F)c5nc(c(-c6cccc(S(=O)(=O)[O-])c6F)c6ccc3[nH]6)C=C5)C=C4)cc2)C1
REMARK SMILES IDX 18 1 17 2 16 3 15 4 14 5 13 6 12 7 10 8 11 9 9 10 8 11 7 14
REMARK SMILES IDX 6 15 1 16 2 17 3 18 90 19 4 21 5 22 19 23 20 24 21 25 22 26
REMARK SMILES IDX 23 27 24 28 25 29 26 30 27 31 28 32 89 33 29 34 88 35 30 36
REMARK SMILES IDX 31 37 32 38 82 39 33 40 87 41 81 42 83 43 34 44 86 45 80 46
REMARK SMILES IDX 79 47 35 49 67 50 47 51 66 52 48 53 51 54 65 55 84 56 49 57
REMARK SMILES IDX 50 58 64 60 85 61 52 62 36 63 37 64 45 65 38 66 40 67 46 68
REMARK SMILES IDX 39 69 41 70 42 71 43 72 44 73 68 74 69 75 77 76 70 77 72 78
REMARK SMILES IDX 78 79 71 80 73 81 74 82 75 83 76 84 53 85 54 86 62 87 55 88
REMARK SMILES IDX 57 89 63 90 56 91 58 92 59 93 60 94 61 95
REMARK H PARENT 8 12 8 13 2 20 83 48 51 59
REMARK Flexibility Score: inf
ROOT
ATOM      1  O   UNL A   1      31.394  22.620  23.182  1.00  0.00    -0.377 OA
ENDROOT
BRANCH   1   2
ATOM      2  C   UNL A   1      31.094  23.497  24.247  1.00  0.00     0.188 C 
BRANCH   2   3
ATOM      3  C   UNL A   1      31.324  22.986  25.674  1.00  0.00     0.188 C 
BRANCH   3   4
ATOM      4  O   UNL A   1      31.850  23.837  26.670  1.00  0.00    -0.376 OA
BRANCH   4   5
ATOM      5  C   UNL A   1      32.572  25.008  26.334  1.00  0.00     0.202 C 
BRANCH   5   6
ATOM      6  C   UNL A   1      32.122  26.456  26.617  1.00  0.00     0.261 C 
BRANCH   6   7
ATOM      7  O   UNL A   1      33.006  27.531  26.275  1.00  0.00    -0.459 OA
BRANCH   7   8
ATOM      8  C   UNL A   1      32.854  28.083  25.052  1.00  0.00     0.361 C 
ATOM      9  O   UNL A   1      33.629  27.886  24.116  1.00  0.00    -0.245 OA
BRANCH   8  10
ATOM     10  C   UNL A   1      31.644  29.009  24.900  1.00  0.00     0.384 C 
BRANCH  10  11
ATOM     11  N   UNL A   1      31.407  29.721  23.626  1.00  0.00    -0.337 N 
ATOM     12  H   UNL A   1      31.244  30.705  23.838  1.00  0.00     0.346 HD
ATOM     13  H   UNL A   1      32.234  29.566  23.051  1.00  0.00     0.346 HD
BRANCH  11  14
ATOM     14  C   UNL A   1      30.266  29.228  22.850  1.00  0.00     0.270 C 
BRANCH  14  15
ATOM     15  C   UNL A   1      28.923  29.872  23.287  1.00  0.00     0.099 C 
ATOM     16  C   UNL A   1      29.113  33.687  23.196  1.00  0.00     0.332 C 
ATOM     17  N   UNL A   1      29.203  32.325  22.668  1.00  0.00    -0.337 N 
ATOM     18  C   UNL A   1      28.254  32.164  21.556  1.00  0.00     0.262 C 
ATOM     19  C   UNL A   1      28.988  31.347  23.743  1.00  0.00     0.271 C 
ATOM     20  H   UNL A   1      30.138  32.155  22.298  1.00  0.00     0.347 HD
ATOM     21  C   UNL A   1      28.186  30.734  21.029  1.00  0.00     0.062 C 
ATOM     22  C   UNL A   1      27.887  29.754  22.157  1.00  0.00     0.021 C 
ENDBRANCH  14  15
ENDBRANCH  11  14
ENDBRANCH  10  11
ENDBRANCH   8  10
ENDBRANCH   7   8
ENDBRANCH   6   7
ENDBRANCH   5   6
ENDBRANCH   4   5
ENDBRANCH   3   4
ENDBRANCH   2   3
ENDBRANCH   1   2
BRANCH   1  23
ATOM     23  C   UNL A   1      32.597  22.804  22.455  1.00  0.00     0.188 C 
BRANCH  23  24
ATOM     24  C   UNL A   1      33.844  23.153  23.241  1.00  0.00     0.188 C 
BRANCH  24  25
ATOM     25  O   UNL A   1      34.639  22.051  23.654  1.00  0.00    -0.376 OA
BRANCH  25  26
ATOM     26  C   UNL A   1      36.008  22.357  23.939  1.00  0.00     0.202 C 
BRANCH  26  27
ATOM     27  C   UNL A   1      36.703  21.571  25.076  1.00  0.00     0.261 C 
BRANCH  27  28
ATOM     28  O   UNL A   1      37.514  22.322  26.014  1.00  0.00    -0.460 OA
BRANCH  28  29
ATOM     29  C   UNL A   1      38.789  21.922  26.265  1.00  0.00     0.338 C 
ATOM     30  O   UNL A   1      39.295  20.881  25.920  1.00  0.00    -0.246 OA
BRANCH  29  31
ATOM     31  C   UNL A   1      39.552  23.099  26.794  1.00  0.00     0.060 A 
ATOM     32  C   UNL A   1      38.982  24.376  26.660  1.00  0.00     0.016 A 
ATOM     33  C   UNL A   1      40.765  22.961  27.473  1.00  0.00     0.016 A 
ATOM     34  C   UNL A   1      39.645  25.510  27.146  1.00  0.00     0.010 A 
ATOM     35  C   UNL A   1      41.428  24.096  27.962  1.00  0.00     0.010 A 
ATOM     36  C   UNL A   1      40.901  25.384  27.752  1.00  0.00    -0.014 A 
BRANCH  36  37
ATOM     37  C   UNL A   1      41.788  26.577  27.871  1.00  0.00     0.031 A 
ATOM     38  C   UNL A   1      41.243  27.769  28.622  1.00  0.00     0.074 A 
ATOM     39  C   UNL A   1      43.038  26.635  27.370  1.00  0.00     0.049 A 
ATOM     40  N   UNL A   1      41.790  28.934  28.849  1.00  0.00    -0.248 NA
ATOM     41  C   UNL A   1      39.886  27.626  29.182  1.00  0.00     0.031 C 
ATOM     42  C   UNL A   1      43.714  25.572  26.628  1.00  0.00     0.029 A 
ATOM     43  N   UNL A   1      43.958  27.658  27.403  1.00  0.00    -0.354 N 
ATOM     44  C   UNL A   1      40.834  29.670  29.540  1.00  0.00     0.074 A 
ATOM     45  C   UNL A   1      39.662  28.835  29.668  1.00  0.00     0.031 C 
ATOM     46  C   UNL A   1      44.937  26.006  26.264  1.00  0.00     0.029 A 
ATOM     47  C   UNL A   1      45.128  27.382  26.731  1.00  0.00     0.049 A 
ATOM     48  H   UNL A   1      43.796  28.511  27.866  1.00  0.00     0.167 HD
ATOM     49  C   UNL A   1      40.920  30.917  30.055  1.00  0.00     0.034 A 
ATOM     50  C   UNL A   1      46.218  28.150  26.512  1.00  0.00     0.034 A 
ATOM     51  C   UNL A   1      42.087  31.747  29.987  1.00  0.00     0.049 A 
ATOM     52  C   UNL A   1      46.287  29.549  27.086  1.00  0.00     0.074 A 
ATOM     53  C   UNL A   1      42.274  33.006  30.526  1.00  0.00     0.029 A 
ATOM     54  N   UNL A   1      43.261  31.405  29.342  1.00  0.00    -0.354 N 
ATOM     55  N   UNL A   1      45.419  30.179  27.839  1.00  0.00    -0.248 NA
ATOM     56  C   UNL A   1      47.504  30.331  26.805  1.00  0.00     0.031 C 
ATOM     57  C   UNL A   1      43.560  33.437  30.190  1.00  0.00     0.029 A 
ATOM     58  C   UNL A   1      44.179  32.431  29.467  1.00  0.00     0.049 A 
ATOM     59  H   UNL A   1      43.421  30.558  28.866  1.00  0.00     0.167 HD
ATOM     60  C   UNL A   1      46.008  31.400  28.165  1.00  0.00     0.074 A 
ATOM     61  C   UNL A   1      47.307  31.423  27.532  1.00  0.00     0.031 C 
ATOM     62  C   UNL A   1      45.508  32.415  28.914  1.00  0.00     0.034 A 
BRANCH  49  63
ATOM     63  C   UNL A   1      39.714  31.447  30.777  1.00  0.00     0.023 A 
ATOM     64  C   UNL A   1      38.660  32.029  30.042  1.00  0.00     0.012 A 
ATOM     65  C   UNL A   1      39.607  31.335  32.176  1.00  0.00     0.148 A 
ATOM     66  C   UNL A   1      37.534  32.524  30.694  1.00  0.00     0.002 A 
ATOM     67  C   UNL A   1      38.461  31.787  32.813  1.00  0.00     0.091 A 
ATOM     68  F   UNL A   1      40.634  30.803  32.855  1.00  0.00    -0.205 F 
ATOM     69  C   UNL A   1      37.429  32.394  32.076  1.00  0.00     0.022 A 
BRANCH  67  70
ATOM     70  S   UNL A   1      38.198  31.590  34.577  1.00  0.00     0.127 S 
ATOM     71  O   UNL A   1      38.269  30.137  34.726  1.00  0.00    -0.237 OA
ATOM     72  O   UNL A   1      39.334  32.317  35.141  1.00  0.00    -0.237 OA
ATOM     73  O   UNL A   1      36.898  32.184  34.857  1.00  0.00    -0.744 OA
ENDBRANCH  67  70
ENDBRANCH  49  63
BRANCH  50  74
ATOM     74  C   UNL A   1      47.379  27.614  25.741  1.00  0.00     0.023 A 
ATOM     75  C   UNL A   1      47.340  27.617  24.331  1.00  0.00     0.012 A 
ATOM     76  C   UNL A   1      48.501  27.066  26.393  1.00  0.00     0.148 A 
ATOM     77  C   UNL A   1      48.376  27.050  23.588  1.00  0.00     0.002 A 
ATOM     78  C   UNL A   1      49.553  26.549  25.645  1.00  0.00     0.091 A 
ATOM     79  F   UNL A   1      48.510  27.051  27.733  1.00  0.00    -0.205 F 
ATOM     80  C   UNL A   1      49.484  26.522  24.243  1.00  0.00     0.022 A 
BRANCH  78  81
ATOM     81  S   UNL A   1      51.070  25.949  26.398  1.00  0.00     0.127 S 
ATOM     82  O   UNL A   1      50.604  24.754  27.096  1.00  0.00    -0.237 OA
ATOM     83  O   UNL A   1      51.906  25.693  25.225  1.00  0.00    -0.237 OA
ATOM     84  O   UNL A   1      51.541  27.033  27.248  1.00  0.00    -0.744 OA
ENDBRANCH  78  81
ENDBRANCH  50  74
BRANCH  62  85
ATOM     85  C   UNL A   1      46.372  33.622  29.177  1.00  0.00     0.023 A 
ATOM     86  C   UNL A   1      47.276  33.623  30.256  1.00  0.00     0.012 A 
ATOM     87  C   UNL A   1      46.383  34.698  28.264  1.00  0.00     0.148 A 
ATOM     88  C   UNL A   1      48.168  34.683  30.431  1.00  0.00     0.002 A 
ATOM     89  C   UNL A   1      47.306  35.726  28.418  1.00  0.00     0.091 A 
ATOM     90  F   UNL A   1      45.505  34.684  27.251  1.00  0.00    -0.205 F 
ATOM     91  C   UNL A   1      48.193  35.724  29.506  1.00  0.00     0.022 A 
BRANCH  89  92
ATOM     92  S   UNL A   1      47.483  37.054  27.220  1.00  0.00     0.127 S 
ATOM     93  O   UNL A   1      46.205  36.990  26.513  1.00  0.00    -0.237 OA
ATOM     94  O   UNL A   1      47.647  38.227  28.079  1.00  0.00    -0.237 OA
ATOM     95  O   UNL A   1      48.654  36.720  26.420  1.00  0.00    -0.744 OA
ENDBRANCH  89  92
ENDBRANCH  62  85
ENDBRANCH  36  37
ENDBRANCH  29  31
ENDBRANCH  28  29
ENDBRANCH  27  28
ENDBRANCH  26  27
ENDBRANCH  25  26
ENDBRANCH  24  25
ENDBRANCH  23  24
ENDBRANCH   1  23
TORSDOF 26
ENDMDL
