MODEL 1
REMARK VINA RESULT:      -9.3      0.000      0.000
REMARK SMILES COc1ccc2[nH]cc([C@H](C(=O)OCCOCCOCCOCCOC(=O)c3ccc(-c4c5nc(c(-c6cccc(S(=O)(=O)[O-])c6F)c6ccc([nH]6)c(-c6cccc(S(=O)(=O)[O-])c6F)c6nc(c(-c7cccc(S(=O)(=O)[O-])c7F)c7ccc4[nH]7)C=C6)C=C5)cc3)[NH+]3CC[NH+](Cc4cccc5ccccc45)CC3)c2c1
REMARK SMILES IDX 19 1 18 2 17 3 16 4 15 5 14 6 13 7 11 8 12 9 10 10 9 11 3 12
REMARK SMILES IDX 4 13 109 14 5 15 108 16 6 17 7 18 8 19 2 21 1 22 91 23 92 24
REMARK SMILES IDX 107 25 93 27 106 28 94 29 95 31 96 32 97 33 105 34 98 35
REMARK SMILES IDX 100 36 104 37 99 38 101 39 103 40 102 41 20 42 21 43 22 44
REMARK SMILES IDX 23 45 24 46 25 47 26 48 27 49 28 50 29 51 90 52 30 53 89 54
REMARK SMILES IDX 31 55 32 56 33 57 83 58 34 59 88 60 82 61 84 62 35 63 87 64
REMARK SMILES IDX 81 65 80 66 36 68 68 69 48 70 67 71 49 72 52 73 66 74 85 75
REMARK SMILES IDX 50 76 51 77 65 79 86 80 53 81 37 82 38 83 46 84 39 85 41 86
REMARK SMILES IDX 47 87 40 88 42 89 43 90 44 91 45 92 69 93 70 94 78 95 71 96
REMARK SMILES IDX 73 97 79 98 72 99 74 100 75 101 76 102 77 103 54 104 55 105
REMARK SMILES IDX 63 106 56 107 58 108 64 109 57 110 59 111 60 112 61 113
REMARK SMILES IDX 62 114
REMARK H PARENT 7 20 91 26 94 30 84 67 52 78
REMARK Flexibility Score: inf
ROOT
ATOM      1  O   UNL A   1      40.507  26.742  27.388  1.00  0.00    -0.377 OA
ENDROOT
BRANCH   1   2
ATOM      2  C   UNL A   1      40.677  25.641  26.510  1.00  0.00     0.188 C 
BRANCH   2   3
ATOM      3  C   UNL A   1      40.175  24.342  27.156  1.00  0.00     0.188 C 
BRANCH   3   4
ATOM      4  O   UNL A   1      39.120  23.648  26.494  1.00  0.00    -0.376 OA
BRANCH   4   5
ATOM      5  C   UNL A   1      39.279  22.240  26.354  1.00  0.00     0.202 C 
BRANCH   5   6
ATOM      6  C   UNL A   1      38.258  21.566  25.419  1.00  0.00     0.261 C 
BRANCH   6   7
ATOM      7  O   UNL A   1      36.979  22.250  25.452  1.00  0.00    -0.459 OA
BRANCH   7   8
ATOM      8  C   UNL A   1      36.530  22.750  24.262  1.00  0.00     0.370 C 
ATOM      9  O   UNL A   1      37.218  23.499  23.573  1.00  0.00    -0.245 OA
BRANCH   8  10
ATOM     10  C   UNL A   1      35.036  22.392  23.944  1.00  0.00     0.328 C 
BRANCH  10  11
ATOM     11  C   UNL A   1      34.311  21.442  24.909  1.00  0.00     0.046 A 
ATOM     12  C   UNL A   1      32.920  18.029  23.772  1.00  0.00     0.119 A 
ATOM     13  C   UNL A   1      32.476  17.600  25.013  1.00  0.00     0.048 A 
ATOM     14  C   UNL A   1      33.423  19.326  23.601  1.00  0.00     0.057 A 
ATOM     15  C   UNL A   1      32.536  18.465  26.111  1.00  0.00     0.030 A 
ATOM     16  C   UNL A   1      33.646  20.170  24.703  1.00  0.00     0.013 A 
ATOM     17  C   UNL A   1      33.152  19.718  25.932  1.00  0.00     0.046 A 
ATOM     18  N   UNL A   1      33.398  20.711  26.845  1.00  0.00    -0.361 N 
ATOM     19  C   UNL A   1      34.057  21.745  26.244  1.00  0.00     0.094 A 
ATOM     20  H   UNL A   1      33.138  20.682  27.793  1.00  0.00     0.166 HD
BRANCH  12  21
ATOM     21  O   UNL A   1      33.129  17.177  22.722  1.00  0.00    -0.497 OA
ATOM     22  C   UNL A   1      34.303  16.385  22.797  1.00  0.00     0.278 C 
ENDBRANCH  12  21
ENDBRANCH  10  11
BRANCH  10  23
ATOM     23  N   UNL A   1      34.293  23.602  23.479  1.00  0.00    -0.310 N 
ATOM     24  C   UNL A   1      33.886  24.572  24.469  1.00  0.00     0.325 C 
ATOM     25  C   UNL A   1      33.151  23.479  22.535  1.00  0.00     0.325 C 
ATOM     26  H   UNL A   1      35.101  23.925  22.947  1.00  0.00     0.349 HD
ATOM     27  C   UNL A   1      33.812  25.933  23.784  1.00  0.00     0.324 C 
ATOM     28  C   UNL A   1      32.386  24.851  22.195  1.00  0.00     0.324 C 
ATOM     29  N   UNL A   1      32.522  26.004  23.107  1.00  0.00    -0.322 N 
ATOM     30  H   UNL A   1      32.402  26.753  22.426  1.00  0.00     0.348 HD
BRANCH  29  31
ATOM     31  C   UNL A   1      31.479  26.426  24.072  1.00  0.00     0.300 C 
BRANCH  31  32
ATOM     32  C   UNL A   1      31.179  27.879  24.385  1.00  0.00     0.014 A 
ATOM     33  C   UNL A   1      32.036  28.510  25.303  1.00  0.00     0.010 A 
ATOM     34  C   UNL A   1      30.053  28.613  23.892  1.00  0.00    -0.010 A 
ATOM     35  C   UNL A   1      31.859  29.844  25.645  1.00  0.00     0.001 A 
ATOM     36  C   UNL A   1      30.009  30.010  24.084  1.00  0.00    -0.018 A 
ATOM     37  C   UNL A   1      28.920  28.057  23.265  1.00  0.00     0.009 A 
ATOM     38  C   UNL A   1      30.896  30.604  24.989  1.00  0.00     0.009 A 
ATOM     39  C   UNL A   1      29.053  30.791  23.406  1.00  0.00     0.009 A 
ATOM     40  C   UNL A   1      27.975  28.825  22.580  1.00  0.00     0.001 A 
ATOM     41  C   UNL A   1      28.074  30.203  22.608  1.00  0.00     0.001 A 
ENDBRANCH  31  32
ENDBRANCH  29  31
ENDBRANCH  10  23
ENDBRANCH   8  10
ENDBRANCH   7   8
ENDBRANCH   6   7
ENDBRANCH   5   6
ENDBRANCH   4   5
ENDBRANCH   3   4
ENDBRANCH   2   3
ENDBRANCH   1   2
BRANCH   1  42
ATOM     42  C   UNL A   1      39.308  26.717  28.149  1.00  0.00     0.188 C 
BRANCH  42  43
ATOM     43  C   UNL A   1      39.400  27.658  29.355  1.00  0.00     0.188 C 
BRANCH  43  44
ATOM     44  O   UNL A   1      38.802  28.951  29.229  1.00  0.00    -0.376 OA
BRANCH  44  45
ATOM     45  C   UNL A   1      38.496  29.455  27.929  1.00  0.00     0.202 C 
BRANCH  45  46
ATOM     46  C   UNL A   1      37.059  29.914  27.683  1.00  0.00     0.261 C 
BRANCH  46  47
ATOM     47  O   UNL A   1      36.256  29.797  28.871  1.00  0.00    -0.460 OA
BRANCH  47  48
ATOM     48  C   UNL A   1      35.870  30.954  29.425  1.00  0.00     0.338 C 
ATOM     49  O   UNL A   1      34.965  31.707  29.019  1.00  0.00    -0.246 OA
BRANCH  48  50
ATOM     50  C   UNL A   1      36.544  31.174  30.703  1.00  0.00     0.060 A 
ATOM     51  C   UNL A   1      37.490  32.204  30.778  1.00  0.00     0.016 A 
ATOM     52  C   UNL A   1      36.350  30.298  31.775  1.00  0.00     0.016 A 
ATOM     53  C   UNL A   1      38.306  32.314  31.895  1.00  0.00     0.010 A 
ATOM     54  C   UNL A   1      37.187  30.397  32.889  1.00  0.00     0.010 A 
ATOM     55  C   UNL A   1      38.203  31.368  32.920  1.00  0.00    -0.014 A 
BRANCH  55  56
ATOM     56  C   UNL A   1      39.305  31.274  33.902  1.00  0.00     0.031 A 
ATOM     57  C   UNL A   1      40.497  30.420  33.560  1.00  0.00     0.074 A 
ATOM     58  C   UNL A   1      39.266  31.979  35.044  1.00  0.00     0.049 A 
ATOM     59  N   UNL A   1      41.588  30.210  34.246  1.00  0.00    -0.248 NA
ATOM     60  C   UNL A   1      40.452  29.711  32.269  1.00  0.00     0.031 C 
ATOM     61  C   UNL A   1      38.170  32.853  35.457  1.00  0.00     0.029 A 
ATOM     62  N   UNL A   1      40.172  32.060  36.068  1.00  0.00    -0.354 N 
ATOM     63  C   UNL A   1      42.349  29.329  33.486  1.00  0.00     0.074 A 
ATOM     64  C   UNL A   1      41.591  29.035  32.290  1.00  0.00     0.031 C 
ATOM     65  C   UNL A   1      38.458  33.368  36.664  1.00  0.00     0.029 A 
ATOM     66  C   UNL A   1      39.746  32.840  37.114  1.00  0.00     0.049 A 
ATOM     67  H   UNL A   1      41.044  31.603  36.055  1.00  0.00     0.167 HD
ATOM     68  C   UNL A   1      43.574  28.822  33.754  1.00  0.00     0.034 A 
ATOM     69  C   UNL A   1      40.326  33.081  38.307  1.00  0.00     0.034 A 
ATOM     70  C   UNL A   1      44.325  29.135  34.937  1.00  0.00     0.049 A 
ATOM     71  C   UNL A   1      41.678  32.483  38.594  1.00  0.00     0.074 A 
ATOM     72  C   UNL A   1      45.590  28.703  35.294  1.00  0.00     0.029 A 
ATOM     73  N   UNL A   1      43.874  29.950  35.964  1.00  0.00    -0.354 N 
ATOM     74  N   UNL A   1      42.431  31.735  37.821  1.00  0.00    -0.248 NA
ATOM     75  C   UNL A   1      42.276  32.785  39.902  1.00  0.00     0.031 C 
ATOM     76  C   UNL A   1      45.892  29.238  36.551  1.00  0.00     0.029 A 
ATOM     77  C   UNL A   1      44.828  30.025  36.963  1.00  0.00     0.049 A 
ATOM     78  H   UNL A   1      43.003  30.409  35.980  1.00  0.00     0.167 HD
ATOM     79  C   UNL A   1      43.604  31.509  38.533  1.00  0.00     0.074 A 
ATOM     80  C   UNL A   1      43.468  32.212  39.793  1.00  0.00     0.031 C 
ATOM     81  C   UNL A   1      44.691  30.777  38.185  1.00  0.00     0.034 A 
BRANCH  68  82
ATOM     82  C   UNL A   1      44.183  27.890  32.740  1.00  0.00     0.023 A 
ATOM     83  C   UNL A   1      44.028  26.497  32.887  1.00  0.00     0.012 A 
ATOM     84  C   UNL A   1      44.870  28.394  31.619  1.00  0.00     0.148 A 
ATOM     85  C   UNL A   1      44.573  25.619  31.951  1.00  0.00     0.002 A 
ATOM     86  C   UNL A   1      45.375  27.514  30.668  1.00  0.00     0.091 A 
ATOM     87  F   UNL A   1      45.031  29.721  31.510  1.00  0.00    -0.205 F 
ATOM     88  C   UNL A   1      45.236  26.127  30.838  1.00  0.00     0.022 A 
BRANCH  86  89
ATOM     89  S   UNL A   1      46.184  28.075  29.165  1.00  0.00     0.127 S 
ATOM     90  O   UNL A   1      47.433  28.625  29.689  1.00  0.00    -0.237 OA
ATOM     91  O   UNL A   1      46.335  26.829  28.412  1.00  0.00    -0.237 OA
ATOM     92  O   UNL A   1      45.280  29.043  28.559  1.00  0.00    -0.744 OA
ENDBRANCH  86  89
ENDBRANCH  68  82
BRANCH  69  93
ATOM     93  C   UNL A   1      39.638  33.949  39.302  1.00  0.00     0.023 A 
ATOM     94  C   UNL A   1      38.860  33.367  40.319  1.00  0.00     0.012 A 
ATOM     95  C   UNL A   1      39.780  35.349  39.260  1.00  0.00     0.148 A 
ATOM     96  C   UNL A   1      38.215  34.167  41.265  1.00  0.00     0.002 A 
ATOM     97  C   UNL A   1      39.181  36.136  40.236  1.00  0.00     0.091 A 
ATOM     98  F   UNL A   1      40.508  35.885  38.270  1.00  0.00    -0.205 F 
ATOM     99  C   UNL A   1      38.385  35.549  41.231  1.00  0.00     0.022 A 
BRANCH  97 100
ATOM    100  S   UNL A   1      39.465  37.907  40.340  1.00  0.00     0.127 S 
ATOM    101  O   UNL A   1      40.816  38.025  39.797  1.00  0.00    -0.237 OA
ATOM    102  O   UNL A   1      38.406  38.433  39.477  1.00  0.00    -0.237 OA
ATOM    103  O   UNL A   1      39.312  38.244  41.748  1.00  0.00    -0.744 OA
ENDBRANCH  97 100
ENDBRANCH  69  93
BRANCH  81 104
ATOM    104  C   UNL A   1      45.840  30.722  39.158  1.00  0.00     0.023 A 
ATOM    105  C   UNL A   1      46.768  31.780  39.207  1.00  0.00     0.012 A 
ATOM    106  C   UNL A   1      45.942  29.666  40.084  1.00  0.00     0.148 A 
ATOM    107  C   UNL A   1      47.799  31.773  40.145  1.00  0.00     0.002 A 
ATOM    108  C   UNL A   1      46.943  29.691  41.048  1.00  0.00     0.091 A 
ATOM    109  F   UNL A   1      45.058  28.661  40.009  1.00  0.00    -0.205 F 
ATOM    110  C   UNL A   1      47.879  30.737  41.072  1.00  0.00     0.022 A 
BRANCH 108 111
ATOM    111  S   UNL A   1      47.061  28.451  42.343  1.00  0.00     0.127 S 
ATOM    112  O   UNL A   1      47.163  27.217  41.566  1.00  0.00    -0.237 OA
ATOM    113  O   UNL A   1      48.291  28.840  43.034  1.00  0.00    -0.237 OA
ATOM    114  O   UNL A   1      45.851  28.589  43.142  1.00  0.00    -0.744 OA
ENDBRANCH 108 111
ENDBRANCH  81 104
ENDBRANCH  55  56
ENDBRANCH  48  50
ENDBRANCH  47  48
ENDBRANCH  46  47
ENDBRANCH  45  46
ENDBRANCH  44  45
ENDBRANCH  43  44
ENDBRANCH  42  43
ENDBRANCH   1  42
TORSDOF 28
ENDMDL
MODEL 2
REMARK VINA RESULT:      -8.7      4.202      6.310
REMARK SMILES COc1ccc2[nH]cc([C@H](C(=O)OCCOCCOCCOCCOC(=O)c3ccc(-c4c5nc(c(-c6cccc(S(=O)(=O)[O-])c6F)c6ccc([nH]6)c(-c6cccc(S(=O)(=O)[O-])c6F)c6nc(c(-c7cccc(S(=O)(=O)[O-])c7F)c7ccc4[nH]7)C=C6)C=C5)cc3)[NH+]3CC[NH+](Cc4cccc5ccccc45)CC3)c2c1
REMARK SMILES IDX 19 1 18 2 17 3 16 4 15 5 14 6 13 7 11 8 12 9 10 10 9 11 3 12
REMARK SMILES IDX 4 13 109 14 5 15 108 16 6 17 7 18 8 19 2 21 1 22 91 23 92 24
REMARK SMILES IDX 107 25 93 27 106 28 94 29 95 31 96 32 97 33 105 34 98 35
REMARK SMILES IDX 100 36 104 37 99 38 101 39 103 40 102 41 20 42 21 43 22 44
REMARK SMILES IDX 23 45 24 46 25 47 26 48 27 49 28 50 29 51 90 52 30 53 89 54
REMARK SMILES IDX 31 55 32 56 33 57 83 58 34 59 88 60 82 61 84 62 35 63 87 64
REMARK SMILES IDX 81 65 80 66 36 68 68 69 48 70 67 71 49 72 52 73 66 74 85 75
REMARK SMILES IDX 50 76 51 77 65 79 86 80 53 81 37 82 38 83 46 84 39 85 41 86
REMARK SMILES IDX 47 87 40 88 42 89 43 90 44 91 45 92 69 93 70 94 78 95 71 96
REMARK SMILES IDX 73 97 79 98 72 99 74 100 75 101 76 102 77 103 54 104 55 105
REMARK SMILES IDX 63 106 56 107 58 108 64 109 57 110 59 111 60 112 61 113
REMARK SMILES IDX 62 114
REMARK H PARENT 7 20 91 26 94 30 84 67 52 78
REMARK Flexibility Score: inf
ROOT
ATOM      1  O   UNL A   1      40.569  26.491  27.341  1.00  0.00    -0.377 OA
ENDROOT
BRANCH   1   2
ATOM      2  C   UNL A   1      40.502  25.136  26.929  1.00  0.00     0.188 C 
BRANCH   2   3
ATOM      3  C   UNL A   1      39.059  24.614  26.995  1.00  0.00     0.188 C 
BRANCH   3   4
ATOM      4  O   UNL A   1      38.564  23.916  25.855  1.00  0.00    -0.376 OA
BRANCH   4   5
ATOM      5  C   UNL A   1      37.661  22.845  26.111  1.00  0.00     0.202 C 
BRANCH   5   6
ATOM      6  C   UNL A   1      36.176  23.187  25.888  1.00  0.00     0.261 C 
BRANCH   6   7
ATOM      7  O   UNL A   1      35.999  24.051  24.736  1.00  0.00    -0.459 OA
BRANCH   7   8
ATOM      8  C   UNL A   1      35.895  23.428  23.523  1.00  0.00     0.370 C 
ATOM      9  O   UNL A   1      36.879  23.209  22.821  1.00  0.00    -0.245 OA
BRANCH   8  10
ATOM     10  C   UNL A   1      34.417  23.156  23.071  1.00  0.00     0.328 C 
BRANCH  10  11
ATOM     11  C   UNL A   1      33.519  22.356  24.025  1.00  0.00     0.046 A 
ATOM     12  C   UNL A   1      33.925  18.553  24.521  1.00  0.00     0.119 A 
ATOM     13  C   UNL A   1      32.956  18.400  25.502  1.00  0.00     0.048 A 
ATOM     14  C   UNL A   1      34.104  19.784  23.878  1.00  0.00     0.057 A 
ATOM     15  C   UNL A   1      32.152  19.488  25.860  1.00  0.00     0.030 A 
ATOM     16  C   UNL A   1      33.428  20.938  24.315  1.00  0.00     0.013 A 
ATOM     17  C   UNL A   1      32.434  20.738  25.279  1.00  0.00     0.046 A 
ATOM     18  N   UNL A   1      31.852  21.959  25.503  1.00  0.00    -0.361 N 
ATOM     19  C   UNL A   1      32.467  22.915  24.747  1.00  0.00     0.094 A 
ATOM     20  H   UNL A   1      31.102  22.121  26.118  1.00  0.00     0.166 HD
BRANCH  12  21
ATOM     21  O   UNL A   1      34.906  17.626  24.297  1.00  0.00    -0.497 OA
ATOM     22  C   UNL A   1      34.569  16.284  24.608  1.00  0.00     0.278 C 
ENDBRANCH  12  21
ENDBRANCH  10  11
BRANCH  10  23
ATOM     23  N   UNL A   1      33.832  24.371  22.429  1.00  0.00    -0.310 N 
ATOM     24  C   UNL A   1      33.387  25.446  23.285  1.00  0.00     0.325 C 
ATOM     25  C   UNL A   1      32.805  24.248  21.361  1.00  0.00     0.325 C 
ATOM     26  H   UNL A   1      34.721  24.593  21.979  1.00  0.00     0.349 HD
ATOM     27  C   UNL A   1      33.502  26.747  22.497  1.00  0.00     0.324 C 
ATOM     28  C   UNL A   1      32.195  25.636  20.827  1.00  0.00     0.324 C 
ATOM     29  N   UNL A   1      32.312  26.849  21.660  1.00  0.00    -0.322 N 
ATOM     30  H   UNL A   1      32.333  27.545  20.915  1.00  0.00     0.348 HD
BRANCH  29  31
ATOM     31  C   UNL A   1      31.197  27.421  22.453  1.00  0.00     0.300 C 
BRANCH  31  32
ATOM     32  C   UNL A   1      30.970  27.096  23.917  1.00  0.00     0.014 A 
ATOM     33  C   UNL A   1      30.305  25.889  24.193  1.00  0.00     0.010 A 
ATOM     34  C   UNL A   1      31.297  27.958  25.012  1.00  0.00    -0.010 A 
ATOM     35  C   UNL A   1      30.063  25.491  25.501  1.00  0.00     0.001 A 
ATOM     36  C   UNL A   1      31.234  27.449  26.326  1.00  0.00    -0.018 A 
ATOM     37  C   UNL A   1      31.630  29.324  24.913  1.00  0.00     0.009 A 
ATOM     38  C   UNL A   1      30.584  26.231  26.557  1.00  0.00     0.009 A 
ATOM     39  C   UNL A   1      31.779  28.181  27.399  1.00  0.00     0.009 A 
ATOM     40  C   UNL A   1      32.183  30.052  25.970  1.00  0.00     0.001 A 
ATOM     41  C   UNL A   1      32.306  29.457  27.210  1.00  0.00     0.001 A 
ENDBRANCH  31  32
ENDBRANCH  29  31
ENDBRANCH  10  23
ENDBRANCH   8  10
ENDBRANCH   7   8
ENDBRANCH   6   7
ENDBRANCH   5   6
ENDBRANCH   4   5
ENDBRANCH   3   4
ENDBRANCH   2   3
ENDBRANCH   1   2
BRANCH   1  42
ATOM     42  C   UNL A   1      39.681  26.838  28.393  1.00  0.00     0.188 C 
BRANCH  42  43
ATOM     43  C   UNL A   1      40.379  27.719  29.435  1.00  0.00     0.188 C 
BRANCH  43  44
ATOM     44  O   UNL A   1      40.293  29.136  29.264  1.00  0.00    -0.376 OA
BRANCH  44  45
ATOM     45  C   UNL A   1      39.497  29.664  28.203  1.00  0.00     0.202 C 
BRANCH  45  46
ATOM     46  C   UNL A   1      38.164  30.304  28.589  1.00  0.00     0.261 C 
BRANCH  46  47
ATOM     47  O   UNL A   1      37.904  30.177  29.998  1.00  0.00    -0.460 OA
BRANCH  47  48
ATOM     48  C   UNL A   1      36.976  31.007  30.493  1.00  0.00     0.338 C 
ATOM     49  O   UNL A   1      35.868  31.268  29.989  1.00  0.00    -0.246 OA
BRANCH  48  50
ATOM     50  C   UNL A   1      37.350  31.475  31.825  1.00  0.00     0.060 A 
ATOM     51  C   UNL A   1      36.860  32.717  32.247  1.00  0.00     0.016 A 
ATOM     52  C   UNL A   1      38.276  30.768  32.600  1.00  0.00     0.016 A 
ATOM     53  C   UNL A   1      37.354  33.300  33.405  1.00  0.00     0.010 A 
ATOM     54  C   UNL A   1      38.788  31.365  33.754  1.00  0.00     0.010 A 
ATOM     55  C   UNL A   1      38.369  32.656  34.122  1.00  0.00    -0.014 A 
BRANCH  55  56
ATOM     56  C   UNL A   1      39.134  33.441  35.115  1.00  0.00     0.031 A 
ATOM     57  C   UNL A   1      40.254  34.319  34.624  1.00  0.00     0.074 A 
ATOM     58  C   UNL A   1      38.797  33.414  36.415  1.00  0.00     0.049 A 
ATOM     59  N   UNL A   1      41.039  35.114  35.300  1.00  0.00    -0.248 NA
ATOM     60  C   UNL A   1      40.523  34.297  33.175  1.00  0.00     0.031 C 
ATOM     61  C   UNL A   1      37.714  32.618  36.987  1.00  0.00     0.029 A 
ATOM     62  N   UNL A   1      39.344  34.070  37.486  1.00  0.00    -0.354 N 
ATOM     63  C   UNL A   1      41.908  35.670  34.368  1.00  0.00     0.074 A 
ATOM     64  C   UNL A   1      41.562  35.113  33.078  1.00  0.00     0.031 C 
ATOM     65  C   UNL A   1      37.689  32.814  38.317  1.00  0.00     0.029 A 
ATOM     66  C   UNL A   1      38.767  33.731  38.685  1.00  0.00     0.049 A 
ATOM     67  H   UNL A   1      40.077  34.720  37.404  1.00  0.00     0.167 HD
ATOM     68  C   UNL A   1      42.896  36.573  34.566  1.00  0.00     0.034 A 
ATOM     69  C   UNL A   1      39.092  34.106  39.938  1.00  0.00     0.034 A 
ATOM     70  C   UNL A   1      43.219  37.132  35.849  1.00  0.00     0.049 A 
ATOM     71  C   UNL A   1      40.214  35.091  40.137  1.00  0.00     0.074 A 
ATOM     72  C   UNL A   1      44.179  38.078  36.159  1.00  0.00     0.029 A 
ATOM     73  N   UNL A   1      42.597  36.785  37.039  1.00  0.00    -0.354 N 
ATOM     74  N   UNL A   1      40.958  35.687  39.235  1.00  0.00    -0.248 NA
ATOM     75  C   UNL A   1      40.521  35.481  41.520  1.00  0.00     0.031 C 
ATOM     76  C   UNL A   1      44.155  38.284  37.542  1.00  0.00     0.029 A 
ATOM     77  C   UNL A   1      43.161  37.488  38.089  1.00  0.00     0.049 A 
ATOM     78  H   UNL A   1      41.863  36.135  37.124  1.00  0.00     0.167 HD
ATOM     79  C   UNL A   1      41.795  36.547  39.938  1.00  0.00     0.074 A 
ATOM     80  C   UNL A   1      41.455  36.406  41.339  1.00  0.00     0.031 C 
ATOM     81  C   UNL A   1      42.767  37.370  39.470  1.00  0.00     0.034 A 
BRANCH  68  82
ATOM     82  C   UNL A   1      43.685  37.022  33.365  1.00  0.00     0.023 A 
ATOM     83  C   UNL A   1      44.552  36.118  32.719  1.00  0.00     0.012 A 
ATOM     84  C   UNL A   1      43.535  38.324  32.850  1.00  0.00     0.148 A 
ATOM     85  C   UNL A   1      45.281  36.513  31.596  1.00  0.00     0.002 A 
ATOM     86  C   UNL A   1      44.233  38.697  31.706  1.00  0.00     0.091 A 
ATOM     87  F   UNL A   1      42.726  39.178  33.494  1.00  0.00    -0.205 F 
ATOM     88  C   UNL A   1      45.114  37.796  31.085  1.00  0.00     0.022 A 
BRANCH  86  89
ATOM     89  S   UNL A   1      44.031  40.305  30.932  1.00  0.00     0.127 S 
ATOM     90  O   UNL A   1      44.595  41.195  31.946  1.00  0.00    -0.237 OA
ATOM     91  O   UNL A   1      44.842  40.169  29.722  1.00  0.00    -0.237 OA
ATOM     92  O   UNL A   1      42.603  40.458  30.690  1.00  0.00    -0.744 OA
ENDBRANCH  86  89
ENDBRANCH  68  82
BRANCH  69  93
ATOM     93  C   UNL A   1      38.324  33.566  41.094  1.00  0.00     0.023 A 
ATOM     94  C   UNL A   1      37.200  34.262  41.575  1.00  0.00     0.012 A 
ATOM     95  C   UNL A   1      38.686  32.345  41.695  1.00  0.00     0.148 A 
ATOM     96  C   UNL A   1      36.464  33.764  42.652  1.00  0.00     0.002 A 
ATOM     97  C   UNL A   1      37.917  31.827  42.730  1.00  0.00     0.091 A 
ATOM     98  F   UNL A   1      39.772  31.708  41.236  1.00  0.00    -0.205 F 
ATOM     99  C   UNL A   1      36.814  32.542  43.221  1.00  0.00     0.022 A 
BRANCH  97 100
ATOM    100  S   UNL A   1      38.223  30.199  43.422  1.00  0.00     0.127 S 
ATOM    101  O   UNL A   1      38.167  29.354  42.232  1.00  0.00    -0.237 OA
ATOM    102  O   UNL A   1      39.558  30.361  44.000  1.00  0.00    -0.237 OA
ATOM    103  O   UNL A   1      37.168  29.988  44.403  1.00  0.00    -0.744 OA
ENDBRANCH  97 100
ENDBRANCH  69  93
BRANCH  81 104
ATOM    104  C   UNL A   1      43.512  38.213  40.472  1.00  0.00     0.023 A 
ATOM    105  C   UNL A   1      44.698  37.725  41.054  1.00  0.00     0.012 A 
ATOM    106  C   UNL A   1      43.085  39.523  40.762  1.00  0.00     0.148 A 
ATOM    107  C   UNL A   1      45.432  38.518  41.934  1.00  0.00     0.002 A 
ATOM    108  C   UNL A   1      43.848  40.325  41.602  1.00  0.00     0.091 A 
ATOM    109  F   UNL A   1      41.944  39.962  40.210  1.00  0.00    -0.205 F 
ATOM    110  C   UNL A   1      45.016  39.821  42.197  1.00  0.00     0.022 A 
BRANCH 108 111
ATOM    111  S   UNL A   1      43.442  42.046  41.917  1.00  0.00     0.127 S 
ATOM    112  O   UNL A   1      43.437  42.605  40.566  1.00  0.00    -0.237 OA
ATOM    113  O   UNL A   1      42.120  41.944  42.539  1.00  0.00    -0.237 OA
ATOM    114  O   UNL A   1      44.486  42.551  42.800  1.00  0.00    -0.744 OA
ENDBRANCH 108 111
ENDBRANCH  81 104
ENDBRANCH  55  56
ENDBRANCH  48  50
ENDBRANCH  47  48
ENDBRANCH  46  47
ENDBRANCH  45  46
ENDBRANCH  44  45
ENDBRANCH  43  44
ENDBRANCH  42  43
ENDBRANCH   1  42
TORSDOF 28
ENDMDL
MODEL 3
REMARK VINA RESULT:      -8.2      4.417      7.262
REMARK SMILES COc1ccc2[nH]cc([C@H](C(=O)OCCOCCOCCOCCOC(=O)c3ccc(-c4c5nc(c(-c6cccc(S(=O)(=O)[O-])c6F)c6ccc([nH]6)c(-c6cccc(S(=O)(=O)[O-])c6F)c6nc(c(-c7cccc(S(=O)(=O)[O-])c7F)c7ccc4[nH]7)C=C6)C=C5)cc3)[NH+]3CC[NH+](Cc4cccc5ccccc45)CC3)c2c1
REMARK SMILES IDX 19 1 18 2 17 3 16 4 15 5 14 6 13 7 11 8 12 9 10 10 9 11 3 12
REMARK SMILES IDX 4 13 109 14 5 15 108 16 6 17 7 18 8 19 2 21 1 22 91 23 92 24
REMARK SMILES IDX 107 25 93 27 106 28 94 29 95 31 96 32 97 33 105 34 98 35
REMARK SMILES IDX 100 36 104 37 99 38 101 39 103 40 102 41 20 42 21 43 22 44
REMARK SMILES IDX 23 45 24 46 25 47 26 48 27 49 28 50 29 51 90 52 30 53 89 54
REMARK SMILES IDX 31 55 32 56 33 57 83 58 34 59 88 60 82 61 84 62 35 63 87 64
REMARK SMILES IDX 81 65 80 66 36 68 68 69 48 70 67 71 49 72 52 73 66 74 85 75
REMARK SMILES IDX 50 76 51 77 65 79 86 80 53 81 37 82 38 83 46 84 39 85 41 86
REMARK SMILES IDX 47 87 40 88 42 89 43 90 44 91 45 92 69 93 70 94 78 95 71 96
REMARK SMILES IDX 73 97 79 98 72 99 74 100 75 101 76 102 77 103 54 104 55 105
REMARK SMILES IDX 63 106 56 107 58 108 64 109 57 110 59 111 60 112 61 113
REMARK SMILES IDX 62 114
REMARK H PARENT 7 20 91 26 94 30 84 67 52 78
REMARK Flexibility Score: inf
ROOT
ATOM      1  O   UNL A   1      33.073  28.649  26.803  1.00  0.00    -0.377 OA
ENDROOT
BRANCH   1   2
ATOM      2  C   UNL A   1      32.181  27.844  27.558  1.00  0.00     0.188 C 
BRANCH   2   3
ATOM      3  C   UNL A   1      30.980  27.410  26.706  1.00  0.00     0.188 C 
BRANCH   3   4
ATOM      4  O   UNL A   1      30.377  26.155  27.017  1.00  0.00    -0.376 OA
BRANCH   4   5
ATOM      5  C   UNL A   1      30.709  25.064  26.164  1.00  0.00     0.202 C 
BRANCH   5   6
ATOM      6  C   UNL A   1      30.918  23.721  26.887  1.00  0.00     0.261 C 
BRANCH   6   7
ATOM      7  O   UNL A   1      32.280  23.244  26.734  1.00  0.00    -0.459 OA
BRANCH   7   8
ATOM      8  C   UNL A   1      32.750  23.159  25.453  1.00  0.00     0.370 C 
ATOM      9  O   UNL A   1      32.255  22.393  24.631  1.00  0.00    -0.245 OA
BRANCH   8  10
ATOM     10  C   UNL A   1      34.039  24.014  25.190  1.00  0.00     0.328 C 
BRANCH  10  11
ATOM     11  C   UNL A   1      35.381  23.271  25.112  1.00  0.00     0.046 A 
ATOM     12  C   UNL A   1      35.589  19.428  24.865  1.00  0.00     0.119 A 
ATOM     13  C   UNL A   1      36.967  19.335  24.744  1.00  0.00     0.048 A 
ATOM     14  C   UNL A   1      34.974  20.661  25.117  1.00  0.00     0.057 A 
ATOM     15  C   UNL A   1      37.755  20.485  24.868  1.00  0.00     0.030 A 
ATOM     16  C   UNL A   1      35.711  21.859  25.093  1.00  0.00     0.013 A 
ATOM     17  C   UNL A   1      37.101  21.723  25.006  1.00  0.00     0.046 A 
ATOM     18  N   UNL A   1      37.625  22.987  25.078  1.00  0.00    -0.361 N 
ATOM     19  C   UNL A   1      36.620  23.906  25.169  1.00  0.00     0.094 A 
ATOM     20  H   UNL A   1      38.586  23.200  25.065  1.00  0.00     0.166 HD
BRANCH  12  21
ATOM     21  O   UNL A   1      34.742  18.413  24.510  1.00  0.00    -0.497 OA
ATOM     22  C   UNL A   1      33.406  18.795  24.229  1.00  0.00     0.278 C 
ENDBRANCH  12  21
ENDBRANCH  10  11
BRANCH  10  23
ATOM     23  N   UNL A   1      33.773  25.066  24.164  1.00  0.00    -0.310 N 
ATOM     24  C   UNL A   1      32.520  25.782  24.234  1.00  0.00     0.325 C 
ATOM     25  C   UNL A   1      34.011  24.801  22.721  1.00  0.00     0.325 C 
ATOM     26  H   UNL A   1      34.548  25.633  24.507  1.00  0.00     0.349 HD
ATOM     27  C   UNL A   1      32.738  27.163  23.625  1.00  0.00     0.324 C 
ATOM     28  C   UNL A   1      33.591  25.988  21.722  1.00  0.00     0.324 C 
ATOM     29  N   UNL A   1      32.635  27.017  22.178  1.00  0.00    -0.322 N 
ATOM     30  H   UNL A   1      32.969  27.797  21.613  1.00  0.00     0.348 HD
BRANCH  29  31
ATOM     31  C   UNL A   1      31.209  27.059  21.777  1.00  0.00     0.300 C 
BRANCH  31  32
ATOM     32  C   UNL A   1      30.264  28.170  22.191  1.00  0.00     0.014 A 
ATOM     33  C   UNL A   1      30.677  29.482  21.902  1.00  0.00     0.010 A 
ATOM     34  C   UNL A   1      29.047  27.987  22.923  1.00  0.00    -0.010 A 
ATOM     35  C   UNL A   1      29.877  30.570  22.225  1.00  0.00     0.001 A 
ATOM     36  C   UNL A   1      28.158  29.074  23.056  1.00  0.00    -0.018 A 
ATOM     37  C   UNL A   1      28.662  26.810  23.597  1.00  0.00     0.009 A 
ATOM     38  C   UNL A   1      28.600  30.362  22.735  1.00  0.00     0.009 A 
ATOM     39  C   UNL A   1      26.854  28.869  23.549  1.00  0.00     0.009 A 
ATOM     40  C   UNL A   1      27.367  26.596  24.077  1.00  0.00     0.001 A 
ATOM     41  C   UNL A   1      26.441  27.619  24.004  1.00  0.00     0.001 A 
ENDBRANCH  31  32
ENDBRANCH  29  31
ENDBRANCH  10  23
ENDBRANCH   8  10
ENDBRANCH   7   8
ENDBRANCH   6   7
ENDBRANCH   5   6
ENDBRANCH   4   5
ENDBRANCH   3   4
ENDBRANCH   2   3
ENDBRANCH   1   2
BRANCH   1  42
ATOM     42  C   UNL A   1      33.067  30.026  27.148  1.00  0.00     0.188 C 
BRANCH  42  43
ATOM     43  C   UNL A   1      34.494  30.551  27.344  1.00  0.00     0.188 C 
BRANCH  43  44
ATOM     44  O   UNL A   1      34.912  30.839  28.681  1.00  0.00    -0.376 OA
BRANCH  44  45
ATOM     45  C   UNL A   1      36.298  30.752  29.012  1.00  0.00     0.202 C 
BRANCH  45  46
ATOM     46  C   UNL A   1      36.757  29.494  29.749  1.00  0.00     0.261 C 
BRANCH  46  47
ATOM     47  O   UNL A   1      37.431  29.817  30.978  1.00  0.00    -0.460 OA
BRANCH  47  48
ATOM     48  C   UNL A   1      38.316  30.821  30.906  1.00  0.00     0.338 C 
ATOM     49  O   UNL A   1      38.096  31.978  30.505  1.00  0.00    -0.246 OA
BRANCH  48  50
ATOM     50  C   UNL A   1      39.585  30.445  31.524  1.00  0.00     0.060 A 
ATOM     51  C   UNL A   1      40.717  31.211  31.219  1.00  0.00     0.016 A 
ATOM     52  C   UNL A   1      39.693  29.278  32.287  1.00  0.00     0.016 A 
ATOM     53  C   UNL A   1      41.975  30.771  31.604  1.00  0.00     0.010 A 
ATOM     54  C   UNL A   1      40.961  28.826  32.656  1.00  0.00     0.010 A 
ATOM     55  C   UNL A   1      42.105  29.542  32.262  1.00  0.00    -0.014 A 
BRANCH  55  56
ATOM     56  C   UNL A   1      43.444  28.920  32.329  1.00  0.00     0.031 A 
ATOM     57  C   UNL A   1      43.996  28.273  31.087  1.00  0.00     0.074 A 
ATOM     58  C   UNL A   1      44.172  28.983  33.456  1.00  0.00     0.049 A 
ATOM     59  N   UNL A   1      45.151  27.693  30.899  1.00  0.00    -0.248 NA
ATOM     60  C   UNL A   1      43.127  28.284  29.896  1.00  0.00     0.031 C 
ATOM     61  C   UNL A   1      43.740  29.608  34.704  1.00  0.00     0.029 A 
ATOM     62  N   UNL A   1      45.426  28.504  33.730  1.00  0.00    -0.354 N 
ATOM     63  C   UNL A   1      45.142  27.251  29.581  1.00  0.00     0.074 A 
ATOM     64  C   UNL A   1      43.862  27.619  29.017  1.00  0.00     0.031 C 
ATOM     65  C   UNL A   1      44.708  29.454  35.624  1.00  0.00     0.029 A 
ATOM     66  C   UNL A   1      45.814  28.701  35.032  1.00  0.00     0.049 A 
ATOM     67  H   UNL A   1      45.994  28.061  33.058  1.00  0.00     0.167 HD
ATOM     68  C   UNL A   1      46.117  26.607  28.899  1.00  0.00     0.034 A 
ATOM     69  C   UNL A   1      46.929  28.298  35.674  1.00  0.00     0.034 A 
ATOM     70  C   UNL A   1      47.391  26.262  29.465  1.00  0.00     0.049 A 
ATOM     71  C   UNL A   1      47.988  27.559  34.900  1.00  0.00     0.074 A 
ATOM     72  C   UNL A   1      48.464  25.639  28.854  1.00  0.00     0.029 A 
ATOM     73  N   UNL A   1      47.760  26.501  30.780  1.00  0.00    -0.354 N 
ATOM     74  N   UNL A   1      48.009  27.239  33.628  1.00  0.00    -0.248 NA
ATOM     75  C   UNL A   1      49.191  27.153  35.640  1.00  0.00     0.031 C 
ATOM     76  C   UNL A   1      49.474  25.477  29.809  1.00  0.00     0.029 A 
ATOM     77  C   UNL A   1      49.040  26.025  31.006  1.00  0.00     0.049 A 
ATOM     78  H   UNL A   1      47.195  26.943  31.453  1.00  0.00     0.167 HD
ATOM     79  C   UNL A   1      49.239  26.628  33.407  1.00  0.00     0.074 A 
ATOM     80  C   UNL A   1      49.941  26.637  34.674  1.00  0.00     0.031 C 
ATOM     81  C   UNL A   1      49.739  26.096  32.264  1.00  0.00     0.034 A 
BRANCH  68  82
ATOM     82  C   UNL A   1      45.847  26.252  27.461  1.00  0.00     0.023 A 
ATOM     83  C   UNL A   1      46.160  27.172  26.441  1.00  0.00     0.012 A 
ATOM     84  C   UNL A   1      45.326  24.989  27.116  1.00  0.00     0.148 A 
ATOM     85  C   UNL A   1      45.930  26.855  25.102  1.00  0.00     0.002 A 
ATOM     86  C   UNL A   1      45.138  24.664  25.777  1.00  0.00     0.091 A 
ATOM     87  F   UNL A   1      45.010  24.137  28.102  1.00  0.00    -0.205 F 
ATOM     88  C   UNL A   1      45.430  25.599  24.770  1.00  0.00     0.022 A 
BRANCH  86  89
ATOM     89  S   UNL A   1      44.564  23.046  25.247  1.00  0.00     0.127 S 
ATOM     90  O   UNL A   1      43.156  23.088  25.641  1.00  0.00    -0.237 OA
ATOM     91  O   UNL A   1      44.795  23.095  23.803  1.00  0.00    -0.237 OA
ATOM     92  O   UNL A   1      45.384  22.076  25.959  1.00  0.00    -0.744 OA
ENDBRANCH  86  89
ENDBRANCH  68  82
BRANCH  69  93
ATOM     93  C   UNL A   1      47.104  28.612  37.119  1.00  0.00     0.023 A 
ATOM     94  C   UNL A   1      47.800  29.772  37.504  1.00  0.00     0.012 A 
ATOM     95  C   UNL A   1      46.551  27.780  38.111  1.00  0.00     0.148 A 
ATOM     96  C   UNL A   1      47.965  30.085  38.855  1.00  0.00     0.002 A 
ATOM     97  C   UNL A   1      46.671  28.126  39.452  1.00  0.00     0.091 A 
ATOM     98  F   UNL A   1      45.910  26.667  37.724  1.00  0.00    -0.205 F 
ATOM     99  C   UNL A   1      47.391  29.270  39.827  1.00  0.00     0.022 A 
BRANCH  97 100
ATOM    100  S   UNL A   1      45.846  27.202  40.752  1.00  0.00     0.127 S 
ATOM    101  O   UNL A   1      46.602  27.610  41.934  1.00  0.00    -0.237 OA
ATOM    102  O   UNL A   1      44.483  27.731  40.681  1.00  0.00    -0.237 OA
ATOM    103  O   UNL A   1      45.965  25.802  40.371  1.00  0.00    -0.744 OA
ENDBRANCH  97 100
ENDBRANCH  69  93
BRANCH  81 104
ATOM    104  C   UNL A   1      51.125  25.509  32.313  1.00  0.00     0.023 A 
ATOM    105  C   UNL A   1      52.247  26.352  32.201  1.00  0.00     0.012 A 
ATOM    106  C   UNL A   1      51.312  24.135  32.562  1.00  0.00     0.148 A 
ATOM    107  C   UNL A   1      53.536  25.832  32.308  1.00  0.00     0.002 A 
ATOM    108  C   UNL A   1      52.598  23.633  32.717  1.00  0.00     0.091 A 
ATOM    109  F   UNL A   1      50.230  23.348  32.649  1.00  0.00    -0.205 F 
ATOM    110  C   UNL A   1      53.712  24.477  32.579  1.00  0.00     0.022 A 
BRANCH 108 111
ATOM    111  S   UNL A   1      52.914  21.922  33.166  1.00  0.00     0.127 S 
ATOM    112  O   UNL A   1      52.416  21.877  34.540  1.00  0.00    -0.237 OA
ATOM    113  O   UNL A   1      52.096  21.191  32.196  1.00  0.00    -0.237 OA
ATOM    114  O   UNL A   1      54.349  21.725  33.013  1.00  0.00    -0.744 OA
ENDBRANCH 108 111
ENDBRANCH  81 104
ENDBRANCH  55  56
ENDBRANCH  48  50
ENDBRANCH  47  48
ENDBRANCH  46  47
ENDBRANCH  45  46
ENDBRANCH  44  45
ENDBRANCH  43  44
ENDBRANCH  42  43
ENDBRANCH   1  42
TORSDOF 28
ENDMDL
