MODEL 1
REMARK VINA RESULT:     -10.0      0.000      0.000
REMARK SMILES C[C@@H](NC(=O)C[C@H]1CCCCO1)C(=O)OCCOCCOCCOCCOC(=O)c1ccc(-c2c3nc(c(-c4cccc(S(=O)(=O)[O-])c4F)c4ccc([nH]4)c(-c4cccc(S(=O)(=O)[O-])c4F)c4nc(c(-c5cccc(S(=O)(=O)[O-])c5F)c5ccc2[nH]5)C=C4)C=C3)cc1
REMARK SMILES IDX 21 1 20 2 19 3 18 4 17 5 16 6 15 7 13 8 14 9 2 10 1 11 3 12
REMARK SMILES IDX 4 13 5 15 6 16 7 17 8 18 12 19 9 20 11 21 10 22 22 23 23 24
REMARK SMILES IDX 24 25 25 26 26 27 27 28 28 29 29 30 30 31 31 32 92 33 32 34
REMARK SMILES IDX 91 35 33 36 34 37 35 38 85 39 36 40 90 41 84 42 86 43 37 44
REMARK SMILES IDX 89 45 83 46 82 47 38 49 70 50 50 51 69 52 51 53 54 54 68 55
REMARK SMILES IDX 87 56 52 57 53 58 67 60 88 61 55 62 39 63 40 64 48 65 41 66
REMARK SMILES IDX 43 67 49 68 42 69 44 70 45 71 46 72 47 73 71 74 72 75 80 76
REMARK SMILES IDX 73 77 75 78 81 79 74 80 76 81 77 82 78 83 79 84 56 85 57 86
REMARK SMILES IDX 65 87 58 88 60 89 66 90 59 91 61 92 62 93 63 94 64 95
REMARK H PARENT 3 14 86 48 54 59
REMARK Flexibility Score: inf
ROOT
ATOM      1  O   UNL A   1      40.189  21.752  26.396  1.00  0.00    -0.377 OA
ENDROOT
BRANCH   1   2
ATOM      2  C   UNL A   1      38.839  21.722  25.954  1.00  0.00     0.188 C 
BRANCH   2   3
ATOM      3  C   UNL A   1      38.091  23.038  25.727  1.00  0.00     0.188 C 
BRANCH   3   4
ATOM      4  O   UNL A   1      36.937  22.870  24.931  1.00  0.00    -0.376 OA
BRANCH   4   5
ATOM      5  C   UNL A   1      35.771  22.432  25.593  1.00  0.00     0.202 C 
BRANCH   5   6
ATOM      6  C   UNL A   1      35.208  23.245  26.766  1.00  0.00     0.261 C 
BRANCH   6   7
ATOM      7  O   UNL A   1      33.926  23.878  26.606  1.00  0.00    -0.462 OA
BRANCH   7   8
ATOM      8  C   UNL A   1      33.255  23.583  25.464  1.00  0.00     0.328 C 
ATOM      9  O   UNL A   1      33.491  24.133  24.388  1.00  0.00    -0.250 OA
BRANCH   8  10
ATOM     10  C   UNL A   1      32.056  22.619  25.637  1.00  0.00     0.189 C 
ATOM     11  C   UNL A   1      30.797  23.021  26.400  1.00  0.00     0.043 C 
BRANCH  10  12
ATOM     12  N   UNL A   1      31.729  21.809  24.453  1.00  0.00    -0.343 N 
ATOM     13  C   UNL A   1      32.441  20.831  23.820  1.00  0.00     0.223 C 
ATOM     14  H   UNL A   1      30.851  22.003  24.050  1.00  0.00     0.164 HD
ATOM     15  O   UNL A   1      32.155  20.590  22.644  1.00  0.00    -0.275 OA
BRANCH  13  16
ATOM     16  C   UNL A   1      33.429  19.959  24.570  1.00  0.00     0.132 C 
BRANCH  16  17
ATOM     17  C   UNL A   1      33.252  18.444  24.471  1.00  0.00     0.127 C 
ATOM     18  C   UNL A   1      34.517  17.698  24.054  1.00  0.00     0.033 C 
ATOM     19  O   UNL A   1      32.758  17.933  25.701  1.00  0.00    -0.378 OA
ATOM     20  C   UNL A   1      34.229  16.198  23.976  1.00  0.00     0.005 C 
ATOM     21  C   UNL A   1      32.420  16.550  25.666  1.00  0.00     0.160 C 
ATOM     22  C   UNL A   1      33.623  15.702  25.285  1.00  0.00     0.029 C 
ENDBRANCH  16  17
ENDBRANCH  13  16
ENDBRANCH  10  12
ENDBRANCH   8  10
ENDBRANCH   7   8
ENDBRANCH   6   7
ENDBRANCH   5   6
ENDBRANCH   4   5
ENDBRANCH   3   4
ENDBRANCH   2   3
ENDBRANCH   1   2
BRANCH   1  23
ATOM     23  C   UNL A   1      40.805  20.574  26.909  1.00  0.00     0.188 C 
BRANCH  23  24
ATOM     24  C   UNL A   1      41.995  19.939  26.168  1.00  0.00     0.188 C 
BRANCH  24  25
ATOM     25  O   UNL A   1      42.769  20.730  25.273  1.00  0.00    -0.376 OA
BRANCH  25  26
ATOM     26  C   UNL A   1      44.167  20.848  25.484  1.00  0.00     0.202 C 
BRANCH  26  27
ATOM     27  C   UNL A   1      44.742  22.255  25.613  1.00  0.00     0.261 C 
BRANCH  27  28
ATOM     28  O   UNL A   1      43.991  23.232  24.881  1.00  0.00    -0.460 OA
BRANCH  28  29
ATOM     29  C   UNL A   1      44.441  24.495  25.014  1.00  0.00     0.338 C 
ATOM     30  O   UNL A   1      45.521  24.938  24.627  1.00  0.00    -0.246 OA
BRANCH  29  31
ATOM     31  C   UNL A   1      43.419  25.359  25.620  1.00  0.00     0.060 A 
ATOM     32  C   UNL A   1      43.728  26.716  25.773  1.00  0.00     0.016 A 
ATOM     33  C   UNL A   1      42.265  24.818  26.195  1.00  0.00     0.016 A 
ATOM     34  C   UNL A   1      42.953  27.510  26.609  1.00  0.00     0.010 A 
ATOM     35  C   UNL A   1      41.487  25.617  27.036  1.00  0.00     0.010 A 
ATOM     36  C   UNL A   1      41.882  26.939  27.307  1.00  0.00    -0.014 A 
BRANCH  36  37
ATOM     37  C   UNL A   1      41.363  27.646  28.501  1.00  0.00     0.031 A 
ATOM     38  C   UNL A   1      42.195  27.629  29.759  1.00  0.00     0.074 A 
ATOM     39  C   UNL A   1      40.209  28.332  28.454  1.00  0.00     0.049 A 
ATOM     40  N   UNL A   1      41.974  28.212  30.907  1.00  0.00    -0.248 NA
ATOM     41  C   UNL A   1      43.444  26.848  29.715  1.00  0.00     0.031 C 
ATOM     42  C   UNL A   1      39.332  28.429  27.289  1.00  0.00     0.029 A 
ATOM     43  N   UNL A   1      39.578  29.072  29.419  1.00  0.00    -0.354 N 
ATOM     44  C   UNL A   1      43.033  27.843  31.730  1.00  0.00     0.074 A 
ATOM     45  C   UNL A   1      43.891  26.975  30.956  1.00  0.00     0.031 C 
ATOM     46  C   UNL A   1      38.263  29.177  27.613  1.00  0.00     0.029 A 
ATOM     47  C   UNL A   1      38.375  29.596  29.009  1.00  0.00     0.049 A 
ATOM     48  H   UNL A   1      39.949  29.213  30.319  1.00  0.00     0.167 HD
ATOM     49  C   UNL A   1      43.281  28.207  33.010  1.00  0.00     0.034 A 
ATOM     50  C   UNL A   1      37.472  30.327  29.690  1.00  0.00     0.034 A 
ATOM     51  C   UNL A   1      42.442  29.096  33.765  1.00  0.00     0.049 A 
ATOM     52  C   UNL A   1      37.772  30.720  31.114  1.00  0.00     0.074 A 
ATOM     53  C   UNL A   1      42.624  29.568  35.051  1.00  0.00     0.029 A 
ATOM     54  N   UNL A   1      41.254  29.641  33.302  1.00  0.00    -0.354 N 
ATOM     55  N   UNL A   1      38.834  30.459  31.838  1.00  0.00    -0.248 NA
ATOM     56  C   UNL A   1      36.767  31.546  31.800  1.00  0.00     0.031 C 
ATOM     57  C   UNL A   1      41.532  30.381  35.376  1.00  0.00     0.029 A 
ATOM     58  C   UNL A   1      40.688  30.440  34.277  1.00  0.00     0.049 A 
ATOM     59  H   UNL A   1      40.871  29.483  32.408  1.00  0.00     0.167 HD
ATOM     60  C   UNL A   1      38.649  31.129  33.043  1.00  0.00     0.074 A 
ATOM     61  C   UNL A   1      37.377  31.816  32.946  1.00  0.00     0.031 C 
ATOM     62  C   UNL A   1      39.453  31.168  34.136  1.00  0.00     0.034 A 
BRANCH  49  63
ATOM     63  C   UNL A   1      44.518  27.654  33.668  1.00  0.00     0.023 A 
ATOM     64  C   UNL A   1      45.724  28.384  33.623  1.00  0.00     0.012 A 
ATOM     65  C   UNL A   1      44.478  26.431  34.365  1.00  0.00     0.148 A 
ATOM     66  C   UNL A   1      46.877  27.888  34.231  1.00  0.00     0.002 A 
ATOM     67  C   UNL A   1      45.619  25.966  35.006  1.00  0.00     0.091 A 
ATOM     68  F   UNL A   1      43.330  25.738  34.373  1.00  0.00    -0.205 F 
ATOM     69  C   UNL A   1      46.822  26.685  34.930  1.00  0.00     0.022 A 
BRANCH  67  70
ATOM     70  S   UNL A   1      45.625  24.466  35.996  1.00  0.00     0.127 S 
ATOM     71  O   UNL A   1      44.593  24.763  36.987  1.00  0.00    -0.237 OA
ATOM     72  O   UNL A   1      45.252  23.447  35.013  1.00  0.00    -0.237 OA
ATOM     73  O   UNL A   1      46.978  24.336  36.518  1.00  0.00    -0.744 OA
ENDBRANCH  67  70
ENDBRANCH  49  63
BRANCH  50  74
ATOM     74  C   UNL A   1      36.225  30.787  29.016  1.00  0.00     0.023 A 
ATOM     75  C   UNL A   1      35.348  29.839  28.456  1.00  0.00     0.012 A 
ATOM     76  C   UNL A   1      35.898  32.154  28.943  1.00  0.00     0.148 A 
ATOM     77  C   UNL A   1      34.182  30.245  27.806  1.00  0.00     0.002 A 
ATOM     78  C   UNL A   1      34.707  32.548  28.344  1.00  0.00     0.091 A 
ATOM     79  F   UNL A   1      36.753  33.041  29.471  1.00  0.00    -0.205 F 
ATOM     80  C   UNL A   1      33.856  31.598  27.759  1.00  0.00     0.022 A 
BRANCH  78  81
ATOM     81  S   UNL A   1      34.145  34.253  28.355  1.00  0.00     0.127 S 
ATOM     82  O   UNL A   1      34.918  34.831  27.259  1.00  0.00    -0.237 OA
ATOM     83  O   UNL A   1      32.714  34.099  28.086  1.00  0.00    -0.237 OA
ATOM     84  O   UNL A   1      34.454  34.760  29.684  1.00  0.00    -0.744 OA
ENDBRANCH  78  81
ENDBRANCH  50  74
BRANCH  62  85
ATOM     85  C   UNL A   1      39.018  32.028  35.294  1.00  0.00     0.023 A 
ATOM     86  C   UNL A   1      38.113  31.523  36.249  1.00  0.00     0.012 A 
ATOM     87  C   UNL A   1      39.563  33.315  35.469  1.00  0.00     0.148 A 
ATOM     88  C   UNL A   1      37.729  32.304  37.339  1.00  0.00     0.002 A 
ATOM     89  C   UNL A   1      39.214  34.067  36.585  1.00  0.00     0.091 A 
ATOM     90  F   UNL A   1      40.406  33.787  34.539  1.00  0.00    -0.205 F 
ATOM     91  C   UNL A   1      38.287  33.568  37.513  1.00  0.00     0.022 A 
BRANCH  89  92
ATOM     92  S   UNL A   1      39.967  35.659  36.935  1.00  0.00     0.127 S 
ATOM     93  O   UNL A   1      39.589  36.434  35.754  1.00  0.00    -0.237 OA
ATOM     94  O   UNL A   1      39.292  36.062  38.169  1.00  0.00    -0.237 OA
ATOM     95  O   UNL A   1      41.391  35.400  37.088  1.00  0.00    -0.744 OA
ENDBRANCH  89  92
ENDBRANCH  62  85
ENDBRANCH  36  37
ENDBRANCH  29  31
ENDBRANCH  28  29
ENDBRANCH  27  28
ENDBRANCH  26  27
ENDBRANCH  25  26
ENDBRANCH  24  25
ENDBRANCH  23  24
ENDBRANCH   1  23
TORSDOF 26
ENDMDL
MODEL 2
REMARK VINA RESULT:      -9.3      2.718      9.316
REMARK SMILES C[C@@H](NC(=O)C[C@H]1CCCCO1)C(=O)OCCOCCOCCOCCOC(=O)c1ccc(-c2c3nc(c(-c4cccc(S(=O)(=O)[O-])c4F)c4ccc([nH]4)c(-c4cccc(S(=O)(=O)[O-])c4F)c4nc(c(-c5cccc(S(=O)(=O)[O-])c5F)c5ccc2[nH]5)C=C4)C=C3)cc1
REMARK SMILES IDX 21 1 20 2 19 3 18 4 17 5 16 6 15 7 13 8 14 9 2 10 1 11 3 12
REMARK SMILES IDX 4 13 5 15 6 16 7 17 8 18 12 19 9 20 11 21 10 22 22 23 23 24
REMARK SMILES IDX 24 25 25 26 26 27 27 28 28 29 29 30 30 31 31 32 92 33 32 34
REMARK SMILES IDX 91 35 33 36 34 37 35 38 85 39 36 40 90 41 84 42 86 43 37 44
REMARK SMILES IDX 89 45 83 46 82 47 38 49 70 50 50 51 69 52 51 53 54 54 68 55
REMARK SMILES IDX 87 56 52 57 53 58 67 60 88 61 55 62 39 63 40 64 48 65 41 66
REMARK SMILES IDX 43 67 49 68 42 69 44 70 45 71 46 72 47 73 71 74 72 75 80 76
REMARK SMILES IDX 73 77 75 78 81 79 74 80 76 81 77 82 78 83 79 84 56 85 57 86
REMARK SMILES IDX 65 87 58 88 60 89 66 90 59 91 61 92 62 93 63 94 64 95
REMARK H PARENT 3 14 86 48 54 59
REMARK Flexibility Score: inf
ROOT
ATOM      1  O   UNL A   1      31.007  27.815  24.807  1.00  0.00    -0.377 OA
ENDROOT
BRANCH   1   2
ATOM      2  C   UNL A   1      30.646  28.353  23.543  1.00  0.00     0.188 C 
BRANCH   2   3
ATOM      3  C   UNL A   1      31.714  28.506  22.457  1.00  0.00     0.188 C 
BRANCH   3   4
ATOM      4  O   UNL A   1      32.941  27.909  22.822  1.00  0.00    -0.376 OA
BRANCH   4   5
ATOM      5  C   UNL A   1      33.316  26.752  22.111  1.00  0.00     0.202 C 
BRANCH   5   6
ATOM      6  C   UNL A   1      32.438  25.495  22.179  1.00  0.00     0.261 C 
BRANCH   6   7
ATOM      7  O   UNL A   1      32.598  24.607  23.300  1.00  0.00    -0.462 OA
BRANCH   7   8
ATOM      8  C   UNL A   1      33.746  23.883  23.325  1.00  0.00     0.328 C 
ATOM      9  O   UNL A   1      34.410  23.647  22.316  1.00  0.00    -0.250 OA
BRANCH   8  10
ATOM     10  C   UNL A   1      34.084  23.234  24.689  1.00  0.00     0.189 C 
ATOM     11  C   UNL A   1      34.824  23.994  25.786  1.00  0.00     0.043 C 
BRANCH  10  12
ATOM     12  N   UNL A   1      33.031  22.373  25.251  1.00  0.00    -0.343 N 
ATOM     13  C   UNL A   1      32.726  21.065  25.004  1.00  0.00     0.223 C 
ATOM     14  H   UNL A   1      32.450  22.812  25.914  1.00  0.00     0.164 HD
ATOM     15  O   UNL A   1      31.584  20.687  25.275  1.00  0.00    -0.275 OA
BRANCH  13  16
ATOM     16  C   UNL A   1      33.789  20.072  24.572  1.00  0.00     0.132 C 
BRANCH  16  17
ATOM     17  C   UNL A   1      33.386  18.601  24.485  1.00  0.00     0.127 C 
ATOM     18  C   UNL A   1      34.464  17.698  23.889  1.00  0.00     0.033 C 
ATOM     19  O   UNL A   1      32.997  18.128  25.767  1.00  0.00    -0.378 OA
ATOM     20  C   UNL A   1      33.956  16.255  23.838  1.00  0.00     0.005 C 
ATOM     21  C   UNL A   1      32.465  16.807  25.766  1.00  0.00     0.160 C 
ATOM     22  C   UNL A   1      33.471  15.812  25.214  1.00  0.00     0.029 C 
ENDBRANCH  16  17
ENDBRANCH  13  16
ENDBRANCH  10  12
ENDBRANCH   8  10
ENDBRANCH   7   8
ENDBRANCH   6   7
ENDBRANCH   5   6
ENDBRANCH   4   5
ENDBRANCH   3   4
ENDBRANCH   2   3
ENDBRANCH   1   2
BRANCH   1  23
ATOM     23  C   UNL A   1      31.661  28.631  25.776  1.00  0.00     0.188 C 
BRANCH  23  24
ATOM     24  C   UNL A   1      31.444  30.155  25.777  1.00  0.00     0.188 C 
BRANCH  24  25
ATOM     25  O   UNL A   1      32.452  31.008  26.306  1.00  0.00    -0.376 OA
BRANCH  25  26
ATOM     26  C   UNL A   1      33.324  30.512  27.310  1.00  0.00     0.202 C 
BRANCH  26  27
ATOM     27  C   UNL A   1      34.489  31.402  27.732  1.00  0.00     0.261 C 
BRANCH  27  28
ATOM     28  O   UNL A   1      34.164  32.256  28.836  1.00  0.00    -0.460 OA
BRANCH  28  29
ATOM     29  C   UNL A   1      34.985  32.132  29.897  1.00  0.00     0.338 C 
ATOM     30  O   UNL A   1      34.821  32.610  31.018  1.00  0.00    -0.246 OA
BRANCH  29  31
ATOM     31  C   UNL A   1      36.113  31.241  29.590  1.00  0.00     0.060 A 
ATOM     32  C   UNL A   1      36.092  29.957  30.149  1.00  0.00     0.016 A 
ATOM     33  C   UNL A   1      37.250  31.717  28.930  1.00  0.00     0.016 A 
ATOM     34  C   UNL A   1      37.251  29.192  30.162  1.00  0.00     0.010 A 
ATOM     35  C   UNL A   1      38.415  30.946  28.945  1.00  0.00     0.010 A 
ATOM     36  C   UNL A   1      38.435  29.721  29.635  1.00  0.00    -0.014 A 
BRANCH  36  37
ATOM     37  C   UNL A   1      39.723  29.115  30.047  1.00  0.00     0.031 A 
ATOM     38  C   UNL A   1      40.384  29.628  31.302  1.00  0.00     0.074 A 
ATOM     39  C   UNL A   1      40.263  28.097  29.356  1.00  0.00     0.049 A 
ATOM     40  N   UNL A   1      41.482  29.225  31.885  1.00  0.00    -0.248 NA
ATOM     41  C   UNL A   1      39.717  30.748  31.990  1.00  0.00     0.031 C 
ATOM     42  C   UNL A   1      39.703  27.513  28.139  1.00  0.00     0.029 A 
ATOM     43  N   UNL A   1      41.410  27.383  29.583  1.00  0.00    -0.354 N 
ATOM     44  C   UNL A   1      41.655  30.058  32.985  1.00  0.00     0.074 A 
ATOM     45  C   UNL A   1      40.558  31.000  32.982  1.00  0.00     0.031 C 
ATOM     46  C   UNL A   1      40.520  26.533  27.715  1.00  0.00     0.029 A 
ATOM     47  C   UNL A   1      41.663  26.434  28.622  1.00  0.00     0.049 A 
ATOM     48  H   UNL A   1      41.996  27.535  30.359  1.00  0.00     0.167 HD
ATOM     49  C   UNL A   1      42.629  30.034  33.924  1.00  0.00     0.034 A 
ATOM     50  C   UNL A   1      42.704  25.589  28.493  1.00  0.00     0.034 A 
ATOM     51  C   UNL A   1      43.700  29.075  33.940  1.00  0.00     0.049 A 
ATOM     52  C   UNL A   1      43.775  25.579  29.553  1.00  0.00     0.074 A 
ATOM     53  C   UNL A   1      44.712  28.929  34.870  1.00  0.00     0.029 A 
ATOM     54  N   UNL A   1      43.900  28.102  32.973  1.00  0.00    -0.354 N 
ATOM     55  N   UNL A   1      43.862  26.296  30.649  1.00  0.00    -0.248 NA
ATOM     56  C   UNL A   1      44.871  24.614  29.380  1.00  0.00     0.031 C 
ATOM     57  C   UNL A   1      45.541  27.882  34.451  1.00  0.00     0.029 A 
ATOM     58  C   UNL A   1      45.022  27.355  33.279  1.00  0.00     0.049 A 
ATOM     59  H   UNL A   1      43.325  27.963  32.185  1.00  0.00     0.167 HD
ATOM     60  C   UNL A   1      44.989  25.833  31.319  1.00  0.00     0.074 A 
ATOM     61  C   UNL A   1      45.546  24.768  30.511  1.00  0.00     0.031 C 
ATOM     62  C   UNL A   1      45.523  26.255  32.494  1.00  0.00     0.034 A 
BRANCH  49  63
ATOM     63  C   UNL A   1      42.572  31.065  35.020  1.00  0.00     0.023 A 
ATOM     64  C   UNL A   1      41.983  30.742  36.260  1.00  0.00     0.012 A 
ATOM     65  C   UNL A   1      43.137  32.342  34.837  1.00  0.00     0.148 A 
ATOM     66  C   UNL A   1      41.925  31.685  37.286  1.00  0.00     0.002 A 
ATOM     67  C   UNL A   1      43.116  33.261  35.880  1.00  0.00     0.091 A 
ATOM     68  F   UNL A   1      43.668  32.641  33.643  1.00  0.00    -0.205 F 
ATOM     69  C   UNL A   1      42.500  32.939  37.099  1.00  0.00     0.022 A 
BRANCH  67  70
ATOM     70  S   UNL A   1      43.900  34.873  35.760  1.00  0.00     0.127 S 
ATOM     71  O   UNL A   1      43.194  35.623  36.799  1.00  0.00    -0.237 OA
ATOM     72  O   UNL A   1      45.295  34.562  36.076  1.00  0.00    -0.237 OA
ATOM     73  O   UNL A   1      43.675  35.328  34.396  1.00  0.00    -0.744 OA
ENDBRANCH  67  70
ENDBRANCH  49  63
BRANCH  50  74
ATOM     74  C   UNL A   1      42.752  24.637  27.347  1.00  0.00     0.023 A 
ATOM     75  C   UNL A   1      43.373  25.028  26.146  1.00  0.00     0.012 A 
ATOM     76  C   UNL A   1      42.204  23.344  27.450  1.00  0.00     0.148 A 
ATOM     77  C   UNL A   1      43.418  24.160  25.054  1.00  0.00     0.002 A 
ATOM     78  C   UNL A   1      42.302  22.466  26.378  1.00  0.00     0.091 A 
ATOM     79  F   UNL A   1      41.606  22.997  28.598  1.00  0.00    -0.205 F 
ATOM     80  C   UNL A   1      42.893  22.876  25.173  1.00  0.00     0.022 A 
BRANCH  78  81
ATOM     81  S   UNL A   1      41.772  20.753  26.487  1.00  0.00     0.127 S 
ATOM     82  O   UNL A   1      40.340  20.866  26.225  1.00  0.00    -0.237 OA
ATOM     83  O   UNL A   1      42.549  20.129  25.415  1.00  0.00    -0.237 OA
ATOM     84  O   UNL A   1      42.138  20.314  27.827  1.00  0.00    -0.744 OA
ENDBRANCH  78  81
ENDBRANCH  50  74
BRANCH  62  85
ATOM     85  C   UNL A   1      46.735  25.528  33.013  1.00  0.00     0.023 A 
ATOM     86  C   UNL A   1      48.028  25.992  32.698  1.00  0.00     0.012 A 
ATOM     87  C   UNL A   1      46.588  24.421  33.872  1.00  0.00     0.148 A 
ATOM     88  C   UNL A   1      49.154  25.340  33.199  1.00  0.00     0.002 A 
ATOM     89  C   UNL A   1      47.714  23.808  34.408  1.00  0.00     0.091 A 
ATOM     90  F   UNL A   1      45.350  23.980  34.144  1.00  0.00    -0.205 F 
ATOM     91  C   UNL A   1      48.998  24.258  34.061  1.00  0.00     0.022 A 
BRANCH  89  92
ATOM     92  S   UNL A   1      47.595  22.475  35.606  1.00  0.00     0.127 S 
ATOM     93  O   UNL A   1      47.247  21.339  34.755  1.00  0.00    -0.237 OA
ATOM     94  O   UNL A   1      48.948  22.429  36.161  1.00  0.00    -0.237 OA
ATOM     95  O   UNL A   1      46.571  22.887  36.557  1.00  0.00    -0.744 OA
ENDBRANCH  89  92
ENDBRANCH  62  85
ENDBRANCH  36  37
ENDBRANCH  29  31
ENDBRANCH  28  29
ENDBRANCH  27  28
ENDBRANCH  26  27
ENDBRANCH  25  26
ENDBRANCH  24  25
ENDBRANCH  23  24
ENDBRANCH   1  23
TORSDOF 26
ENDMDL
MODEL 3
REMARK VINA RESULT:      -8.9      3.630      9.112
REMARK SMILES C[C@@H](NC(=O)C[C@H]1CCCCO1)C(=O)OCCOCCOCCOCCOC(=O)c1ccc(-c2c3nc(c(-c4cccc(S(=O)(=O)[O-])c4F)c4ccc([nH]4)c(-c4cccc(S(=O)(=O)[O-])c4F)c4nc(c(-c5cccc(S(=O)(=O)[O-])c5F)c5ccc2[nH]5)C=C4)C=C3)cc1
REMARK SMILES IDX 21 1 20 2 19 3 18 4 17 5 16 6 15 7 13 8 14 9 2 10 1 11 3 12
REMARK SMILES IDX 4 13 5 15 6 16 7 17 8 18 12 19 9 20 11 21 10 22 22 23 23 24
REMARK SMILES IDX 24 25 25 26 26 27 27 28 28 29 29 30 30 31 31 32 92 33 32 34
REMARK SMILES IDX 91 35 33 36 34 37 35 38 85 39 36 40 90 41 84 42 86 43 37 44
REMARK SMILES IDX 89 45 83 46 82 47 38 49 70 50 50 51 69 52 51 53 54 54 68 55
REMARK SMILES IDX 87 56 52 57 53 58 67 60 88 61 55 62 39 63 40 64 48 65 41 66
REMARK SMILES IDX 43 67 49 68 42 69 44 70 45 71 46 72 47 73 71 74 72 75 80 76
REMARK SMILES IDX 73 77 75 78 81 79 74 80 76 81 77 82 78 83 79 84 56 85 57 86
REMARK SMILES IDX 65 87 58 88 60 89 66 90 59 91 61 92 62 93 63 94 64 95
REMARK H PARENT 3 14 86 48 54 59
REMARK Flexibility Score: inf
ROOT
ATOM      1  O   UNL A   1      34.117  19.044  24.240  1.00  0.00    -0.377 OA
ENDROOT
BRANCH   1   2
ATOM      2  C   UNL A   1      33.027  19.419  25.071  1.00  0.00     0.188 C 
BRANCH   2   3
ATOM      3  C   UNL A   1      32.400  20.806  24.910  1.00  0.00     0.188 C 
BRANCH   3   4
ATOM      4  O   UNL A   1      33.354  21.842  25.008  1.00  0.00    -0.376 OA
BRANCH   4   5
ATOM      5  C   UNL A   1      33.696  22.502  23.811  1.00  0.00     0.202 C 
BRANCH   5   6
ATOM      6  C   UNL A   1      32.613  22.786  22.760  1.00  0.00     0.261 C 
BRANCH   6   7
ATOM      7  O   UNL A   1      32.689  24.014  22.015  1.00  0.00    -0.462 OA
BRANCH   7   8
ATOM      8  C   UNL A   1      33.255  25.067  22.658  1.00  0.00     0.328 C 
ATOM      9  O   UNL A   1      34.469  25.166  22.837  1.00  0.00    -0.250 OA
BRANCH   8  10
ATOM     10  C   UNL A   1      32.257  26.061  23.297  1.00  0.00     0.189 C 
ATOM     11  C   UNL A   1      31.199  26.790  22.473  1.00  0.00     0.043 C 
BRANCH  10  12
ATOM     12  N   UNL A   1      31.728  25.661  24.611  1.00  0.00    -0.343 N 
ATOM     13  C   UNL A   1      31.634  26.358  25.782  1.00  0.00     0.223 C 
ATOM     14  H   UNL A   1      31.386  24.738  24.654  1.00  0.00     0.164 HD
ATOM     15  O   UNL A   1      31.542  25.706  26.825  1.00  0.00    -0.275 OA
BRANCH  13  16
ATOM     16  C   UNL A   1      31.481  27.867  25.795  1.00  0.00     0.132 C 
BRANCH  16  17
ATOM     17  C   UNL A   1      32.426  28.664  26.693  1.00  0.00     0.127 C 
ATOM     18  C   UNL A   1      33.897  28.286  26.536  1.00  0.00     0.033 C 
ATOM     19  O   UNL A   1      32.245  30.056  26.470  1.00  0.00    -0.378 OA
ATOM     20  C   UNL A   1      34.750  29.133  27.483  1.00  0.00     0.005 C 
ATOM     21  C   UNL A   1      32.976  30.890  27.364  1.00  0.00     0.160 C 
ATOM     22  C   UNL A   1      34.468  30.617  27.272  1.00  0.00     0.029 C 
ENDBRANCH  16  17
ENDBRANCH  13  16
ENDBRANCH  10  12
ENDBRANCH   8  10
ENDBRANCH   7   8
ENDBRANCH   6   7
ENDBRANCH   5   6
ENDBRANCH   4   5
ENDBRANCH   3   4
ENDBRANCH   2   3
ENDBRANCH   1   2
BRANCH   1  23
ATOM     23  C   UNL A   1      35.289  18.465  24.807  1.00  0.00     0.188 C 
BRANCH  23  24
ATOM     24  C   UNL A   1      36.590  19.283  24.895  1.00  0.00     0.188 C 
BRANCH  24  25
ATOM     25  O   UNL A   1      36.557  20.685  24.656  1.00  0.00    -0.376 OA
BRANCH  25  26
ATOM     26  C   UNL A   1      36.792  21.578  25.733  1.00  0.00     0.202 C 
BRANCH  26  27
ATOM     27  C   UNL A   1      38.029  22.468  25.650  1.00  0.00     0.261 C 
BRANCH  27  28
ATOM     28  O   UNL A   1      39.028  22.125  26.620  1.00  0.00    -0.460 OA
BRANCH  28  29
ATOM     29  C   UNL A   1      40.167  22.837  26.522  1.00  0.00     0.338 C 
ATOM     30  O   UNL A   1      41.248  22.444  26.088  1.00  0.00    -0.246 OA
BRANCH  29  31
ATOM     31  C   UNL A   1      39.952  24.234  26.922  1.00  0.00     0.060 A 
ATOM     32  C   UNL A   1      40.327  25.231  26.014  1.00  0.00     0.016 A 
ATOM     33  C   UNL A   1      39.570  24.561  28.227  1.00  0.00     0.016 A 
ATOM     34  C   UNL A   1      40.446  26.547  26.444  1.00  0.00     0.010 A 
ATOM     35  C   UNL A   1      39.691  25.884  28.658  1.00  0.00     0.010 A 
ATOM     36  C   UNL A   1      40.209  26.859  27.788  1.00  0.00    -0.014 A 
BRANCH  36  37
ATOM     37  C   UNL A   1      40.761  28.124  28.325  1.00  0.00     0.031 A 
ATOM     38  C   UNL A   1      39.797  29.153  28.862  1.00  0.00     0.074 A 
ATOM     39  C   UNL A   1      42.087  28.332  28.387  1.00  0.00     0.049 A 
ATOM     40  N   UNL A   1      40.044  30.307  29.422  1.00  0.00    -0.248 NA
ATOM     41  C   UNL A   1      38.362  28.836  28.750  1.00  0.00     0.031 C 
ATOM     42  C   UNL A   1      43.109  27.402  27.912  1.00  0.00     0.029 A 
ATOM     43  N   UNL A   1      42.795  29.401  28.871  1.00  0.00    -0.354 N 
ATOM     44  C   UNL A   1      38.801  30.868  29.698  1.00  0.00     0.074 A 
ATOM     45  C   UNL A   1      37.800  29.935  29.232  1.00  0.00     0.031 C 
ATOM     46  C   UNL A   1      44.320  27.950  28.115  1.00  0.00     0.029 A 
ATOM     47  C   UNL A   1      44.155  29.271  28.719  1.00  0.00     0.049 A 
ATOM     48  H   UNL A   1      42.370  30.186  29.286  1.00  0.00     0.167 HD
ATOM     49  C   UNL A   1      38.515  32.046  30.301  1.00  0.00     0.034 A 
ATOM     50  C   UNL A   1      45.146  30.128  29.032  1.00  0.00     0.034 A 
ATOM     51  C   UNL A   1      39.513  32.955  30.792  1.00  0.00     0.049 A 
ATOM     52  C   UNL A   1      44.802  31.432  29.703  1.00  0.00     0.074 A 
ATOM     53  C   UNL A   1      39.335  34.152  31.460  1.00  0.00     0.029 A 
ATOM     54  N   UNL A   1      40.881  32.770  30.658  1.00  0.00    -0.354 N 
ATOM     55  N   UNL A   1      43.628  31.894  30.062  1.00  0.00    -0.248 NA
ATOM     56  C   UNL A   1      45.925  32.314  30.053  1.00  0.00     0.031 C 
ATOM     57  C   UNL A   1      40.597  34.704  31.710  1.00  0.00     0.029 A 
ATOM     58  C   UNL A   1      41.560  33.832  31.226  1.00  0.00     0.049 A 
ATOM     59  H   UNL A   1      41.306  31.995  30.224  1.00  0.00     0.167 HD
ATOM     60  C   UNL A   1      43.874  33.093  30.723  1.00  0.00     0.074 A 
ATOM     61  C   UNL A   1      45.311  33.280  30.724  1.00  0.00     0.031 C 
ATOM     62  C   UNL A   1      42.994  33.967  31.273  1.00  0.00     0.034 A 
BRANCH  49  63
ATOM     63  C   UNL A   1      37.063  32.409  30.476  1.00  0.00     0.023 A 
ATOM     64  C   UNL A   1      36.385  32.043  31.657  1.00  0.00     0.012 A 
ATOM     65  C   UNL A   1      36.382  33.148  29.489  1.00  0.00     0.148 A 
ATOM     66  C   UNL A   1      35.042  32.376  31.836  1.00  0.00     0.002 A 
ATOM     67  C   UNL A   1      35.057  33.514  29.695  1.00  0.00     0.091 A 
ATOM     68  F   UNL A   1      37.036  33.462  28.361  1.00  0.00    -0.205 F 
ATOM     69  C   UNL A   1      34.382  33.119  30.860  1.00  0.00     0.022 A 
BRANCH  67  70
ATOM     70  S   UNL A   1      34.148  34.537  28.531  1.00  0.00     0.127 S 
ATOM     71  O   UNL A   1      32.767  34.143  28.808  1.00  0.00    -0.237 OA
ATOM     72  O   UNL A   1      34.496  35.889  28.972  1.00  0.00    -0.237 OA
ATOM     73  O   UNL A   1      34.649  34.184  27.210  1.00  0.00    -0.744 OA
ENDBRANCH  67  70
ENDBRANCH  49  63
BRANCH  50  74
ATOM     74  C   UNL A   1      46.564  29.752  28.769  1.00  0.00     0.023 A 
ATOM     75  C   UNL A   1      47.167  30.126  27.553  1.00  0.00     0.012 A 
ATOM     76  C   UNL A   1      47.319  29.045  29.723  1.00  0.00     0.148 A 
ATOM     77  C   UNL A   1      48.489  29.775  27.277  1.00  0.00     0.002 A 
ATOM     78  C   UNL A   1      48.652  28.746  29.465  1.00  0.00     0.091 A 
ATOM     79  F   UNL A   1      46.722  28.687  30.868  1.00  0.00    -0.205 F 
ATOM     80  C   UNL A   1      49.235  29.094  28.237  1.00  0.00     0.022 A 
BRANCH  78  81
ATOM     81  S   UNL A   1      49.723  27.991  30.694  1.00  0.00     0.127 S 
ATOM     82  O   UNL A   1      49.189  26.633  30.761  1.00  0.00    -0.237 OA
ATOM     83  O   UNL A   1      51.037  28.108  30.059  1.00  0.00    -0.237 OA
ATOM     84  O   UNL A   1      49.565  28.794  31.898  1.00  0.00    -0.744 OA
ENDBRANCH  78  81
ENDBRANCH  50  74
BRANCH  62  85
ATOM     85  C   UNL A   1      43.553  35.174  31.979  1.00  0.00     0.023 A 
ATOM     86  C   UNL A   1      43.820  36.354  31.258  1.00  0.00     0.012 A 
ATOM     87  C   UNL A   1      43.751  35.156  33.374  1.00  0.00     0.148 A 
ATOM     88  C   UNL A   1      44.312  37.485  31.910  1.00  0.00     0.002 A 
ATOM     89  C   UNL A   1      44.193  36.302  34.024  1.00  0.00     0.091 A 
ATOM     90  F   UNL A   1      43.513  34.017  34.041  1.00  0.00    -0.205 F 
ATOM     91  C   UNL A   1      44.487  37.463  33.291  1.00  0.00     0.022 A 
BRANCH  89  92
ATOM     92  S   UNL A   1      44.344  36.386  35.811  1.00  0.00     0.127 S 
ATOM     93  O   UNL A   1      44.939  37.708  35.998  1.00  0.00    -0.237 OA
ATOM     94  O   UNL A   1      42.952  36.276  36.251  1.00  0.00    -0.237 OA
ATOM     95  O   UNL A   1      45.183  35.258  36.192  1.00  0.00    -0.744 OA
ENDBRANCH  89  92
ENDBRANCH  62  85
ENDBRANCH  36  37
ENDBRANCH  29  31
ENDBRANCH  28  29
ENDBRANCH  27  28
ENDBRANCH  26  27
ENDBRANCH  25  26
ENDBRANCH  24  25
ENDBRANCH  23  24
ENDBRANCH   1  23
TORSDOF 26
ENDMDL
