MODEL 1
REMARK VINA RESULT:      -9.6      0.000      0.000
REMARK SMILES O=C(CCS[C@H]1CC(=O)c2ccccc2C1=O)OCCOCCOCCOCCOC(=O)c1ccc(-c2c3nc(c(-c4cccc(S(=O)(=O)[O-])c4F)c4ccc([nH]4)c(-c4cccc(S(=O)(=O)[O-])c4F)c4nc(c(-c5cccc(S(=O)(=O)[O-])c5F)c5ccc2[nH]5)C=C4)C=C3)cc1
REMARK SMILES IDX 24 1 23 2 22 3 21 4 20 5 19 6 18 7 2 8 1 9 3 10 4 11 5 12
REMARK SMILES IDX 6 13 7 14 16 15 8 16 15 17 17 18 9 19 10 20 14 21 11 22
REMARK SMILES IDX 13 23 12 24 25 25 26 26 27 27 28 28 29 29 30 30 31 31 32 32
REMARK SMILES IDX 33 33 34 34 95 35 35 36 94 37 36 38 37 39 38 40 88 41 39 42
REMARK SMILES IDX 93 43 87 44 89 45 40 46 92 47 86 48 85 49 41 51 73 52 53 53
REMARK SMILES IDX 72 54 54 55 57 56 71 57 90 58 55 59 56 60 70 62 91 63 58 64
REMARK SMILES IDX 42 65 43 66 51 67 44 68 46 69 52 70 45 71 47 72 48 73 49 74
REMARK SMILES IDX 50 75 74 76 75 77 83 78 76 79 78 80 84 81 77 82 79 83 80 84
REMARK SMILES IDX 81 85 82 86 59 87 60 88 68 89 61 90 63 91 69 92 62 93 64 94
REMARK SMILES IDX 65 95 66 96 67 97
REMARK H PARENT 89 50 57 61
REMARK Flexibility Score: inf
ROOT
ATOM      1  O   UNL A   1      35.170  32.755  27.402  1.00  0.00    -0.377 OA
ENDROOT
BRANCH   1   2
ATOM      2  C   UNL A   1      34.859  31.616  28.204  1.00  0.00     0.188 C 
BRANCH   2   3
ATOM      3  C   UNL A   1      33.708  30.717  27.764  1.00  0.00     0.188 C 
BRANCH   3   4
ATOM      4  O   UNL A   1      34.007  30.073  26.524  1.00  0.00    -0.376 OA
BRANCH   4   5
ATOM      5  C   UNL A   1      33.189  28.936  26.287  1.00  0.00     0.202 C 
BRANCH   5   6
ATOM      6  C   UNL A   1      31.777  29.333  25.892  1.00  0.00     0.261 C 
BRANCH   6   7
ATOM      7  O   UNL A   1      31.410  28.890  24.571  1.00  0.00    -0.463 OA
BRANCH   7   8
ATOM      8  C   UNL A   1      31.218  27.651  24.081  1.00  0.00     0.306 C 
ATOM      9  O   UNL A   1      31.536  27.460  22.902  1.00  0.00    -0.252 OA
BRANCH   8  10
ATOM     10  C   UNL A   1      30.492  26.534  24.819  1.00  0.00     0.133 C 
BRANCH  10  11
ATOM     11  C   UNL A   1      30.982  25.092  24.838  1.00  0.00     0.082 C 
BRANCH  11  12
ATOM     12  S   UNL A   1      32.462  24.738  25.819  1.00  0.00    -0.149 SA
BRANCH  12  13
ATOM     13  C   UNL A   1      33.908  25.062  24.715  1.00  0.00     0.126 C 
ATOM     14  C   UNL A   1      35.126  24.335  25.280  1.00  0.00     0.104 C 
ATOM     15  C   UNL A   1      33.740  24.440  23.339  1.00  0.00     0.176 C 
ATOM     16  C   UNL A   1      34.896  22.830  25.346  1.00  0.00     0.165 C 
ATOM     17  C   UNL A   1      33.441  22.990  23.323  1.00  0.00     0.030 A 
ATOM     18  O   UNL A   1      33.985  25.049  22.304  1.00  0.00    -0.293 OA
ATOM     19  O   UNL A   1      35.509  22.126  26.140  1.00  0.00    -0.294 OA
ATOM     20  C   UNL A   1      33.926  22.225  24.388  1.00  0.00     0.028 A 
ATOM     21  C   UNL A   1      32.597  22.428  22.364  1.00  0.00     0.012 A 
ATOM     22  C   UNL A   1      33.453  20.925  24.573  1.00  0.00     0.012 A 
ATOM     23  C   UNL A   1      32.109  21.136  22.566  1.00  0.00     0.001 A 
ATOM     24  C   UNL A   1      32.507  20.403  23.687  1.00  0.00     0.001 A 
ENDBRANCH  12  13
ENDBRANCH  11  12
ENDBRANCH  10  11
ENDBRANCH   8  10
ENDBRANCH   7   8
ENDBRANCH   6   7
ENDBRANCH   5   6
ENDBRANCH   4   5
ENDBRANCH   3   4
ENDBRANCH   2   3
ENDBRANCH   1   2
BRANCH   1  25
ATOM     25  C   UNL A   1      35.204  34.039  28.013  1.00  0.00     0.188 C 
BRANCH  25  26
ATOM     26  C   UNL A   1      34.243  34.212  29.189  1.00  0.00     0.188 C 
BRANCH  26  27
ATOM     27  O   UNL A   1      34.859  34.503  30.441  1.00  0.00    -0.376 OA
BRANCH  27  28
ATOM     28  C   UNL A   1      34.018  34.459  31.592  1.00  0.00     0.202 C 
BRANCH  28  29
ATOM     29  C   UNL A   1      34.679  34.170  32.951  1.00  0.00     0.261 C 
BRANCH  29  30
ATOM     30  O   UNL A   1      36.123  34.066  32.917  1.00  0.00    -0.460 OA
BRANCH  30  31
ATOM     31  C   UNL A   1      36.649  32.950  33.476  1.00  0.00     0.338 C 
ATOM     32  O   UNL A   1      36.508  32.600  34.647  1.00  0.00    -0.246 OA
BRANCH  31  33
ATOM     33  C   UNL A   1      37.381  32.103  32.505  1.00  0.00     0.060 A 
ATOM     34  C   UNL A   1      37.633  32.537  31.201  1.00  0.00     0.016 A 
ATOM     35  C   UNL A   1      38.005  30.939  32.977  1.00  0.00     0.016 A 
ATOM     36  C   UNL A   1      38.562  31.843  30.405  1.00  0.00     0.010 A 
ATOM     37  C   UNL A   1      38.933  30.251  32.181  1.00  0.00     0.010 A 
ATOM     38  C   UNL A   1      39.254  30.717  30.898  1.00  0.00    -0.014 A 
BRANCH  38  39
ATOM     39  C   UNL A   1      40.450  30.199  30.167  1.00  0.00     0.031 A 
ATOM     40  C   UNL A   1      40.545  28.815  29.599  1.00  0.00     0.074 A 
ATOM     41  C   UNL A   1      41.530  30.995  30.041  1.00  0.00     0.049 A 
ATOM     42  N   UNL A   1      41.333  28.364  28.655  1.00  0.00    -0.248 NA
ATOM     43  C   UNL A   1      39.650  27.802  30.158  1.00  0.00     0.031 C 
ATOM     44  C   UNL A   1      41.681  32.314  30.653  1.00  0.00     0.029 A 
ATOM     45  N   UNL A   1      42.711  30.794  29.373  1.00  0.00    -0.354 N 
ATOM     46  C   UNL A   1      40.955  27.045  28.440  1.00  0.00     0.074 A 
ATOM     47  C   UNL A   1      39.914  26.747  29.394  1.00  0.00     0.031 C 
ATOM     48  C   UNL A   1      42.891  32.802  30.337  1.00  0.00     0.029 A 
ATOM     49  C   UNL A   1      43.592  31.840  29.486  1.00  0.00     0.049 A 
ATOM     50  H   UNL A   1      42.910  29.976  28.861  1.00  0.00     0.167 HD
ATOM     51  C   UNL A   1      41.424  26.167  27.522  1.00  0.00     0.034 A 
ATOM     52  C   UNL A   1      44.815  32.022  28.952  1.00  0.00     0.034 A 
ATOM     53  C   UNL A   1      42.583  26.393  26.704  1.00  0.00     0.049 A 
ATOM     54  C   UNL A   1      45.383  31.006  28.002  1.00  0.00     0.074 A 
ATOM     55  C   UNL A   1      43.115  25.575  25.722  1.00  0.00     0.029 A 
ATOM     56  N   UNL A   1      43.441  27.470  26.840  1.00  0.00    -0.354 N 
ATOM     57  N   UNL A   1      44.833  29.905  27.551  1.00  0.00    -0.248 NA
ATOM     58  C   UNL A   1      46.720  31.277  27.451  1.00  0.00     0.031 C 
ATOM     59  C   UNL A   1      44.322  26.138  25.295  1.00  0.00     0.029 A 
ATOM     60  C   UNL A   1      44.526  27.315  25.998  1.00  0.00     0.049 A 
ATOM     61  H   UNL A   1      43.299  28.231  27.447  1.00  0.00     0.167 HD
ATOM     62  C   UNL A   1      45.745  29.363  26.652  1.00  0.00     0.074 A 
ATOM     63  C   UNL A   1      46.880  30.259  26.612  1.00  0.00     0.031 C 
ATOM     64  C   UNL A   1      45.644  28.218  25.933  1.00  0.00     0.034 A 
BRANCH  51  65
ATOM     65  C   UNL A   1      40.646  24.904  27.277  1.00  0.00     0.023 A 
ATOM     66  C   UNL A   1      39.316  25.036  26.828  1.00  0.00     0.012 A 
ATOM     67  C   UNL A   1      41.244  23.632  27.315  1.00  0.00     0.148 A 
ATOM     68  C   UNL A   1      38.591  23.920  26.413  1.00  0.00     0.002 A 
ATOM     69  C   UNL A   1      40.520  22.524  26.886  1.00  0.00     0.091 A 
ATOM     70  F   UNL A   1      42.510  23.536  27.743  1.00  0.00    -0.205 F 
ATOM     71  C   UNL A   1      39.196  22.667  26.434  1.00  0.00     0.022 A 
BRANCH  69  72
ATOM     72  S   UNL A   1      41.206  20.866  26.828  1.00  0.00     0.127 S 
ATOM     73  O   UNL A   1      41.880  20.784  28.124  1.00  0.00    -0.237 OA
ATOM     74  O   UNL A   1      40.003  20.042  26.714  1.00  0.00    -0.237 OA
ATOM     75  O   UNL A   1      42.090  20.836  25.672  1.00  0.00    -0.744 OA
ENDBRANCH  69  72
ENDBRANCH  51  65
BRANCH  52  76
ATOM     76  C   UNL A   1      45.542  33.280  29.258  1.00  0.00     0.023 A 
ATOM     77  C   UNL A   1      46.374  33.339  30.390  1.00  0.00     0.012 A 
ATOM     78  C   UNL A   1      45.484  34.379  28.378  1.00  0.00     0.148 A 
ATOM     79  C   UNL A   1      47.140  34.477  30.644  1.00  0.00     0.002 A 
ATOM     80  C   UNL A   1      46.279  35.492  28.615  1.00  0.00     0.091 A 
ATOM     81  F   UNL A   1      44.678  34.292  27.311  1.00  0.00    -0.205 F 
ATOM     82  C   UNL A   1      47.101  35.547  29.753  1.00  0.00     0.022 A 
BRANCH  80  83
ATOM     83  S   UNL A   1      46.379  36.871  27.470  1.00  0.00     0.127 S 
ATOM     84  O   UNL A   1      46.709  36.194  26.218  1.00  0.00    -0.237 OA
ATOM     85  O   UNL A   1      45.022  37.414  27.538  1.00  0.00    -0.237 OA
ATOM     86  O   UNL A   1      47.411  37.752  27.998  1.00  0.00    -0.744 OA
ENDBRANCH  80  83
ENDBRANCH  52  76
BRANCH  64  87
ATOM     87  C   UNL A   1      46.785  27.823  25.038  1.00  0.00     0.023 A 
ATOM     88  C   UNL A   1      46.714  28.120  23.664  1.00  0.00     0.012 A 
ATOM     89  C   UNL A   1      47.983  27.317  25.580  1.00  0.00     0.148 A 
ATOM     90  C   UNL A   1      47.822  27.919  22.839  1.00  0.00     0.002 A 
ATOM     91  C   UNL A   1      49.093  27.150  24.759  1.00  0.00     0.091 A 
ATOM     92  F   UNL A   1      48.022  27.041  26.892  1.00  0.00    -0.205 F 
ATOM     93  C   UNL A   1      49.012  27.447  23.389  1.00  0.00     0.022 A 
BRANCH  91  94
ATOM     94  S   UNL A   1      50.694  26.626  25.384  1.00  0.00     0.127 S 
ATOM     95  O   UNL A   1      51.499  26.607  24.162  1.00  0.00    -0.237 OA
ATOM     96  O   UNL A   1      51.026  27.700  26.318  1.00  0.00    -0.237 OA
ATOM     97  O   UNL A   1      50.482  25.322  26.000  1.00  0.00    -0.744 OA
ENDBRANCH  91  94
ENDBRANCH  64  87
ENDBRANCH  38  39
ENDBRANCH  31  33
ENDBRANCH  30  31
ENDBRANCH  29  30
ENDBRANCH  28  29
ENDBRANCH  27  28
ENDBRANCH  26  27
ENDBRANCH  25  26
ENDBRANCH   1  25
TORSDOF 26
ENDMDL
MODEL 2
REMARK VINA RESULT:      -9.6      1.912      7.623
REMARK SMILES O=C(CCS[C@H]1CC(=O)c2ccccc2C1=O)OCCOCCOCCOCCOC(=O)c1ccc(-c2c3nc(c(-c4cccc(S(=O)(=O)[O-])c4F)c4ccc([nH]4)c(-c4cccc(S(=O)(=O)[O-])c4F)c4nc(c(-c5cccc(S(=O)(=O)[O-])c5F)c5ccc2[nH]5)C=C4)C=C3)cc1
REMARK SMILES IDX 24 1 23 2 22 3 21 4 20 5 19 6 18 7 2 8 1 9 3 10 4 11 5 12
REMARK SMILES IDX 6 13 7 14 16 15 8 16 15 17 17 18 9 19 10 20 14 21 11 22
REMARK SMILES IDX 13 23 12 24 25 25 26 26 27 27 28 28 29 29 30 30 31 31 32 32
REMARK SMILES IDX 33 33 34 34 95 35 35 36 94 37 36 38 37 39 38 40 88 41 39 42
REMARK SMILES IDX 93 43 87 44 89 45 40 46 92 47 86 48 85 49 41 51 73 52 53 53
REMARK SMILES IDX 72 54 54 55 57 56 71 57 90 58 55 59 56 60 70 62 91 63 58 64
REMARK SMILES IDX 42 65 43 66 51 67 44 68 46 69 52 70 45 71 47 72 48 73 49 74
REMARK SMILES IDX 50 75 74 76 75 77 83 78 76 79 78 80 84 81 77 82 79 83 80 84
REMARK SMILES IDX 81 85 82 86 59 87 60 88 68 89 61 90 63 91 69 92 62 93 64 94
REMARK SMILES IDX 65 95 66 96 67 97
REMARK H PARENT 89 50 57 61
REMARK Flexibility Score: inf
ROOT
ATOM      1  O   UNL A   1      34.981  33.728  27.699  1.00  0.00    -0.377 OA
ENDROOT
BRANCH   1   2
ATOM      2  C   UNL A   1      34.800  32.343  27.992  1.00  0.00     0.188 C 
BRANCH   2   3
ATOM      3  C   UNL A   1      33.464  31.699  27.637  1.00  0.00     0.188 C 
BRANCH   3   4
ATOM      4  O   UNL A   1      33.610  30.291  27.448  1.00  0.00    -0.376 OA
BRANCH   4   5
ATOM      5  C   UNL A   1      32.366  29.636  27.240  1.00  0.00     0.202 C 
BRANCH   5   6
ATOM      6  C   UNL A   1      32.558  28.196  26.795  1.00  0.00     0.261 C 
BRANCH   6   7
ATOM      7  O   UNL A   1      31.317  27.504  26.558  1.00  0.00    -0.463 OA
BRANCH   7   8
ATOM      8  C   UNL A   1      31.012  26.515  25.697  1.00  0.00     0.306 C 
ATOM      9  O   UNL A   1      31.075  26.785  24.492  1.00  0.00    -0.252 OA
BRANCH   8  10
ATOM     10  C   UNL A   1      30.444  25.162  26.100  1.00  0.00     0.133 C 
BRANCH  10  11
ATOM     11  C   UNL A   1      31.315  23.972  26.483  1.00  0.00     0.082 C 
BRANCH  11  12
ATOM     12  S   UNL A   1      30.932  22.386  25.701  1.00  0.00    -0.149 SA
BRANCH  12  13
ATOM     13  C   UNL A   1      32.506  21.416  25.693  1.00  0.00     0.126 C 
ATOM     14  C   UNL A   1      32.516  20.512  24.463  1.00  0.00     0.104 C 
ATOM     15  C   UNL A   1      33.729  22.295  25.488  1.00  0.00     0.176 C 
ATOM     16  C   UNL A   1      32.441  21.323  23.175  1.00  0.00     0.165 C 
ATOM     17  C   UNL A   1      33.698  23.168  24.293  1.00  0.00     0.030 A 
ATOM     18  O   UNL A   1      34.742  22.186  26.169  1.00  0.00    -0.293 OA
ATOM     19  O   UNL A   1      31.997  20.836  22.141  1.00  0.00    -0.294 OA
ATOM     20  C   UNL A   1      32.958  22.721  23.194  1.00  0.00     0.028 A 
ATOM     21  C   UNL A   1      34.265  24.443  24.304  1.00  0.00     0.012 A 
ATOM     22  C   UNL A   1      32.667  23.607  22.155  1.00  0.00     0.012 A 
ATOM     23  C   UNL A   1      33.951  25.332  23.275  1.00  0.00     0.001 A 
ATOM     24  C   UNL A   1      33.123  24.925  22.225  1.00  0.00     0.001 A 
ENDBRANCH  12  13
ENDBRANCH  11  12
ENDBRANCH  10  11
ENDBRANCH   8  10
ENDBRANCH   7   8
ENDBRANCH   6   7
ENDBRANCH   5   6
ENDBRANCH   4   5
ENDBRANCH   3   4
ENDBRANCH   2   3
ENDBRANCH   1   2
BRANCH   1  25
ATOM     25  C   UNL A   1      34.790  34.683  28.736  1.00  0.00     0.188 C 
BRANCH  25  26
ATOM     26  C   UNL A   1      34.702  34.088  30.141  1.00  0.00     0.188 C 
BRANCH  26  27
ATOM     27  O   UNL A   1      33.564  34.487  30.901  1.00  0.00    -0.376 OA
BRANCH  27  28
ATOM     28  C   UNL A   1      33.795  34.822  32.268  1.00  0.00     0.202 C 
BRANCH  28  29
ATOM     29  C   UNL A   1      35.102  34.331  32.915  1.00  0.00     0.261 C 
BRANCH  29  30
ATOM     30  O   UNL A   1      35.165  32.905  33.159  1.00  0.00    -0.460 OA
BRANCH  30  31
ATOM     31  C   UNL A   1      36.298  32.455  33.747  1.00  0.00     0.338 C 
ATOM     32  O   UNL A   1      36.648  32.690  34.903  1.00  0.00    -0.246 OA
BRANCH  31  33
ATOM     33  C   UNL A   1      37.086  31.552  32.875  1.00  0.00     0.060 A 
ATOM     34  C   UNL A   1      36.833  31.454  31.505  1.00  0.00     0.016 A 
ATOM     35  C   UNL A   1      38.235  30.948  33.409  1.00  0.00     0.016 A 
ATOM     36  C   UNL A   1      37.769  30.816  30.669  1.00  0.00     0.010 A 
ATOM     37  C   UNL A   1      39.166  30.315  32.572  1.00  0.00     0.010 A 
ATOM     38  C   UNL A   1      38.965  30.276  31.185  1.00  0.00    -0.014 A 
BRANCH  38  39
ATOM     39  C   UNL A   1      40.073  29.898  30.256  1.00  0.00     0.031 A 
ATOM     40  C   UNL A   1      41.244  30.783  29.952  1.00  0.00     0.074 A 
ATOM     41  C   UNL A   1      40.008  28.715  29.614  1.00  0.00     0.049 A 
ATOM     42  N   UNL A   1      42.422  30.458  29.480  1.00  0.00    -0.248 NA
ATOM     43  C   UNL A   1      41.079  32.215  30.200  1.00  0.00     0.031 C 
ATOM     44  C   UNL A   1      38.879  27.788  29.668  1.00  0.00     0.029 A 
ATOM     45  N   UNL A   1      40.907  28.107  28.774  1.00  0.00    -0.354 N 
ATOM     46  C   UNL A   1      43.167  31.629  29.474  1.00  0.00     0.074 A 
ATOM     47  C   UNL A   1      42.292  32.685  29.927  1.00  0.00     0.031 C 
ATOM     48  C   UNL A   1      39.150  26.730  28.888  1.00  0.00     0.029 A 
ATOM     49  C   UNL A   1      40.478  26.895  28.295  1.00  0.00     0.049 A 
ATOM     50  H   UNL A   1      41.777  28.502  28.537  1.00  0.00     0.167 HD
ATOM     51  C   UNL A   1      44.466  31.806  29.136  1.00  0.00     0.034 A 
ATOM     52  C   UNL A   1      41.085  26.003  27.489  1.00  0.00     0.034 A 
ATOM     53  C   UNL A   1      45.282  30.806  28.506  1.00  0.00     0.049 A 
ATOM     54  C   UNL A   1      42.498  26.237  27.033  1.00  0.00     0.074 A 
ATOM     55  C   UNL A   1      46.620  30.883  28.156  1.00  0.00     0.029 A 
ATOM     56  N   UNL A   1      44.815  29.588  28.047  1.00  0.00    -0.354 N 
ATOM     57  N   UNL A   1      43.305  27.224  27.334  1.00  0.00    -0.248 NA
ATOM     58  C   UNL A   1      43.099  25.215  26.161  1.00  0.00     0.031 C 
ATOM     59  C   UNL A   1      46.948  29.726  27.444  1.00  0.00     0.029 A 
ATOM     60  C   UNL A   1      45.821  28.923  27.372  1.00  0.00     0.049 A 
ATOM     61  H   UNL A   1      43.902  29.247  28.181  1.00  0.00     0.167 HD
ATOM     62  C   UNL A   1      44.514  26.934  26.709  1.00  0.00     0.074 A 
ATOM     63  C   UNL A   1      44.338  25.674  26.018  1.00  0.00     0.031 C 
ATOM     64  C   UNL A   1      45.659  27.657  26.708  1.00  0.00     0.034 A 
BRANCH  51  65
ATOM     65  C   UNL A   1      45.132  33.102  29.507  1.00  0.00     0.023 A 
ATOM     66  C   UNL A   1      45.094  34.149  28.563  1.00  0.00     0.012 A 
ATOM     67  C   UNL A   1      45.627  33.350  30.800  1.00  0.00     0.148 A 
ATOM     68  C   UNL A   1      45.532  35.428  28.900  1.00  0.00     0.002 A 
ATOM     69  C   UNL A   1      46.051  34.633  31.134  1.00  0.00     0.091 A 
ATOM     70  F   UNL A   1      45.651  32.338  31.678  1.00  0.00    -0.205 F 
ATOM     71  C   UNL A   1      46.001  35.672  30.186  1.00  0.00     0.022 A 
BRANCH  69  72
ATOM     72  S   UNL A   1      46.637  35.077  32.772  1.00  0.00     0.127 S 
ATOM     73  O   UNL A   1      45.377  35.267  33.491  1.00  0.00    -0.237 OA
ATOM     74  O   UNL A   1      47.386  33.883  33.161  1.00  0.00    -0.237 OA
ATOM     75  O   UNL A   1      47.437  36.282  32.602  1.00  0.00    -0.744 OA
ENDBRANCH  69  72
ENDBRANCH  51  65
BRANCH  52  76
ATOM     76  C   UNL A   1      40.360  24.756  27.137  1.00  0.00     0.023 A 
ATOM     77  C   UNL A   1      39.121  24.841  26.475  1.00  0.00     0.012 A 
ATOM     78  C   UNL A   1      40.940  23.494  27.370  1.00  0.00     0.148 A 
ATOM     79  C   UNL A   1      38.468  23.685  26.051  1.00  0.00     0.002 A 
ATOM     80  C   UNL A   1      40.303  22.350  26.910  1.00  0.00     0.091 A 
ATOM     81  F   UNL A   1      42.117  23.448  28.008  1.00  0.00    -0.205 F 
ATOM     82  C   UNL A   1      39.062  22.442  26.257  1.00  0.00     0.022 A 
BRANCH  80  83
ATOM     83  S   UNL A   1      41.040  20.717  27.033  1.00  0.00     0.127 S 
ATOM     84  O   UNL A   1      40.916  20.442  28.462  1.00  0.00    -0.237 OA
ATOM     85  O   UNL A   1      40.159  19.927  26.174  1.00  0.00    -0.237 OA
ATOM     86  O   UNL A   1      42.402  20.858  26.537  1.00  0.00    -0.744 OA
ENDBRANCH  80  83
ENDBRANCH  52  76
BRANCH  64  87
ATOM     87  C   UNL A   1      46.837  27.144  25.927  1.00  0.00     0.023 A 
ATOM     88  C   UNL A   1      47.546  26.027  26.408  1.00  0.00     0.012 A 
ATOM     89  C   UNL A   1      47.133  27.659  24.649  1.00  0.00     0.148 A 
ATOM     90  C   UNL A   1      48.534  25.427  25.627  1.00  0.00     0.002 A 
ATOM     91  C   UNL A   1      48.096  27.036  23.863  1.00  0.00     0.091 A 
ATOM     92  F   UNL A   1      46.444  28.725  24.217  1.00  0.00    -0.205 F 
ATOM     93  C   UNL A   1      48.799  25.923  24.352  1.00  0.00     0.022 A 
BRANCH  91  94
ATOM     94  S   UNL A   1      48.454  27.546  22.178  1.00  0.00     0.127 S 
ATOM     95  O   UNL A   1      47.196  28.180  21.784  1.00  0.00    -0.237 OA
ATOM     96  O   UNL A   1      49.571  28.471  22.367  1.00  0.00    -0.237 OA
ATOM     97  O   UNL A   1      48.785  26.329  21.447  1.00  0.00    -0.744 OA
ENDBRANCH  91  94
ENDBRANCH  64  87
ENDBRANCH  38  39
ENDBRANCH  31  33
ENDBRANCH  30  31
ENDBRANCH  29  30
ENDBRANCH  28  29
ENDBRANCH  27  28
ENDBRANCH  26  27
ENDBRANCH  25  26
ENDBRANCH   1  25
TORSDOF 26
ENDMDL
MODEL 3
REMARK VINA RESULT:      -9.0      6.139      7.400
REMARK SMILES O=C(CCS[C@H]1CC(=O)c2ccccc2C1=O)OCCOCCOCCOCCOC(=O)c1ccc(-c2c3nc(c(-c4cccc(S(=O)(=O)[O-])c4F)c4ccc([nH]4)c(-c4cccc(S(=O)(=O)[O-])c4F)c4nc(c(-c5cccc(S(=O)(=O)[O-])c5F)c5ccc2[nH]5)C=C4)C=C3)cc1
REMARK SMILES IDX 24 1 23 2 22 3 21 4 20 5 19 6 18 7 2 8 1 9 3 10 4 11 5 12
REMARK SMILES IDX 6 13 7 14 16 15 8 16 15 17 17 18 9 19 10 20 14 21 11 22
REMARK SMILES IDX 13 23 12 24 25 25 26 26 27 27 28 28 29 29 30 30 31 31 32 32
REMARK SMILES IDX 33 33 34 34 95 35 35 36 94 37 36 38 37 39 38 40 88 41 39 42
REMARK SMILES IDX 93 43 87 44 89 45 40 46 92 47 86 48 85 49 41 51 73 52 53 53
REMARK SMILES IDX 72 54 54 55 57 56 71 57 90 58 55 59 56 60 70 62 91 63 58 64
REMARK SMILES IDX 42 65 43 66 51 67 44 68 46 69 52 70 45 71 47 72 48 73 49 74
REMARK SMILES IDX 50 75 74 76 75 77 83 78 76 79 78 80 84 81 77 82 79 83 80 84
REMARK SMILES IDX 81 85 82 86 59 87 60 88 68 89 61 90 63 91 69 92 62 93 64 94
REMARK SMILES IDX 65 95 66 96 67 97
REMARK H PARENT 89 50 57 61
REMARK Flexibility Score: inf
ROOT
ATOM      1  O   UNL A   1      33.265  33.073  27.944  1.00  0.00    -0.377 OA
ENDROOT
BRANCH   1   2
ATOM      2  C   UNL A   1      34.129  31.955  27.739  1.00  0.00     0.188 C 
BRANCH   2   3
ATOM      3  C   UNL A   1      33.495  30.586  27.508  1.00  0.00     0.188 C 
BRANCH   3   4
ATOM      4  O   UNL A   1      34.385  29.724  26.797  1.00  0.00    -0.376 OA
BRANCH   4   5
ATOM      5  C   UNL A   1      33.960  28.369  26.810  1.00  0.00     0.202 C 
BRANCH   5   6
ATOM      6  C   UNL A   1      33.095  28.041  25.605  1.00  0.00     0.261 C 
BRANCH   6   7
ATOM      7  O   UNL A   1      32.843  26.631  25.453  1.00  0.00    -0.463 OA
BRANCH   7   8
ATOM      8  C   UNL A   1      31.757  25.895  25.755  1.00  0.00     0.306 C 
ATOM      9  O   UNL A   1      31.366  25.929  26.928  1.00  0.00    -0.252 OA
BRANCH   8  10
ATOM     10  C   UNL A   1      31.090  24.909  24.806  1.00  0.00     0.133 C 
BRANCH  10  11
ATOM     11  C   UNL A   1      30.822  23.454  25.169  1.00  0.00     0.082 C 
BRANCH  11  12
ATOM     12  S   UNL A   1      32.239  22.467  25.713  1.00  0.00    -0.149 SA
BRANCH  12  13
ATOM     13  C   UNL A   1      32.490  21.163  24.427  1.00  0.00     0.126 C 
ATOM     14  C   UNL A   1      32.591  21.838  23.061  1.00  0.00     0.104 C 
ATOM     15  C   UNL A   1      33.830  20.460  24.566  1.00  0.00     0.176 C 
ATOM     16  C   UNL A   1      33.766  22.807  23.004  1.00  0.00     0.165 C 
ATOM     17  C   UNL A   1      35.018  21.343  24.592  1.00  0.00     0.030 A 
ATOM     18  O   UNL A   1      33.945  19.241  24.506  1.00  0.00    -0.293 OA
ATOM     19  O   UNL A   1      33.777  23.750  22.221  1.00  0.00    -0.294 OA
ATOM     20  C   UNL A   1      34.927  22.557  23.906  1.00  0.00     0.028 A 
ATOM     21  C   UNL A   1      36.132  21.046  25.378  1.00  0.00     0.012 A 
ATOM     22  C   UNL A   1      35.896  23.540  24.116  1.00  0.00     0.012 A 
ATOM     23  C   UNL A   1      37.085  22.040  25.604  1.00  0.00     0.001 A 
ATOM     24  C   UNL A   1      36.945  23.295  25.005  1.00  0.00     0.001 A 
ENDBRANCH  12  13
ENDBRANCH  11  12
ENDBRANCH  10  11
ENDBRANCH   8  10
ENDBRANCH   7   8
ENDBRANCH   6   7
ENDBRANCH   5   6
ENDBRANCH   4   5
ENDBRANCH   3   4
ENDBRANCH   2   3
ENDBRANCH   1   2
BRANCH   1  25
ATOM     25  C   UNL A   1      33.665  34.097  28.846  1.00  0.00     0.188 C 
BRANCH  25  26
ATOM     26  C   UNL A   1      34.736  33.676  29.853  1.00  0.00     0.188 C 
BRANCH  26  27
ATOM     27  O   UNL A   1      34.322  32.708  30.814  1.00  0.00    -0.376 OA
BRANCH  27  28
ATOM     28  C   UNL A   1      34.825  32.867  32.138  1.00  0.00     0.202 C 
BRANCH  28  29
ATOM     29  C   UNL A   1      36.000  31.973  32.571  1.00  0.00     0.261 C 
BRANCH  29  30
ATOM     30  O   UNL A   1      37.056  31.836  31.589  1.00  0.00    -0.460 OA
BRANCH  30  31
ATOM     31  C   UNL A   1      37.331  30.573  31.189  1.00  0.00     0.338 C 
ATOM     32  O   UNL A   1      36.747  29.960  30.296  1.00  0.00    -0.246 OA
BRANCH  31  33
ATOM     33  C   UNL A   1      38.495  29.981  31.890  1.00  0.00     0.060 A 
ATOM     34  C   UNL A   1      38.525  28.631  32.246  1.00  0.00     0.016 A 
ATOM     35  C   UNL A   1      39.662  30.751  32.006  1.00  0.00     0.016 A 
ATOM     36  C   UNL A   1      39.740  28.044  32.647  1.00  0.00     0.010 A 
ATOM     37  C   UNL A   1      40.872  30.162  32.404  1.00  0.00     0.010 A 
ATOM     38  C   UNL A   1      40.935  28.791  32.691  1.00  0.00    -0.014 A 
BRANCH  38  39
ATOM     39  C   UNL A   1      42.249  28.088  32.804  1.00  0.00     0.031 A 
ATOM     40  C   UNL A   1      42.996  27.523  31.633  1.00  0.00     0.074 A 
ATOM     41  C   UNL A   1      42.786  27.905  34.027  1.00  0.00     0.049 A 
ATOM     42  N   UNL A   1      44.269  27.230  31.531  1.00  0.00    -0.248 NA
ATOM     43  C   UNL A   1      42.224  27.243  30.422  1.00  0.00     0.031 C 
ATOM     44  C   UNL A   1      42.139  28.252  35.291  1.00  0.00     0.029 A 
ATOM     45  N   UNL A   1      43.989  27.360  34.399  1.00  0.00    -0.354 N 
ATOM     46  C   UNL A   1      44.464  26.830  30.215  1.00  0.00     0.074 A 
ATOM     47  C   UNL A   1      43.171  26.856  29.574  1.00  0.00     0.031 C 
ATOM     48  C   UNL A   1      42.950  27.904  36.302  1.00  0.00     0.029 A 
ATOM     49  C   UNL A   1      44.181  27.329  35.757  1.00  0.00     0.049 A 
ATOM     50  H   UNL A   1      44.652  27.023  33.753  1.00  0.00     0.167 HD
ATOM     51  C   UNL A   1      45.617  26.488  29.596  1.00  0.00     0.034 A 
ATOM     52  C   UNL A   1      45.232  26.908  36.487  1.00  0.00     0.034 A 
ATOM     53  C   UNL A   1      46.867  26.276  30.271  1.00  0.00     0.049 A 
ATOM     54  C   UNL A   1      46.486  26.438  35.805  1.00  0.00     0.074 A 
ATOM     55  C   UNL A   1      48.098  25.960  29.722  1.00  0.00     0.029 A 
ATOM     56  N   UNL A   1      47.024  26.265  31.645  1.00  0.00    -0.354 N 
ATOM     57  N   UNL A   1      46.756  26.394  34.524  1.00  0.00    -0.248 NA
ATOM     58  C   UNL A   1      47.595  26.002  36.667  1.00  0.00     0.031 C 
ATOM     59  C   UNL A   1      48.990  25.712  30.770  1.00  0.00     0.029 A 
ATOM     60  C   UNL A   1      48.317  25.898  31.968  1.00  0.00     0.049 A 
ATOM     61  H   UNL A   1      46.319  26.486  32.295  1.00  0.00     0.167 HD
ATOM     62  C   UNL A   1      48.069  25.946  34.425  1.00  0.00     0.074 A 
ATOM     63  C   UNL A   1      48.546  25.741  35.777  1.00  0.00     0.031 C 
ATOM     64  C   UNL A   1      48.804  25.720  33.309  1.00  0.00     0.034 A 
BRANCH  51  65
ATOM     65  C   UNL A   1      45.623  26.395  28.095  1.00  0.00     0.023 A 
ATOM     66  C   UNL A   1      45.869  27.580  27.370  1.00  0.00     0.012 A 
ATOM     67  C   UNL A   1      45.564  25.165  27.416  1.00  0.00     0.148 A 
ATOM     68  C   UNL A   1      46.064  27.543  25.991  1.00  0.00     0.002 A 
ATOM     69  C   UNL A   1      45.773  25.134  26.040  1.00  0.00     0.091 A 
ATOM     70  F   UNL A   1      45.330  24.055  28.129  1.00  0.00    -0.205 F 
ATOM     71  C   UNL A   1      46.025  26.321  25.328  1.00  0.00     0.022 A 
BRANCH  69  72
ATOM     72  S   UNL A   1      45.786  23.614  25.085  1.00  0.00     0.127 S 
ATOM     73  O   UNL A   1      44.355  23.359  24.922  1.00  0.00    -0.237 OA
ATOM     74  O   UNL A   1      46.474  24.028  23.863  1.00  0.00    -0.237 OA
ATOM     75  O   UNL A   1      46.497  22.635  25.895  1.00  0.00    -0.744 OA
ENDBRANCH  69  72
ENDBRANCH  51  65
BRANCH  52  76
ATOM     76  C   UNL A   1      45.149  27.001  37.967  1.00  0.00     0.023 A 
ATOM     77  C   UNL A   1      44.717  25.884  38.705  1.00  0.00     0.012 A 
ATOM     78  C   UNL A   1      45.589  28.155  38.643  1.00  0.00     0.148 A 
ATOM     79  C   UNL A   1      44.723  25.916  40.099  1.00  0.00     0.002 A 
ATOM     80  C   UNL A   1      45.629  28.165  40.031  1.00  0.00     0.091 A 
ATOM     81  F   UNL A   1      45.990  29.202  37.910  1.00  0.00    -0.205 F 
ATOM     82  C   UNL A   1      45.188  27.049  40.762  1.00  0.00     0.022 A 
BRANCH  80  83
ATOM     83  S   UNL A   1      46.313  29.535  40.968  1.00  0.00     0.127 S 
ATOM     84  O   UNL A   1      45.268  30.546  40.822  1.00  0.00    -0.237 OA
ATOM     85  O   UNL A   1      46.426  28.954  42.306  1.00  0.00    -0.237 OA
ATOM     86  O   UNL A   1      47.585  29.853  40.336  1.00  0.00    -0.744 OA
ENDBRANCH  80  83
ENDBRANCH  52  76
BRANCH  64  87
ATOM     87  C   UNL A   1      50.208  25.205  33.460  1.00  0.00     0.023 A 
ATOM     88  C   UNL A   1      51.244  26.112  33.750  1.00  0.00     0.012 A 
ATOM     89  C   UNL A   1      50.469  23.820  33.480  1.00  0.00     0.148 A 
ATOM     90  C   UNL A   1      52.524  25.649  34.060  1.00  0.00     0.002 A 
ATOM     91  C   UNL A   1      51.737  23.365  33.822  1.00  0.00     0.091 A 
ATOM     92  F   UNL A   1      49.463  22.979  33.199  1.00  0.00    -0.205 F 
ATOM     93  C   UNL A   1      52.765  24.277  34.108  1.00  0.00     0.022 A 
BRANCH  91  94
ATOM     94  S   UNL A   1      52.129  21.620  33.992  1.00  0.00     0.127 S 
ATOM     95  O   UNL A   1      51.353  21.253  35.176  1.00  0.00    -0.237 OA
ATOM     96  O   UNL A   1      51.625  21.067  32.736  1.00  0.00    -0.237 OA
ATOM     97  O   UNL A   1      53.575  21.543  34.157  1.00  0.00    -0.744 OA
ENDBRANCH  91  94
ENDBRANCH  64  87
ENDBRANCH  38  39
ENDBRANCH  31  33
ENDBRANCH  30  31
ENDBRANCH  29  30
ENDBRANCH  28  29
ENDBRANCH  27  28
ENDBRANCH  26  27
ENDBRANCH  25  26
ENDBRANCH   1  25
TORSDOF 26
ENDMDL
