MODEL 1
REMARK VINA RESULT:      -8.1      0.000      0.000
REMARK SMILES COc1cccc(NC(=O)[C@@H]2[C@@H](C(=O)OCCOCCOCCOCCOC(=O)c3ccc(-c4c5nc(c(-c6cccc(S(=O)(=O)[O-])c6F)c6ccc([nH]6)c(-c6cccc(S(=O)(=O)[O-])c6F)c6nc(c(-c7cccc(S(=O)(=O)[O-])c7F)c7ccc4[nH]7)C=C6)C=C5)cc3)[C@H]3C=C[C@@H]2C3)c1
REMARK SMILES IDX 21 1 20 2 19 3 18 4 17 5 16 6 15 7 13 8 14 9 12 10 11 11
REMARK SMILES IDX 96 12 93 13 95 14 97 15 94 16 9 17 8 18 10 20 7 21 3 22 4 23
REMARK SMILES IDX 98 24 5 25 6 26 2 27 1 28 22 29 23 30 24 31 25 32 26 33
REMARK SMILES IDX 27 34 28 35 29 36 30 37 31 38 92 39 32 40 91 41 33 42 34 43
REMARK SMILES IDX 35 44 85 45 36 46 90 47 84 48 86 49 37 50 89 51 83 52 82 53
REMARK SMILES IDX 38 55 70 56 50 57 69 58 51 59 54 60 68 61 87 62 52 63 53 64
REMARK SMILES IDX 67 66 88 67 55 68 39 69 40 70 48 71 41 72 43 73 49 74 42 75
REMARK SMILES IDX 44 76 45 77 46 78 47 79 71 80 72 81 80 82 73 83 75 84 81 85
REMARK SMILES IDX 74 86 76 87 77 88 78 89 79 90 56 91 57 92 65 93 58 94 60 95
REMARK SMILES IDX 66 96 59 97 61 98 62 99 63 100 64 101
REMARK H PARENT 8 19 86 54 54 65
REMARK Flexibility Score: inf
ROOT
ATOM      1  O   UNL A   1      39.932  25.544  27.167  1.00  0.00    -0.377 OA
ENDROOT
BRANCH   1   2
ATOM      2  C   UNL A   1      39.261  24.309  27.205  1.00  0.00     0.188 C 
BRANCH   2   3
ATOM      3  C   UNL A   1      37.878  24.076  26.614  1.00  0.00     0.188 C 
BRANCH   3   4
ATOM      4  O   UNL A   1      37.741  23.759  25.248  1.00  0.00    -0.376 OA
BRANCH   4   5
ATOM      5  C   UNL A   1      36.891  22.736  24.762  1.00  0.00     0.202 C 
BRANCH   5   6
ATOM      6  C   UNL A   1      36.185  22.724  23.392  1.00  0.00     0.261 C 
BRANCH   6   7
ATOM      7  O   UNL A   1      35.208  23.743  23.099  1.00  0.00    -0.463 OA
BRANCH   7   8
ATOM      8  C   UNL A   1      34.472  24.205  24.147  1.00  0.00     0.310 C 
ATOM      9  O   UNL A   1      34.793  25.179  24.823  1.00  0.00    -0.252 OA
BRANCH   8  10
ATOM     10  C   UNL A   1      33.194  23.429  24.438  1.00  0.00     0.119 C 
ATOM     11  C   UNL A   1      31.903  24.204  24.819  1.00  0.00     0.100 C 
ATOM     12  C   UNL A   1      31.184  23.177  25.745  1.00  0.00     0.025 C 
ATOM     13  C   UNL A   1      33.225  22.285  25.506  1.00  0.00     0.027 C 
ATOM     14  C   UNL A   1      31.832  23.276  27.091  1.00  0.00    -0.027 C 
ATOM     15  C   UNL A   1      31.778  21.817  25.323  1.00  0.00     0.017 C 
ATOM     16  C   UNL A   1      33.038  22.712  26.958  1.00  0.00    -0.027 C 
BRANCH  11  17
ATOM     17  C   UNL A   1      31.016  24.541  23.637  1.00  0.00     0.228 C 
ATOM     18  N   UNL A   1      30.956  25.821  23.159  1.00  0.00    -0.326 N 
ATOM     19  H   UNL A   1      30.266  25.958  22.469  1.00  0.00     0.169 HD
ATOM     20  O   UNL A   1      30.279  23.693  23.128  1.00  0.00    -0.274 OA
BRANCH  18  21
ATOM     21  C   UNL A   1      31.697  26.981  23.466  1.00  0.00     0.044 A 
ATOM     22  C   UNL A   1      31.838  28.991  24.831  1.00  0.00     0.120 A 
ATOM     23  C   UNL A   1      33.090  29.267  24.283  1.00  0.00     0.046 A 
ATOM     24  C   UNL A   1      31.139  27.855  24.410  1.00  0.00     0.072 A 
ATOM     25  C   UNL A   1      33.632  28.433  23.312  1.00  0.00     0.006 A 
ATOM     26  C   UNL A   1      32.927  27.306  22.892  1.00  0.00     0.026 A 
BRANCH  22  27
ATOM     27  O   UNL A   1      31.405  29.914  25.740  1.00  0.00    -0.497 OA
ATOM     28  C   UNL A   1      32.352  30.402  26.677  1.00  0.00     0.278 C 
ENDBRANCH  22  27
ENDBRANCH  18  21
ENDBRANCH  11  17
ENDBRANCH   8  10
ENDBRANCH   7   8
ENDBRANCH   6   7
ENDBRANCH   5   6
ENDBRANCH   4   5
ENDBRANCH   3   4
ENDBRANCH   2   3
ENDBRANCH   1   2
BRANCH   1  29
ATOM     29  C   UNL A   1      41.053  25.685  27.995  1.00  0.00     0.188 C 
BRANCH  29  30
ATOM     30  C   UNL A   1      42.202  24.780  27.548  1.00  0.00     0.188 C 
BRANCH  30  31
ATOM     31  O   UNL A   1      42.444  24.488  26.171  1.00  0.00    -0.376 OA
BRANCH  31  32
ATOM     32  C   UNL A   1      42.619  23.164  25.694  1.00  0.00     0.202 C 
BRANCH  32  33
ATOM     33  C   UNL A   1      43.887  22.796  24.899  1.00  0.00     0.261 C 
BRANCH  33  34
ATOM     34  O   UNL A   1      44.895  23.804  24.776  1.00  0.00    -0.460 OA
BRANCH  34  35
ATOM     35  C   UNL A   1      45.731  23.910  25.835  1.00  0.00     0.338 C 
ATOM     36  O   UNL A   1      46.393  23.027  26.342  1.00  0.00    -0.246 OA
BRANCH  35  37
ATOM     37  C   UNL A   1      45.829  25.332  26.224  1.00  0.00     0.060 A 
ATOM     38  C   UNL A   1      46.301  25.628  27.508  1.00  0.00     0.016 A 
ATOM     39  C   UNL A   1      45.417  26.355  25.366  1.00  0.00     0.016 A 
ATOM     40  C   UNL A   1      46.333  26.944  27.953  1.00  0.00     0.010 A 
ATOM     41  C   UNL A   1      45.414  27.675  25.828  1.00  0.00     0.010 A 
ATOM     42  C   UNL A   1      45.833  27.965  27.138  1.00  0.00    -0.014 A 
BRANCH  42  43
ATOM     43  C   UNL A   1      45.544  29.276  27.762  1.00  0.00     0.031 A 
ATOM     44  C   UNL A   1      46.518  30.400  27.534  1.00  0.00     0.074 A 
ATOM     45  C   UNL A   1      44.401  29.484  28.439  1.00  0.00     0.049 A 
ATOM     46  N   UNL A   1      46.469  31.638  27.949  1.00  0.00    -0.248 NA
ATOM     47  C   UNL A   1      47.709  30.087  26.722  1.00  0.00     0.031 C 
ATOM     48  C   UNL A   1      43.369  28.479  28.685  1.00  0.00     0.029 A 
ATOM     49  N   UNL A   1      43.923  30.615  29.049  1.00  0.00    -0.354 N 
ATOM     50  C   UNL A   1      47.620  32.247  27.463  1.00  0.00     0.074 A 
ATOM     51  C   UNL A   1      48.364  31.237  26.743  1.00  0.00     0.031 C 
ATOM     52  C   UNL A   1      42.387  29.033  29.420  1.00  0.00     0.029 A 
ATOM     53  C   UNL A   1      42.735  30.421  29.712  1.00  0.00     0.049 A 
ATOM     54  H   UNL A   1      44.388  31.482  29.017  1.00  0.00     0.167 HD
ATOM     55  C   UNL A   1      48.012  33.536  27.583  1.00  0.00     0.034 A 
ATOM     56  C   UNL A   1      42.026  31.269  30.483  1.00  0.00     0.034 A 
ATOM     57  C   UNL A   1      47.266  34.535  28.298  1.00  0.00     0.049 A 
ATOM     58  C   UNL A   1      42.518  32.685  30.650  1.00  0.00     0.074 A 
ATOM     59  C   UNL A   1      47.575  35.869  28.489  1.00  0.00     0.029 A 
ATOM     60  N   UNL A   1      46.061  34.306  28.944  1.00  0.00    -0.354 N 
ATOM     61  N   UNL A   1      43.571  33.264  30.124  1.00  0.00    -0.248 NA
ATOM     62  C   UNL A   1      41.700  33.575  31.487  1.00  0.00     0.031 C 
ATOM     63  C   UNL A   1      46.569  36.441  29.275  1.00  0.00     0.029 A 
ATOM     64  C   UNL A   1      45.612  35.474  29.536  1.00  0.00     0.049 A 
ATOM     65  H   UNL A   1      45.594  33.441  28.978  1.00  0.00     0.167 HD
ATOM     66  C   UNL A   1      43.514  34.596  30.524  1.00  0.00     0.074 A 
ATOM     67  C   UNL A   1      42.310  34.740  31.317  1.00  0.00     0.031 C 
ATOM     68  C   UNL A   1      44.380  35.608  30.270  1.00  0.00     0.034 A 
BRANCH  55  69
ATOM     69  C   UNL A   1      49.298  33.942  26.910  1.00  0.00     0.023 A 
ATOM     70  C   UNL A   1      49.258  34.545  25.635  1.00  0.00     0.012 A 
ATOM     71  C   UNL A   1      50.538  33.771  27.554  1.00  0.00     0.148 A 
ATOM     72  C   UNL A   1      50.434  34.943  25.001  1.00  0.00     0.002 A 
ATOM     73  C   UNL A   1      51.702  34.213  26.937  1.00  0.00     0.091 A 
ATOM     74  F   UNL A   1      50.557  33.175  28.756  1.00  0.00    -0.205 F 
ATOM     75  C   UNL A   1      51.653  34.789  25.656  1.00  0.00     0.022 A 
BRANCH  73  76
ATOM     76  S   UNL A   1      53.312  34.131  27.725  1.00  0.00     0.127 S 
ATOM     77  O   UNL A   1      53.051  34.791  29.003  1.00  0.00    -0.237 OA
ATOM     78  O   UNL A   1      53.533  32.688  27.819  1.00  0.00    -0.237 OA
ATOM     79  O   UNL A   1      54.232  34.833  26.842  1.00  0.00    -0.744 OA
ENDBRANCH  73  76
ENDBRANCH  55  69
BRANCH  56  80
ATOM     80  C   UNL A   1      40.768  30.820  31.148  1.00  0.00     0.023 A 
ATOM     81  C   UNL A   1      40.791  30.423  32.500  1.00  0.00     0.012 A 
ATOM     82  C   UNL A   1      39.555  30.755  30.436  1.00  0.00     0.148 A 
ATOM     83  C   UNL A   1      39.643  29.918  33.113  1.00  0.00     0.002 A 
ATOM     84  C   UNL A   1      38.402  30.309  31.070  1.00  0.00     0.091 A 
ATOM     85  F   UNL A   1      39.554  31.122  29.147  1.00  0.00    -0.205 F 
ATOM     86  C   UNL A   1      38.448  29.868  32.401  1.00  0.00     0.022 A 
BRANCH  84  87
ATOM     87  S   UNL A   1      36.796  30.331  30.267  1.00  0.00     0.127 S 
ATOM     88  O   UNL A   1      35.936  29.764  31.302  1.00  0.00    -0.237 OA
ATOM     89  O   UNL A   1      36.603  31.760  30.019  1.00  0.00    -0.237 OA
ATOM     90  O   UNL A   1      36.951  29.530  29.061  1.00  0.00    -0.744 OA
ENDBRANCH  84  87
ENDBRANCH  56  80
BRANCH  68  91
ATOM     91  C   UNL A   1      44.023  36.976  30.793  1.00  0.00     0.023 A 
ATOM     92  C   UNL A   1      44.199  37.285  32.156  1.00  0.00     0.012 A 
ATOM     93  C   UNL A   1      43.550  37.972  29.916  1.00  0.00     0.148 A 
ATOM     94  C   UNL A   1      43.859  38.544  32.647  1.00  0.00     0.002 A 
ATOM     95  C   UNL A   1      43.269  39.242  30.401  1.00  0.00     0.091 A 
ATOM     96  F   UNL A   1      43.375  37.656  28.624  1.00  0.00    -0.205 F 
ATOM     97  C   UNL A   1      43.404  39.525  31.769  1.00  0.00     0.022 A 
BRANCH  95  98
ATOM     98  S   UNL A   1      42.778  40.594  29.325  1.00  0.00     0.127 S 
ATOM     99  O   UNL A   1      41.530  40.084  28.757  1.00  0.00    -0.237 OA
ATOM    100  O   UNL A   1      42.610  41.697  30.272  1.00  0.00    -0.237 OA
ATOM    101  O   UNL A   1      43.870  40.771  28.379  1.00  0.00    -0.744 OA
ENDBRANCH  95  98
ENDBRANCH  68  91
ENDBRANCH  42  43
ENDBRANCH  35  37
ENDBRANCH  34  35
ENDBRANCH  33  34
ENDBRANCH  32  33
ENDBRANCH  31  32
ENDBRANCH  30  31
ENDBRANCH  29  30
ENDBRANCH   1  29
TORSDOF 26
ENDMDL
MODEL 2
REMARK VINA RESULT:      -7.9      6.465      9.910
REMARK SMILES COc1cccc(NC(=O)[C@@H]2[C@@H](C(=O)OCCOCCOCCOCCOC(=O)c3ccc(-c4c5nc(c(-c6cccc(S(=O)(=O)[O-])c6F)c6ccc([nH]6)c(-c6cccc(S(=O)(=O)[O-])c6F)c6nc(c(-c7cccc(S(=O)(=O)[O-])c7F)c7ccc4[nH]7)C=C6)C=C5)cc3)[C@H]3C=C[C@@H]2C3)c1
REMARK SMILES IDX 21 1 20 2 19 3 18 4 17 5 16 6 15 7 13 8 14 9 12 10 11 11
REMARK SMILES IDX 96 12 93 13 95 14 97 15 94 16 9 17 8 18 10 20 7 21 3 22 4 23
REMARK SMILES IDX 98 24 5 25 6 26 2 27 1 28 22 29 23 30 24 31 25 32 26 33
REMARK SMILES IDX 27 34 28 35 29 36 30 37 31 38 92 39 32 40 91 41 33 42 34 43
REMARK SMILES IDX 35 44 85 45 36 46 90 47 84 48 86 49 37 50 89 51 83 52 82 53
REMARK SMILES IDX 38 55 70 56 50 57 69 58 51 59 54 60 68 61 87 62 52 63 53 64
REMARK SMILES IDX 67 66 88 67 55 68 39 69 40 70 48 71 41 72 43 73 49 74 42 75
REMARK SMILES IDX 44 76 45 77 46 78 47 79 71 80 72 81 80 82 73 83 75 84 81 85
REMARK SMILES IDX 74 86 76 87 77 88 78 89 79 90 56 91 57 92 65 93 58 94 60 95
REMARK SMILES IDX 66 96 59 97 61 98 62 99 63 100 64 101
REMARK H PARENT 8 19 86 54 54 65
REMARK Flexibility Score: inf
ROOT
ATOM      1  O   UNL A   1      36.321  29.772  28.666  1.00  0.00    -0.377 OA
ENDROOT
BRANCH   1   2
ATOM      2  C   UNL A   1      36.144  31.106  29.071  1.00  0.00     0.188 C 
BRANCH   2   3
ATOM      3  C   UNL A   1      35.835  32.250  28.116  1.00  0.00     0.188 C 
BRANCH   3   4
ATOM      4  O   UNL A   1      34.509  32.483  27.703  1.00  0.00    -0.376 OA
BRANCH   4   5
ATOM      5  C   UNL A   1      33.503  31.486  27.694  1.00  0.00     0.202 C 
BRANCH   5   6
ATOM      6  C   UNL A   1      33.431  30.286  26.728  1.00  0.00     0.261 C 
BRANCH   6   7
ATOM      7  O   UNL A   1      32.220  30.064  25.977  1.00  0.00    -0.463 OA
BRANCH   7   8
ATOM      8  C   UNL A   1      32.323  29.288  24.863  1.00  0.00     0.310 C 
ATOM      9  O   UNL A   1      33.224  29.409  24.036  1.00  0.00    -0.252 OA
BRANCH   8  10
ATOM     10  C   UNL A   1      31.236  28.235  24.699  1.00  0.00     0.119 C 
ATOM     11  C   UNL A   1      31.597  26.735  24.877  1.00  0.00     0.100 C 
ATOM     12  C   UNL A   1      30.579  26.051  23.915  1.00  0.00     0.025 C 
ATOM     13  C   UNL A   1      30.384  28.220  23.386  1.00  0.00     0.027 C 
ATOM     14  C   UNL A   1      31.132  26.185  22.530  1.00  0.00    -0.027 C 
ATOM     15  C   UNL A   1      29.439  27.083  23.789  1.00  0.00     0.017 C 
ATOM     16  C   UNL A   1      30.983  27.473  22.200  1.00  0.00    -0.027 C 
BRANCH  11  17
ATOM     17  C   UNL A   1      31.400  26.218  26.287  1.00  0.00     0.228 C 
ATOM     18  N   UNL A   1      31.928  25.013  26.664  1.00  0.00    -0.326 N 
ATOM     19  H   UNL A   1      31.645  24.715  27.559  1.00  0.00     0.169 HD
ATOM     20  O   UNL A   1      30.705  26.830  27.102  1.00  0.00    -0.274 OA
BRANCH  18  21
ATOM     21  C   UNL A   1      32.802  24.118  26.012  1.00  0.00     0.044 A 
ATOM     22  C   UNL A   1      33.004  22.066  24.719  1.00  0.00     0.120 A 
ATOM     23  C   UNL A   1      34.371  22.299  24.576  1.00  0.00     0.046 A 
ATOM     24  C   UNL A   1      32.225  22.971  25.449  1.00  0.00     0.072 A 
ATOM     25  C   UNL A   1      34.961  23.409  25.170  1.00  0.00     0.006 A 
ATOM     26  C   UNL A   1      34.181  24.302  25.902  1.00  0.00     0.026 A 
BRANCH  22  27
ATOM     27  O   UNL A   1      32.563  20.918  24.124  1.00  0.00    -0.497 OA
ATOM     28  C   UNL A   1      32.592  19.728  24.898  1.00  0.00     0.278 C 
ENDBRANCH  22  27
ENDBRANCH  18  21
ENDBRANCH  11  17
ENDBRANCH   8  10
ENDBRANCH   7   8
ENDBRANCH   6   7
ENDBRANCH   5   6
ENDBRANCH   4   5
ENDBRANCH   3   4
ENDBRANCH   2   3
ENDBRANCH   1   2
BRANCH   1  29
ATOM     29  C   UNL A   1      37.617  29.383  28.301  1.00  0.00     0.188 C 
BRANCH  29  30
ATOM     30  C   UNL A   1      38.307  28.601  29.420  1.00  0.00     0.188 C 
BRANCH  30  31
ATOM     31  O   UNL A   1      39.178  27.502  29.149  1.00  0.00    -0.376 OA
BRANCH  31  32
ATOM     32  C   UNL A   1      39.239  26.877  27.877  1.00  0.00     0.202 C 
BRANCH  32  33
ATOM     33  C   UNL A   1      40.458  26.009  27.506  1.00  0.00     0.261 C 
BRANCH  33  34
ATOM     34  O   UNL A   1      40.801  25.928  26.119  1.00  0.00    -0.460 OA
BRANCH  34  35
ATOM     35  C   UNL A   1      42.011  26.446  25.798  1.00  0.00     0.338 C 
ATOM     36  O   UNL A   1      42.292  27.110  24.821  1.00  0.00    -0.246 OA
BRANCH  35  37
ATOM     37  C   UNL A   1      42.948  26.189  26.911  1.00  0.00     0.060 A 
ATOM     38  C   UNL A   1      43.398  27.287  27.653  1.00  0.00     0.016 A 
ATOM     39  C   UNL A   1      43.418  24.903  27.190  1.00  0.00     0.016 A 
ATOM     40  C   UNL A   1      44.345  27.112  28.655  1.00  0.00     0.010 A 
ATOM     41  C   UNL A   1      44.398  24.732  28.173  1.00  0.00     0.010 A 
ATOM     42  C   UNL A   1      44.893  25.844  28.878  1.00  0.00    -0.014 A 
BRANCH  42  43
ATOM     43  C   UNL A   1      46.135  25.752  29.678  1.00  0.00     0.031 A 
ATOM     44  C   UNL A   1      47.449  25.957  28.973  1.00  0.00     0.074 A 
ATOM     45  C   UNL A   1      46.091  25.577  31.010  1.00  0.00     0.049 A 
ATOM     46  N   UNL A   1      48.662  25.953  29.459  1.00  0.00    -0.248 NA
ATOM     47  C   UNL A   1      47.387  26.208  27.521  1.00  0.00     0.031 C 
ATOM     48  C   UNL A   1      44.873  25.407  31.800  1.00  0.00     0.029 A 
ATOM     49  N   UNL A   1      47.104  25.506  31.931  1.00  0.00    -0.354 N 
ATOM     50  C   UNL A   1      49.504  26.186  28.379  1.00  0.00     0.074 A 
ATOM     51  C   UNL A   1      48.669  26.302  27.204  1.00  0.00     0.031 C 
ATOM     52  C   UNL A   1      45.212  25.226  33.090  1.00  0.00     0.029 A 
ATOM     53  C   UNL A   1      46.668  25.245  33.208  1.00  0.00     0.049 A 
ATOM     54  H   UNL A   1      48.053  25.631  31.699  1.00  0.00     0.167 HD
ATOM     55  C   UNL A   1      50.851  26.316  28.367  1.00  0.00     0.034 A 
ATOM     56  C   UNL A   1      47.373  25.025  34.335  1.00  0.00     0.034 A 
ATOM     57  C   UNL A   1      51.675  26.202  29.539  1.00  0.00     0.049 A 
ATOM     58  C   UNL A   1      48.877  25.117  34.282  1.00  0.00     0.074 A 
ATOM     59  C   UNL A   1      53.050  26.309  29.640  1.00  0.00     0.029 A 
ATOM     60  N   UNL A   1      51.198  25.951  30.816  1.00  0.00    -0.354 N 
ATOM     61  N   UNL A   1      49.654  25.409  33.266  1.00  0.00    -0.248 NA
ATOM     62  C   UNL A   1      49.600  24.886  35.541  1.00  0.00     0.031 C 
ATOM     63  C   UNL A   1      53.407  26.095  30.975  1.00  0.00     0.029 A 
ATOM     64  C   UNL A   1      52.251  25.899  31.713  1.00  0.00     0.049 A 
ATOM     65  H   UNL A   1      50.250  25.827  31.051  1.00  0.00     0.167 HD
ATOM     66  C   UNL A   1      50.949  25.448  33.774  1.00  0.00     0.074 A 
ATOM     67  C   UNL A   1      50.846  25.170  35.193  1.00  0.00     0.031 C 
ATOM     68  C   UNL A   1      52.120  25.681  33.130  1.00  0.00     0.034 A 
BRANCH  55  69
ATOM     69  C   UNL A   1      51.513  26.616  27.047  1.00  0.00     0.023 A 
ATOM     70  C   UNL A   1      51.886  25.554  26.196  1.00  0.00     0.012 A 
ATOM     71  C   UNL A   1      51.724  27.942  26.627  1.00  0.00     0.148 A 
ATOM     72  C   UNL A   1      52.484  25.808  24.963  1.00  0.00     0.002 A 
ATOM     73  C   UNL A   1      52.277  28.190  25.377  1.00  0.00     0.091 A 
ATOM     74  F   UNL A   1      51.384  28.938  27.460  1.00  0.00    -0.205 F 
ATOM     75  C   UNL A   1      52.669  27.125  24.549  1.00  0.00     0.022 A 
BRANCH  73  76
ATOM     76  S   UNL A   1      52.488  29.846  24.717  1.00  0.00     0.127 S 
ATOM     77  O   UNL A   1      51.242  30.491  25.132  1.00  0.00    -0.237 OA
ATOM     78  O   UNL A   1      53.679  30.309  25.427  1.00  0.00    -0.237 OA
ATOM     79  O   UNL A   1      52.655  29.691  23.279  1.00  0.00    -0.744 OA
ENDBRANCH  73  76
ENDBRANCH  55  69
BRANCH  56  80
ATOM     80  C   UNL A   1      46.678  24.711  35.617  1.00  0.00     0.023 A 
ATOM     81  C   UNL A   1      46.368  23.375  35.940  1.00  0.00     0.012 A 
ATOM     82  C   UNL A   1      46.293  25.736  36.503  1.00  0.00     0.148 A 
ATOM     83  C   UNL A   1      45.641  23.071  37.093  1.00  0.00     0.002 A 
ATOM     84  C   UNL A   1      45.623  25.422  37.679  1.00  0.00     0.091 A 
ATOM     85  F   UNL A   1      46.581  27.003  36.173  1.00  0.00    -0.205 F 
ATOM     86  C   UNL A   1      45.276  24.093  37.965  1.00  0.00     0.022 A 
BRANCH  84  87
ATOM     87  S   UNL A   1      45.227  26.659  38.919  1.00  0.00     0.127 S 
ATOM     88  O   UNL A   1      44.250  27.485  38.216  1.00  0.00    -0.237 OA
ATOM     89  O   UNL A   1      44.681  25.839  39.999  1.00  0.00    -0.237 OA
ATOM     90  O   UNL A   1      46.491  27.307  39.241  1.00  0.00    -0.744 OA
ENDBRANCH  84  87
ENDBRANCH  56  80
BRANCH  68  91
ATOM     91  C   UNL A   1      53.375  25.716  33.963  1.00  0.00     0.023 A 
ATOM     92  C   UNL A   1      53.701  26.864  34.712  1.00  0.00     0.012 A 
ATOM     93  C   UNL A   1      54.213  24.585  34.035  1.00  0.00     0.148 A 
ATOM     94  C   UNL A   1      54.867  26.906  35.474  1.00  0.00     0.002 A 
ATOM     95  C   UNL A   1      55.343  24.613  34.843  1.00  0.00     0.091 A 
ATOM     96  F   UNL A   1      53.896  23.507  33.305  1.00  0.00    -0.205 F 
ATOM     97  C   UNL A   1      55.682  25.779  35.548  1.00  0.00     0.022 A 
BRANCH  95  98
ATOM     98  S   UNL A   1      56.391  23.174  35.078  1.00  0.00     0.127 S 
ATOM     99  O   UNL A   1      57.018  23.045  33.763  1.00  0.00    -0.237 OA
ATOM    100  O   UNL A   1      57.293  23.619  36.142  1.00  0.00    -0.237 OA
ATOM    101  O   UNL A   1      55.500  22.086  35.456  1.00  0.00    -0.744 OA
ENDBRANCH  95  98
ENDBRANCH  68  91
ENDBRANCH  42  43
ENDBRANCH  35  37
ENDBRANCH  34  35
ENDBRANCH  33  34
ENDBRANCH  32  33
ENDBRANCH  31  32
ENDBRANCH  30  31
ENDBRANCH  29  30
ENDBRANCH   1  29
TORSDOF 26
ENDMDL
MODEL 3
REMARK VINA RESULT:      -7.9      3.178      8.733
REMARK SMILES COc1cccc(NC(=O)[C@@H]2[C@@H](C(=O)OCCOCCOCCOCCOC(=O)c3ccc(-c4c5nc(c(-c6cccc(S(=O)(=O)[O-])c6F)c6ccc([nH]6)c(-c6cccc(S(=O)(=O)[O-])c6F)c6nc(c(-c7cccc(S(=O)(=O)[O-])c7F)c7ccc4[nH]7)C=C6)C=C5)cc3)[C@H]3C=C[C@@H]2C3)c1
REMARK SMILES IDX 21 1 20 2 19 3 18 4 17 5 16 6 15 7 13 8 14 9 12 10 11 11
REMARK SMILES IDX 96 12 93 13 95 14 97 15 94 16 9 17 8 18 10 20 7 21 3 22 4 23
REMARK SMILES IDX 98 24 5 25 6 26 2 27 1 28 22 29 23 30 24 31 25 32 26 33
REMARK SMILES IDX 27 34 28 35 29 36 30 37 31 38 92 39 32 40 91 41 33 42 34 43
REMARK SMILES IDX 35 44 85 45 36 46 90 47 84 48 86 49 37 50 89 51 83 52 82 53
REMARK SMILES IDX 38 55 70 56 50 57 69 58 51 59 54 60 68 61 87 62 52 63 53 64
REMARK SMILES IDX 67 66 88 67 55 68 39 69 40 70 48 71 41 72 43 73 49 74 42 75
REMARK SMILES IDX 44 76 45 77 46 78 47 79 71 80 72 81 80 82 73 83 75 84 81 85
REMARK SMILES IDX 74 86 76 87 77 88 78 89 79 90 56 91 57 92 65 93 58 94 60 95
REMARK SMILES IDX 66 96 59 97 61 98 62 99 63 100 64 101
REMARK H PARENT 8 19 86 54 54 65
REMARK Flexibility Score: inf
ROOT
ATOM      1  O   UNL A   1      34.322  27.866  26.665  1.00  0.00    -0.377 OA
ENDROOT
BRANCH   1   2
ATOM      2  C   UNL A   1      33.286  27.186  26.001  1.00  0.00     0.188 C 
BRANCH   2   3
ATOM      3  C   UNL A   1      32.983  25.707  26.191  1.00  0.00     0.188 C 
BRANCH   3   4
ATOM      4  O   UNL A   1      33.903  24.737  25.746  1.00  0.00    -0.376 OA
BRANCH   4   5
ATOM      5  C   UNL A   1      35.131  25.052  25.116  1.00  0.00     0.202 C 
BRANCH   5   6
ATOM      6  C   UNL A   1      36.103  24.040  24.477  1.00  0.00     0.261 C 
BRANCH   6   7
ATOM      7  O   UNL A   1      35.566  22.924  23.740  1.00  0.00    -0.463 OA
BRANCH   7   8
ATOM      8  C   UNL A   1      35.634  21.703  24.340  1.00  0.00     0.310 C 
ATOM      9  O   UNL A   1      36.690  21.132  24.595  1.00  0.00    -0.252 OA
BRANCH   8  10
ATOM     10  C   UNL A   1      34.292  21.075  24.691  1.00  0.00     0.119 C 
ATOM     11  C   UNL A   1      32.985  21.863  24.403  1.00  0.00     0.100 C 
ATOM     12  C   UNL A   1      32.047  21.337  25.532  1.00  0.00     0.025 C 
ATOM     13  C   UNL A   1      34.054  20.553  26.147  1.00  0.00     0.027 C 
ATOM     14  C   UNL A   1      32.410  22.079  26.780  1.00  0.00    -0.027 C 
ATOM     15  C   UNL A   1      32.656  19.971  25.912  1.00  0.00     0.017 C 
ATOM     16  C   UNL A   1      33.591  21.587  27.168  1.00  0.00    -0.027 C 
BRANCH  11  17
ATOM     17  C   UNL A   1      32.374  21.569  23.048  1.00  0.00     0.228 C 
ATOM     18  N   UNL A   1      31.922  22.588  22.255  1.00  0.00    -0.326 N 
ATOM     19  H   UNL A   1      31.440  22.286  21.452  1.00  0.00     0.169 HD
ATOM     20  O   UNL A   1      32.206  20.411  22.660  1.00  0.00    -0.274 OA
BRANCH  18  21
ATOM     21  C   UNL A   1      32.020  23.990  22.371  1.00  0.00     0.044 A 
ATOM     22  C   UNL A   1      30.984  26.029  23.203  1.00  0.00     0.120 A 
ATOM     23  C   UNL A   1      32.101  26.756  22.793  1.00  0.00     0.046 A 
ATOM     24  C   UNL A   1      30.941  24.650  22.979  1.00  0.00     0.072 A 
ATOM     25  C   UNL A   1      33.155  26.121  22.148  1.00  0.00     0.006 A 
ATOM     26  C   UNL A   1      33.103  24.746  21.921  1.00  0.00     0.026 A 
BRANCH  22  27
ATOM     27  O   UNL A   1      30.003  26.784  23.782  1.00  0.00    -0.497 OA
ATOM     28  C   UNL A   1      29.587  27.954  23.096  1.00  0.00     0.278 C 
ENDBRANCH  22  27
ENDBRANCH  18  21
ENDBRANCH  11  17
ENDBRANCH   8  10
ENDBRANCH   7   8
ENDBRANCH   6   7
ENDBRANCH   5   6
ENDBRANCH   4   5
ENDBRANCH   3   4
ENDBRANCH   2   3
ENDBRANCH   1   2
BRANCH   1  29
ATOM     29  C   UNL A   1      34.156  29.243  26.865  1.00  0.00     0.188 C 
BRANCH  29  30
ATOM     30  C   UNL A   1      35.170  29.793  27.869  1.00  0.00     0.188 C 
BRANCH  30  31
ATOM     31  O   UNL A   1      36.462  30.251  27.465  1.00  0.00    -0.376 OA
BRANCH  31  32
ATOM     32  C   UNL A   1      37.556  30.328  28.365  1.00  0.00     0.202 C 
BRANCH  32  33
ATOM     33  C   UNL A   1      37.408  31.104  29.688  1.00  0.00     0.261 C 
BRANCH  33  34
ATOM     34  O   UNL A   1      37.298  32.528  29.600  1.00  0.00    -0.460 OA
BRANCH  34  35
ATOM     35  C   UNL A   1      37.737  33.204  30.688  1.00  0.00     0.338 C 
ATOM     36  O   UNL A   1      37.260  33.191  31.805  1.00  0.00    -0.246 OA
BRANCH  35  37
ATOM     37  C   UNL A   1      39.001  33.886  30.346  1.00  0.00     0.060 A 
ATOM     38  C   UNL A   1      39.154  34.366  29.040  1.00  0.00     0.016 A 
ATOM     39  C   UNL A   1      40.041  34.008  31.272  1.00  0.00     0.016 A 
ATOM     40  C   UNL A   1      40.355  34.939  28.642  1.00  0.00     0.010 A 
ATOM     41  C   UNL A   1      41.263  34.551  30.861  1.00  0.00     0.010 A 
ATOM     42  C   UNL A   1      41.434  34.979  29.532  1.00  0.00    -0.014 A 
BRANCH  42  43
ATOM     43  C   UNL A   1      42.781  35.251  28.983  1.00  0.00     0.031 A 
ATOM     44  C   UNL A   1      43.746  34.101  28.871  1.00  0.00     0.074 A 
ATOM     45  C   UNL A   1      43.108  36.469  28.518  1.00  0.00     0.049 A 
ATOM     46  N   UNL A   1      44.965  34.083  28.399  1.00  0.00    -0.248 NA
ATOM     47  C   UNL A   1      43.269  32.790  29.349  1.00  0.00     0.031 C 
ATOM     48  C   UNL A   1      42.238  37.644  28.541  1.00  0.00     0.029 A 
ATOM     49  N   UNL A   1      44.267  36.919  27.941  1.00  0.00    -0.354 N 
ATOM     50  C   UNL A   1      45.403  32.771  28.534  1.00  0.00     0.074 A 
ATOM     51  C   UNL A   1      44.332  32.025  29.156  1.00  0.00     0.031 C 
ATOM     52  C   UNL A   1      42.906  38.691  28.022  1.00  0.00     0.029 A 
ATOM     53  C   UNL A   1      44.253  38.262  27.655  1.00  0.00     0.049 A 
ATOM     54  H   UNL A   1      45.036  36.334  27.749  1.00  0.00     0.167 HD
ATOM     55  C   UNL A   1      46.584  32.229  28.154  1.00  0.00     0.034 A 
ATOM     56  C   UNL A   1      45.230  39.055  27.172  1.00  0.00     0.034 A 
ATOM     57  C   UNL A   1      47.643  32.976  27.535  1.00  0.00     0.049 A 
ATOM     58  C   UNL A   1      46.558  38.435  26.812  1.00  0.00     0.074 A 
ATOM     59  C   UNL A   1      48.883  32.529  27.116  1.00  0.00     0.029 A 
ATOM     60  N   UNL A   1      47.589  34.332  27.249  1.00  0.00    -0.354 N 
ATOM     61  N   UNL A   1      46.932  37.180  26.879  1.00  0.00    -0.248 NA
ATOM     62  C   UNL A   1      47.585  39.338  26.272  1.00  0.00     0.031 C 
ATOM     63  C   UNL A   1      49.589  33.621  26.601  1.00  0.00     0.029 A 
ATOM     64  C   UNL A   1      48.773  34.739  26.658  1.00  0.00     0.049 A 
ATOM     65  H   UNL A   1      46.822  34.919  27.437  1.00  0.00     0.167 HD
ATOM     66  C   UNL A   1      48.215  37.134  26.344  1.00  0.00     0.074 A 
ATOM     67  C   UNL A   1      48.543  38.486  25.938  1.00  0.00     0.031 C 
ATOM     68  C   UNL A   1      49.054  36.077  26.208  1.00  0.00     0.034 A 
BRANCH  55  69
ATOM     69  C   UNL A   1      46.780  30.753  28.381  1.00  0.00     0.023 A 
ATOM     70  C   UNL A   1      47.307  30.299  29.609  1.00  0.00     0.012 A 
ATOM     71  C   UNL A   1      46.403  29.813  27.404  1.00  0.00     0.148 A 
ATOM     72  C   UNL A   1      47.481  28.937  29.847  1.00  0.00     0.002 A 
ATOM     73  C   UNL A   1      46.535  28.455  27.666  1.00  0.00     0.091 A 
ATOM     74  F   UNL A   1      45.926  30.264  26.234  1.00  0.00    -0.205 F 
ATOM     75  C   UNL A   1      47.085  28.015  28.882  1.00  0.00     0.022 A 
BRANCH  73  76
ATOM     76  S   UNL A   1      45.985  27.185  26.522  1.00  0.00     0.127 S 
ATOM     77  O   UNL A   1      46.447  25.967  27.186  1.00  0.00    -0.237 OA
ATOM     78  O   UNL A   1      44.535  27.372  26.532  1.00  0.00    -0.237 OA
ATOM     79  O   UNL A   1      46.630  27.480  25.250  1.00  0.00    -0.744 OA
ENDBRANCH  73  76
ENDBRANCH  55  69
BRANCH  56  80
ATOM     80  C   UNL A   1      45.000  40.516  26.981  1.00  0.00     0.023 A 
ATOM     81  C   UNL A   1      44.424  40.987  25.785  1.00  0.00     0.012 A 
ATOM     82  C   UNL A   1      45.381  41.445  27.969  1.00  0.00     0.148 A 
ATOM     83  C   UNL A   1      44.282  42.357  25.553  1.00  0.00     0.002 A 
ATOM     84  C   UNL A   1      45.180  42.804  27.758  1.00  0.00     0.091 A 
ATOM     85  F   UNL A   1      45.941  40.982  29.095  1.00  0.00    -0.205 F 
ATOM     86  C   UNL A   1      44.653  43.264  26.542  1.00  0.00     0.022 A 
BRANCH  84  87
ATOM     87  S   UNL A   1      45.510  44.031  29.027  1.00  0.00     0.127 S 
ATOM     88  O   UNL A   1      45.342  45.278  28.288  1.00  0.00    -0.237 OA
ATOM     89  O   UNL A   1      44.460  43.744  30.004  1.00  0.00    -0.237 OA
ATOM     90  O   UNL A   1      46.859  43.750  29.500  1.00  0.00    -0.744 OA
ENDBRANCH  84  87
ENDBRANCH  56  80
BRANCH  68  91
ATOM     91  C   UNL A   1      50.378  36.324  25.531  1.00  0.00     0.023 A 
ATOM     92  C   UNL A   1      50.551  36.010  24.168  1.00  0.00     0.012 A 
ATOM     93  C   UNL A   1      51.442  36.912  26.243  1.00  0.00     0.148 A 
ATOM     94  C   UNL A   1      51.777  36.225  23.541  1.00  0.00     0.002 A 
ATOM     95  C   UNL A   1      52.643  37.178  25.597  1.00  0.00     0.091 A 
ATOM     96  F   UNL A   1      51.265  37.192  27.543  1.00  0.00    -0.205 F 
ATOM     97  C   UNL A   1      52.818  36.818  24.252  1.00  0.00     0.022 A 
BRANCH  95  98
ATOM     98  S   UNL A   1      54.000  38.033  26.405  1.00  0.00     0.127 S 
ATOM     99  O   UNL A   1      54.255  37.165  27.555  1.00  0.00    -0.237 OA
ATOM    100  O   UNL A   1      55.041  38.002  25.377  1.00  0.00    -0.237 OA
ATOM    101  O   UNL A   1      53.503  39.364  26.723  1.00  0.00    -0.744 OA
ENDBRANCH  95  98
ENDBRANCH  68  91
ENDBRANCH  42  43
ENDBRANCH  35  37
ENDBRANCH  34  35
ENDBRANCH  33  34
ENDBRANCH  32  33
ENDBRANCH  31  32
ENDBRANCH  30  31
ENDBRANCH  29  30
ENDBRANCH   1  29
TORSDOF 26
ENDMDL
