MODEL 1
REMARK VINA RESULT:      -8.3      0.000      0.000
REMARK SMILES Cc1[nH]cnc1C[NH+]1CCC(Oc2cccc(F)c2)(C(=O)OCCOCCOCCOCCOC(=O)c2ccc(-c3c4nc(c(-c5cccc(S(=O)(=O)[O-])c5F)c5ccc([nH]5)c(-c5cccc(S(=O)(=O)[O-])c5F)c5nc(c(-c6cccc(S(=O)(=O)[O-])c6F)c6ccc3[nH]6)C=C5)C=C4)cc2)CC1
REMARK SMILES IDX 29 1 28 2 27 3 26 4 25 5 24 6 23 7 22 8 20 9 21 10 11 11
REMARK SMILES IDX 8 12 9 13 101 14 10 16 100 17 7 18 6 19 1 20 2 21 3 22 4 23
REMARK SMILES IDX 5 25 12 26 13 27 14 28 19 29 15 30 17 31 16 32 18 33 30 34
REMARK SMILES IDX 31 35 32 36 33 37 34 38 35 39 36 40 37 41 38 42 99 43 39 44
REMARK SMILES IDX 98 45 40 46 41 47 42 48 92 49 43 50 97 51 91 52 93 53 44 54
REMARK SMILES IDX 96 55 90 56 89 57 45 59 77 60 57 61 76 62 58 63 61 64 75 65
REMARK SMILES IDX 94 66 59 67 60 68 74 70 95 71 62 72 46 73 47 74 55 75 48 76
REMARK SMILES IDX 50 77 56 78 49 79 51 80 52 81 53 82 54 83 78 84 79 85 87 86
REMARK SMILES IDX 80 87 82 88 88 89 81 90 83 91 84 92 85 93 86 94 63 95 64 96
REMARK SMILES IDX 72 97 65 98 67 99 73 100 66 101 68 102 69 103 70 104 71 105
REMARK H PARENT 8 15 3 24 93 58 61 69
REMARK Flexibility Score: inf
ROOT
ATOM      1  C   UNL A   1      33.267  34.798  28.891  1.00  0.00     0.188 C 
ENDROOT
BRANCH   1   2
ATOM      2  O   UNL A   1      33.777  33.482  28.695  1.00  0.00    -0.377 OA
BRANCH   2   3
ATOM      3  C   UNL A   1      35.120  33.269  28.300  1.00  0.00     0.188 C 
BRANCH   3   4
ATOM      4  C   UNL A   1      35.572  31.941  27.705  1.00  0.00     0.188 C 
BRANCH   4   5
ATOM      5  O   UNL A   1      35.258  30.745  28.376  1.00  0.00    -0.376 OA
BRANCH   5   6
ATOM      6  C   UNL A   1      34.565  29.729  27.665  1.00  0.00     0.202 C 
BRANCH   6   7
ATOM      7  C   UNL A   1      33.403  30.061  26.703  1.00  0.00     0.261 C 
BRANCH   7   8
ATOM      8  O   UNL A   1      33.406  29.424  25.397  1.00  0.00    -0.460 OA
BRANCH   8   9
ATOM      9  C   UNL A   1      32.929  28.150  25.326  1.00  0.00     0.351 C 
ATOM     10  O   UNL A   1      33.317  27.262  26.086  1.00  0.00    -0.247 OA
BRANCH   9  11
ATOM     11  C   UNL A   1      31.928  27.869  24.162  1.00  0.00     0.216 C 
ATOM     12  N   UNL A   1      32.369  25.524  22.356  1.00  0.00    -0.330 N 
ATOM     13  C   UNL A   1      31.479  25.332  23.491  1.00  0.00     0.267 C 
ATOM     14  C   UNL A   1      33.393  26.542  22.534  1.00  0.00     0.267 C 
ATOM     15  H   UNL A   1      31.761  25.945  21.655  1.00  0.00     0.348 HD
ATOM     16  C   UNL A   1      31.018  26.618  24.215  1.00  0.00     0.122 C 
ATOM     17  C   UNL A   1      32.730  27.890  22.837  1.00  0.00     0.122 C 
BRANCH  12  18
ATOM     18  C   UNL A   1      32.818  24.278  21.696  1.00  0.00     0.321 C 
BRANCH  18  19
ATOM     19  C   UNL A   1      33.080  23.060  22.559  1.00  0.00     0.115 A 
ATOM     20  C   UNL A   1      35.371  23.565  23.790  1.00  0.00     0.066 C 
ATOM     21  C   UNL A   1      34.133  22.826  23.443  1.00  0.00     0.040 A 
ATOM     22  N   UNL A   1      33.831  21.630  24.057  1.00  0.00    -0.348 N 
ATOM     23  C   UNL A   1      32.637  21.198  23.561  1.00  0.00     0.197 A 
ATOM     24  H   UNL A   1      34.379  21.170  24.732  1.00  0.00     0.167 HD
ATOM     25  N   UNL A   1      32.159  22.031  22.668  1.00  0.00    -0.236 NA
ENDBRANCH  18  19
ENDBRANCH  12  18
BRANCH  11  26
ATOM     26  O   UNL A   1      31.110  29.067  24.424  1.00  0.00    -0.475 OA
BRANCH  26  27
ATOM     27  C   UNL A   1      30.118  29.361  23.540  1.00  0.00     0.123 A 
ATOM     28  C   UNL A   1      30.401  30.059  22.366  1.00  0.00     0.047 A 
ATOM     29  C   UNL A   1      28.847  28.837  23.756  1.00  0.00     0.085 A 
ATOM     30  C   UNL A   1      29.382  30.341  21.456  1.00  0.00     0.007 A 
ATOM     31  C   UNL A   1      27.844  29.104  22.834  1.00  0.00     0.126 A 
ATOM     32  C   UNL A   1      28.093  29.869  21.697  1.00  0.00     0.039 A 
ATOM     33  F   UNL A   1      26.613  28.617  23.038  1.00  0.00    -0.207 F 
ENDBRANCH  26  27
ENDBRANCH  11  26
ENDBRANCH   9  11
ENDBRANCH   8   9
ENDBRANCH   7   8
ENDBRANCH   6   7
ENDBRANCH   5   6
ENDBRANCH   4   5
ENDBRANCH   3   4
ENDBRANCH   2   3
ENDBRANCH   1   2
BRANCH   1  34
ATOM     34  C   UNL A   1      33.382  35.372  30.297  1.00  0.00     0.188 C 
BRANCH  34  35
ATOM     35  O   UNL A   1      33.595  34.452  31.370  1.00  0.00    -0.376 OA
BRANCH  35  36
ATOM     36  C   UNL A   1      33.812  34.949  32.686  1.00  0.00     0.202 C 
BRANCH  36  37
ATOM     37  C   UNL A   1      35.283  34.950  33.059  1.00  0.00     0.261 C 
BRANCH  37  38
ATOM     38  O   UNL A   1      35.770  33.618  32.965  1.00  0.00    -0.460 OA
BRANCH  38  39
ATOM     39  C   UNL A   1      36.840  33.506  32.145  1.00  0.00     0.338 C 
ATOM     40  O   UNL A   1      37.005  34.018  31.058  1.00  0.00    -0.246 OA
BRANCH  39  41
ATOM     41  C   UNL A   1      37.875  32.786  32.898  1.00  0.00     0.060 A 
ATOM     42  C   UNL A   1      37.448  31.926  33.912  1.00  0.00     0.016 A 
ATOM     43  C   UNL A   1      39.234  32.982  32.625  1.00  0.00     0.016 A 
ATOM     44  C   UNL A   1      38.386  31.337  34.737  1.00  0.00     0.010 A 
ATOM     45  C   UNL A   1      40.178  32.402  33.458  1.00  0.00     0.010 A 
ATOM     46  C   UNL A   1      39.739  31.648  34.554  1.00  0.00    -0.014 A 
BRANCH  46  47
ATOM     47  C   UNL A   1      40.640  31.429  35.692  1.00  0.00     0.031 A 
ATOM     48  C   UNL A   1      41.668  30.345  35.556  1.00  0.00     0.074 A 
ATOM     49  C   UNL A   1      40.583  32.244  36.753  1.00  0.00     0.049 A 
ATOM     50  N   UNL A   1      42.615  30.003  36.382  1.00  0.00    -0.248 NA
ATOM     51  C   UNL A   1      41.635  29.544  34.316  1.00  0.00     0.031 C 
ATOM     52  C   UNL A   1      39.629  33.340  36.917  1.00  0.00     0.029 A 
ATOM     53  N   UNL A   1      41.347  32.280  37.883  1.00  0.00    -0.354 N 
ATOM     54  C   UNL A   1      43.274  28.942  35.774  1.00  0.00     0.074 A 
ATOM     55  C   UNL A   1      42.611  28.676  34.521  1.00  0.00     0.031 C 
ATOM     56  C   UNL A   1      39.865  33.944  38.092  1.00  0.00     0.029 A 
ATOM     57  C   UNL A   1      40.964  33.255  38.767  1.00  0.00     0.049 A 
ATOM     58  H   UNL A   1      42.098  31.665  38.047  1.00  0.00     0.167 HD
ATOM     59  C   UNL A   1      44.354  28.266  36.222  1.00  0.00     0.034 A 
ATOM     60  C   UNL A   1      41.446  33.539  39.990  1.00  0.00     0.034 A 
ATOM     61  C   UNL A   1      44.998  28.570  37.468  1.00  0.00     0.049 A 
ATOM     62  C   UNL A   1      42.614  32.736  40.493  1.00  0.00     0.074 A 
ATOM     63  C   UNL A   1      46.110  27.976  38.026  1.00  0.00     0.029 A 
ATOM     64  N   UNL A   1      44.572  29.552  38.352  1.00  0.00    -0.354 N 
ATOM     65  N   UNL A   1      43.282  31.786  39.881  1.00  0.00    -0.248 NA
ATOM     66  C   UNL A   1      43.112  33.052  41.838  1.00  0.00     0.031 C 
ATOM     67  C   UNL A   1      46.332  28.569  39.271  1.00  0.00     0.029 A 
ATOM     68  C   UNL A   1      45.385  29.564  39.468  1.00  0.00     0.049 A 
ATOM     69  H   UNL A   1      43.804  30.151  38.206  1.00  0.00     0.167 HD
ATOM     70  C   UNL A   1      44.293  31.402  40.753  1.00  0.00     0.074 A 
ATOM     71  C   UNL A   1      44.158  32.239  41.930  1.00  0.00     0.031 C 
ATOM     72  C   UNL A   1      45.239  30.442  40.603  1.00  0.00     0.034 A 
BRANCH  59  73
ATOM     73  C   UNL A   1      44.901  27.156  35.368  1.00  0.00     0.023 A 
ATOM     74  C   UNL A   1      45.968  27.408  34.481  1.00  0.00     0.012 A 
ATOM     75  C   UNL A   1      44.391  25.848  35.480  1.00  0.00     0.148 A 
ATOM     76  C   UNL A   1      46.502  26.382  33.702  1.00  0.00     0.002 A 
ATOM     77  C   UNL A   1      44.961  24.821  34.738  1.00  0.00     0.091 A 
ATOM     78  F   UNL A   1      43.357  25.635  36.306  1.00  0.00    -0.205 F 
ATOM     79  C   UNL A   1      46.008  25.088  33.840  1.00  0.00     0.022 A 
BRANCH  77  80
ATOM     80  S   UNL A   1      44.450  23.108  34.903  1.00  0.00     0.127 S 
ATOM     81  O   UNL A   1      44.833  22.818  36.284  1.00  0.00    -0.237 OA
ATOM     82  O   UNL A   1      43.008  23.197  34.676  1.00  0.00    -0.237 OA
ATOM     83  O   UNL A   1      45.185  22.366  33.888  1.00  0.00    -0.744 OA
ENDBRANCH  77  80
ENDBRANCH  59  73
BRANCH  60  84
ATOM     84  C   UNL A   1      40.842  34.650  40.772  1.00  0.00     0.023 A 
ATOM     85  C   UNL A   1      39.827  34.376  41.706  1.00  0.00     0.012 A 
ATOM     86  C   UNL A   1      41.341  35.965  40.662  1.00  0.00     0.148 A 
ATOM     87  C   UNL A   1      39.313  35.392  42.513  1.00  0.00     0.002 A 
ATOM     88  C   UNL A   1      40.865  36.959  41.507  1.00  0.00     0.091 A 
ATOM     89  F   UNL A   1      42.303  36.204  39.760  1.00  0.00    -0.205 F 
ATOM     90  C   UNL A   1      39.840  36.678  42.424  1.00  0.00     0.022 A 
BRANCH  88  91
ATOM     91  S   UNL A   1      41.582  38.606  41.562  1.00  0.00     0.127 S 
ATOM     92  O   UNL A   1      41.393  39.060  40.186  1.00  0.00    -0.237 OA
ATOM     93  O   UNL A   1      40.732  39.267  42.552  1.00  0.00    -0.237 OA
ATOM     94  O   UNL A   1      42.966  38.423  41.978  1.00  0.00    -0.744 OA
ENDBRANCH  88  91
ENDBRANCH  60  84
BRANCH  72  95
ATOM     95  C   UNL A   1      46.216  30.236  41.727  1.00  0.00     0.023 A 
ATOM     96  C   UNL A   1      47.453  30.905  41.700  1.00  0.00     0.012 A 
ATOM     97  C   UNL A   1      45.833  29.519  42.878  1.00  0.00     0.148 A 
ATOM     98  C   UNL A   1      48.301  30.860  42.804  1.00  0.00     0.002 A 
ATOM     99  C   UNL A   1      46.657  29.525  43.993  1.00  0.00     0.091 A 
ATOM    100  F   UNL A   1      44.650  28.886  42.870  1.00  0.00    -0.205 F 
ATOM    101  C   UNL A   1      47.895  30.187  43.956  1.00  0.00     0.022 A 
BRANCH  99 102
ATOM    102  S   UNL A   1      46.171  28.791  45.558  1.00  0.00     0.127 S 
ATOM    103  O   UNL A   1      45.955  27.395  45.175  1.00  0.00    -0.237 OA
ATOM    104  O   UNL A   1      47.353  29.022  46.386  1.00  0.00    -0.237 OA
ATOM    105  O   UNL A   1      44.975  29.503  45.987  1.00  0.00    -0.744 OA
ENDBRANCH  99 102
ENDBRANCH  72  95
ENDBRANCH  46  47
ENDBRANCH  39  41
ENDBRANCH  38  39
ENDBRANCH  37  38
ENDBRANCH  36  37
ENDBRANCH  35  36
ENDBRANCH  34  35
ENDBRANCH   1  34
TORSDOF 27
ENDMDL
MODEL 2
REMARK VINA RESULT:      -8.2      3.096      6.984
REMARK SMILES Cc1[nH]cnc1C[NH+]1CCC(Oc2cccc(F)c2)(C(=O)OCCOCCOCCOCCOC(=O)c2ccc(-c3c4nc(c(-c5cccc(S(=O)(=O)[O-])c5F)c5ccc([nH]5)c(-c5cccc(S(=O)(=O)[O-])c5F)c5nc(c(-c6cccc(S(=O)(=O)[O-])c6F)c6ccc3[nH]6)C=C5)C=C4)cc2)CC1
REMARK SMILES IDX 29 1 28 2 27 3 26 4 25 5 24 6 23 7 22 8 20 9 21 10 11 11
REMARK SMILES IDX 8 12 9 13 101 14 10 16 100 17 7 18 6 19 1 20 2 21 3 22 4 23
REMARK SMILES IDX 5 25 12 26 13 27 14 28 19 29 15 30 17 31 16 32 18 33 30 34
REMARK SMILES IDX 31 35 32 36 33 37 34 38 35 39 36 40 37 41 38 42 99 43 39 44
REMARK SMILES IDX 98 45 40 46 41 47 42 48 92 49 43 50 97 51 91 52 93 53 44 54
REMARK SMILES IDX 96 55 90 56 89 57 45 59 77 60 57 61 76 62 58 63 61 64 75 65
REMARK SMILES IDX 94 66 59 67 60 68 74 70 95 71 62 72 46 73 47 74 55 75 48 76
REMARK SMILES IDX 50 77 56 78 49 79 51 80 52 81 53 82 54 83 78 84 79 85 87 86
REMARK SMILES IDX 80 87 82 88 88 89 81 90 83 91 84 92 85 93 86 94 63 95 64 96
REMARK SMILES IDX 72 97 65 98 67 99 73 100 66 101 68 102 69 103 70 104 71 105
REMARK H PARENT 8 15 3 24 93 58 61 69
REMARK Flexibility Score: inf
ROOT
ATOM      1  C   UNL A   1      33.286  35.391  28.778  1.00  0.00     0.188 C 
ENDROOT
BRANCH   1   2
ATOM      2  O   UNL A   1      33.265  33.979  28.591  1.00  0.00    -0.377 OA
BRANCH   2   3
ATOM      3  C   UNL A   1      34.459  33.217  28.638  1.00  0.00     0.188 C 
BRANCH   3   4
ATOM      4  C   UNL A   1      34.672  32.018  27.721  1.00  0.00     0.188 C 
BRANCH   4   5
ATOM      5  O   UNL A   1      34.791  30.735  28.285  1.00  0.00    -0.376 OA
BRANCH   5   6
ATOM      6  C   UNL A   1      34.533  29.605  27.463  1.00  0.00     0.202 C 
BRANCH   6   7
ATOM      7  C   UNL A   1      33.177  29.414  26.748  1.00  0.00     0.261 C 
BRANCH   7   8
ATOM      8  O   UNL A   1      33.195  28.879  25.397  1.00  0.00    -0.460 OA
BRANCH   8   9
ATOM      9  C   UNL A   1      32.291  27.904  25.103  1.00  0.00     0.351 C 
ATOM     10  O   UNL A   1      31.806  27.177  25.971  1.00  0.00    -0.247 OA
BRANCH   9  11
ATOM     11  C   UNL A   1      31.978  27.710  23.587  1.00  0.00     0.216 C 
ATOM     12  N   UNL A   1      32.715  25.145  22.233  1.00  0.00    -0.330 N 
ATOM     13  C   UNL A   1      31.359  25.261  22.746  1.00  0.00     0.267 C 
ATOM     14  C   UNL A   1      33.713  25.947  22.926  1.00  0.00     0.267 C 
ATOM     15  H   UNL A   1      32.659  25.604  21.325  1.00  0.00     0.348 HD
ATOM     16  C   UNL A   1      30.906  26.684  23.147  1.00  0.00     0.122 C 
ATOM     17  C   UNL A   1      33.317  27.426  22.864  1.00  0.00     0.122 C 
BRANCH  12  18
ATOM     18  C   UNL A   1      33.136  23.770  21.882  1.00  0.00     0.321 C 
BRANCH  18  19
ATOM     19  C   UNL A   1      33.468  22.809  23.006  1.00  0.00     0.115 A 
ATOM     20  C   UNL A   1      36.081  23.049  23.370  1.00  0.00     0.066 C 
ATOM     21  C   UNL A   1      34.699  22.573  23.618  1.00  0.00     0.040 A 
ATOM     22  N   UNL A   1      34.427  21.704  24.651  1.00  0.00    -0.348 N 
ATOM     23  C   UNL A   1      33.086  21.462  24.650  1.00  0.00     0.197 A 
ATOM     24  H   UNL A   1      35.085  21.325  25.278  1.00  0.00     0.167 HD
ATOM     25  N   UNL A   1      32.482  22.111  23.683  1.00  0.00    -0.236 NA
ENDBRANCH  18  19
ENDBRANCH  12  18
BRANCH  11  26
ATOM     26  O   UNL A   1      31.440  29.070  23.407  1.00  0.00    -0.475 OA
BRANCH  26  27
ATOM     27  C   UNL A   1      30.160  29.190  22.957  1.00  0.00     0.123 A 
ATOM     28  C   UNL A   1      29.124  28.495  23.581  1.00  0.00     0.047 A 
ATOM     29  C   UNL A   1      29.882  30.119  21.960  1.00  0.00     0.085 A 
ATOM     30  C   UNL A   1      27.814  28.636  23.126  1.00  0.00     0.007 A 
ATOM     31  C   UNL A   1      28.571  30.270  21.528  1.00  0.00     0.126 A 
ATOM     32  C   UNL A   1      27.537  29.522  22.087  1.00  0.00     0.039 A 
ATOM     33  F   UNL A   1      28.292  31.151  20.559  1.00  0.00    -0.207 F 
ENDBRANCH  26  27
ENDBRANCH  11  26
ENDBRANCH   9  11
ENDBRANCH   8   9
ENDBRANCH   7   8
ENDBRANCH   6   7
ENDBRANCH   5   6
ENDBRANCH   4   5
ENDBRANCH   3   4
ENDBRANCH   2   3
ENDBRANCH   1   2
BRANCH   1  34
ATOM     34  C   UNL A   1      33.027  35.897  30.192  1.00  0.00     0.188 C 
BRANCH  34  35
ATOM     35  O   UNL A   1      33.093  34.944  31.256  1.00  0.00    -0.376 OA
BRANCH  35  36
ATOM     36  C   UNL A   1      34.298  34.810  32.002  1.00  0.00     0.202 C 
BRANCH  36  37
ATOM     37  C   UNL A   1      34.427  33.436  32.634  1.00  0.00     0.261 C 
BRANCH  37  38
ATOM     38  O   UNL A   1      35.496  32.750  31.997  1.00  0.00    -0.460 OA
BRANCH  38  39
ATOM     39  C   UNL A   1      36.673  33.412  32.087  1.00  0.00     0.338 C 
ATOM     40  O   UNL A   1      37.170  34.165  31.278  1.00  0.00    -0.246 OA
BRANCH  39  41
ATOM     41  C   UNL A   1      37.174  33.198  33.451  1.00  0.00     0.060 A 
ATOM     42  C   UNL A   1      37.671  34.311  34.133  1.00  0.00     0.016 A 
ATOM     43  C   UNL A   1      37.178  31.921  34.027  1.00  0.00     0.016 A 
ATOM     44  C   UNL A   1      38.278  34.134  35.360  1.00  0.00     0.010 A 
ATOM     45  C   UNL A   1      37.799  31.738  35.252  1.00  0.00     0.010 A 
ATOM     46  C   UNL A   1      38.412  32.836  35.869  1.00  0.00    -0.014 A 
BRANCH  46  47
ATOM     47  C   UNL A   1      39.453  32.613  36.880  1.00  0.00     0.031 A 
ATOM     48  C   UNL A   1      39.058  32.765  38.319  1.00  0.00     0.074 A 
ATOM     49  C   UNL A   1      40.668  32.197  36.503  1.00  0.00     0.049 A 
ATOM     50  N   UNL A   1      39.766  32.558  39.392  1.00  0.00    -0.248 NA
ATOM     51  C   UNL A   1      37.672  33.200  38.590  1.00  0.00     0.031 C 
ATOM     52  C   UNL A   1      41.092  31.992  35.118  1.00  0.00     0.029 A 
ATOM     53  N   UNL A   1      41.761  31.865  37.250  1.00  0.00    -0.354 N 
ATOM     54  C   UNL A   1      38.925  32.852  40.457  1.00  0.00     0.074 A 
ATOM     55  C   UNL A   1      37.659  33.276  39.910  1.00  0.00     0.031 C 
ATOM     56  C   UNL A   1      42.366  31.569  35.116  1.00  0.00     0.029 A 
ATOM     57  C   UNL A   1      42.846  31.505  36.494  1.00  0.00     0.049 A 
ATOM     58  H   UNL A   1      41.768  31.883  38.235  1.00  0.00     0.167 HD
ATOM     59  C   UNL A   1      39.188  32.753  41.778  1.00  0.00     0.034 A 
ATOM     60  C   UNL A   1      44.091  31.177  36.886  1.00  0.00     0.034 A 
ATOM     61  C   UNL A   1      40.455  32.312  42.286  1.00  0.00     0.049 A 
ATOM     62  C   UNL A   1      44.378  31.129  38.362  1.00  0.00     0.074 A 
ATOM     63  C   UNL A   1      40.843  32.150  43.599  1.00  0.00     0.029 A 
ATOM     64  N   UNL A   1      41.544  31.974  41.493  1.00  0.00    -0.354 N 
ATOM     65  N   UNL A   1      43.557  31.333  39.365  1.00  0.00    -0.248 NA
ATOM     66  C   UNL A   1      45.747  30.786  38.764  1.00  0.00     0.031 C 
ATOM     67  C   UNL A   1      42.183  31.755  43.603  1.00  0.00     0.029 A 
ATOM     68  C   UNL A   1      42.616  31.627  42.291  1.00  0.00     0.049 A 
ATOM     69  H   UNL A   1      41.551  31.982  40.508  1.00  0.00     0.167 HD
ATOM     70  C   UNL A   1      44.299  31.123  40.519  1.00  0.00     0.074 A 
ATOM     71  C   UNL A   1      45.635  30.758  40.088  1.00  0.00     0.031 C 
ATOM     72  C   UNL A   1      43.920  31.232  41.817  1.00  0.00     0.034 A 
BRANCH  59  73
ATOM     73  C   UNL A   1      38.098  33.118  42.748  1.00  0.00     0.023 A 
ATOM     74  C   UNL A   1      38.055  34.411  43.308  1.00  0.00     0.012 A 
ATOM     75  C   UNL A   1      37.086  32.192  43.068  1.00  0.00     0.148 A 
ATOM     76  C   UNL A   1      37.035  34.770  44.188  1.00  0.00     0.002 A 
ATOM     77  C   UNL A   1      36.046  32.574  43.908  1.00  0.00     0.091 A 
ATOM     78  F   UNL A   1      37.162  30.958  42.551  1.00  0.00    -0.205 F 
ATOM     79  C   UNL A   1      36.025  33.857  44.477  1.00  0.00     0.022 A 
BRANCH  77  80
ATOM     80  S   UNL A   1      34.656  31.499  44.277  1.00  0.00     0.127 S 
ATOM     81  O   UNL A   1      35.317  30.385  44.957  1.00  0.00    -0.237 OA
ATOM     82  O   UNL A   1      33.840  32.345  45.147  1.00  0.00    -0.237 OA
ATOM     83  O   UNL A   1      34.046  31.169  42.997  1.00  0.00    -0.744 OA
ENDBRANCH  77  80
ENDBRANCH  59  73
BRANCH  60  84
ATOM     84  C   UNL A   1      45.112  30.837  35.859  1.00  0.00     0.023 A 
ATOM     85  C   UNL A   1      45.996  31.829  35.399  1.00  0.00     0.012 A 
ATOM     86  C   UNL A   1      45.272  29.509  35.412  1.00  0.00     0.148 A 
ATOM     87  C   UNL A   1      47.018  31.507  34.505  1.00  0.00     0.002 A 
ATOM     88  C   UNL A   1      46.326  29.185  34.567  1.00  0.00     0.091 A 
ATOM     89  F   UNL A   1      44.414  28.582  35.859  1.00  0.00    -0.205 F 
ATOM     90  C   UNL A   1      47.193  30.186  34.101  1.00  0.00     0.022 A 
BRANCH  88  91
ATOM     91  S   UNL A   1      46.711  27.491  34.109  1.00  0.00     0.127 S 
ATOM     92  O   UNL A   1      47.930  27.665  33.322  1.00  0.00    -0.237 OA
ATOM     93  O   UNL A   1      46.904  26.866  35.417  1.00  0.00    -0.237 OA
ATOM     94  O   UNL A   1      45.552  27.006  33.371  1.00  0.00    -0.744 OA
ENDBRANCH  88  91
ENDBRANCH  60  84
BRANCH  72  95
ATOM     95  C   UNL A   1      44.949  30.948  42.877  1.00  0.00     0.023 A 
ATOM     96  C   UNL A   1      45.189  29.618  43.269  1.00  0.00     0.012 A 
ATOM     97  C   UNL A   1      45.783  31.980  43.349  1.00  0.00     0.148 A 
ATOM     98  C   UNL A   1      46.247  29.319  44.124  1.00  0.00     0.002 A 
ATOM     99  C   UNL A   1      46.868  31.666  44.155  1.00  0.00     0.091 A 
ATOM    100  F   UNL A   1      45.523  33.237  42.962  1.00  0.00    -0.205 F 
ATOM    101  C   UNL A   1      47.097  30.338  44.551  1.00  0.00     0.022 A 
BRANCH  99 102
ATOM    102  S   UNL A   1      48.084  32.889  44.657  1.00  0.00     0.127 S 
ATOM    103  O   UNL A   1      49.133  32.046  45.229  1.00  0.00    -0.237 OA
ATOM    104  O   UNL A   1      48.431  33.516  43.382  1.00  0.00    -0.237 OA
ATOM    105  O   UNL A   1      47.412  33.765  45.607  1.00  0.00    -0.744 OA
ENDBRANCH  99 102
ENDBRANCH  72  95
ENDBRANCH  46  47
ENDBRANCH  39  41
ENDBRANCH  38  39
ENDBRANCH  37  38
ENDBRANCH  36  37
ENDBRANCH  35  36
ENDBRANCH  34  35
ENDBRANCH   1  34
TORSDOF 27
ENDMDL
MODEL 3
REMARK VINA RESULT:      -8.1      7.124     10.725
REMARK SMILES Cc1[nH]cnc1C[NH+]1CCC(Oc2cccc(F)c2)(C(=O)OCCOCCOCCOCCOC(=O)c2ccc(-c3c4nc(c(-c5cccc(S(=O)(=O)[O-])c5F)c5ccc([nH]5)c(-c5cccc(S(=O)(=O)[O-])c5F)c5nc(c(-c6cccc(S(=O)(=O)[O-])c6F)c6ccc3[nH]6)C=C5)C=C4)cc2)CC1
REMARK SMILES IDX 29 1 28 2 27 3 26 4 25 5 24 6 23 7 22 8 20 9 21 10 11 11
REMARK SMILES IDX 8 12 9 13 101 14 10 16 100 17 7 18 6 19 1 20 2 21 3 22 4 23
REMARK SMILES IDX 5 25 12 26 13 27 14 28 19 29 15 30 17 31 16 32 18 33 30 34
REMARK SMILES IDX 31 35 32 36 33 37 34 38 35 39 36 40 37 41 38 42 99 43 39 44
REMARK SMILES IDX 98 45 40 46 41 47 42 48 92 49 43 50 97 51 91 52 93 53 44 54
REMARK SMILES IDX 96 55 90 56 89 57 45 59 77 60 57 61 76 62 58 63 61 64 75 65
REMARK SMILES IDX 94 66 59 67 60 68 74 70 95 71 62 72 46 73 47 74 55 75 48 76
REMARK SMILES IDX 50 77 56 78 49 79 51 80 52 81 53 82 54 83 78 84 79 85 87 86
REMARK SMILES IDX 80 87 82 88 88 89 81 90 83 91 84 92 85 93 86 94 63 95 64 96
REMARK SMILES IDX 72 97 65 98 67 99 73 100 66 101 68 102 69 103 70 104 71 105
REMARK H PARENT 8 15 3 24 93 58 61 69
REMARK Flexibility Score: inf
ROOT
ATOM      1  C   UNL A   1      38.270  30.048  28.277  1.00  0.00     0.188 C 
ENDROOT
BRANCH   1   2
ATOM      2  O   UNL A   1      37.017  30.495  27.766  1.00  0.00    -0.377 OA
BRANCH   2   3
ATOM      3  C   UNL A   1      35.798  30.085  28.360  1.00  0.00     0.188 C 
BRANCH   3   4
ATOM      4  C   UNL A   1      34.755  29.303  27.571  1.00  0.00     0.188 C 
BRANCH   4   5
ATOM      5  O   UNL A   1      33.610  29.969  27.096  1.00  0.00    -0.376 OA
BRANCH   5   6
ATOM      6  C   UNL A   1      32.349  29.327  27.223  1.00  0.00     0.202 C 
BRANCH   6   7
ATOM      7  C   UNL A   1      31.667  28.635  26.022  1.00  0.00     0.261 C 
BRANCH   7   8
ATOM      8  O   UNL A   1      32.316  27.462  25.462  1.00  0.00    -0.460 OA
BRANCH   8   9
ATOM      9  C   UNL A   1      32.803  27.568  24.195  1.00  0.00     0.351 C 
ATOM     10  O   UNL A   1      33.464  28.540  23.826  1.00  0.00    -0.247 OA
BRANCH   9  11
ATOM     11  C   UNL A   1      32.393  26.423  23.217  1.00  0.00     0.216 C 
ATOM     12  N   UNL A   1      33.561  23.688  23.557  1.00  0.00    -0.330 N 
ATOM     13  C   UNL A   1      32.272  23.944  24.182  1.00  0.00     0.267 C 
ATOM     14  C   UNL A   1      34.412  24.856  23.385  1.00  0.00     0.267 C 
ATOM     15  H   UNL A   1      33.310  23.458  22.596  1.00  0.00     0.348 HD
ATOM     16  C   UNL A   1      31.547  25.235  23.734  1.00  0.00     0.122 C 
ATOM     17  C   UNL A   1      33.683  25.903  22.535  1.00  0.00     0.122 C 
BRANCH  12  18
ATOM     18  C   UNL A   1      34.248  22.463  24.020  1.00  0.00     0.321 C 
BRANCH  18  19
ATOM     19  C   UNL A   1      33.931  21.940  25.407  1.00  0.00     0.115 A 
ATOM     20  C   UNL A   1      32.531  19.727  25.009  1.00  0.00     0.066 C 
ATOM     21  C   UNL A   1      33.250  20.778  25.768  1.00  0.00     0.040 A 
ATOM     22  N   UNL A   1      33.346  20.715  27.141  1.00  0.00    -0.348 N 
ATOM     23  C   UNL A   1      34.073  21.790  27.557  1.00  0.00     0.197 A 
ATOM     24  H   UNL A   1      32.958  20.018  27.717  1.00  0.00     0.167 HD
ATOM     25  N   UNL A   1      34.443  22.539  26.546  1.00  0.00    -0.236 NA
ENDBRANCH  18  19
ENDBRANCH  12  18
BRANCH  11  26
ATOM     26  O   UNL A   1      31.542  27.287  22.380  1.00  0.00    -0.475 OA
BRANCH  26  27
ATOM     27  C   UNL A   1      30.247  27.461  22.762  1.00  0.00     0.123 A 
ATOM     28  C   UNL A   1      29.581  26.464  23.474  1.00  0.00     0.047 A 
ATOM     29  C   UNL A   1      29.643  28.697  22.553  1.00  0.00     0.085 A 
ATOM     30  C   UNL A   1      28.260  26.655  23.878  1.00  0.00     0.007 A 
ATOM     31  C   UNL A   1      28.335  28.887  22.977  1.00  0.00     0.126 A 
ATOM     32  C   UNL A   1      27.630  27.872  23.619  1.00  0.00     0.039 A 
ATOM     33  F   UNL A   1      27.738  30.068  22.770  1.00  0.00    -0.207 F 
ENDBRANCH  26  27
ENDBRANCH  11  26
ENDBRANCH   9  11
ENDBRANCH   8   9
ENDBRANCH   7   8
ENDBRANCH   6   7
ENDBRANCH   5   6
ENDBRANCH   4   5
ENDBRANCH   3   4
ENDBRANCH   2   3
ENDBRANCH   1   2
BRANCH   1  34
ATOM     34  C   UNL A   1      38.504  28.542  28.291  1.00  0.00     0.188 C 
BRANCH  34  35
ATOM     35  O   UNL A   1      38.603  27.901  29.565  1.00  0.00    -0.376 OA
BRANCH  35  36
ATOM     36  C   UNL A   1      39.107  26.572  29.643  1.00  0.00     0.202 C 
BRANCH  36  37
ATOM     37  C   UNL A   1      39.477  26.023  28.277  1.00  0.00     0.261 C 
BRANCH  37  38
ATOM     38  O   UNL A   1      40.883  25.816  28.245  1.00  0.00    -0.460 OA
BRANCH  38  39
ATOM     39  C   UNL A   1      41.422  26.061  27.028  1.00  0.00     0.338 C 
ATOM     40  O   UNL A   1      41.237  25.457  25.994  1.00  0.00    -0.246 OA
BRANCH  39  41
ATOM     41  C   UNL A   1      42.148  27.333  27.137  1.00  0.00     0.060 A 
ATOM     42  C   UNL A   1      43.166  27.410  28.090  1.00  0.00     0.016 A 
ATOM     43  C   UNL A   1      41.807  28.430  26.336  1.00  0.00     0.016 A 
ATOM     44  C   UNL A   1      43.780  28.624  28.324  1.00  0.00     0.010 A 
ATOM     45  C   UNL A   1      42.412  29.653  26.577  1.00  0.00     0.010 A 
ATOM     46  C   UNL A   1      43.338  29.753  27.624  1.00  0.00    -0.014 A 
BRANCH  46  47
ATOM     47  C   UNL A   1      43.631  31.067  28.210  1.00  0.00     0.031 A 
ATOM     48  C   UNL A   1      42.767  31.519  29.350  1.00  0.00     0.074 A 
ATOM     49  C   UNL A   1      44.693  31.763  27.784  1.00  0.00     0.049 A 
ATOM     50  N   UNL A   1      42.863  32.597  30.075  1.00  0.00    -0.248 NA
ATOM     51  C   UNL A   1      41.650  30.634  29.734  1.00  0.00     0.031 C 
ATOM     52  C   UNL A   1      45.590  31.348  26.707  1.00  0.00     0.029 A 
ATOM     53  N   UNL A   1      45.197  32.957  28.213  1.00  0.00    -0.354 N 
ATOM     54  C   UNL A   1      41.815  32.528  30.984  1.00  0.00     0.074 A 
ATOM     55  C   UNL A   1      41.077  31.319  30.710  1.00  0.00     0.031 C 
ATOM     56  C   UNL A   1      46.542  32.283  26.556  1.00  0.00     0.029 A 
ATOM     57  C   UNL A   1      46.297  33.367  27.505  1.00  0.00     0.049 A 
ATOM     58  H   UNL A   1      44.808  33.472  28.957  1.00  0.00     0.167 HD
ATOM     59  C   UNL A   1      41.513  33.395  31.975  1.00  0.00     0.034 A 
ATOM     60  C   UNL A   1      47.008  34.504  27.612  1.00  0.00     0.034 A 
ATOM     61  C   UNL A   1      42.280  34.581  32.228  1.00  0.00     0.049 A 
ATOM     62  C   UNL A   1      46.619  35.483  28.686  1.00  0.00     0.074 A 
ATOM     63  C   UNL A   1      42.092  35.531  33.211  1.00  0.00     0.029 A 
ATOM     64  N   UNL A   1      43.378  34.980  31.478  1.00  0.00    -0.354 N 
ATOM     65  N   UNL A   1      45.675  35.376  29.592  1.00  0.00    -0.248 NA
ATOM     66  C   UNL A   1      47.399  36.724  28.771  1.00  0.00     0.031 C 
ATOM     67  C   UNL A   1      43.052  36.529  33.028  1.00  0.00     0.029 A 
ATOM     68  C   UNL A   1      43.865  36.179  31.960  1.00  0.00     0.049 A 
ATOM     69  H   UNL A   1      43.753  34.484  30.715  1.00  0.00     0.167 HD
ATOM     70  C   UNL A   1      45.758  36.522  30.371  1.00  0.00     0.074 A 
ATOM     71  C   UNL A   1      46.859  37.302  29.838  1.00  0.00     0.031 C 
ATOM     72  C   UNL A   1      44.991  36.904  31.422  1.00  0.00     0.034 A 
BRANCH  59  73
ATOM     73  C   UNL A   1      40.326  33.092  32.847  1.00  0.00     0.023 A 
ATOM     74  C   UNL A   1      39.028  33.433  32.414  1.00  0.00     0.012 A 
ATOM     75  C   UNL A   1      40.492  32.423  34.075  1.00  0.00     0.148 A 
ATOM     76  C   UNL A   1      37.916  33.134  33.201  1.00  0.00     0.002 A 
ATOM     77  C   UNL A   1      39.375  32.085  34.830  1.00  0.00     0.091 A 
ATOM     78  F   UNL A   1      41.736  32.137  34.483  1.00  0.00    -0.205 F 
ATOM     79  C   UNL A   1      38.088  32.449  34.401  1.00  0.00     0.022 A 
BRANCH  77  80
ATOM     80  S   UNL A   1      39.485  31.134  36.349  1.00  0.00     0.127 S 
ATOM     81  O   UNL A   1      40.662  31.727  36.984  1.00  0.00    -0.237 OA
ATOM     82  O   UNL A   1      38.215  31.452  37.000  1.00  0.00    -0.237 OA
ATOM     83  O   UNL A   1      39.635  29.742  35.946  1.00  0.00    -0.744 OA
ENDBRANCH  77  80
ENDBRANCH  59  73
BRANCH  60  84
ATOM     84  C   UNL A   1      48.164  34.728  26.704  1.00  0.00     0.023 A 
ATOM     85  C   UNL A   1      47.990  35.466  25.520  1.00  0.00     0.012 A 
ATOM     86  C   UNL A   1      49.458  34.295  27.062  1.00  0.00     0.148 A 
ATOM     87  C   UNL A   1      49.081  35.764  24.703  1.00  0.00     0.002 A 
ATOM     88  C   UNL A   1      50.548  34.643  26.274  1.00  0.00     0.091 A 
ATOM     89  F   UNL A   1      49.600  33.588  28.192  1.00  0.00    -0.205 F 
ATOM     90  C   UNL A   1      50.360  35.366  25.086  1.00  0.00     0.022 A 
BRANCH  88  91
ATOM     91  S   UNL A   1      52.242  34.297  26.761  1.00  0.00     0.127 S 
ATOM     92  O   UNL A   1      52.623  33.262  25.803  1.00  0.00    -0.237 OA
ATOM     93  O   UNL A   1      52.882  35.596  26.553  1.00  0.00    -0.237 OA
ATOM     94  O   UNL A   1      52.176  33.871  28.153  1.00  0.00    -0.744 OA
ENDBRANCH  88  91
ENDBRANCH  60  84
BRANCH  72  95
ATOM     95  C   UNL A   1      45.306  38.217  32.083  1.00  0.00     0.023 A 
ATOM     96  C   UNL A   1      46.336  38.281  33.040  1.00  0.00     0.012 A 
ATOM     97  C   UNL A   1      44.698  39.404  31.629  1.00  0.00     0.148 A 
ATOM     98  C   UNL A   1      46.754  39.511  33.541  1.00  0.00     0.002 A 
ATOM     99  C   UNL A   1      45.159  40.628  32.091  1.00  0.00     0.091 A 
ATOM    100  F   UNL A   1      43.716  39.310  30.721  1.00  0.00    -0.205 F 
ATOM    101  C   UNL A   1      46.180  40.684  33.053  1.00  0.00     0.022 A 
BRANCH  99 102
ATOM    102  S   UNL A   1      44.567  42.193  31.437  1.00  0.00     0.127 S 
ATOM    103  O   UNL A   1      45.359  43.153  32.205  1.00  0.00    -0.237 OA
ATOM    104  O   UNL A   1      44.931  42.091  30.024  1.00  0.00    -0.237 OA
ATOM    105  O   UNL A   1      43.135  42.227  31.698  1.00  0.00    -0.744 OA
ENDBRANCH  99 102
ENDBRANCH  72  95
ENDBRANCH  46  47
ENDBRANCH  39  41
ENDBRANCH  38  39
ENDBRANCH  37  38
ENDBRANCH  36  37
ENDBRANCH  35  36
ENDBRANCH  34  35
ENDBRANCH   1  34
TORSDOF 27
ENDMDL
