MODEL 1
REMARK VINA RESULT:      -6.6      0.000      0.000
REMARK SMILES O=C(OCCOCCOCCOCCOC(=O)c1cccc2c1N[C@H](c1ccccc1Br)[C@H]1CC=C[C@H]21)c1ccc(-c2c3nc(c(-c4cccc(S(=O)(=O)[O-])c4F)c4ccc([nH]4)c(-c4cccc(S(=O)(=O)[O-])c4F)c4nc(c(-c5cccc(S(=O)(=O)[O-])c5F)c5ccc2[nH]5)C=C4)C=C3)cc1
REMARK SMILES IDX 8 1 7 2 6 3 5 4 4 5 3 6 2 7 1 8 38 9 39 10 100 11 40 12
REMARK SMILES IDX 99 13 41 14 42 15 43 16 93 17 44 18 98 19 92 20 94 21 45 22
REMARK SMILES IDX 97 23 91 24 90 25 46 27 78 28 58 29 77 30 59 31 62 32 76 33
REMARK SMILES IDX 95 34 60 35 61 36 75 38 96 39 63 40 47 41 48 42 56 43 49 44
REMARK SMILES IDX 51 45 57 46 50 47 52 48 53 49 54 50 55 51 79 52 80 53 88 54
REMARK SMILES IDX 81 55 83 56 89 57 82 58 84 59 85 60 86 61 87 62 64 63 65 64
REMARK SMILES IDX 73 65 66 66 68 67 74 68 67 69 69 70 70 71 71 72 72 73 9 74
REMARK SMILES IDX 10 75 11 76 12 77 13 78 14 79 15 80 16 81 17 82 18 83 19 84
REMARK SMILES IDX 23 85 20 86 22 87 24 88 21 89 37 90 25 91 33 93 36 94 34 95
REMARK SMILES IDX 35 96 26 97 27 98 31 99 28 100 30 101 32 102 29 103
REMARK H PARENT 94 26 62 37 24 92
REMARK Flexibility Score: inf
ROOT
ATOM      1  C   UNL A   1      36.840  33.496  34.628  1.00  0.00     0.188 C 
ENDROOT
BRANCH   1   2
ATOM      2  C   UNL A   1      35.452  34.132  34.630  1.00  0.00     0.188 C 
BRANCH   2   3
ATOM      3  O   UNL A   1      34.640  33.546  33.609  1.00  0.00    -0.376 OA
BRANCH   3   4
ATOM      4  C   UNL A   1      34.502  34.321  32.423  1.00  0.00     0.202 C 
BRANCH   4   5
ATOM      5  C   UNL A   1      35.215  33.729  31.211  1.00  0.00     0.261 C 
BRANCH   5   6
ATOM      6  O   UNL A   1      36.538  34.247  31.028  1.00  0.00    -0.460 OA
BRANCH   6   7
ATOM      7  C   UNL A   1      37.717  33.578  30.990  1.00  0.00     0.338 C 
ATOM      8  O   UNL A   1      37.745  32.477  31.545  1.00  0.00    -0.246 OA
BRANCH   7   9
ATOM      9  C   UNL A   1      39.005  34.081  30.384  1.00  0.00     0.060 A 
ATOM     10  C   UNL A   1      40.113  34.155  31.256  1.00  0.00     0.016 A 
ATOM     11  C   UNL A   1      39.212  34.491  29.064  1.00  0.00     0.016 A 
ATOM     12  C   UNL A   1      41.372  34.588  30.819  1.00  0.00     0.010 A 
ATOM     13  C   UNL A   1      40.455  34.954  28.625  1.00  0.00     0.010 A 
ATOM     14  C   UNL A   1      41.549  34.971  29.488  1.00  0.00    -0.014 A 
BRANCH  14  15
ATOM     15  C   UNL A   1      42.891  35.125  28.891  1.00  0.00     0.031 A 
ATOM     16  C   UNL A   1      43.830  33.970  28.734  1.00  0.00     0.074 A 
ATOM     17  C   UNL A   1      43.283  36.391  28.645  1.00  0.00     0.049 A 
ATOM     18  N   UNL A   1      45.052  33.977  28.270  1.00  0.00    -0.248 NA
ATOM     19  C   UNL A   1      43.353  32.643  29.154  1.00  0.00     0.031 C 
ATOM     20  C   UNL A   1      42.450  37.581  28.864  1.00  0.00     0.029 A 
ATOM     21  N   UNL A   1      44.478  36.899  28.215  1.00  0.00    -0.354 N 
ATOM     22  C   UNL A   1      45.494  32.661  28.332  1.00  0.00     0.074 A 
ATOM     23  C   UNL A   1      44.414  31.881  28.899  1.00  0.00     0.031 C 
ATOM     24  C   UNL A   1      43.171  38.679  28.599  1.00  0.00     0.029 A 
ATOM     25  C   UNL A   1      44.506  38.273  28.181  1.00  0.00     0.049 A 
ATOM     26  H   UNL A   1      45.243  36.336  27.955  1.00  0.00     0.167 HD
ATOM     27  C   UNL A   1      46.689  32.166  27.930  1.00  0.00     0.034 A 
ATOM     28  C   UNL A   1      45.495  39.116  27.834  1.00  0.00     0.034 A 
ATOM     29  C   UNL A   1      47.741  32.977  27.372  1.00  0.00     0.049 A 
ATOM     30  C   UNL A   1      46.784  38.531  27.346  1.00  0.00     0.074 A 
ATOM     31  C   UNL A   1      48.966  32.571  26.871  1.00  0.00     0.029 A 
ATOM     32  N   UNL A   1      47.698  34.358  27.249  1.00  0.00    -0.354 N 
ATOM     33  N   UNL A   1      47.133  37.269  27.278  1.00  0.00    -0.248 NA
ATOM     34  C   UNL A   1      47.789  39.469  26.833  1.00  0.00     0.031 C 
ATOM     35  C   UNL A   1      49.661  33.706  26.445  1.00  0.00     0.029 A 
ATOM     36  C   UNL A   1      48.864  34.817  26.667  1.00  0.00     0.049 A 
ATOM     37  H   UNL A   1      46.947  34.926  27.534  1.00  0.00     0.167 HD
ATOM     38  C   UNL A   1      48.376  37.253  26.667  1.00  0.00     0.074 A 
ATOM     39  C   UNL A   1      48.723  38.635  26.391  1.00  0.00     0.031 C 
ATOM     40  C   UNL A   1      49.158  36.193  26.359  1.00  0.00     0.034 A 
BRANCH  27  41
ATOM     41  C   UNL A   1      46.917  30.678  27.971  1.00  0.00     0.023 A 
ATOM     42  C   UNL A   1      47.334  30.097  29.186  1.00  0.00     0.012 A 
ATOM     43  C   UNL A   1      46.546  29.842  26.898  1.00  0.00     0.148 A 
ATOM     44  C   UNL A   1      47.374  28.711  29.337  1.00  0.00     0.002 A 
ATOM     45  C   UNL A   1      46.563  28.460  27.064  1.00  0.00     0.091 A 
ATOM     46  F   UNL A   1      46.146  30.415  25.754  1.00  0.00    -0.205 F 
ATOM     47  C   UNL A   1      46.977  27.895  28.282  1.00  0.00     0.022 A 
BRANCH  45  48
ATOM     48  S   UNL A   1      46.018  27.310  25.794  1.00  0.00     0.127 S 
ATOM     49  O   UNL A   1      47.124  27.377  24.838  1.00  0.00    -0.237 OA
ATOM     50  O   UNL A   1      45.931  26.054  26.538  1.00  0.00    -0.237 OA
ATOM     51  O   UNL A   1      44.750  27.826  25.298  1.00  0.00    -0.744 OA
ENDBRANCH  45  48
ENDBRANCH  27  41
BRANCH  28  52
ATOM     52  C   UNL A   1      45.220  40.575  27.792  1.00  0.00     0.023 A 
ATOM     53  C   UNL A   1      45.288  41.307  28.992  1.00  0.00     0.012 A 
ATOM     54  C   UNL A   1      45.007  41.255  26.577  1.00  0.00     0.148 A 
ATOM     55  C   UNL A   1      45.134  42.693  28.989  1.00  0.00     0.002 A 
ATOM     56  C   UNL A   1      44.888  42.641  26.575  1.00  0.00     0.091 A 
ATOM     57  F   UNL A   1      44.951  40.536  25.447  1.00  0.00    -0.205 F 
ATOM     58  C   UNL A   1      44.944  43.360  27.781  1.00  0.00     0.022 A 
BRANCH  56  59
ATOM     59  S   UNL A   1      44.751  43.597  25.061  1.00  0.00     0.127 S 
ATOM     60  O   UNL A   1      45.778  42.981  24.225  1.00  0.00    -0.237 OA
ATOM     61  O   UNL A   1      43.373  43.321  24.649  1.00  0.00    -0.237 OA
ATOM     62  O   UNL A   1      44.994  44.981  25.446  1.00  0.00    -0.744 OA
ENDBRANCH  56  59
ENDBRANCH  28  52
BRANCH  40  63
ATOM     63  C   UNL A   1      50.448  36.471  25.646  1.00  0.00     0.023 A 
ATOM     64  C   UNL A   1      50.540  36.245  24.260  1.00  0.00     0.012 A 
ATOM     65  C   UNL A   1      51.531  37.045  26.337  1.00  0.00     0.148 A 
ATOM     66  C   UNL A   1      51.705  36.577  23.571  1.00  0.00     0.002 A 
ATOM     67  C   UNL A   1      52.674  37.406  25.638  1.00  0.00     0.091 A 
ATOM     68  F   UNL A   1      51.418  37.233  27.660  1.00  0.00    -0.205 F 
ATOM     69  C   UNL A   1      52.766  37.166  24.257  1.00  0.00     0.022 A 
BRANCH  67  70
ATOM     70  S   UNL A   1      54.060  38.236  26.421  1.00  0.00     0.127 S 
ATOM     71  O   UNL A   1      53.489  39.547  26.724  1.00  0.00    -0.237 OA
ATOM     72  O   UNL A   1      54.306  37.392  27.591  1.00  0.00    -0.237 OA
ATOM     73  O   UNL A   1      55.136  38.238  25.439  1.00  0.00    -0.744 OA
ENDBRANCH  67  70
ENDBRANCH  40  63
ENDBRANCH  14  15
ENDBRANCH   7   9
ENDBRANCH   6   7
ENDBRANCH   5   6
ENDBRANCH   4   5
ENDBRANCH   3   4
ENDBRANCH   2   3
ENDBRANCH   1   2
BRANCH   1  74
ATOM     74  O   UNL A   1      37.180  32.822  35.837  1.00  0.00    -0.377 OA
BRANCH  74  75
ATOM     75  C   UNL A   1      37.421  33.636  36.981  1.00  0.00     0.188 C 
BRANCH  75  76
ATOM     76  C   UNL A   1      38.857  34.144  37.241  1.00  0.00     0.188 C 
BRANCH  76  77
ATOM     77  O   UNL A   1      39.215  35.280  36.467  1.00  0.00    -0.376 OA
BRANCH  77  78
ATOM     78  C   UNL A   1      40.612  35.536  36.375  1.00  0.00     0.202 C 
BRANCH  78  79
ATOM     79  C   UNL A   1      41.319  34.737  35.275  1.00  0.00     0.261 C 
BRANCH  79  80
ATOM     80  O   UNL A   1      42.636  35.202  34.925  1.00  0.00    -0.460 OA
BRANCH  80  81
ATOM     81  C   UNL A   1      42.762  36.092  33.912  1.00  0.00     0.340 C 
ATOM     82  O   UNL A   1      42.126  37.119  33.756  1.00  0.00    -0.246 OA
BRANCH  81  83
ATOM     83  C   UNL A   1      43.968  35.719  33.127  1.00  0.00     0.083 A 
ATOM     84  C   UNL A   1      44.180  34.353  32.880  1.00  0.00     0.018 A 
ATOM     85  C   UNL A   1      44.831  36.691  32.587  1.00  0.00     0.053 A 
ATOM     86  C   UNL A   1      45.236  33.948  32.065  1.00  0.00     0.001 A 
ATOM     87  C   UNL A   1      45.976  36.252  31.890  1.00  0.00    -0.017 A 
ATOM     88  N   UNL A   1      44.611  38.046  32.797  1.00  0.00    -0.377 N 
ATOM     89  C   UNL A   1      46.145  34.892  31.590  1.00  0.00     0.006 A 
ATOM     90  C   UNL A   1      47.052  37.274  31.692  1.00  0.00     0.049 C 
ATOM     91  C   UNL A   1      45.571  39.119  32.504  1.00  0.00     0.115 C 
ATOM     92  H   UNL A   1      43.740  38.309  33.172  1.00  0.00     0.161 HD
ATOM     93  C   UNL A   1      46.476  38.665  31.360  1.00  0.00     0.031 C 
ATOM     94  C   UNL A   1      48.104  37.162  30.631  1.00  0.00    -0.023 C 
ATOM     95  C   UNL A   1      47.769  39.441  31.083  1.00  0.00     0.034 C 
ATOM     96  C   UNL A   1      48.551  38.392  30.333  1.00  0.00    -0.030 C 
BRANCH  91  97
ATOM     97  C   UNL A   1      44.778  40.431  32.488  1.00  0.00    -0.011 A 
ATOM     98  C   UNL A   1      43.399  40.270  32.167  1.00  0.00     0.007 A 
ATOM     99  C   UNL A   1      45.214  41.751  32.693  1.00  0.00     0.023 A 
ATOM    100  C   UNL A   1      42.511  41.341  32.067  1.00  0.00     0.000 A 
ATOM    101  C   UNL A   1      44.299  42.823  32.647  1.00  0.00     0.016 A 
ATOM    102  Br  UNL A   1      47.009  42.314  32.945  1.00  0.00    -0.050 Br
ATOM    103  C   UNL A   1      42.958  42.622  32.332  1.00  0.00     0.001 A 
ENDBRANCH  91  97
ENDBRANCH  81  83
ENDBRANCH  80  81
ENDBRANCH  79  80
ENDBRANCH  78  79
ENDBRANCH  77  78
ENDBRANCH  76  77
ENDBRANCH  75  76
ENDBRANCH  74  75
ENDBRANCH   1  74
TORSDOF 24
ENDMDL
MODEL 2
REMARK VINA RESULT:      -6.5      6.352     14.054
REMARK SMILES O=C(OCCOCCOCCOCCOC(=O)c1cccc2c1N[C@H](c1ccccc1Br)[C@H]1CC=C[C@H]21)c1ccc(-c2c3nc(c(-c4cccc(S(=O)(=O)[O-])c4F)c4ccc([nH]4)c(-c4cccc(S(=O)(=O)[O-])c4F)c4nc(c(-c5cccc(S(=O)(=O)[O-])c5F)c5ccc2[nH]5)C=C4)C=C3)cc1
REMARK SMILES IDX 8 1 7 2 6 3 5 4 4 5 3 6 2 7 1 8 38 9 39 10 100 11 40 12
REMARK SMILES IDX 99 13 41 14 42 15 43 16 93 17 44 18 98 19 92 20 94 21 45 22
REMARK SMILES IDX 97 23 91 24 90 25 46 27 78 28 58 29 77 30 59 31 62 32 76 33
REMARK SMILES IDX 95 34 60 35 61 36 75 38 96 39 63 40 47 41 48 42 56 43 49 44
REMARK SMILES IDX 51 45 57 46 50 47 52 48 53 49 54 50 55 51 79 52 80 53 88 54
REMARK SMILES IDX 81 55 83 56 89 57 82 58 84 59 85 60 86 61 87 62 64 63 65 64
REMARK SMILES IDX 73 65 66 66 68 67 74 68 67 69 69 70 70 71 71 72 72 73 9 74
REMARK SMILES IDX 10 75 11 76 12 77 13 78 14 79 15 80 16 81 17 82 18 83 19 84
REMARK SMILES IDX 23 85 20 86 22 87 24 88 21 89 37 90 25 91 33 93 36 94 34 95
REMARK SMILES IDX 35 96 26 97 27 98 31 99 28 100 30 101 32 102 29 103
REMARK H PARENT 94 26 62 37 24 92
REMARK Flexibility Score: inf
ROOT
ATOM      1  C   UNL A   1      45.533  29.573  27.646  1.00  0.00     0.188 C 
ENDROOT
BRANCH   1   2
ATOM      2  C   UNL A   1      46.032  29.531  26.203  1.00  0.00     0.188 C 
BRANCH   2   3
ATOM      3  O   UNL A   1      46.334  30.853  25.748  1.00  0.00    -0.376 OA
BRANCH   3   4
ATOM      4  C   UNL A   1      45.663  31.902  26.439  1.00  0.00     0.202 C 
BRANCH   4   5
ATOM      5  C   UNL A   1      46.283  33.279  26.222  1.00  0.00     0.261 C 
BRANCH   5   6
ATOM      6  O   UNL A   1      45.308  34.322  26.107  1.00  0.00    -0.460 OA
BRANCH   6   7
ATOM      7  C   UNL A   1      45.030  35.328  26.974  1.00  0.00     0.338 C 
ATOM      8  O   UNL A   1      45.178  36.477  26.551  1.00  0.00    -0.246 OA
BRANCH   7   9
ATOM      9  C   UNL A   1      44.613  35.170  28.416  1.00  0.00     0.060 A 
ATOM     10  C   UNL A   1      44.031  36.304  29.021  1.00  0.00     0.016 A 
ATOM     11  C   UNL A   1      44.755  34.032  29.214  1.00  0.00     0.016 A 
ATOM     12  C   UNL A   1      43.584  36.289  30.349  1.00  0.00     0.010 A 
ATOM     13  C   UNL A   1      44.342  34.014  30.549  1.00  0.00     0.010 A 
ATOM     14  C   UNL A   1      43.723  35.128  31.112  1.00  0.00    -0.014 A 
BRANCH  14  15
ATOM     15  C   UNL A   1      42.997  34.939  32.385  1.00  0.00     0.031 A 
ATOM     16  C   UNL A   1      41.539  34.606  32.429  1.00  0.00     0.074 A 
ATOM     17  C   UNL A   1      43.686  35.243  33.503  1.00  0.00     0.049 A 
ATOM     18  N   UNL A   1      40.772  34.461  33.478  1.00  0.00    -0.248 NA
ATOM     19  C   UNL A   1      40.843  34.422  31.146  1.00  0.00     0.031 C 
ATOM     20  C   UNL A   1      45.091  35.667  33.530  1.00  0.00     0.029 A 
ATOM     21  N   UNL A   1      43.300  35.295  34.815  1.00  0.00    -0.354 N 
ATOM     22  C   UNL A   1      39.507  34.161  32.991  1.00  0.00     0.074 A 
ATOM     23  C   UNL A   1      39.601  34.164  31.546  1.00  0.00     0.031 C 
ATOM     24  C   UNL A   1      45.437  35.969  34.789  1.00  0.00     0.029 A 
ATOM     25  C   UNL A   1      44.289  35.747  35.657  1.00  0.00     0.049 A 
ATOM     26  H   UNL A   1      42.403  35.035  35.125  1.00  0.00     0.167 HD
ATOM     27  C   UNL A   1      38.385  33.891  33.700  1.00  0.00     0.034 A 
ATOM     28  C   UNL A   1      44.277  35.946  36.987  1.00  0.00     0.034 A 
ATOM     29  C   UNL A   1      38.331  33.901  35.141  1.00  0.00     0.049 A 
ATOM     30  C   UNL A   1      43.036  35.587  37.744  1.00  0.00     0.074 A 
ATOM     31  C   UNL A   1      37.265  33.578  35.963  1.00  0.00     0.029 A 
ATOM     32  N   UNL A   1      39.383  34.257  35.971  1.00  0.00    -0.354 N 
ATOM     33  N   UNL A   1      41.887  35.167  37.274  1.00  0.00    -0.248 NA
ATOM     34  C   UNL A   1      43.102  35.672  39.208  1.00  0.00     0.031 C 
ATOM     35  C   UNL A   1      37.674  33.740  37.290  1.00  0.00     0.029 A 
ATOM     36  C   UNL A   1      38.998  34.148  37.294  1.00  0.00     0.049 A 
ATOM     37  H   UNL A   1      40.272  34.545  35.663  1.00  0.00     0.167 HD
ATOM     38  C   UNL A   1      41.106  34.884  38.384  1.00  0.00     0.074 A 
ATOM     39  C   UNL A   1      41.913  35.190  39.550  1.00  0.00     0.031 C 
ATOM     40  C   UNL A   1      39.840  34.411  38.433  1.00  0.00     0.034 A 
BRANCH  27  41
ATOM     41  C   UNL A   1      37.140  33.463  32.970  1.00  0.00     0.023 A 
ATOM     42  C   UNL A   1      36.932  32.087  32.748  1.00  0.00     0.012 A 
ATOM     43  C   UNL A   1      36.104  34.374  32.677  1.00  0.00     0.148 A 
ATOM     44  C   UNL A   1      35.713  31.620  32.254  1.00  0.00     0.002 A 
ATOM     45  C   UNL A   1      34.882  33.900  32.209  1.00  0.00     0.091 A 
ATOM     46  F   UNL A   1      36.320  35.678  32.903  1.00  0.00    -0.205 F 
ATOM     47  C   UNL A   1      34.687  32.525  31.996  1.00  0.00     0.022 A 
BRANCH  45  48
ATOM     48  S   UNL A   1      33.467  34.964  31.899  1.00  0.00     0.127 S 
ATOM     49  O   UNL A   1      34.023  36.288  32.185  1.00  0.00    -0.237 OA
ATOM     50  O   UNL A   1      33.199  34.710  30.483  1.00  0.00    -0.237 OA
ATOM     51  O   UNL A   1      32.424  34.528  32.815  1.00  0.00    -0.744 OA
ENDBRANCH  45  48
ENDBRANCH  27  41
BRANCH  28  52
ATOM     52  C   UNL A   1      45.533  36.351  37.668  1.00  0.00     0.023 A 
ATOM     53  C   UNL A   1      46.493  35.361  37.954  1.00  0.00     0.012 A 
ATOM     54  C   UNL A   1      45.833  37.702  37.930  1.00  0.00     0.148 A 
ATOM     55  C   UNL A   1      47.727  35.706  38.503  1.00  0.00     0.002 A 
ATOM     56  C   UNL A   1      47.079  38.043  38.446  1.00  0.00     0.091 A 
ATOM     57  F   UNL A   1      44.905  38.626  37.644  1.00  0.00    -0.205 F 
ATOM     58  C   UNL A   1      48.024  37.045  38.740  1.00  0.00     0.022 A 
BRANCH  56  59
ATOM     59  S   UNL A   1      47.593  39.748  38.683  1.00  0.00     0.127 S 
ATOM     60  O   UNL A   1      47.545  40.266  37.318  1.00  0.00    -0.237 OA
ATOM     61  O   UNL A   1      46.550  40.261  39.573  1.00  0.00    -0.237 OA
ATOM     62  O   UNL A   1      48.916  39.679  39.288  1.00  0.00    -0.744 OA
ENDBRANCH  56  59
ENDBRANCH  28  52
BRANCH  40  63
ATOM     63  C   UNL A   1      39.253  34.148  39.789  1.00  0.00     0.023 A 
ATOM     64  C   UNL A   1      38.344  35.067  40.345  1.00  0.00     0.012 A 
ATOM     65  C   UNL A   1      39.533  32.942  40.459  1.00  0.00     0.148 A 
ATOM     66  C   UNL A   1      37.729  34.794  41.564  1.00  0.00     0.002 A 
ATOM     67  C   UNL A   1      38.889  32.662  41.657  1.00  0.00     0.091 A 
ATOM     68  F   UNL A   1      40.415  32.095  39.911  1.00  0.00    -0.205 F 
ATOM     69  C   UNL A   1      37.992  33.589  42.214  1.00  0.00     0.022 A 
BRANCH  67  70
ATOM     70  S   UNL A   1      39.108  31.107  42.526  1.00  0.00     0.127 S 
ATOM     71  O   UNL A   1      40.564  31.010  42.600  1.00  0.00    -0.237 OA
ATOM     72  O   UNL A   1      38.448  31.372  43.805  1.00  0.00    -0.237 OA
ATOM     73  O   UNL A   1      38.458  30.092  41.708  1.00  0.00    -0.744 OA
ENDBRANCH  67  70
ENDBRANCH  40  63
ENDBRANCH  14  15
ENDBRANCH   7   9
ENDBRANCH   6   7
ENDBRANCH   5   6
ENDBRANCH   4   5
ENDBRANCH   3   4
ENDBRANCH   2   3
ENDBRANCH   1   2
BRANCH   1  74
ATOM     74  O   UNL A   1      44.672  28.494  28.001  1.00  0.00    -0.377 OA
BRANCH  74  75
ATOM     75  C   UNL A   1      43.323  28.825  28.318  1.00  0.00     0.188 C 
BRANCH  75  76
ATOM     76  C   UNL A   1      42.343  29.131  27.164  1.00  0.00     0.188 C 
BRANCH  76  77
ATOM     77  O   UNL A   1      40.976  29.102  27.547  1.00  0.00    -0.376 OA
BRANCH  77  78
ATOM     78  C   UNL A   1      40.693  29.643  28.832  1.00  0.00     0.202 C 
BRANCH  78  79
ATOM     79  C   UNL A   1      39.582  28.906  29.587  1.00  0.00     0.261 C 
BRANCH  79  80
ATOM     80  O   UNL A   1      38.275  29.501  29.496  1.00  0.00    -0.460 OA
BRANCH  80  81
ATOM     81  C   UNL A   1      37.599  29.406  28.326  1.00  0.00     0.340 C 
ATOM     82  O   UNL A   1      37.639  28.486  27.530  1.00  0.00    -0.246 OA
BRANCH  81  83
ATOM     83  C   UNL A   1      36.621  30.525  28.275  1.00  0.00     0.083 A 
ATOM     84  C   UNL A   1      37.013  31.751  28.835  1.00  0.00     0.018 A 
ATOM     85  C   UNL A   1      35.377  30.393  27.630  1.00  0.00     0.053 A 
ATOM     86  C   UNL A   1      36.181  32.864  28.728  1.00  0.00     0.001 A 
ATOM     87  C   UNL A   1      34.489  31.489  27.662  1.00  0.00    -0.017 A 
ATOM     88  N   UNL A   1      34.994  29.195  27.041  1.00  0.00    -0.377 N 
ATOM     89  C   UNL A   1      34.913  32.729  28.164  1.00  0.00     0.006 A 
ATOM     90  C   UNL A   1      33.061  31.184  27.334  1.00  0.00     0.049 C 
ATOM     91  C   UNL A   1      33.639  28.871  26.574  1.00  0.00     0.115 C 
ATOM     92  H   UNL A   1      35.687  28.506  26.928  1.00  0.00     0.161 HD
ATOM     93  C   UNL A   1      32.937  30.169  26.179  1.00  0.00     0.031 C 
ATOM     94  C   UNL A   1      32.084  32.224  26.879  1.00  0.00    -0.023 C 
ATOM     95  C   UNL A   1      31.416  30.160  25.982  1.00  0.00     0.034 C 
ATOM     96  C   UNL A   1      31.118  31.628  26.164  1.00  0.00    -0.030 C 
BRANCH  91  97
ATOM     97  C   UNL A   1      33.769  27.661  25.643  1.00  0.00    -0.011 A 
ATOM     98  C   UNL A   1      33.958  26.423  26.324  1.00  0.00     0.007 A 
ATOM     99  C   UNL A   1      33.777  27.600  24.238  1.00  0.00     0.023 A 
ATOM    100  C   UNL A   1      34.130  25.208  25.661  1.00  0.00     0.000 A 
ATOM    101  C   UNL A   1      33.894  26.360  23.576  1.00  0.00     0.016 A 
ATOM    102  Br  UNL A   1      33.743  29.079  23.051  1.00  0.00    -0.050 Br
ATOM    103  C   UNL A   1      34.075  25.173  24.280  1.00  0.00     0.001 A 
ENDBRANCH  91  97
ENDBRANCH  81  83
ENDBRANCH  80  81
ENDBRANCH  79  80
ENDBRANCH  78  79
ENDBRANCH  77  78
ENDBRANCH  76  77
ENDBRANCH  75  76
ENDBRANCH  74  75
ENDBRANCH   1  74
TORSDOF 24
ENDMDL
MODEL 3
REMARK VINA RESULT:      -6.5      6.906     12.984
REMARK SMILES O=C(OCCOCCOCCOCCOC(=O)c1cccc2c1N[C@H](c1ccccc1Br)[C@H]1CC=C[C@H]21)c1ccc(-c2c3nc(c(-c4cccc(S(=O)(=O)[O-])c4F)c4ccc([nH]4)c(-c4cccc(S(=O)(=O)[O-])c4F)c4nc(c(-c5cccc(S(=O)(=O)[O-])c5F)c5ccc2[nH]5)C=C4)C=C3)cc1
REMARK SMILES IDX 8 1 7 2 6 3 5 4 4 5 3 6 2 7 1 8 38 9 39 10 100 11 40 12
REMARK SMILES IDX 99 13 41 14 42 15 43 16 93 17 44 18 98 19 92 20 94 21 45 22
REMARK SMILES IDX 97 23 91 24 90 25 46 27 78 28 58 29 77 30 59 31 62 32 76 33
REMARK SMILES IDX 95 34 60 35 61 36 75 38 96 39 63 40 47 41 48 42 56 43 49 44
REMARK SMILES IDX 51 45 57 46 50 47 52 48 53 49 54 50 55 51 79 52 80 53 88 54
REMARK SMILES IDX 81 55 83 56 89 57 82 58 84 59 85 60 86 61 87 62 64 63 65 64
REMARK SMILES IDX 73 65 66 66 68 67 74 68 67 69 69 70 70 71 71 72 72 73 9 74
REMARK SMILES IDX 10 75 11 76 12 77 13 78 14 79 15 80 16 81 17 82 18 83 19 84
REMARK SMILES IDX 23 85 20 86 22 87 24 88 21 89 37 90 25 91 33 93 36 94 34 95
REMARK SMILES IDX 35 96 26 97 27 98 31 99 28 100 30 101 32 102 29 103
REMARK H PARENT 94 26 62 37 24 92
REMARK Flexibility Score: inf
ROOT
ATOM      1  C   UNL A   1      41.583  23.609  28.399  1.00  0.00     0.188 C 
ENDROOT
BRANCH   1   2
ATOM      2  C   UNL A   1      42.815  22.728  28.198  1.00  0.00     0.188 C 
BRANCH   2   3
ATOM      3  O   UNL A   1      43.861  23.478  27.575  1.00  0.00    -0.376 OA
BRANCH   3   4
ATOM      4  C   UNL A   1      45.094  22.785  27.415  1.00  0.00     0.202 C 
BRANCH   4   5
ATOM      5  C   UNL A   1      45.523  22.616  25.961  1.00  0.00     0.261 C 
BRANCH   5   6
ATOM      6  O   UNL A   1      46.727  23.325  25.643  1.00  0.00    -0.460 OA
BRANCH   6   7
ATOM      7  C   UNL A   1      46.872  24.553  25.087  1.00  0.00     0.338 C 
ATOM      8  O   UNL A   1      47.128  24.585  23.881  1.00  0.00    -0.246 OA
BRANCH   7   9
ATOM      9  C   UNL A   1      46.804  25.873  25.816  1.00  0.00     0.060 A 
ATOM     10  C   UNL A   1      46.398  26.985  25.047  1.00  0.00     0.016 A 
ATOM     11  C   UNL A   1      47.113  26.111  27.158  1.00  0.00     0.016 A 
ATOM     12  C   UNL A   1      46.277  28.266  25.604  1.00  0.00     0.010 A 
ATOM     13  C   UNL A   1      47.027  27.389  27.716  1.00  0.00     0.010 A 
ATOM     14  C   UNL A   1      46.575  28.465  26.954  1.00  0.00    -0.014 A 
BRANCH  14  15
ATOM     15  C   UNL A   1      46.167  29.691  27.670  1.00  0.00     0.031 A 
ATOM     16  C   UNL A   1      44.787  29.872  28.217  1.00  0.00     0.074 A 
ATOM     17  C   UNL A   1      47.061  30.700  27.662  1.00  0.00     0.049 A 
ATOM     18  N   UNL A   1      44.286  30.916  28.824  1.00  0.00    -0.248 NA
ATOM     19  C   UNL A   1      43.840  28.756  28.060  1.00  0.00     0.031 C 
ATOM     20  C   UNL A   1      48.399  30.626  27.061  1.00  0.00     0.029 A 
ATOM     21  N   UNL A   1      46.973  31.988  28.115  1.00  0.00    -0.354 N 
ATOM     22  C   UNL A   1      42.971  30.589  29.131  1.00  0.00     0.074 A 
ATOM     23  C   UNL A   1      42.742  29.252  28.625  1.00  0.00     0.031 C 
ATOM     24  C   UNL A   1      48.991  31.825  27.155  1.00  0.00     0.029 A 
ATOM     25  C   UNL A   1      48.085  32.744  27.829  1.00  0.00     0.049 A 
ATOM     26  H   UNL A   1      46.190  32.338  28.599  1.00  0.00     0.167 HD
ATOM     27  C   UNL A   1      42.060  31.341  29.793  1.00  0.00     0.034 A 
ATOM     28  C   UNL A   1      48.353  34.034  28.097  1.00  0.00     0.034 A 
ATOM     29  C   UNL A   1      42.327  32.672  30.279  1.00  0.00     0.049 A 
ATOM     30  C   UNL A   1      47.344  34.820  28.875  1.00  0.00     0.074 A 
ATOM     31  C   UNL A   1      41.499  33.498  31.020  1.00  0.00     0.029 A 
ATOM     32  N   UNL A   1      43.505  33.372  30.068  1.00  0.00    -0.354 N 
ATOM     33  N   UNL A   1      46.156  34.444  29.283  1.00  0.00    -0.248 NA
ATOM     34  C   UNL A   1      47.726  36.177  29.282  1.00  0.00     0.031 C 
ATOM     35  C   UNL A   1      42.178  34.696  31.256  1.00  0.00     0.029 A 
ATOM     36  C   UNL A   1      43.433  34.611  30.676  1.00  0.00     0.049 A 
ATOM     37  H   UNL A   1      44.278  33.035  29.561  1.00  0.00     0.167 HD
ATOM     38  C   UNL A   1      45.666  35.496  30.040  1.00  0.00     0.074 A 
ATOM     39  C   UNL A   1      46.685  36.529  30.027  1.00  0.00     0.031 C 
ATOM     40  C   UNL A   1      44.483  35.597  30.689  1.00  0.00     0.034 A 
BRANCH  27  41
ATOM     41  C   UNL A   1      40.721  30.741  30.133  1.00  0.00     0.023 A 
ATOM     42  C   UNL A   1      39.789  30.551  29.093  1.00  0.00     0.012 A 
ATOM     43  C   UNL A   1      40.454  30.199  31.407  1.00  0.00     0.148 A 
ATOM     44  C   UNL A   1      38.616  29.826  29.310  1.00  0.00     0.002 A 
ATOM     45  C   UNL A   1      39.295  29.456  31.610  1.00  0.00     0.091 A 
ATOM     46  F   UNL A   1      41.358  30.386  32.380  1.00  0.00    -0.205 F 
ATOM     47  C   UNL A   1      38.376  29.271  30.563  1.00  0.00     0.022 A 
BRANCH  45  48
ATOM     48  S   UNL A   1      38.909  28.642  33.165  1.00  0.00     0.127 S 
ATOM     49  O   UNL A   1      38.716  29.785  34.059  1.00  0.00    -0.237 OA
ATOM     50  O   UNL A   1      37.684  27.915  32.833  1.00  0.00    -0.237 OA
ATOM     51  O   UNL A   1      40.059  27.807  33.482  1.00  0.00    -0.744 OA
ENDBRANCH  45  48
ENDBRANCH  27  41
BRANCH  28  52
ATOM     52  C   UNL A   1      49.693  34.579  27.759  1.00  0.00     0.023 A 
ATOM     53  C   UNL A   1      50.684  34.594  28.759  1.00  0.00     0.012 A 
ATOM     54  C   UNL A   1      50.027  34.970  26.448  1.00  0.00     0.148 A 
ATOM     55  C   UNL A   1      51.984  35.004  28.465  1.00  0.00     0.002 A 
ATOM     56  C   UNL A   1      51.333  35.346  26.153  1.00  0.00     0.091 A 
ATOM     57  F   UNL A   1      49.067  34.942  25.513  1.00  0.00    -0.205 F 
ATOM     58  C   UNL A   1      52.311  35.370  27.162  1.00  0.00     0.022 A 
BRANCH  56  59
ATOM     59  S   UNL A   1      51.875  35.729  24.483  1.00  0.00     0.127 S 
ATOM     60  O   UNL A   1      51.951  34.399  23.882  1.00  0.00    -0.237 OA
ATOM     61  O   UNL A   1      50.779  36.565  23.991  1.00  0.00    -0.237 OA
ATOM     62  O   UNL A   1      53.143  36.429  24.632  1.00  0.00    -0.744 OA
ENDBRANCH  56  59
ENDBRANCH  28  52
BRANCH  40  63
ATOM     63  C   UNL A   1      44.235  36.846  31.481  1.00  0.00     0.023 A 
ATOM     64  C   UNL A   1      44.493  36.856  32.865  1.00  0.00     0.012 A 
ATOM     65  C   UNL A   1      43.841  38.031  30.832  1.00  0.00     0.148 A 
ATOM     66  C   UNL A   1      44.346  38.032  33.597  1.00  0.00     0.002 A 
ATOM     67  C   UNL A   1      43.731  39.206  31.562  1.00  0.00     0.091 A 
ATOM     68  F   UNL A   1      43.587  37.985  29.516  1.00  0.00    -0.205 F 
ATOM     69  C   UNL A   1      43.977  39.207  32.945  1.00  0.00     0.022 A 
BRANCH  67  70
ATOM     70  S   UNL A   1      43.334  40.781  30.797  1.00  0.00     0.127 S 
ATOM     71  O   UNL A   1      42.302  40.394  29.837  1.00  0.00    -0.237 OA
ATOM     72  O   UNL A   1      42.847  41.563  31.934  1.00  0.00    -0.237 OA
ATOM     73  O   UNL A   1      44.575  41.271  30.213  1.00  0.00    -0.744 OA
ENDBRANCH  67  70
ENDBRANCH  40  63
ENDBRANCH  14  15
ENDBRANCH   7   9
ENDBRANCH   6   7
ENDBRANCH   5   6
ENDBRANCH   4   5
ENDBRANCH   3   4
ENDBRANCH   2   3
ENDBRANCH   1   2
BRANCH   1  74
ATOM     74  O   UNL A   1      41.869  24.999  28.526  1.00  0.00    -0.377 OA
BRANCH  74  75
ATOM     75  C   UNL A   1      40.886  25.905  28.034  1.00  0.00     0.188 C 
BRANCH  75  76
ATOM     76  C   UNL A   1      39.402  25.476  28.061  1.00  0.00     0.188 C 
BRANCH  76  77
ATOM     77  O   UNL A   1      38.924  24.977  26.820  1.00  0.00    -0.376 OA
BRANCH  77  78
ATOM     78  C   UNL A   1      38.334  23.684  26.872  1.00  0.00     0.202 C 
BRANCH  78  79
ATOM     79  C   UNL A   1      37.998  23.097  25.498  1.00  0.00     0.261 C 
BRANCH  79  80
ATOM     80  O   UNL A   1      36.892  23.718  24.816  1.00  0.00    -0.460 OA
BRANCH  80  81
ATOM     81  C   UNL A   1      36.254  23.022  23.845  1.00  0.00     0.340 C 
ATOM     82  O   UNL A   1      36.625  22.859  22.697  1.00  0.00    -0.246 OA
BRANCH  81  83
ATOM     83  C   UNL A   1      35.118  22.300  24.476  1.00  0.00     0.083 A 
ATOM     84  C   UNL A   1      35.248  20.912  24.641  1.00  0.00     0.018 A 
ATOM     85  C   UNL A   1      33.984  22.980  24.959  1.00  0.00     0.053 A 
ATOM     86  C   UNL A   1      34.261  20.195  25.318  1.00  0.00     0.001 A 
ATOM     87  C   UNL A   1      32.932  22.216  25.508  1.00  0.00    -0.017 A 
ATOM     88  N   UNL A   1      33.862  24.357  24.833  1.00  0.00    -0.377 N 
ATOM     89  C   UNL A   1      33.096  20.841  25.729  1.00  0.00     0.006 A 
ATOM     90  C   UNL A   1      31.613  22.913  25.630  1.00  0.00     0.049 C 
ATOM     91  C   UNL A   1      32.632  25.127  25.063  1.00  0.00     0.115 C 
ATOM     92  H   UNL A   1      34.665  24.859  24.567  1.00  0.00     0.161 HD
ATOM     93  C   UNL A   1      31.773  24.379  26.081  1.00  0.00     0.031 C 
ATOM     94  C   UNL A   1      30.531  22.464  26.563  1.00  0.00    -0.023 C 
ATOM     95  C   UNL A   1      30.301  24.779  26.247  1.00  0.00     0.034 C 
ATOM     96  C   UNL A   1      29.752  23.515  26.862  1.00  0.00    -0.030 C 
BRANCH  91  97
ATOM     97  C   UNL A   1      33.050  26.593  25.222  1.00  0.00    -0.011 A 
ATOM     98  C   UNL A   1      32.974  27.075  26.561  1.00  0.00     0.007 A 
ATOM     99  C   UNL A   1      33.443  27.530  24.250  1.00  0.00     0.023 A 
ATOM    100  C   UNL A   1      33.280  28.390  26.915  1.00  0.00     0.000 A 
ATOM    101  C   UNL A   1      33.806  28.840  24.624  1.00  0.00     0.016 A 
ATOM    102  Br  UNL A   1      33.458  27.259  22.372  1.00  0.00    -0.050 Br
ATOM    103  C   UNL A   1      33.721  29.271  25.944  1.00  0.00     0.001 A 
ENDBRANCH  91  97
ENDBRANCH  81  83
ENDBRANCH  80  81
ENDBRANCH  79  80
ENDBRANCH  78  79
ENDBRANCH  77  78
ENDBRANCH  76  77
ENDBRANCH  75  76
ENDBRANCH  74  75
ENDBRANCH   1  74
TORSDOF 24
ENDMDL
