MODEL 1
REMARK VINA RESULT:     -10.0      0.000      0.000
REMARK SMILES C[C@@H](C(=O)OCCOCCOCCOCCOC(=O)c1ccc(-c2c3nc(c(-c4cccc(S(=O)(=O)[O-])c4F)c4ccc([nH]4)c(-c4cccc(S(=O)(=O)[O-])c4F)c4nc(c(-c5cccc(S(=O)(=O)[O-])c5F)c5ccc2[nH]5)C=C4)C=C3)cc1)c1ccc(C[C@H]2CCC[C@H]2O)cc1
REMARK SMILES IDX 10 1 9 2 8 3 7 4 6 5 5 6 3 7 4 8 2 9 1 10 83 11 84 12 95 13
REMARK SMILES IDX 85 14 94 15 86 16 87 17 88 18 89 19 92 20 90 21 91 22 93 23
REMARK SMILES IDX 11 25 12 26 13 27 14 28 15 29 16 30 17 31 18 32 19 33 20 34
REMARK SMILES IDX 21 35 82 36 22 37 81 38 23 39 24 40 25 41 75 42 26 43 80 44
REMARK SMILES IDX 74 45 76 46 27 47 79 48 73 49 72 50 28 52 60 53 40 54 59 55
REMARK SMILES IDX 41 56 44 57 58 58 77 59 42 60 43 61 57 63 78 64 45 65 29 66
REMARK SMILES IDX 30 67 38 68 31 69 33 70 39 71 32 72 34 73 35 74 36 75 37 76
REMARK SMILES IDX 61 77 62 78 70 79 63 80 65 81 71 82 64 83 66 84 67 85 68 86
REMARK SMILES IDX 69 87 46 88 47 89 55 90 48 91 50 92 56 93 49 94 51 95 52 96
REMARK SMILES IDX 53 97 54 98
REMARK H PARENT 93 24 76 51 44 62
REMARK Flexibility Score: inf
ROOT
ATOM      1  C   UNL A   1      34.224  22.939  22.714  1.00  0.00     0.188 C 
ENDROOT
BRANCH   1   2
ATOM      2  C   UNL A   1      33.134  22.035  23.306  1.00  0.00     0.188 C 
BRANCH   2   3
ATOM      3  O   UNL A   1      33.432  21.478  24.568  1.00  0.00    -0.376 OA
BRANCH   3   4
ATOM      4  C   UNL A   1      32.433  21.417  25.575  1.00  0.00     0.202 C 
BRANCH   4   5
ATOM      5  C   UNL A   1      31.903  22.621  26.385  1.00  0.00     0.261 C 
BRANCH   5   6
ATOM      6  O   UNL A   1      31.409  23.736  25.638  1.00  0.00    -0.463 OA
BRANCH   6   7
ATOM      7  C   UNL A   1      31.715  24.984  26.069  1.00  0.00     0.313 C 
ATOM      8  O   UNL A   1      31.703  25.331  27.246  1.00  0.00    -0.252 OA
BRANCH   7   9
ATOM      9  C   UNL A   1      32.225  25.888  24.938  1.00  0.00     0.126 C 
ATOM     10  C   UNL A   1      33.361  26.822  25.389  1.00  0.00     0.025 C 
BRANCH   9  11
ATOM     11  C   UNL A   1      31.109  26.552  24.119  1.00  0.00    -0.034 A 
ATOM     12  C   UNL A   1      31.392  27.610  23.241  1.00  0.00     0.005 A 
ATOM     13  C   UNL A   1      29.760  26.201  24.283  1.00  0.00     0.005 A 
ATOM     14  C   UNL A   1      30.384  28.308  22.584  1.00  0.00     0.004 A 
ATOM     15  C   UNL A   1      28.741  26.965  23.693  1.00  0.00     0.004 A 
ATOM     16  C   UNL A   1      29.053  28.082  22.912  1.00  0.00    -0.048 A 
BRANCH  16  17
ATOM     17  C   UNL A   1      28.020  29.124  22.560  1.00  0.00     0.041 C 
BRANCH  17  18
ATOM     18  C   UNL A   1      28.564  30.557  22.339  1.00  0.00     0.022 C 
ATOM     19  C   UNL A   1      28.143  31.232  21.019  1.00  0.00     0.007 C 
ATOM     20  C   UNL A   1      28.336  31.636  23.419  1.00  0.00     0.117 C 
ATOM     21  C   UNL A   1      28.054  32.732  21.306  1.00  0.00     0.003 C 
ATOM     22  C   UNL A   1      28.671  32.931  22.686  1.00  0.00     0.032 C 
BRANCH  20  23
ATOM     23  O   UNL A   1      27.015  31.757  23.910  1.00  0.00    -0.393 OA
ATOM     24  H   UNL A   1      26.407  31.280  23.323  1.00  0.00     0.210 HD
ENDBRANCH  20  23
ENDBRANCH  17  18
ENDBRANCH  16  17
ENDBRANCH   9  11
ENDBRANCH   7   9
ENDBRANCH   6   7
ENDBRANCH   5   6
ENDBRANCH   4   5
ENDBRANCH   3   4
ENDBRANCH   2   3
ENDBRANCH   1   2
BRANCH   1  25
ATOM     25  O   UNL A   1      35.101  23.570  23.629  1.00  0.00    -0.377 OA
BRANCH  25  26
ATOM     26  C   UNL A   1      36.451  23.127  23.723  1.00  0.00     0.188 C 
BRANCH  26  27
ATOM     27  C   UNL A   1      37.110  22.787  25.081  1.00  0.00     0.188 C 
BRANCH  27  28
ATOM     28  O   UNL A   1      36.720  21.554  25.661  1.00  0.00    -0.376 OA
BRANCH  28  29
ATOM     29  C   UNL A   1      37.172  20.353  25.055  1.00  0.00     0.202 C 
BRANCH  29  30
ATOM     30  C   UNL A   1      38.685  20.083  25.044  1.00  0.00     0.261 C 
BRANCH  30  31
ATOM     31  O   UNL A   1      39.341  20.083  26.322  1.00  0.00    -0.460 OA
BRANCH  31  32
ATOM     32  C   UNL A   1      40.676  19.891  26.346  1.00  0.00     0.338 C 
ATOM     33  O   UNL A   1      41.282  18.888  26.004  1.00  0.00    -0.246 OA
BRANCH  32  34
ATOM     34  C   UNL A   1      41.311  21.183  26.671  1.00  0.00     0.060 A 
ATOM     35  C   UNL A   1      41.313  21.625  28.001  1.00  0.00     0.016 A 
ATOM     36  C   UNL A   1      41.909  21.951  25.670  1.00  0.00     0.016 A 
ATOM     37  C   UNL A   1      41.879  22.857  28.328  1.00  0.00     0.010 A 
ATOM     38  C   UNL A   1      42.455  23.196  25.994  1.00  0.00     0.010 A 
ATOM     39  C   UNL A   1      42.406  23.671  27.318  1.00  0.00    -0.014 A 
BRANCH  39  40
ATOM     40  C   UNL A   1      42.713  25.091  27.607  1.00  0.00     0.031 A 
ATOM     41  C   UNL A   1      44.134  25.559  27.445  1.00  0.00     0.074 A 
ATOM     42  C   UNL A   1      41.758  25.952  28.000  1.00  0.00     0.049 A 
ATOM     43  N   UNL A   1      44.656  26.732  27.687  1.00  0.00    -0.248 NA
ATOM     44  C   UNL A   1      45.098  24.564  26.943  1.00  0.00     0.031 C 
ATOM     45  C   UNL A   1      40.345  25.626  28.178  1.00  0.00     0.029 A 
ATOM     46  N   UNL A   1      41.846  27.279  28.347  1.00  0.00    -0.354 N 
ATOM     47  C   UNL A   1      46.009  26.609  27.398  1.00  0.00     0.074 A 
ATOM     48  C   UNL A   1      46.233  25.244  26.976  1.00  0.00     0.031 C 
ATOM     49  C   UNL A   1      39.703  26.715  28.638  1.00  0.00     0.029 A 
ATOM     50  C   UNL A   1      40.665  27.802  28.814  1.00  0.00     0.049 A 
ATOM     51  H   UNL A   1      42.676  27.802  28.271  1.00  0.00     0.167 HD
ATOM     52  C   UNL A   1      46.981  27.551  27.466  1.00  0.00     0.034 A 
ATOM     53  C   UNL A   1      40.399  29.010  29.353  1.00  0.00     0.034 A 
ATOM     54  C   UNL A   1      46.755  28.908  27.879  1.00  0.00     0.049 A 
ATOM     55  C   UNL A   1      41.505  30.030  29.457  1.00  0.00     0.074 A 
ATOM     56  C   UNL A   1      47.665  29.948  27.948  1.00  0.00     0.029 A 
ATOM     57  N   UNL A   1      45.538  29.413  28.311  1.00  0.00    -0.354 N 
ATOM     58  N   UNL A   1      42.759  29.932  29.087  1.00  0.00    -0.248 NA
ATOM     59  C   UNL A   1      41.150  31.340  30.026  1.00  0.00     0.031 C 
ATOM     60  C   UNL A   1      47.007  31.071  28.461  1.00  0.00     0.029 A 
ATOM     61  C   UNL A   1      45.676  30.743  28.663  1.00  0.00     0.049 A 
ATOM     62  H   UNL A   1      44.700  28.899  28.360  1.00  0.00     0.167 HD
ATOM     63  C   UNL A   1      43.332  31.176  29.340  1.00  0.00     0.074 A 
ATOM     64  C   UNL A   1      42.283  32.016  29.877  1.00  0.00     0.031 C 
ATOM     65  C   UNL A   1      44.612  31.584  29.151  1.00  0.00     0.034 A 
BRANCH  52  66
ATOM     66  C   UNL A   1      48.377  27.142  27.076  1.00  0.00     0.023 A 
ATOM     67  C   UNL A   1      49.141  26.336  27.944  1.00  0.00     0.012 A 
ATOM     68  C   UNL A   1      48.914  27.518  25.830  1.00  0.00     0.148 A 
ATOM     69  C   UNL A   1      50.431  25.939  27.593  1.00  0.00     0.002 A 
ATOM     70  C   UNL A   1      50.181  27.079  25.466  1.00  0.00     0.091 A 
ATOM     71  F   UNL A   1      48.181  28.304  25.029  1.00  0.00    -0.205 F 
ATOM     72  C   UNL A   1      50.946  26.301  26.351  1.00  0.00     0.022 A 
BRANCH  70  73
ATOM     73  S   UNL A   1      50.901  27.422  23.857  1.00  0.00     0.127 S 
ATOM     74  O   UNL A   1      52.181  26.721  23.952  1.00  0.00    -0.237 OA
ATOM     75  O   UNL A   1      49.933  26.804  22.951  1.00  0.00    -0.237 OA
ATOM     76  O   UNL A   1      50.991  28.872  23.756  1.00  0.00    -0.744 OA
ENDBRANCH  70  73
ENDBRANCH  52  66
BRANCH  53  77
ATOM     77  C   UNL A   1      39.024  29.330  29.831  1.00  0.00     0.023 A 
ATOM     78  C   UNL A   1      38.637  28.978  31.139  1.00  0.00     0.012 A 
ATOM     79  C   UNL A   1      38.098  29.983  28.993  1.00  0.00     0.148 A 
ATOM     80  C   UNL A   1      37.342  29.237  31.590  1.00  0.00     0.002 A 
ATOM     81  C   UNL A   1      36.829  30.291  29.469  1.00  0.00     0.091 A 
ATOM     82  F   UNL A   1      38.481  30.295  27.747  1.00  0.00    -0.205 F 
ATOM     83  C   UNL A   1      36.442  29.902  30.761  1.00  0.00     0.022 A 
BRANCH  81  84
ATOM     84  S   UNL A   1      35.650  31.253  28.518  1.00  0.00     0.127 S 
ATOM     85  O   UNL A   1      34.689  31.649  29.544  1.00  0.00    -0.237 OA
ATOM     86  O   UNL A   1      36.490  32.337  28.008  1.00  0.00    -0.237 OA
ATOM     87  O   UNL A   1      35.140  30.353  27.492  1.00  0.00    -0.744 OA
ENDBRANCH  81  84
ENDBRANCH  53  77
BRANCH  65  88
ATOM     88  C   UNL A   1      44.950  33.017  29.475  1.00  0.00     0.023 A 
ATOM     89  C   UNL A   1      45.467  33.356  30.741  1.00  0.00     0.012 A 
ATOM     90  C   UNL A   1      44.825  34.018  28.491  1.00  0.00     0.148 A 
ATOM     91  C   UNL A   1      45.818  34.674  31.034  1.00  0.00     0.002 A 
ATOM     92  C   UNL A   1      45.228  35.318  28.771  1.00  0.00     0.091 A 
ATOM     93  F   UNL A   1      44.317  33.679  27.296  1.00  0.00    -0.205 F 
ATOM     94  C   UNL A   1      45.710  35.651  30.046  1.00  0.00     0.022 A 
BRANCH  92  95
ATOM     95  S   UNL A   1      45.219  36.619  27.533  1.00  0.00     0.127 S 
ATOM     96  O   UNL A   1      46.065  36.042  26.489  1.00  0.00    -0.237 OA
ATOM     97  O   UNL A   1      43.799  36.707  27.188  1.00  0.00    -0.237 OA
ATOM     98  O   UNL A   1      45.758  37.803  28.187  1.00  0.00    -0.744 OA
ENDBRANCH  92  95
ENDBRANCH  65  88
ENDBRANCH  39  40
ENDBRANCH  32  34
ENDBRANCH  31  32
ENDBRANCH  30  31
ENDBRANCH  29  30
ENDBRANCH  28  29
ENDBRANCH  27  28
ENDBRANCH  26  27
ENDBRANCH  25  26
ENDBRANCH   1  25
TORSDOF 27
ENDMDL
MODEL 2
REMARK VINA RESULT:      -9.7      0.813      7.275
REMARK SMILES C[C@@H](C(=O)OCCOCCOCCOCCOC(=O)c1ccc(-c2c3nc(c(-c4cccc(S(=O)(=O)[O-])c4F)c4ccc([nH]4)c(-c4cccc(S(=O)(=O)[O-])c4F)c4nc(c(-c5cccc(S(=O)(=O)[O-])c5F)c5ccc2[nH]5)C=C4)C=C3)cc1)c1ccc(C[C@H]2CCC[C@H]2O)cc1
REMARK SMILES IDX 10 1 9 2 8 3 7 4 6 5 5 6 3 7 4 8 2 9 1 10 83 11 84 12 95 13
REMARK SMILES IDX 85 14 94 15 86 16 87 17 88 18 89 19 92 20 90 21 91 22 93 23
REMARK SMILES IDX 11 25 12 26 13 27 14 28 15 29 16 30 17 31 18 32 19 33 20 34
REMARK SMILES IDX 21 35 82 36 22 37 81 38 23 39 24 40 25 41 75 42 26 43 80 44
REMARK SMILES IDX 74 45 76 46 27 47 79 48 73 49 72 50 28 52 60 53 40 54 59 55
REMARK SMILES IDX 41 56 44 57 58 58 77 59 42 60 43 61 57 63 78 64 45 65 29 66
REMARK SMILES IDX 30 67 38 68 31 69 33 70 39 71 32 72 34 73 35 74 36 75 37 76
REMARK SMILES IDX 61 77 62 78 70 79 63 80 65 81 71 82 64 83 66 84 67 85 68 86
REMARK SMILES IDX 69 87 46 88 47 89 55 90 48 91 50 92 56 93 49 94 51 95 52 96
REMARK SMILES IDX 53 97 54 98
REMARK H PARENT 93 24 76 51 44 62
REMARK Flexibility Score: inf
ROOT
ATOM      1  C   UNL A   1      33.763  23.406  22.287  1.00  0.00     0.188 C 
ENDROOT
BRANCH   1   2
ATOM      2  C   UNL A   1      32.802  22.433  22.984  1.00  0.00     0.188 C 
BRANCH   2   3
ATOM      3  O   UNL A   1      33.381  21.632  23.992  1.00  0.00    -0.376 OA
BRANCH   3   4
ATOM      4  C   UNL A   1      32.574  21.098  25.030  1.00  0.00     0.202 C 
BRANCH   4   5
ATOM      5  C   UNL A   1      31.959  21.907  26.193  1.00  0.00     0.261 C 
BRANCH   5   6
ATOM      6  O   UNL A   1      31.102  22.997  25.841  1.00  0.00    -0.463 OA
BRANCH   6   7
ATOM      7  C   UNL A   1      31.471  24.249  26.208  1.00  0.00     0.313 C 
ATOM      8  O   UNL A   1      31.405  24.679  27.355  1.00  0.00    -0.252 OA
BRANCH   7   9
ATOM      9  C   UNL A   1      32.123  25.031  25.059  1.00  0.00     0.126 C 
ATOM     10  C   UNL A   1      33.491  25.621  25.441  1.00  0.00     0.025 C 
BRANCH   9  11
ATOM     11  C   UNL A   1      31.167  25.991  24.337  1.00  0.00    -0.034 A 
ATOM     12  C   UNL A   1      31.492  27.347  24.176  1.00  0.00     0.005 A 
ATOM     13  C   UNL A   1      29.898  25.583  23.899  1.00  0.00     0.005 A 
ATOM     14  C   UNL A   1      30.591  28.260  23.638  1.00  0.00     0.004 A 
ATOM     15  C   UNL A   1      28.958  26.519  23.443  1.00  0.00     0.004 A 
ATOM     16  C   UNL A   1      29.276  27.881  23.399  1.00  0.00    -0.048 A 
BRANCH  16  17
ATOM     17  C   UNL A   1      28.215  28.945  23.266  1.00  0.00     0.041 C 
BRANCH  17  18
ATOM     18  C   UNL A   1      28.704  30.311  22.723  1.00  0.00     0.022 C 
ATOM     19  C   UNL A   1      28.359  30.603  21.249  1.00  0.00     0.007 C 
ATOM     20  C   UNL A   1      28.334  31.608  23.474  1.00  0.00     0.117 C 
ATOM     21  C   UNL A   1      28.173  32.117  21.138  1.00  0.00     0.003 C 
ATOM     22  C   UNL A   1      28.664  32.697  22.459  1.00  0.00     0.032 C 
BRANCH  20  23
ATOM     23  O   UNL A   1      26.974  31.757  23.829  1.00  0.00    -0.393 OA
ATOM     24  H   UNL A   1      26.424  31.706  23.031  1.00  0.00     0.210 HD
ENDBRANCH  20  23
ENDBRANCH  17  18
ENDBRANCH  16  17
ENDBRANCH   9  11
ENDBRANCH   7   9
ENDBRANCH   6   7
ENDBRANCH   5   6
ENDBRANCH   4   5
ENDBRANCH   3   4
ENDBRANCH   2   3
ENDBRANCH   1   2
BRANCH   1  25
ATOM     25  O   UNL A   1      34.924  23.786  23.003  1.00  0.00    -0.377 OA
BRANCH  25  26
ATOM     26  C   UNL A   1      36.099  22.988  22.903  1.00  0.00     0.188 C 
BRANCH  26  27
ATOM     27  C   UNL A   1      36.954  22.629  24.141  1.00  0.00     0.188 C 
BRANCH  27  28
ATOM     28  O   UNL A   1      36.326  21.793  25.100  1.00  0.00    -0.376 OA
BRANCH  28  29
ATOM     29  C   UNL A   1      36.616  20.405  25.073  1.00  0.00     0.202 C 
BRANCH  29  30
ATOM     30  C   UNL A   1      38.093  19.982  25.039  1.00  0.00     0.261 C 
BRANCH  30  31
ATOM     31  O   UNL A   1      38.886  20.346  26.180  1.00  0.00    -0.460 OA
BRANCH  31  32
ATOM     32  C   UNL A   1      40.176  19.951  26.205  1.00  0.00     0.338 C 
ATOM     33  O   UNL A   1      40.618  18.861  25.880  1.00  0.00    -0.246 OA
BRANCH  32  34
ATOM     34  C   UNL A   1      41.003  21.136  26.506  1.00  0.00     0.060 A 
ATOM     35  C   UNL A   1      41.175  21.523  27.842  1.00  0.00     0.016 A 
ATOM     36  C   UNL A   1      41.614  21.854  25.476  1.00  0.00     0.016 A 
ATOM     37  C   UNL A   1      41.928  22.658  28.149  1.00  0.00     0.010 A 
ATOM     38  C   UNL A   1      42.347  23.003  25.784  1.00  0.00     0.010 A 
ATOM     39  C   UNL A   1      42.473  23.431  27.118  1.00  0.00    -0.014 A 
BRANCH  39  40
ATOM     40  C   UNL A   1      42.991  24.787  27.415  1.00  0.00     0.031 A 
ATOM     41  C   UNL A   1      42.053  25.785  28.041  1.00  0.00     0.074 A 
ATOM     42  C   UNL A   1      44.262  25.131  27.144  1.00  0.00     0.049 A 
ATOM     43  N   UNL A   1      42.256  27.039  28.344  1.00  0.00    -0.248 NA
ATOM     44  C   UNL A   1      40.701  25.299  28.367  1.00  0.00     0.031 C 
ATOM     45  C   UNL A   1      45.269  24.252  26.555  1.00  0.00     0.029 A 
ATOM     46  N   UNL A   1      44.912  26.330  27.308  1.00  0.00    -0.354 N 
ATOM     47  C   UNL A   1      41.054  27.501  28.865  1.00  0.00     0.074 A 
ATOM     48  C   UNL A   1      40.121  26.397  28.825  1.00  0.00     0.031 C 
ATOM     49  C   UNL A   1      46.402  24.953  26.372  1.00  0.00     0.029 A 
ATOM     50  C   UNL A   1      46.190  26.333  26.802  1.00  0.00     0.049 A 
ATOM     51  H   UNL A   1      44.502  27.111  27.744  1.00  0.00     0.167 HD
ATOM     52  C   UNL A   1      40.754  28.731  29.346  1.00  0.00     0.034 A 
ATOM     53  C   UNL A   1      47.073  27.345  26.672  1.00  0.00     0.034 A 
ATOM     54  C   UNL A   1      41.685  29.825  29.390  1.00  0.00     0.049 A 
ATOM     55  C   UNL A   1      46.703  28.717  27.176  1.00  0.00     0.074 A 
ATOM     56  C   UNL A   1      41.489  31.100  29.890  1.00  0.00     0.029 A 
ATOM     57  N   UNL A   1      42.981  29.782  28.901  1.00  0.00    -0.354 N 
ATOM     58  N   UNL A   1      45.597  29.114  27.758  1.00  0.00    -0.248 NA
ATOM     59  C   UNL A   1      47.716  29.774  27.034  1.00  0.00     0.031 C 
ATOM     60  C   UNL A   1      42.654  31.840  29.666  1.00  0.00     0.029 A 
ATOM     61  C   UNL A   1      43.592  31.011  29.073  1.00  0.00     0.049 A 
ATOM     62  H   UNL A   1      43.404  28.993  28.492  1.00  0.00     0.167 HD
ATOM     63  C   UNL A   1      45.795  30.452  28.086  1.00  0.00     0.074 A 
ATOM     64  C   UNL A   1      47.135  30.792  27.655  1.00  0.00     0.031 C 
ATOM     65  C   UNL A   1      44.944  31.323  28.684  1.00  0.00     0.034 A 
BRANCH  52  66
ATOM     66  C   UNL A   1      39.359  28.954  29.869  1.00  0.00     0.023 A 
ATOM     67  C   UNL A   1      39.053  28.645  31.210  1.00  0.00     0.012 A 
ATOM     68  C   UNL A   1      38.364  29.516  29.045  1.00  0.00     0.148 A 
ATOM     69  C   UNL A   1      37.770  28.856  31.712  1.00  0.00     0.002 A 
ATOM     70  C   UNL A   1      37.101  29.769  29.567  1.00  0.00     0.091 A 
ATOM     71  F   UNL A   1      38.668  29.782  27.767  1.00  0.00    -0.205 F 
ATOM     72  C   UNL A   1      36.799  29.428  30.895  1.00  0.00     0.022 A 
BRANCH  70  73
ATOM     73  S   UNL A   1      35.807  30.577  28.621  1.00  0.00     0.127 S 
ATOM     74  O   UNL A   1      35.100  29.431  28.049  1.00  0.00    -0.237 OA
ATOM     75  O   UNL A   1      35.068  31.291  29.661  1.00  0.00    -0.237 OA
ATOM     76  O   UNL A   1      36.484  31.433  27.657  1.00  0.00    -0.744 OA
ENDBRANCH  70  73
ENDBRANCH  52  66
BRANCH  53  77
ATOM     77  C   UNL A   1      48.402  27.101  26.041  1.00  0.00     0.023 A 
ATOM     78  C   UNL A   1      49.432  26.497  26.787  1.00  0.00     0.012 A 
ATOM     79  C   UNL A   1      48.646  27.466  24.702  1.00  0.00     0.148 A 
ATOM     80  C   UNL A   1      50.693  26.295  26.223  1.00  0.00     0.002 A 
ATOM     81  C   UNL A   1      49.885  27.208  24.128  1.00  0.00     0.091 A 
ATOM     82  F   UNL A   1      47.657  28.054  24.014  1.00  0.00    -0.205 F 
ATOM     83  C   UNL A   1      50.917  26.640  24.893  1.00  0.00     0.022 A 
BRANCH  81  84
ATOM     84  S   UNL A   1      50.224  27.503  22.391  1.00  0.00     0.127 S 
ATOM     85  O   UNL A   1      51.677  27.648  22.389  1.00  0.00    -0.237 OA
ATOM     86  O   UNL A   1      49.725  26.273  21.775  1.00  0.00    -0.237 OA
ATOM     87  O   UNL A   1      49.473  28.701  22.039  1.00  0.00    -0.744 OA
ENDBRANCH  81  84
ENDBRANCH  53  77
BRANCH  65  88
ATOM     88  C   UNL A   1      45.443  32.719  28.961  1.00  0.00     0.023 A 
ATOM     89  C   UNL A   1      45.956  33.050  30.231  1.00  0.00     0.012 A 
ATOM     90  C   UNL A   1      45.472  33.682  27.933  1.00  0.00     0.148 A 
ATOM     91  C   UNL A   1      46.455  34.328  30.482  1.00  0.00     0.002 A 
ATOM     92  C   UNL A   1      46.021  34.935  28.175  1.00  0.00     0.091 A 
ATOM     93  F   UNL A   1      44.966  33.354  26.735  1.00  0.00    -0.205 F 
ATOM     94  C   UNL A   1      46.499  35.265  29.452  1.00  0.00     0.022 A 
BRANCH  92  95
ATOM     95  S   UNL A   1      46.210  36.172  26.885  1.00  0.00     0.127 S 
ATOM     96  O   UNL A   1      46.976  35.437  25.880  1.00  0.00    -0.237 OA
ATOM     97  O   UNL A   1      44.821  36.444  26.514  1.00  0.00    -0.237 OA
ATOM     98  O   UNL A   1      46.904  37.294  27.500  1.00  0.00    -0.744 OA
ENDBRANCH  92  95
ENDBRANCH  65  88
ENDBRANCH  39  40
ENDBRANCH  32  34
ENDBRANCH  31  32
ENDBRANCH  30  31
ENDBRANCH  29  30
ENDBRANCH  28  29
ENDBRANCH  27  28
ENDBRANCH  26  27
ENDBRANCH  25  26
ENDBRANCH   1  25
TORSDOF 27
ENDMDL
MODEL 3
REMARK VINA RESULT:      -9.6      6.231     11.655
REMARK SMILES C[C@@H](C(=O)OCCOCCOCCOCCOC(=O)c1ccc(-c2c3nc(c(-c4cccc(S(=O)(=O)[O-])c4F)c4ccc([nH]4)c(-c4cccc(S(=O)(=O)[O-])c4F)c4nc(c(-c5cccc(S(=O)(=O)[O-])c5F)c5ccc2[nH]5)C=C4)C=C3)cc1)c1ccc(C[C@H]2CCC[C@H]2O)cc1
REMARK SMILES IDX 10 1 9 2 8 3 7 4 6 5 5 6 3 7 4 8 2 9 1 10 83 11 84 12 95 13
REMARK SMILES IDX 85 14 94 15 86 16 87 17 88 18 89 19 92 20 90 21 91 22 93 23
REMARK SMILES IDX 11 25 12 26 13 27 14 28 15 29 16 30 17 31 18 32 19 33 20 34
REMARK SMILES IDX 21 35 82 36 22 37 81 38 23 39 24 40 25 41 75 42 26 43 80 44
REMARK SMILES IDX 74 45 76 46 27 47 79 48 73 49 72 50 28 52 60 53 40 54 59 55
REMARK SMILES IDX 41 56 44 57 58 58 77 59 42 60 43 61 57 63 78 64 45 65 29 66
REMARK SMILES IDX 30 67 38 68 31 69 33 70 39 71 32 72 34 73 35 74 36 75 37 76
REMARK SMILES IDX 61 77 62 78 70 79 63 80 65 81 71 82 64 83 66 84 67 85 68 86
REMARK SMILES IDX 69 87 46 88 47 89 55 90 48 91 50 92 56 93 49 94 51 95 52 96
REMARK SMILES IDX 53 97 54 98
REMARK H PARENT 93 24 76 51 44 62
REMARK Flexibility Score: inf
ROOT
ATOM      1  C   UNL A   1      34.997  30.832  27.634  1.00  0.00     0.188 C 
ENDROOT
BRANCH   1   2
ATOM      2  C   UNL A   1      33.472  30.740  27.478  1.00  0.00     0.188 C 
BRANCH   2   3
ATOM      3  O   UNL A   1      33.012  30.561  26.156  1.00  0.00    -0.376 OA
BRANCH   3   4
ATOM      4  C   UNL A   1      31.866  29.762  25.902  1.00  0.00     0.202 C 
BRANCH   4   5
ATOM      5  C   UNL A   1      31.723  28.264  26.254  1.00  0.00     0.261 C 
BRANCH   5   6
ATOM      6  O   UNL A   1      31.798  27.335  25.169  1.00  0.00    -0.463 OA
BRANCH   6   7
ATOM      7  C   UNL A   1      32.426  26.152  25.380  1.00  0.00     0.313 C 
ATOM      8  O   UNL A   1      32.065  25.316  26.203  1.00  0.00    -0.252 OA
BRANCH   7   9
ATOM      9  C   UNL A   1      33.558  25.899  24.375  1.00  0.00     0.126 C 
ATOM     10  C   UNL A   1      33.167  26.261  22.933  1.00  0.00     0.025 C 
BRANCH   9  11
ATOM     11  C   UNL A   1      34.256  24.542  24.551  1.00  0.00    -0.034 A 
ATOM     12  C   UNL A   1      34.127  23.535  23.582  1.00  0.00     0.005 A 
ATOM     13  C   UNL A   1      34.962  24.218  25.719  1.00  0.00     0.005 A 
ATOM     14  C   UNL A   1      34.645  22.258  23.776  1.00  0.00     0.004 A 
ATOM     15  C   UNL A   1      35.402  22.906  25.954  1.00  0.00     0.004 A 
ATOM     16  C   UNL A   1      35.160  21.898  25.015  1.00  0.00    -0.048 A 
BRANCH  16  17
ATOM     17  C   UNL A   1      35.286  20.435  25.363  1.00  0.00     0.041 C 
BRANCH  17  18
ATOM     18  C   UNL A   1      34.266  19.494  24.675  1.00  0.00     0.022 C 
ATOM     19  C   UNL A   1      34.801  18.100  24.292  1.00  0.00     0.007 C 
ATOM     20  C   UNL A   1      32.906  19.218  25.350  1.00  0.00     0.117 C 
ATOM     21  C   UNL A   1      33.619  17.135  24.402  1.00  0.00     0.003 C 
ATOM     22  C   UNL A   1      32.382  18.008  24.583  1.00  0.00     0.032 C 
BRANCH  20  23
ATOM     23  O   UNL A   1      32.949  18.866  26.718  1.00  0.00    -0.393 OA
ATOM     24  H   UNL A   1      33.171  19.648  27.247  1.00  0.00     0.210 HD
ENDBRANCH  20  23
ENDBRANCH  17  18
ENDBRANCH  16  17
ENDBRANCH   9  11
ENDBRANCH   7   9
ENDBRANCH   6   7
ENDBRANCH   5   6
ENDBRANCH   4   5
ENDBRANCH   3   4
ENDBRANCH   2   3
ENDBRANCH   1   2
BRANCH   1  25
ATOM     25  O   UNL A   1      35.559  32.130  27.689  1.00  0.00    -0.377 OA
BRANCH  25  26
ATOM     26  C   UNL A   1      35.078  33.061  28.653  1.00  0.00     0.188 C 
BRANCH  26  27
ATOM     27  C   UNL A   1      34.414  34.396  28.243  1.00  0.00     0.188 C 
BRANCH  27  28
ATOM     28  O   UNL A   1      33.025  34.498  28.508  1.00  0.00    -0.376 OA
BRANCH  28  29
ATOM     29  C   UNL A   1      32.560  35.624  29.236  1.00  0.00     0.202 C 
BRANCH  29  30
ATOM     30  C   UNL A   1      33.605  36.493  29.953  1.00  0.00     0.261 C 
BRANCH  30  31
ATOM     31  O   UNL A   1      33.441  36.646  31.372  1.00  0.00    -0.460 OA
BRANCH  31  32
ATOM     32  C   UNL A   1      33.116  35.553  32.092  1.00  0.00     0.338 C 
ATOM     33  O   UNL A   1      32.012  35.252  32.516  1.00  0.00    -0.246 OA
BRANCH  32  34
ATOM     34  C   UNL A   1      34.294  34.663  32.115  1.00  0.00     0.060 A 
ATOM     35  C   UNL A   1      34.113  33.303  32.403  1.00  0.00     0.016 A 
ATOM     36  C   UNL A   1      35.568  35.166  31.843  1.00  0.00     0.016 A 
ATOM     37  C   UNL A   1      35.215  32.449  32.461  1.00  0.00     0.010 A 
ATOM     38  C   UNL A   1      36.672  34.314  31.925  1.00  0.00     0.010 A 
ATOM     39  C   UNL A   1      36.504  32.961  32.273  1.00  0.00    -0.014 A 
BRANCH  39  40
ATOM     40  C   UNL A   1      37.680  32.139  32.643  1.00  0.00     0.031 A 
ATOM     41  C   UNL A   1      38.376  32.438  33.943  1.00  0.00     0.074 A 
ATOM     42  C   UNL A   1      38.122  31.146  31.852  1.00  0.00     0.049 A 
ATOM     43  N   UNL A   1      39.449  31.897  34.455  1.00  0.00    -0.248 NA
ATOM     44  C   UNL A   1      37.780  33.497  34.778  1.00  0.00     0.031 C 
ATOM     45  C   UNL A   1      37.525  30.748  30.579  1.00  0.00     0.029 A 
ATOM     46  N   UNL A   1      39.200  30.308  31.997  1.00  0.00    -0.354 N 
ATOM     47  C   UNL A   1      39.674  32.565  35.652  1.00  0.00     0.074 A 
ATOM     48  C   UNL A   1      38.635  33.563  35.785  1.00  0.00     0.031 C 
ATOM     49  C   UNL A   1      38.268  29.766  30.040  1.00  0.00     0.029 A 
ATOM     50  C   UNL A   1      39.406  29.487  30.914  1.00  0.00     0.049 A 
ATOM     51  H   UNL A   1      39.771  30.297  32.799  1.00  0.00     0.167 HD
ATOM     52  C   UNL A   1      40.652  32.362  36.567  1.00  0.00     0.034 A 
ATOM     53  C   UNL A   1      40.417  28.635  30.646  1.00  0.00     0.034 A 
ATOM     54  C   UNL A   1      41.679  31.366  36.436  1.00  0.00     0.049 A 
ATOM     55  C   UNL A   1      41.518  28.453  31.660  1.00  0.00     0.074 A 
ATOM     56  C   UNL A   1      42.694  31.056  37.324  1.00  0.00     0.029 A 
ATOM     57  N   UNL A   1      41.836  30.529  35.342  1.00  0.00    -0.354 N 
ATOM     58  N   UNL A   1      41.663  29.021  32.833  1.00  0.00    -0.248 NA
ATOM     59  C   UNL A   1      42.578  27.489  31.327  1.00  0.00     0.031 C 
ATOM     60  C   UNL A   1      43.489  30.059  36.748  1.00  0.00     0.029 A 
ATOM     61  C   UNL A   1      42.939  29.714  35.524  1.00  0.00     0.049 A 
ATOM     62  H   UNL A   1      41.249  30.517  34.552  1.00  0.00     0.167 HD
ATOM     63  C   UNL A   1      42.806  28.455  33.394  1.00  0.00     0.074 A 
ATOM     64  C   UNL A   1      43.302  27.487  32.439  1.00  0.00     0.031 C 
ATOM     65  C   UNL A   1      43.395  28.719  34.588  1.00  0.00     0.034 A 
BRANCH  52  66
ATOM     66  C   UNL A   1      40.650  33.233  37.796  1.00  0.00     0.023 A 
ATOM     67  C   UNL A   1      39.829  32.899  38.892  1.00  0.00     0.012 A 
ATOM     68  C   UNL A   1      41.497  34.354  37.883  1.00  0.00     0.148 A 
ATOM     69  C   UNL A   1      39.824  33.689  40.042  1.00  0.00     0.002 A 
ATOM     70  C   UNL A   1      41.523  35.108  39.050  1.00  0.00     0.091 A 
ATOM     71  F   UNL A   1      42.253  34.668  36.822  1.00  0.00    -0.205 F 
ATOM     72  C   UNL A   1      40.678  34.785  40.125  1.00  0.00     0.022 A 
BRANCH  70  73
ATOM     73  S   UNL A   1      42.645  36.489  39.287  1.00  0.00     0.127 S 
ATOM     74  O   UNL A   1      43.939  35.868  39.006  1.00  0.00    -0.237 OA
ATOM     75  O   UNL A   1      42.188  37.433  38.267  1.00  0.00    -0.237 OA
ATOM     76  O   UNL A   1      42.454  36.935  40.660  1.00  0.00    -0.744 OA
ENDBRANCH  70  73
ENDBRANCH  52  66
BRANCH  53  77
ATOM     77  C   UNL A   1      40.436  27.878  29.362  1.00  0.00     0.023 A 
ATOM     78  C   UNL A   1      39.544  26.806  29.166  1.00  0.00     0.012 A 
ATOM     79  C   UNL A   1      41.337  28.219  28.333  1.00  0.00     0.148 A 
ATOM     80  C   UNL A   1      39.573  26.064  27.984  1.00  0.00     0.002 A 
ATOM     81  C   UNL A   1      41.321  27.514  27.136  1.00  0.00     0.091 A 
ATOM     82  F   UNL A   1      42.188  29.232  28.546  1.00  0.00    -0.205 F 
ATOM     83  C   UNL A   1      40.453  26.423  26.966  1.00  0.00     0.022 A 
BRANCH  81  84
ATOM     84  S   UNL A   1      42.328  27.983  25.726  1.00  0.00     0.127 S 
ATOM     85  O   UNL A   1      42.103  26.867  24.812  1.00  0.00    -0.237 OA
ATOM     86  O   UNL A   1      41.709  29.246  25.324  1.00  0.00    -0.237 OA
ATOM     87  O   UNL A   1      43.686  28.113  26.237  1.00  0.00    -0.744 OA
ENDBRANCH  81  84
ENDBRANCH  53  77
BRANCH  65  88
ATOM     88  C   UNL A   1      44.614  27.916  34.964  1.00  0.00     0.023 A 
ATOM     89  C   UNL A   1      45.897  28.350  34.578  1.00  0.00     0.012 A 
ATOM     90  C   UNL A   1      44.489  26.766  35.770  1.00  0.00     0.148 A 
ATOM     91  C   UNL A   1      47.032  27.633  34.955  1.00  0.00     0.002 A 
ATOM     92  C   UNL A   1      45.627  26.088  36.188  1.00  0.00     0.091 A 
ATOM     93  F   UNL A   1      43.259  26.360  36.116  1.00  0.00    -0.205 F 
ATOM     94  C   UNL A   1      46.898  26.510  35.770  1.00  0.00     0.022 A 
BRANCH  92  95
ATOM     95  S   UNL A   1      45.558  24.693  37.318  1.00  0.00     0.127 S 
ATOM     96  O   UNL A   1      44.900  23.678  36.497  1.00  0.00    -0.237 OA
ATOM     97  O   UNL A   1      46.975  24.439  37.581  1.00  0.00    -0.237 OA
ATOM     98  O   UNL A   1      44.799  25.146  38.475  1.00  0.00    -0.744 OA
ENDBRANCH  92  95
ENDBRANCH  65  88
ENDBRANCH  39  40
ENDBRANCH  32  34
ENDBRANCH  31  32
ENDBRANCH  30  31
ENDBRANCH  29  30
ENDBRANCH  28  29
ENDBRANCH  27  28
ENDBRANCH  26  27
ENDBRANCH  25  26
ENDBRANCH   1  25
TORSDOF 27
ENDMDL
