MODEL 1
REMARK VINA RESULT:      -8.0      0.000      0.000
REMARK SMILES O=C(C[C@H]1C[C@H]2CC[C@@H](C1)N2C(=O)NCCC1CC1)OCCOCCOCCOCCOC(=O)c1ccc(-c2c3nc(c(-c4cccc(S(=O)(=O)[O-])c4F)c4ccc([nH]4)c(-c4cccc(S(=O)(=O)[O-])c4F)c4nc(c(-c5cccc(S(=O)(=O)[O-])c5F)c5ccc2[nH]5)C=C4)C=C3)cc1
REMARK SMILES IDX 25 1 24 2 23 3 22 4 21 5 20 6 2 7 1 8 3 9 4 10 5 11 10 12
REMARK SMILES IDX 6 13 9 14 7 15 11 16 8 17 12 18 13 19 14 20 15 22 16 23
REMARK SMILES IDX 17 24 18 25 19 26 26 27 27 28 28 29 29 30 30 31 31 32 32 33
REMARK SMILES IDX 33 34 34 35 35 36 36 37 97 38 37 39 96 40 38 41 39 42 40 43
REMARK SMILES IDX 90 44 41 45 95 46 89 47 91 48 42 49 94 50 88 51 87 52 43 54
REMARK SMILES IDX 75 55 55 56 74 57 56 58 59 59 73 60 92 61 57 62 58 63 72 65
REMARK SMILES IDX 93 66 60 67 44 68 45 69 53 70 46 71 48 72 54 73 47 74 49 75
REMARK SMILES IDX 50 76 51 77 52 78 76 79 77 80 85 81 78 82 80 83 86 84 79 85
REMARK SMILES IDX 81 86 82 87 83 88 84 89 61 90 62 91 70 92 63 93 65 94 71 95
REMARK SMILES IDX 64 96 66 97 67 98 68 99 69 100
REMARK H PARENT 14 21 91 53 59 64
REMARK Flexibility Score: inf
ROOT
ATOM      1  C   UNL A   1      33.370  34.160  28.631  1.00  0.00     0.188 C 
ENDROOT
BRANCH   1   2
ATOM      2  C   UNL A   1      34.170  33.042  27.954  1.00  0.00     0.188 C 
BRANCH   2   3
ATOM      3  O   UNL A   1      33.886  31.677  28.227  1.00  0.00    -0.376 OA
BRANCH   3   4
ATOM      4  C   UNL A   1      33.653  30.571  27.371  1.00  0.00     0.202 C 
BRANCH   4   5
ATOM      5  C   UNL A   1      34.655  29.471  27.037  1.00  0.00     0.261 C 
BRANCH   5   6
ATOM      6  O   UNL A   1      34.154  28.150  26.924  1.00  0.00    -0.463 OA
BRANCH   6   7
ATOM      7  C   UNL A   1      33.746  27.602  25.774  1.00  0.00     0.306 C 
ATOM      8  O   UNL A   1      33.973  28.181  24.715  1.00  0.00    -0.252 OA
BRANCH   7   9
ATOM      9  C   UNL A   1      32.950  26.305  25.799  1.00  0.00     0.126 C 
BRANCH   9  10
ATOM     10  C   UNL A   1      33.762  25.049  25.965  1.00  0.00     0.004 C 
ATOM     11  C   UNL A   1      32.875  23.861  26.456  1.00  0.00     0.029 C 
ATOM     12  C   UNL A   1      34.507  24.734  24.668  1.00  0.00     0.029 C 
ATOM     13  C   UNL A   1      32.316  22.979  25.307  1.00  0.00     0.087 C 
ATOM     14  C   UNL A   1      33.643  23.935  23.675  1.00  0.00     0.087 C 
ATOM     15  C   UNL A   1      31.330  23.761  24.439  1.00  0.00     0.027 C 
ATOM     16  N   UNL A   1      33.416  22.704  24.387  1.00  0.00    -0.319 N 
ATOM     17  C   UNL A   1      32.217  24.427  23.383  1.00  0.00     0.027 C 
BRANCH  16  18
ATOM     18  C   UNL A   1      34.240  21.637  24.527  1.00  0.00     0.317 C 
ATOM     19  O   UNL A   1      35.438  21.785  24.780  1.00  0.00    -0.249 OA
ATOM     20  N   UNL A   1      33.804  20.365  24.367  1.00  0.00    -0.338 N 
ATOM     21  H   UNL A   1      34.490  19.714  24.638  1.00  0.00     0.165 HD
BRANCH  20  22
ATOM     22  C   UNL A   1      32.584  19.695  23.898  1.00  0.00     0.118 C 
BRANCH  22  23
ATOM     23  C   UNL A   1      32.398  18.321  24.552  1.00  0.00     0.025 C 
BRANCH  23  24
ATOM     24  C   UNL A   1      33.667  17.530  24.489  1.00  0.00    -0.009 C 
ATOM     25  C   UNL A   1      33.596  16.026  24.522  1.00  0.00     0.004 C 
ATOM     26  C   UNL A   1      34.016  16.734  23.262  1.00  0.00     0.004 C 
ENDBRANCH  23  24
ENDBRANCH  22  23
ENDBRANCH  20  22
ENDBRANCH  16  18
ENDBRANCH   9  10
ENDBRANCH   7   9
ENDBRANCH   6   7
ENDBRANCH   5   6
ENDBRANCH   4   5
ENDBRANCH   3   4
ENDBRANCH   2   3
ENDBRANCH   1   2
BRANCH   1  27
ATOM     27  O   UNL A   1      34.138  35.037  29.436  1.00  0.00    -0.377 OA
BRANCH  27  28
ATOM     28  C   UNL A   1      33.873  34.891  30.819  1.00  0.00     0.188 C 
BRANCH  28  29
ATOM     29  C   UNL A   1      34.979  34.135  31.591  1.00  0.00     0.188 C 
BRANCH  29  30
ATOM     30  O   UNL A   1      35.889  33.270  30.932  1.00  0.00    -0.376 OA
BRANCH  30  31
ATOM     31  C   UNL A   1      35.936  31.882  31.209  1.00  0.00     0.202 C 
BRANCH  31  32
ATOM     32  C   UNL A   1      36.299  31.275  32.577  1.00  0.00     0.261 C 
BRANCH  32  33
ATOM     33  O   UNL A   1      37.543  31.655  33.162  1.00  0.00    -0.460 OA
BRANCH  33  34
ATOM     34  C   UNL A   1      38.420  30.655  33.406  1.00  0.00     0.338 C 
ATOM     35  O   UNL A   1      38.172  29.560  33.886  1.00  0.00    -0.246 OA
BRANCH  34  36
ATOM     36  C   UNL A   1      39.695  31.010  32.742  1.00  0.00     0.060 A 
ATOM     37  C   UNL A   1      40.882  30.917  33.488  1.00  0.00     0.016 A 
ATOM     38  C   UNL A   1      39.739  31.326  31.382  1.00  0.00     0.016 A 
ATOM     39  C   UNL A   1      42.114  31.134  32.878  1.00  0.00     0.010 A 
ATOM     40  C   UNL A   1      40.970  31.605  30.785  1.00  0.00     0.010 A 
ATOM     41  C   UNL A   1      42.154  31.536  31.539  1.00  0.00    -0.014 A 
BRANCH  41  42
ATOM     42  C   UNL A   1      43.396  32.150  31.021  1.00  0.00     0.031 A 
ATOM     43  C   UNL A   1      43.586  33.621  31.265  1.00  0.00     0.074 A 
ATOM     44  C   UNL A   1      44.327  31.435  30.365  1.00  0.00     0.049 A 
ATOM     45  N   UNL A   1      44.555  34.407  30.882  1.00  0.00    -0.248 NA
ATOM     46  C   UNL A   1      42.536  34.297  32.051  1.00  0.00     0.031 C 
ATOM     47  C   UNL A   1      44.263  30.001  30.093  1.00  0.00     0.029 A 
ATOM     48  N   UNL A   1      45.502  31.839  29.783  1.00  0.00    -0.354 N 
ATOM     49  C   UNL A   1      44.218  35.671  31.349  1.00  0.00     0.074 A 
ATOM     50  C   UNL A   1      42.959  35.551  32.048  1.00  0.00     0.031 C 
ATOM     51  C   UNL A   1      45.333  29.651  29.358  1.00  0.00     0.029 A 
ATOM     52  C   UNL A   1      46.141  30.840  29.086  1.00  0.00     0.049 A 
ATOM     53  H   UNL A   1      45.855  32.755  29.857  1.00  0.00     0.167 HD
ATOM     54  C   UNL A   1      44.899  36.829  31.213  1.00  0.00     0.034 A 
ATOM     55  C   UNL A   1      47.231  30.896  28.293  1.00  0.00     0.034 A 
ATOM     56  C   UNL A   1      46.151  36.945  30.523  1.00  0.00     0.049 A 
ATOM     57  C   UNL A   1      47.947  32.214  28.122  1.00  0.00     0.074 A 
ATOM     58  C   UNL A   1      46.943  38.067  30.365  1.00  0.00     0.029 A 
ATOM     59  N   UNL A   1      46.784  35.908  29.857  1.00  0.00    -0.354 N 
ATOM     60  N   UNL A   1      47.684  33.378  28.667  1.00  0.00    -0.248 NA
ATOM     61  C   UNL A   1      49.128  32.221  27.245  1.00  0.00     0.031 C 
ATOM     62  C   UNL A   1      48.037  37.718  29.569  1.00  0.00     0.029 A 
ATOM     63  C   UNL A   1      47.948  36.368  29.268  1.00  0.00     0.049 A 
ATOM     64  H   UNL A   1      46.454  34.981  29.810  1.00  0.00     0.167 HD
ATOM     65  C   UNL A   1      48.685  34.240  28.232  1.00  0.00     0.074 A 
ATOM     66  C   UNL A   1      49.573  33.460  27.397  1.00  0.00     0.031 C 
ATOM     67  C   UNL A   1      48.850  35.562  28.487  1.00  0.00     0.034 A 
BRANCH  54  68
ATOM     68  C   UNL A   1      44.305  38.067  31.825  1.00  0.00     0.023 A 
ATOM     69  C   UNL A   1      44.447  38.307  33.206  1.00  0.00     0.012 A 
ATOM     70  C   UNL A   1      43.664  39.025  31.016  1.00  0.00     0.148 A 
ATOM     71  C   UNL A   1      43.942  39.473  33.777  1.00  0.00     0.002 A 
ATOM     72  C   UNL A   1      43.206  40.206  31.584  1.00  0.00     0.091 A 
ATOM     73  F   UNL A   1      43.515  38.761  29.710  1.00  0.00    -0.205 F 
ATOM     74  C   UNL A   1      43.335  40.428  32.965  1.00  0.00     0.022 A 
BRANCH  72  75
ATOM     75  S   UNL A   1      42.483  41.531  30.611  1.00  0.00     0.127 S 
ATOM     76  O   UNL A   1      43.557  41.823  29.664  1.00  0.00    -0.237 OA
ATOM     77  O   UNL A   1      41.314  40.873  30.025  1.00  0.00    -0.237 OA
ATOM     78  O   UNL A   1      42.175  42.601  31.550  1.00  0.00    -0.744 OA
ENDBRANCH  72  75
ENDBRANCH  54  68
BRANCH  55  79
ATOM     79  C   UNL A   1      47.721  29.674  27.594  1.00  0.00     0.023 A 
ATOM     80  C   UNL A   1      48.756  28.908  28.167  1.00  0.00     0.012 A 
ATOM     81  C   UNL A   1      47.187  29.281  26.351  1.00  0.00     0.148 A 
ATOM     82  C   UNL A   1      49.277  27.800  27.496  1.00  0.00     0.002 A 
ATOM     83  C   UNL A   1      47.670  28.142  25.716  1.00  0.00     0.091 A 
ATOM     84  F   UNL A   1      46.219  30.033  25.809  1.00  0.00    -0.205 F 
ATOM     85  C   UNL A   1      48.729  27.413  26.277  1.00  0.00     0.022 A 
BRANCH  83  86
ATOM     86  S   UNL A   1      46.939  27.497  24.208  1.00  0.00     0.127 S 
ATOM     87  O   UNL A   1      47.919  26.492  23.806  1.00  0.00    -0.237 OA
ATOM     88  O   UNL A   1      45.668  26.960  24.698  1.00  0.00    -0.237 OA
ATOM     89  O   UNL A   1      46.801  28.643  23.320  1.00  0.00    -0.744 OA
ENDBRANCH  83  86
ENDBRANCH  55  79
BRANCH  67  90
ATOM     90  C   UNL A   1      50.056  36.248  27.898  1.00  0.00     0.023 A 
ATOM     91  C   UNL A   1      49.966  36.882  26.644  1.00  0.00     0.012 A 
ATOM     92  C   UNL A   1      51.258  36.331  28.631  1.00  0.00     0.148 A 
ATOM     93  C   UNL A   1      51.064  37.556  26.110  1.00  0.00     0.002 A 
ATOM     94  C   UNL A   1      52.330  37.050  28.117  1.00  0.00     0.091 A 
ATOM     95  F   UNL A   1      51.328  35.711  29.817  1.00  0.00    -0.205 F 
ATOM     96  C   UNL A   1      52.240  37.650  26.850  1.00  0.00     0.022 A 
BRANCH  94  97
ATOM     97  S   UNL A   1      53.848  37.310  29.041  1.00  0.00     0.127 S 
ATOM     98  O   UNL A   1      54.377  35.950  29.134  1.00  0.00    -0.237 OA
ATOM     99  O   UNL A   1      54.602  38.198  28.156  1.00  0.00    -0.237 OA
ATOM    100  O   UNL A   1      53.451  37.911  30.307  1.00  0.00    -0.744 OA
ENDBRANCH  94  97
ENDBRANCH  67  90
ENDBRANCH  41  42
ENDBRANCH  34  36
ENDBRANCH  33  34
ENDBRANCH  32  33
ENDBRANCH  31  32
ENDBRANCH  30  31
ENDBRANCH  29  30
ENDBRANCH  28  29
ENDBRANCH  27  28
ENDBRANCH   1  27
TORSDOF 28
ENDMDL
MODEL 2
REMARK VINA RESULT:      -8.0      7.132      8.318
REMARK SMILES O=C(C[C@H]1C[C@H]2CC[C@@H](C1)N2C(=O)NCCC1CC1)OCCOCCOCCOCCOC(=O)c1ccc(-c2c3nc(c(-c4cccc(S(=O)(=O)[O-])c4F)c4ccc([nH]4)c(-c4cccc(S(=O)(=O)[O-])c4F)c4nc(c(-c5cccc(S(=O)(=O)[O-])c5F)c5ccc2[nH]5)C=C4)C=C3)cc1
REMARK SMILES IDX 25 1 24 2 23 3 22 4 21 5 20 6 2 7 1 8 3 9 4 10 5 11 10 12
REMARK SMILES IDX 6 13 9 14 7 15 11 16 8 17 12 18 13 19 14 20 15 22 16 23
REMARK SMILES IDX 17 24 18 25 19 26 26 27 27 28 28 29 29 30 30 31 31 32 32 33
REMARK SMILES IDX 33 34 34 35 35 36 36 37 97 38 37 39 96 40 38 41 39 42 40 43
REMARK SMILES IDX 90 44 41 45 95 46 89 47 91 48 42 49 94 50 88 51 87 52 43 54
REMARK SMILES IDX 75 55 55 56 74 57 56 58 59 59 73 60 92 61 57 62 58 63 72 65
REMARK SMILES IDX 93 66 60 67 44 68 45 69 53 70 46 71 48 72 54 73 47 74 49 75
REMARK SMILES IDX 50 76 51 77 52 78 76 79 77 80 85 81 78 82 80 83 86 84 79 85
REMARK SMILES IDX 81 86 82 87 83 88 84 89 61 90 62 91 70 92 63 93 65 94 71 95
REMARK SMILES IDX 64 96 66 97 67 98 68 99 69 100
REMARK H PARENT 14 21 91 53 59 64
REMARK Flexibility Score: inf
ROOT
ATOM      1  C   UNL A   1      33.734  35.789  28.683  1.00  0.00     0.188 C 
ENDROOT
BRANCH   1   2
ATOM      2  C   UNL A   1      34.272  34.354  28.677  1.00  0.00     0.188 C 
BRANCH   2   3
ATOM      3  O   UNL A   1      33.486  33.284  28.170  1.00  0.00    -0.376 OA
BRANCH   3   4
ATOM      4  C   UNL A   1      33.843  32.073  27.528  1.00  0.00     0.202 C 
BRANCH   4   5
ATOM      5  C   UNL A   1      33.021  30.787  27.522  1.00  0.00     0.261 C 
BRANCH   5   6
ATOM      6  O   UNL A   1      33.008  30.032  26.323  1.00  0.00    -0.463 OA
BRANCH   6   7
ATOM      7  C   UNL A   1      33.903  29.082  26.029  1.00  0.00     0.306 C 
ATOM      8  O   UNL A   1      34.748  28.769  26.865  1.00  0.00    -0.252 OA
BRANCH   7   9
ATOM      9  C   UNL A   1      33.905  28.451  24.645  1.00  0.00     0.126 C 
BRANCH   9  10
ATOM     10  C   UNL A   1      33.794  26.949  24.617  1.00  0.00     0.004 C 
ATOM     11  C   UNL A   1      32.739  26.439  25.649  1.00  0.00     0.029 C 
ATOM     12  C   UNL A   1      33.506  26.475  23.192  1.00  0.00     0.029 C 
ATOM     13  C   UNL A   1      31.319  26.246  25.052  1.00  0.00     0.087 C 
ATOM     14  C   UNL A   1      32.002  26.500  22.860  1.00  0.00     0.087 C 
ATOM     15  C   UNL A   1      30.712  27.584  24.628  1.00  0.00     0.027 C 
ATOM     16  N   UNL A   1      31.467  25.536  23.785  1.00  0.00    -0.319 N 
ATOM     17  C   UNL A   1      31.200  27.768  23.188  1.00  0.00     0.027 C 
BRANCH  16  18
ATOM     18  C   UNL A   1      31.462  24.183  23.699  1.00  0.00     0.317 C 
ATOM     19  O   UNL A   1      30.535  23.582  23.149  1.00  0.00    -0.249 OA
ATOM     20  N   UNL A   1      32.447  23.424  24.234  1.00  0.00    -0.338 N 
ATOM     21  H   UNL A   1      32.361  22.482  23.962  1.00  0.00     0.165 HD
BRANCH  20  22
ATOM     22  C   UNL A   1      33.610  23.627  25.108  1.00  0.00     0.118 C 
BRANCH  22  23
ATOM     23  C   UNL A   1      34.932  23.430  24.357  1.00  0.00     0.025 C 
BRANCH  23  24
ATOM     24  C   UNL A   1      35.525  22.093  24.674  1.00  0.00    -0.009 C 
ATOM     25  C   UNL A   1      36.910  21.770  24.177  1.00  0.00     0.004 C 
ATOM     26  C   UNL A   1      36.663  21.970  25.648  1.00  0.00     0.004 C 
ENDBRANCH  23  24
ENDBRANCH  22  23
ENDBRANCH  20  22
ENDBRANCH  16  18
ENDBRANCH   9  10
ENDBRANCH   7   9
ENDBRANCH   6   7
ENDBRANCH   5   6
ENDBRANCH   4   5
ENDBRANCH   3   4
ENDBRANCH   2   3
ENDBRANCH   1   2
BRANCH   1  27
ATOM     27  O   UNL A   1      33.751  36.426  29.949  1.00  0.00    -0.377 OA
BRANCH  27  28
ATOM     28  C   UNL A   1      32.661  36.051  30.770  1.00  0.00     0.188 C 
BRANCH  28  29
ATOM     29  C   UNL A   1      33.082  35.476  32.142  1.00  0.00     0.188 C 
BRANCH  29  30
ATOM     30  O   UNL A   1      34.439  35.209  32.454  1.00  0.00    -0.376 OA
BRANCH  30  31
ATOM     31  C   UNL A   1      35.045  33.964  32.152  1.00  0.00     0.202 C 
BRANCH  31  32
ATOM     32  C   UNL A   1      35.355  32.869  33.189  1.00  0.00     0.261 C 
BRANCH  32  33
ATOM     33  O   UNL A   1      36.609  32.195  33.088  1.00  0.00    -0.460 OA
BRANCH  33  34
ATOM     34  C   UNL A   1      36.649  31.128  32.259  1.00  0.00     0.338 C 
ATOM     35  O   UNL A   1      35.850  30.850  31.379  1.00  0.00    -0.246 OA
BRANCH  34  36
ATOM     36  C   UNL A   1      37.977  30.493  32.417  1.00  0.00     0.060 A 
ATOM     37  C   UNL A   1      39.121  31.291  32.249  1.00  0.00     0.016 A 
ATOM     38  C   UNL A   1      38.099  29.163  32.826  1.00  0.00     0.016 A 
ATOM     39  C   UNL A   1      40.386  30.767  32.493  1.00  0.00     0.010 A 
ATOM     40  C   UNL A   1      39.371  28.619  33.011  1.00  0.00     0.010 A 
ATOM     41  C   UNL A   1      40.516  29.412  32.818  1.00  0.00    -0.014 A 
BRANCH  41  42
ATOM     42  C   UNL A   1      41.842  28.774  32.677  1.00  0.00     0.031 A 
ATOM     43  C   UNL A   1      42.777  28.871  33.851  1.00  0.00     0.074 A 
ATOM     44  C   UNL A   1      42.208  28.125  31.558  1.00  0.00     0.049 A 
ATOM     45  N   UNL A   1      44.003  28.441  33.972  1.00  0.00    -0.248 NA
ATOM     46  C   UNL A   1      42.253  29.547  35.053  1.00  0.00     0.031 C 
ATOM     47  C   UNL A   1      41.377  27.946  30.369  1.00  0.00     0.029 A 
ATOM     48  N   UNL A   1      43.397  27.521  31.236  1.00  0.00    -0.354 N 
ATOM     49  C   UNL A   1      44.408  28.821  35.246  1.00  0.00     0.074 A 
ATOM     50  C   UNL A   1      43.299  29.512  35.863  1.00  0.00     0.031 C 
ATOM     51  C   UNL A   1      42.099  27.311  29.429  1.00  0.00     0.029 A 
ATOM     52  C   UNL A   1      43.448  27.065  29.939  1.00  0.00     0.049 A 
ATOM     53  H   UNL A   1      44.142  27.421  31.872  1.00  0.00     0.167 HD
ATOM     54  C   UNL A   1      45.597  28.608  35.851  1.00  0.00     0.034 A 
ATOM     55  C   UNL A   1      44.479  26.545  29.243  1.00  0.00     0.034 A 
ATOM     56  C   UNL A   1      46.695  27.917  35.238  1.00  0.00     0.049 A 
ATOM     57  C   UNL A   1      45.811  26.361  29.931  1.00  0.00     0.074 A 
ATOM     58  C   UNL A   1      47.928  27.614  35.782  1.00  0.00     0.029 A 
ATOM     59  N   UNL A   1      46.700  27.443  33.936  1.00  0.00    -0.354 N 
ATOM     60  N   UNL A   1      46.144  26.616  31.173  1.00  0.00    -0.248 NA
ATOM     61  C   UNL A   1      46.902  25.791  29.125  1.00  0.00     0.031 C 
ATOM     62  C   UNL A   1      48.696  26.989  34.796  1.00  0.00     0.029 A 
ATOM     63  C   UNL A   1      47.924  26.865  33.652  1.00  0.00     0.049 A 
ATOM     64  H   UNL A   1      45.945  27.507  33.308  1.00  0.00     0.167 HD
ATOM     65  C   UNL A   1      47.466  26.203  31.307  1.00  0.00     0.074 A 
ATOM     66  C   UNL A   1      47.865  25.660  30.027  1.00  0.00     0.031 C 
ATOM     67  C   UNL A   1      48.284  26.278  32.387  1.00  0.00     0.034 A 
BRANCH  54  68
ATOM     68  C   UNL A   1      45.773  29.128  37.250  1.00  0.00     0.023 A 
ATOM     69  C   UNL A   1      46.059  30.492  37.462  1.00  0.00     0.012 A 
ATOM     70  C   UNL A   1      45.588  28.277  38.356  1.00  0.00     0.148 A 
ATOM     71  C   UNL A   1      46.178  30.998  38.755  1.00  0.00     0.002 A 
ATOM     72  C   UNL A   1      45.660  28.798  39.641  1.00  0.00     0.091 A 
ATOM     73  F   UNL A   1      45.346  26.978  38.129  1.00  0.00    -0.205 F 
ATOM     74  C   UNL A   1      45.965  30.154  39.843  1.00  0.00     0.022 A 
BRANCH  72  75
ATOM     75  S   UNL A   1      45.323  27.814  41.104  1.00  0.00     0.127 S 
ATOM     76  O   UNL A   1      46.520  28.061  41.908  1.00  0.00    -0.237 OA
ATOM     77  O   UNL A   1      44.104  28.440  41.617  1.00  0.00    -0.237 OA
ATOM     78  O   UNL A   1      45.159  26.443  40.642  1.00  0.00    -0.744 OA
ENDBRANCH  72  75
ENDBRANCH  54  68
BRANCH  55  79
ATOM     79  C   UNL A   1      44.308  26.159  27.813  1.00  0.00     0.023 A 
ATOM     80  C   UNL A   1      44.530  27.112  26.799  1.00  0.00     0.012 A 
ATOM     81  C   UNL A   1      43.901  24.859  27.452  1.00  0.00     0.148 A 
ATOM     82  C   UNL A   1      44.309  26.791  25.459  1.00  0.00     0.002 A 
ATOM     83  C   UNL A   1      43.740  24.529  26.112  1.00  0.00     0.091 A 
ATOM     84  F   UNL A   1      43.672  23.971  28.430  1.00  0.00    -0.205 F 
ATOM     85  C   UNL A   1      43.922  25.499  25.115  1.00  0.00     0.022 A 
BRANCH  83  86
ATOM     86  S   UNL A   1      43.368  22.858  25.570  1.00  0.00     0.127 S 
ATOM     87  O   UNL A   1      44.371  22.079  26.291  1.00  0.00    -0.237 OA
ATOM     88  O   UNL A   1      41.994  22.687  26.046  1.00  0.00    -0.237 OA
ATOM     89  O   UNL A   1      43.500  22.878  24.120  1.00  0.00    -0.744 OA
ENDBRANCH  83  86
ENDBRANCH  55  79
BRANCH  67  90
ATOM     90  C   UNL A   1      49.679  25.722  32.255  1.00  0.00     0.023 A 
ATOM     91  C   UNL A   1      50.692  26.492  31.653  1.00  0.00     0.012 A 
ATOM     92  C   UNL A   1      50.000  24.463  32.803  1.00  0.00     0.148 A 
ATOM     93  C   UNL A   1      51.995  26.005  31.564  1.00  0.00     0.002 A 
ATOM     94  C   UNL A   1      51.311  24.007  32.758  1.00  0.00     0.091 A 
ATOM     95  F   UNL A   1      49.019  23.739  33.361  1.00  0.00    -0.205 F 
ATOM     96  C   UNL A   1      52.307  24.770  32.126  1.00  0.00     0.022 A 
BRANCH  94  97
ATOM     97  S   UNL A   1      51.826  22.476  33.544  1.00  0.00     0.127 S 
ATOM     98  O   UNL A   1      51.114  21.478  32.747  1.00  0.00    -0.237 OA
ATOM     99  O   UNL A   1      53.275  22.496  33.342  1.00  0.00    -0.237 OA
ATOM    100  O   UNL A   1      51.407  22.577  34.936  1.00  0.00    -0.744 OA
ENDBRANCH  94  97
ENDBRANCH  67  90
ENDBRANCH  41  42
ENDBRANCH  34  36
ENDBRANCH  33  34
ENDBRANCH  32  33
ENDBRANCH  31  32
ENDBRANCH  30  31
ENDBRANCH  29  30
ENDBRANCH  28  29
ENDBRANCH  27  28
ENDBRANCH   1  27
TORSDOF 28
ENDMDL
MODEL 3
REMARK VINA RESULT:      -7.0      4.983     11.234
REMARK SMILES O=C(C[C@H]1C[C@H]2CC[C@@H](C1)N2C(=O)NCCC1CC1)OCCOCCOCCOCCOC(=O)c1ccc(-c2c3nc(c(-c4cccc(S(=O)(=O)[O-])c4F)c4ccc([nH]4)c(-c4cccc(S(=O)(=O)[O-])c4F)c4nc(c(-c5cccc(S(=O)(=O)[O-])c5F)c5ccc2[nH]5)C=C4)C=C3)cc1
REMARK SMILES IDX 25 1 24 2 23 3 22 4 21 5 20 6 2 7 1 8 3 9 4 10 5 11 10 12
REMARK SMILES IDX 6 13 9 14 7 15 11 16 8 17 12 18 13 19 14 20 15 22 16 23
REMARK SMILES IDX 17 24 18 25 19 26 26 27 27 28 28 29 29 30 30 31 31 32 32 33
REMARK SMILES IDX 33 34 34 35 35 36 36 37 97 38 37 39 96 40 38 41 39 42 40 43
REMARK SMILES IDX 90 44 41 45 95 46 89 47 91 48 42 49 94 50 88 51 87 52 43 54
REMARK SMILES IDX 75 55 55 56 74 57 56 58 59 59 73 60 92 61 57 62 58 63 72 65
REMARK SMILES IDX 93 66 60 67 44 68 45 69 53 70 46 71 48 72 54 73 47 74 49 75
REMARK SMILES IDX 50 76 51 77 52 78 76 79 77 80 85 81 78 82 80 83 86 84 79 85
REMARK SMILES IDX 81 86 82 87 83 88 84 89 61 90 62 91 70 92 63 93 65 94 71 95
REMARK SMILES IDX 64 96 66 97 67 98 68 99 69 100
REMARK H PARENT 14 21 91 53 59 64
REMARK Flexibility Score: inf
ROOT
ATOM      1  C   UNL A   1      34.346  30.885  27.604  1.00  0.00     0.188 C 
ENDROOT
BRANCH   1   2
ATOM      2  C   UNL A   1      35.795  30.950  28.100  1.00  0.00     0.188 C 
BRANCH   2   3
ATOM      3  O   UNL A   1      36.500  32.184  28.125  1.00  0.00    -0.376 OA
BRANCH   3   4
ATOM      4  C   UNL A   1      37.751  32.545  28.684  1.00  0.00     0.202 C 
BRANCH   4   5
ATOM      5  C   UNL A   1      38.125  33.921  29.226  1.00  0.00     0.261 C 
BRANCH   5   6
ATOM      6  O   UNL A   1      39.249  34.562  28.647  1.00  0.00    -0.463 OA
BRANCH   6   7
ATOM      7  C   UNL A   1      40.423  34.718  29.268  1.00  0.00     0.306 C 
ATOM      8  O   UNL A   1      40.724  33.962  30.190  1.00  0.00    -0.252 OA
BRANCH   7   9
ATOM      9  C   UNL A   1      41.338  35.868  28.873  1.00  0.00     0.126 C 
BRANCH   9  10
ATOM     10  C   UNL A   1      42.608  35.472  28.168  1.00  0.00     0.004 C 
ATOM     11  C   UNL A   1      42.703  36.137  26.758  1.00  0.00     0.029 C 
ATOM     12  C   UNL A   1      43.814  35.785  29.053  1.00  0.00     0.029 C 
ATOM     13  C   UNL A   1      43.482  37.480  26.749  1.00  0.00     0.087 C 
ATOM     14  C   UNL A   1      44.291  37.242  28.900  1.00  0.00     0.087 C 
ATOM     15  C   UNL A   1      42.739  38.554  27.545  1.00  0.00     0.027 C 
ATOM     16  N   UNL A   1      44.705  37.286  27.521  1.00  0.00    -0.319 N 
ATOM     17  C   UNL A   1      43.248  38.366  28.978  1.00  0.00     0.027 C 
BRANCH  16  18
ATOM     18  C   UNL A   1      45.862  36.851  26.965  1.00  0.00     0.317 C 
ATOM     19  O   UNL A   1      46.169  35.656  26.983  1.00  0.00    -0.249 OA
ATOM     20  N   UNL A   1      46.749  37.698  26.393  1.00  0.00    -0.338 N 
ATOM     21  H   UNL A   1      47.460  37.208  25.920  1.00  0.00     0.165 HD
BRANCH  20  22
ATOM     22  C   UNL A   1      46.938  39.151  26.287  1.00  0.00     0.118 C 
BRANCH  22  23
ATOM     23  C   UNL A   1      46.739  39.651  24.852  1.00  0.00     0.025 C 
BRANCH  23  24
ATOM     24  C   UNL A   1      46.908  41.136  24.782  1.00  0.00    -0.009 C 
ATOM     25  C   UNL A   1      45.693  42.018  24.903  1.00  0.00     0.004 C 
ATOM     26  C   UNL A   1      46.716  41.989  26.005  1.00  0.00     0.004 C 
ENDBRANCH  23  24
ENDBRANCH  22  23
ENDBRANCH  20  22
ENDBRANCH  16  18
ENDBRANCH   9  10
ENDBRANCH   7   9
ENDBRANCH   6   7
ENDBRANCH   5   6
ENDBRANCH   4   5
ENDBRANCH   3   4
ENDBRANCH   2   3
ENDBRANCH   1   2
BRANCH   1  27
ATOM     27  O   UNL A   1      33.507  31.922  28.083  1.00  0.00    -0.377 OA
BRANCH  27  28
ATOM     28  C   UNL A   1      34.153  33.181  28.123  1.00  0.00     0.188 C 
BRANCH  28  29
ATOM     29  C   UNL A   1      33.930  33.955  29.442  1.00  0.00     0.188 C 
BRANCH  29  30
ATOM     30  O   UNL A   1      34.581  33.581  30.645  1.00  0.00    -0.376 OA
BRANCH  30  31
ATOM     31  C   UNL A   1      34.563  34.411  31.794  1.00  0.00     0.202 C 
BRANCH  31  32
ATOM     32  C   UNL A   1      34.599  33.897  33.245  1.00  0.00     0.261 C 
BRANCH  32  33
ATOM     33  O   UNL A   1      35.210  32.630  33.485  1.00  0.00    -0.460 OA
BRANCH  33  34
ATOM     34  C   UNL A   1      36.347  32.644  34.217  1.00  0.00     0.338 C 
ATOM     35  O   UNL A   1      36.482  33.055  35.358  1.00  0.00    -0.246 OA
BRANCH  34  36
ATOM     36  C   UNL A   1      37.350  31.826  33.497  1.00  0.00     0.060 A 
ATOM     37  C   UNL A   1      38.148  30.943  34.243  1.00  0.00     0.016 A 
ATOM     38  C   UNL A   1      37.433  31.846  32.103  1.00  0.00     0.016 A 
ATOM     39  C   UNL A   1      39.026  30.076  33.601  1.00  0.00     0.010 A 
ATOM     40  C   UNL A   1      38.359  31.020  31.462  1.00  0.00     0.010 A 
ATOM     41  C   UNL A   1      39.174  30.155  32.212  1.00  0.00    -0.014 A 
BRANCH  41  42
ATOM     42  C   UNL A   1      40.369  29.543  31.591  1.00  0.00     0.031 A 
ATOM     43  C   UNL A   1      41.692  30.209  31.850  1.00  0.00     0.074 A 
ATOM     44  C   UNL A   1      40.292  28.435  30.833  1.00  0.00     0.049 A 
ATOM     45  N   UNL A   1      42.876  29.905  31.395  1.00  0.00    -0.248 NA
ATOM     46  C   UNL A   1      41.674  31.378  32.749  1.00  0.00     0.031 C 
ATOM     47  C   UNL A   1      39.070  27.691  30.535  1.00  0.00     0.029 A 
ATOM     48  N   UNL A   1      41.274  27.763  30.150  1.00  0.00    -0.354 N 
ATOM     49  C   UNL A   1      43.736  30.861  31.921  1.00  0.00     0.074 A 
ATOM     50  C   UNL A   1      42.942  31.753  32.735  1.00  0.00     0.031 C 
ATOM     51  C   UNL A   1      39.370  26.687  29.693  1.00  0.00     0.029 A 
ATOM     52  C   UNL A   1      40.796  26.735  29.372  1.00  0.00     0.049 A 
ATOM     53  H   UNL A   1      42.230  27.993  30.211  1.00  0.00     0.167 HD
ATOM     54  C   UNL A   1      45.070  30.982  31.747  1.00  0.00     0.034 A 
ATOM     55  C   UNL A   1      41.438  25.953  28.480  1.00  0.00     0.034 A 
ATOM     56  C   UNL A   1      45.857  30.092  30.943  1.00  0.00     0.049 A 
ATOM     57  C   UNL A   1      42.921  26.140  28.271  1.00  0.00     0.074 A 
ATOM     58  C   UNL A   1      47.223  30.105  30.735  1.00  0.00     0.029 A 
ATOM     59  N   UNL A   1      45.345  29.044  30.195  1.00  0.00    -0.354 N 
ATOM     60  N   UNL A   1      43.743  26.971  28.866  1.00  0.00    -0.248 NA
ATOM     61  C   UNL A   1      43.570  25.263  27.285  1.00  0.00     0.031 C 
ATOM     62  C   UNL A   1      47.534  29.087  29.830  1.00  0.00     0.029 A 
ATOM     63  C   UNL A   1      46.366  28.413  29.508  1.00  0.00     0.049 A 
ATOM     64  H   UNL A   1      44.395  28.786  30.159  1.00  0.00     0.167 HD
ATOM     65  C   UNL A   1      45.007  26.690  28.357  1.00  0.00     0.074 A 
ATOM     66  C   UNL A   1      44.846  25.597  27.422  1.00  0.00     0.031 C 
ATOM     67  C   UNL A   1      46.194  27.290  28.625  1.00  0.00     0.034 A 
BRANCH  54  68
ATOM     68  C   UNL A   1      45.766  32.119  32.441  1.00  0.00     0.023 A 
ATOM     69  C   UNL A   1      45.884  33.367  31.799  1.00  0.00     0.012 A 
ATOM     70  C   UNL A   1      46.242  31.967  33.758  1.00  0.00     0.148 A 
ATOM     71  C   UNL A   1      46.484  34.444  32.449  1.00  0.00     0.002 A 
ATOM     72  C   UNL A   1      46.795  33.056  34.417  1.00  0.00     0.091 A 
ATOM     73  F   UNL A   1      46.144  30.762  34.337  1.00  0.00    -0.205 F 
ATOM     74  C   UNL A   1      46.926  34.292  33.762  1.00  0.00     0.022 A 
BRANCH  72  75
ATOM     75  S   UNL A   1      47.320  32.986  36.132  1.00  0.00     0.127 S 
ATOM     76  O   UNL A   1      48.495  32.119  36.046  1.00  0.00    -0.237 OA
ATOM     77  O   UNL A   1      47.618  34.390  36.416  1.00  0.00    -0.237 OA
ATOM     78  O   UNL A   1      46.197  32.436  36.877  1.00  0.00    -0.744 OA
ENDBRANCH  72  75
ENDBRANCH  54  68
BRANCH  55  79
ATOM     79  C   UNL A   1      40.691  24.917  27.708  1.00  0.00     0.023 A 
ATOM     80  C   UNL A   1      39.588  25.294  26.917  1.00  0.00     0.012 A 
ATOM     81  C   UNL A   1      41.052  23.557  27.774  1.00  0.00     0.148 A 
ATOM     82  C   UNL A   1      38.834  24.333  26.242  1.00  0.00     0.002 A 
ATOM     83  C   UNL A   1      40.334  22.612  27.051  1.00  0.00     0.091 A 
ATOM     84  F   UNL A   1      42.091  23.213  28.548  1.00  0.00    -0.205 F 
ATOM     85  C   UNL A   1      39.211  22.995  26.302  1.00  0.00     0.022 A 
BRANCH  83  86
ATOM     86  S   UNL A   1      40.824  20.887  26.968  1.00  0.00     0.127 S 
ATOM     87  O   UNL A   1      40.735  20.482  28.368  1.00  0.00    -0.237 OA
ATOM     88  O   UNL A   1      39.792  20.324  26.096  1.00  0.00    -0.237 OA
ATOM     89  O   UNL A   1      42.161  20.887  26.390  1.00  0.00    -0.744 OA
ENDBRANCH  83  86
ENDBRANCH  55  79
BRANCH  67  90
ATOM     90  C   UNL A   1      47.425  26.753  27.939  1.00  0.00     0.023 A 
ATOM     91  C   UNL A   1      47.976  25.521  28.339  1.00  0.00     0.012 A 
ATOM     92  C   UNL A   1      47.984  27.437  26.840  1.00  0.00     0.148 A 
ATOM     93  C   UNL A   1      49.088  24.995  27.683  1.00  0.00     0.002 A 
ATOM     94  C   UNL A   1      49.059  26.881  26.158  1.00  0.00     0.091 A 
ATOM     95  F   UNL A   1      47.453  28.615  26.482  1.00  0.00    -0.205 F 
ATOM     96  C   UNL A   1      49.621  25.668  26.586  1.00  0.00     0.022 A 
BRANCH  94  97
ATOM     97  S   UNL A   1      49.747  27.625  24.674  1.00  0.00     0.127 S 
ATOM     98  O   UNL A   1      50.759  26.642  24.291  1.00  0.00    -0.237 OA
ATOM     99  O   UNL A   1      48.585  27.678  23.787  1.00  0.00    -0.237 OA
ATOM    100  O   UNL A   1      50.262  28.926  25.077  1.00  0.00    -0.744 OA
ENDBRANCH  94  97
ENDBRANCH  67  90
ENDBRANCH  41  42
ENDBRANCH  34  36
ENDBRANCH  33  34
ENDBRANCH  32  33
ENDBRANCH  31  32
ENDBRANCH  30  31
ENDBRANCH  29  30
ENDBRANCH  28  29
ENDBRANCH  27  28
ENDBRANCH   1  27
TORSDOF 28
ENDMDL
