MODEL 1
REMARK VINA RESULT:      -7.9      0.000      0.000
REMARK SMILES CCC(CC)COc1cc2c(cc1Cl)C=C(C(=O)OCCOCCOCCOCCOC(=O)c1ccc(-c3c4nc(c(-c5cccc(S(=O)(=O)[O-])c5F)c5ccc([nH]5)c(-c5cccc(S(=O)(=O)[O-])c5F)c5nc(c(-c6cccc(S(=O)(=O)[O-])c6F)c6ccc3[nH]6)C=C5)C=C4)cc1)[C@@H](C(F)(F)F)O2
REMARK SMILES IDX 24 1 23 2 22 3 21 4 20 5 19 6 17 7 18 8 16 9 8 10 9 11 13 12
REMARK SMILES IDX 10 13 12 14 14 15 11 16 102 17 15 18 97 19 7 20 6 21 3 22
REMARK SMILES IDX 2 23 1 24 4 25 5 26 98 27 99 28 100 29 101 30 25 31 26 32
REMARK SMILES IDX 27 33 28 34 29 35 30 36 31 37 32 38 33 39 34 40 35 41 96 42
REMARK SMILES IDX 36 43 95 44 37 45 38 46 39 47 89 48 40 49 94 50 88 51 90 52
REMARK SMILES IDX 41 53 93 54 87 55 86 56 42 58 74 59 54 60 73 61 55 62 58 63
REMARK SMILES IDX 72 64 91 65 56 66 57 67 71 69 92 70 59 71 43 72 44 73 52 74
REMARK SMILES IDX 45 75 47 76 53 77 46 78 48 79 49 80 50 81 51 82 75 83 76 84
REMARK SMILES IDX 84 85 77 86 79 87 85 88 78 89 80 90 81 91 82 92 83 93 60 94
REMARK SMILES IDX 61 95 69 96 62 97 64 98 70 99 63 100 65 101 66 102 67 103
REMARK SMILES IDX 68 104
REMARK H PARENT 90 57 58 68
REMARK Flexibility Score: inf
ROOT
ATOM      1  C   UNL A   1      40.047  24.282  26.681  1.00  0.00     0.188 C 
ENDROOT
BRANCH   1   2
ATOM      2  C   UNL A   1      38.515  24.204  26.568  1.00  0.00     0.188 C 
BRANCH   2   3
ATOM      3  O   UNL A   1      38.047  23.082  25.828  1.00  0.00    -0.376 OA
BRANCH   3   4
ATOM      4  C   UNL A   1      36.703  22.673  26.059  1.00  0.00     0.202 C 
BRANCH   4   5
ATOM      5  C   UNL A   1      35.957  22.108  24.839  1.00  0.00     0.261 C 
BRANCH   5   6
ATOM      6  O   UNL A   1      34.571  21.810  25.075  1.00  0.00    -0.460 OA
BRANCH   6   7
ATOM      7  C   UNL A   1      33.698  22.298  24.176  1.00  0.00     0.338 C 
ATOM      8  O   UNL A   1      32.934  21.647  23.481  1.00  0.00    -0.246 OA
BRANCH   7   9
ATOM      9  C   UNL A   1      33.672  23.771  24.267  1.00  0.00     0.087 C 
ATOM     10  C   UNL A   1      32.994  28.497  25.765  1.00  0.00     0.141 A 
ATOM     11  C   UNL A   1      33.681  27.931  24.684  1.00  0.00     0.095 A 
ATOM     12  C   UNL A   1      32.273  27.675  26.639  1.00  0.00     0.083 A 
ATOM     13  C   UNL A   1      33.712  26.539  24.539  1.00  0.00     0.131 A 
ATOM     14  C   UNL A   1      32.399  26.292  26.556  1.00  0.00     0.036 A 
ATOM     15  Cl  UNL A   1      31.220  28.309  27.851  1.00  0.00    -0.080 Cl
ATOM     16  C   UNL A   1      33.130  25.724  25.513  1.00  0.00     0.019 A 
ATOM     17  O   UNL A   1      34.348  26.025  23.440  1.00  0.00    -0.475 OA
ATOM     18  C   UNL A   1      33.263  24.283  25.433  1.00  0.00     0.027 C 
ATOM     19  C   UNL A   1      34.059  24.630  23.089  1.00  0.00     0.316 C 
BRANCH  10  20
ATOM     20  O   UNL A   1      32.975  29.858  25.931  1.00  0.00    -0.492 OA
BRANCH  20  21
ATOM     21  C   UNL A   1      33.223  30.278  27.293  1.00  0.00     0.233 C 
BRANCH  21  22
ATOM     22  C   UNL A   1      34.682  30.758  27.510  1.00  0.00     0.026 C 
BRANCH  22  23
ATOM     23  C   UNL A   1      34.734  31.990  28.444  1.00  0.00     0.003 C 
ATOM     24  C   UNL A   1      35.544  33.143  27.866  1.00  0.00     0.004 C 
ENDBRANCH  22  23
BRANCH  22  25
ATOM     25  C   UNL A   1      35.611  29.622  27.994  1.00  0.00     0.003 C 
ATOM     26  C   UNL A   1      37.082  29.778  27.643  1.00  0.00     0.004 C 
ENDBRANCH  22  25
ENDBRANCH  21  22
ENDBRANCH  20  21
ENDBRANCH  10  20
BRANCH  19  27
ATOM     27  C   UNL A   1      32.984  24.548  21.995  1.00  0.00     0.430 C 
ATOM     28  F   UNL A   1      31.748  24.383  22.520  1.00  0.00    -0.167 F 
ATOM     29  F   UNL A   1      32.956  25.675  21.247  1.00  0.00    -0.167 F 
ATOM     30  F   UNL A   1      33.207  23.512  21.150  1.00  0.00    -0.167 F 
ENDBRANCH  19  27
ENDBRANCH   7   9
ENDBRANCH   6   7
ENDBRANCH   5   6
ENDBRANCH   4   5
ENDBRANCH   3   4
ENDBRANCH   2   3
ENDBRANCH   1   2
BRANCH   1  31
ATOM     31  O   UNL A   1      40.561  24.377  27.995  1.00  0.00    -0.377 OA
BRANCH  31  32
ATOM     32  C   UNL A   1      41.865  23.863  28.269  1.00  0.00     0.188 C 
BRANCH  32  33
ATOM     33  C   UNL A   1      42.222  22.364  28.134  1.00  0.00     0.188 C 
BRANCH  33  34
ATOM     34  O   UNL A   1      43.191  22.072  27.132  1.00  0.00    -0.376 OA
BRANCH  34  35
ATOM     35  C   UNL A   1      42.691  21.887  25.815  1.00  0.00     0.202 C 
BRANCH  35  36
ATOM     36  C   UNL A   1      43.354  22.798  24.778  1.00  0.00     0.261 C 
BRANCH  36  37
ATOM     37  O   UNL A   1      43.666  24.120  25.242  1.00  0.00    -0.460 OA
BRANCH  37  38
ATOM     38  C   UNL A   1      44.944  24.547  25.119  1.00  0.00     0.338 C 
ATOM     39  O   UNL A   1      45.822  24.054  24.435  1.00  0.00    -0.246 OA
BRANCH  38  40
ATOM     40  C   UNL A   1      45.024  25.849  25.814  1.00  0.00     0.060 A 
ATOM     41  C   UNL A   1      44.912  27.036  25.084  1.00  0.00     0.016 A 
ATOM     42  C   UNL A   1      45.292  25.881  27.187  1.00  0.00     0.016 A 
ATOM     43  C   UNL A   1      45.055  28.261  25.735  1.00  0.00     0.010 A 
ATOM     44  C   UNL A   1      45.449  27.110  27.834  1.00  0.00     0.010 A 
ATOM     45  C   UNL A   1      45.316  28.307  27.114  1.00  0.00    -0.014 A 
BRANCH  45  46
ATOM     46  C   UNL A   1      45.255  29.605  27.826  1.00  0.00     0.031 A 
ATOM     47  C   UNL A   1      44.008  30.098  28.493  1.00  0.00     0.074 A 
ATOM     48  C   UNL A   1      46.376  30.350  27.848  1.00  0.00     0.049 A 
ATOM     49  N   UNL A   1      43.843  31.181  29.206  1.00  0.00    -0.248 NA
ATOM     50  C   UNL A   1      42.793  29.284  28.341  1.00  0.00     0.031 C 
ATOM     51  C   UNL A   1      47.637  29.984  27.197  1.00  0.00     0.029 A 
ATOM     52  N   UNL A   1      46.638  31.564  28.427  1.00  0.00    -0.354 N 
ATOM     53  C   UNL A   1      42.509  31.187  29.593  1.00  0.00     0.074 A 
ATOM     54  C   UNL A   1      41.904  30.002  29.020  1.00  0.00     0.031 C 
ATOM     55  C   UNL A   1      48.537  30.954  27.412  1.00  0.00     0.029 A 
ATOM     56  C   UNL A   1      47.918  32.010  28.207  1.00  0.00     0.049 A 
ATOM     57  H   UNL A   1      45.973  32.067  28.950  1.00  0.00     0.167 HD
ATOM     58  C   UNL A   1      41.863  32.089  30.369  1.00  0.00     0.034 A 
ATOM     59  C   UNL A   1      48.533  33.139  28.605  1.00  0.00     0.034 A 
ATOM     60  C   UNL A   1      42.476  33.261  30.943  1.00  0.00     0.049 A 
ATOM     61  C   UNL A   1      47.796  34.114  29.473  1.00  0.00     0.074 A 
ATOM     62  C   UNL A   1      41.905  34.199  31.787  1.00  0.00     0.029 A 
ATOM     63  N   UNL A   1      43.785  33.661  30.730  1.00  0.00    -0.354 N 
ATOM     64  N   UNL A   1      46.571  34.036  29.932  1.00  0.00    -0.248 NA
ATOM     65  C   UNL A   1      48.530  35.309  29.909  1.00  0.00     0.031 C 
ATOM     66  C   UNL A   1      42.866  35.173  32.074  1.00  0.00     0.029 A 
ATOM     67  C   UNL A   1      44.039  34.833  31.423  1.00  0.00     0.049 A 
ATOM     68  H   UNL A   1      44.438  33.184  30.169  1.00  0.00     0.167 HD
ATOM     69  C   UNL A   1      46.396  35.155  30.735  1.00  0.00     0.074 A 
ATOM     70  C   UNL A   1      47.644  35.893  30.705  1.00  0.00     0.031 C 
ATOM     71  C   UNL A   1      45.296  35.537  31.426  1.00  0.00     0.034 A 
BRANCH  58  72
ATOM     72  C   UNL A   1      40.421  31.833  30.714  1.00  0.00     0.023 A 
ATOM     73  C   UNL A   1      39.419  32.517  29.998  1.00  0.00     0.012 A 
ATOM     74  C   UNL A   1      40.058  30.826  31.629  1.00  0.00     0.148 A 
ATOM     75  C   UNL A   1      38.074  32.203  30.188  1.00  0.00     0.002 A 
ATOM     76  C   UNL A   1      38.715  30.501  31.793  1.00  0.00     0.091 A 
ATOM     77  F   UNL A   1      41.030  30.194  32.302  1.00  0.00    -0.205 F 
ATOM     78  C   UNL A   1      37.723  31.189  31.075  1.00  0.00     0.022 A 
BRANCH  76  79
ATOM     79  S   UNL A   1      38.159  29.171  32.866  1.00  0.00     0.127 S 
ATOM     80  O   UNL A   1      38.552  29.671  34.182  1.00  0.00    -0.237 OA
ATOM     81  O   UNL A   1      36.716  29.161  32.622  1.00  0.00    -0.237 OA
ATOM     82  O   UNL A   1      38.861  27.975  32.424  1.00  0.00    -0.744 OA
ENDBRANCH  76  79
ENDBRANCH  58  72
BRANCH  59  83
ATOM     83  C   UNL A   1      49.959  33.343  28.242  1.00  0.00     0.023 A 
ATOM     84  C   UNL A   1      50.961  32.914  29.132  1.00  0.00     0.012 A 
ATOM     85  C   UNL A   1      50.321  33.867  26.986  1.00  0.00     0.148 A 
ATOM     86  C   UNL A   1      52.306  33.009  28.780  1.00  0.00     0.002 A 
ATOM     87  C   UNL A   1      51.661  33.921  26.626  1.00  0.00     0.091 A 
ATOM     88  F   UNL A   1      49.343  34.263  26.160  1.00  0.00    -0.205 F 
ATOM     89  C   UNL A   1      52.656  33.502  27.524  1.00  0.00     0.022 A 
BRANCH  87  90
ATOM     90  S   UNL A   1      52.205  34.437  24.994  1.00  0.00     0.127 S 
ATOM     91  O   UNL A   1      51.784  35.836  24.967  1.00  0.00    -0.237 OA
ATOM     92  O   UNL A   1      53.651  34.229  25.083  1.00  0.00    -0.237 OA
ATOM     93  O   UNL A   1      51.523  33.560  24.052  1.00  0.00    -0.744 OA
ENDBRANCH  87  90
ENDBRANCH  59  83
BRANCH  71  94
ATOM     94  C   UNL A   1      45.375  36.801  32.237  1.00  0.00     0.023 A 
ATOM     95  C   UNL A   1      44.964  38.019  31.665  1.00  0.00     0.012 A 
ATOM     96  C   UNL A   1      45.749  36.760  33.595  1.00  0.00     0.148 A 
ATOM     97  C   UNL A   1      44.932  39.184  32.430  1.00  0.00     0.002 A 
ATOM     98  C   UNL A   1      45.683  37.918  34.361  1.00  0.00     0.091 A 
ATOM     99  F   UNL A   1      46.150  35.590  34.111  1.00  0.00    -0.205 F 
ATOM    100  C   UNL A   1      45.280  39.132  33.779  1.00  0.00     0.022 A 
BRANCH  98 101
ATOM    101  S   UNL A   1      46.041  37.937  36.121  1.00  0.00     0.127 S 
ATOM    102  O   UNL A   1      45.901  39.357  36.438  1.00  0.00    -0.237 OA
ATOM    103  O   UNL A   1      44.982  37.084  36.660  1.00  0.00    -0.237 OA
ATOM    104  O   UNL A   1      47.387  37.399  36.265  1.00  0.00    -0.744 OA
ENDBRANCH  98 101
ENDBRANCH  71  94
ENDBRANCH  45  46
ENDBRANCH  38  40
ENDBRANCH  37  38
ENDBRANCH  36  37
ENDBRANCH  35  36
ENDBRANCH  34  35
ENDBRANCH  33  34
ENDBRANCH  32  33
ENDBRANCH  31  32
ENDBRANCH   1  31
TORSDOF 29
ENDMDL
MODEL 2
REMARK VINA RESULT:      -7.7      4.220      9.672
REMARK SMILES CCC(CC)COc1cc2c(cc1Cl)C=C(C(=O)OCCOCCOCCOCCOC(=O)c1ccc(-c3c4nc(c(-c5cccc(S(=O)(=O)[O-])c5F)c5ccc([nH]5)c(-c5cccc(S(=O)(=O)[O-])c5F)c5nc(c(-c6cccc(S(=O)(=O)[O-])c6F)c6ccc3[nH]6)C=C5)C=C4)cc1)[C@@H](C(F)(F)F)O2
REMARK SMILES IDX 24 1 23 2 22 3 21 4 20 5 19 6 17 7 18 8 16 9 8 10 9 11 13 12
REMARK SMILES IDX 10 13 12 14 14 15 11 16 102 17 15 18 97 19 7 20 6 21 3 22
REMARK SMILES IDX 2 23 1 24 4 25 5 26 98 27 99 28 100 29 101 30 25 31 26 32
REMARK SMILES IDX 27 33 28 34 29 35 30 36 31 37 32 38 33 39 34 40 35 41 96 42
REMARK SMILES IDX 36 43 95 44 37 45 38 46 39 47 89 48 40 49 94 50 88 51 90 52
REMARK SMILES IDX 41 53 93 54 87 55 86 56 42 58 74 59 54 60 73 61 55 62 58 63
REMARK SMILES IDX 72 64 91 65 56 66 57 67 71 69 92 70 59 71 43 72 44 73 52 74
REMARK SMILES IDX 45 75 47 76 53 77 46 78 48 79 49 80 50 81 51 82 75 83 76 84
REMARK SMILES IDX 84 85 77 86 79 87 85 88 78 89 80 90 81 91 82 92 83 93 60 94
REMARK SMILES IDX 61 95 69 96 62 97 64 98 70 99 63 100 65 101 66 102 67 103
REMARK SMILES IDX 68 104
REMARK H PARENT 90 57 58 68
REMARK Flexibility Score: inf
ROOT
ATOM      1  C   UNL A   1      40.690  28.684  32.465  1.00  0.00     0.188 C 
ENDROOT
BRANCH   1   2
ATOM      2  C   UNL A   1      42.142  28.648  31.959  1.00  0.00     0.188 C 
BRANCH   2   3
ATOM      3  O   UNL A   1      42.362  27.724  30.900  1.00  0.00    -0.376 OA
BRANCH   3   4
ATOM      4  C   UNL A   1      43.708  27.328  30.659  1.00  0.00     0.202 C 
BRANCH   4   5
ATOM      5  C   UNL A   1      43.908  26.270  29.561  1.00  0.00     0.261 C 
BRANCH   5   6
ATOM      6  O   UNL A   1      43.059  25.117  29.685  1.00  0.00    -0.460 OA
BRANCH   6   7
ATOM      7  C   UNL A   1      43.100  24.238  28.668  1.00  0.00     0.338 C 
ATOM      8  O   UNL A   1      44.025  23.490  28.394  1.00  0.00    -0.246 OA
BRANCH   7   9
ATOM      9  C   UNL A   1      41.778  24.182  28.014  1.00  0.00     0.087 C 
ATOM     10  C   UNL A   1      37.578  22.671  25.753  1.00  0.00     0.141 A 
ATOM     11  C   UNL A   1      37.983  23.901  26.284  1.00  0.00     0.095 A 
ATOM     12  C   UNL A   1      38.464  21.587  25.754  1.00  0.00     0.083 A 
ATOM     13  C   UNL A   1      39.239  24.012  26.890  1.00  0.00     0.131 A 
ATOM     14  C   UNL A   1      39.664  21.670  26.456  1.00  0.00     0.036 A 
ATOM     15  Cl  UNL A   1      38.128  20.113  24.920  1.00  0.00    -0.080 Cl
ATOM     16  C   UNL A   1      40.045  22.880  27.035  1.00  0.00     0.019 A 
ATOM     17  O   UNL A   1      39.622  25.245  27.349  1.00  0.00    -0.475 OA
ATOM     18  C   UNL A   1      41.292  22.960  27.768  1.00  0.00     0.027 C 
ATOM     19  C   UNL A   1      41.049  25.444  27.627  1.00  0.00     0.316 C 
BRANCH  10  20
ATOM     20  O   UNL A   1      36.341  22.544  25.176  1.00  0.00    -0.492 OA
BRANCH  20  21
ATOM     21  C   UNL A   1      35.488  23.695  25.378  1.00  0.00     0.233 C 
BRANCH  21  22
ATOM     22  C   UNL A   1      34.140  23.575  24.618  1.00  0.00     0.026 C 
BRANCH  22  23
ATOM     23  C   UNL A   1      34.028  24.642  23.504  1.00  0.00     0.003 C 
ATOM     24  C   UNL A   1      33.058  25.764  23.847  1.00  0.00     0.004 C 
ENDBRANCH  22  23
BRANCH  22  25
ATOM     25  C   UNL A   1      33.888  22.147  24.084  1.00  0.00     0.003 C 
ATOM     26  C   UNL A   1      33.271  21.172  25.073  1.00  0.00     0.004 C 
ENDBRANCH  22  25
ENDBRANCH  21  22
ENDBRANCH  20  21
ENDBRANCH  10  20
BRANCH  19  27
ATOM     27  C   UNL A   1      41.752  26.122  26.442  1.00  0.00     0.430 C 
ATOM     28  F   UNL A   1      42.768  25.367  25.964  1.00  0.00    -0.167 F 
ATOM     29  F   UNL A   1      40.895  26.336  25.417  1.00  0.00    -0.167 F 
ATOM     30  F   UNL A   1      42.270  27.325  26.788  1.00  0.00    -0.167 F 
ENDBRANCH  19  27
ENDBRANCH   7   9
ENDBRANCH   6   7
ENDBRANCH   5   6
ENDBRANCH   4   5
ENDBRANCH   3   4
ENDBRANCH   2   3
ENDBRANCH   1   2
BRANCH   1  31
ATOM     31  O   UNL A   1      39.915  29.784  32.027  1.00  0.00    -0.377 OA
BRANCH  31  32
ATOM     32  C   UNL A   1      38.983  29.594  30.962  1.00  0.00     0.188 C 
BRANCH  32  33
ATOM     33  C   UNL A   1      37.451  29.604  31.174  1.00  0.00     0.188 C 
BRANCH  33  34
ATOM     34  O   UNL A   1      37.008  30.387  32.278  1.00  0.00    -0.376 OA
BRANCH  34  35
ATOM     35  C   UNL A   1      37.267  31.782  32.198  1.00  0.00     0.202 C 
BRANCH  35  36
ATOM     36  C   UNL A   1      36.461  32.489  31.105  1.00  0.00     0.261 C 
BRANCH  36  37
ATOM     37  O   UNL A   1      36.888  33.826  30.804  1.00  0.00    -0.460 OA
BRANCH  37  38
ATOM     38  C   UNL A   1      37.716  34.437  31.683  1.00  0.00     0.338 C 
ATOM     39  O   UNL A   1      37.485  34.701  32.849  1.00  0.00    -0.246 OA
BRANCH  38  40
ATOM     40  C   UNL A   1      39.033  34.544  31.022  1.00  0.00     0.060 A 
ATOM     41  C   UNL A   1      39.104  34.732  29.639  1.00  0.00     0.016 A 
ATOM     42  C   UNL A   1      40.198  34.375  31.779  1.00  0.00     0.016 A 
ATOM     43  C   UNL A   1      40.349  34.765  29.012  1.00  0.00     0.010 A 
ATOM     44  C   UNL A   1      41.444  34.394  31.146  1.00  0.00     0.010 A 
ATOM     45  C   UNL A   1      41.527  34.605  29.761  1.00  0.00    -0.014 A 
BRANCH  45  46
ATOM     46  C   UNL A   1      42.839  34.852  29.119  1.00  0.00     0.031 A 
ATOM     47  C   UNL A   1      43.313  36.227  28.761  1.00  0.00     0.074 A 
ATOM     48  C   UNL A   1      43.607  33.779  28.851  1.00  0.00     0.049 A 
ATOM     49  N   UNL A   1      44.467  36.584  28.261  1.00  0.00    -0.248 NA
ATOM     50  C   UNL A   1      42.381  37.342  28.986  1.00  0.00     0.031 C 
ATOM     51  C   UNL A   1      43.228  32.390  29.121  1.00  0.00     0.029 A 
ATOM     52  N   UNL A   1      44.853  33.683  28.290  1.00  0.00    -0.354 N 
ATOM     53  C   UNL A   1      44.409  37.963  28.108  1.00  0.00     0.074 A 
ATOM     54  C   UNL A   1      43.096  38.378  28.556  1.00  0.00     0.031 C 
ATOM     55  C   UNL A   1      44.220  31.581  28.723  1.00  0.00     0.029 A 
ATOM     56  C   UNL A   1      45.299  32.390  28.166  1.00  0.00     0.049 A 
ATOM     57  H   UNL A   1      45.378  34.465  28.003  1.00  0.00     0.167 HD
ATOM     58  C   UNL A   1      45.373  38.799  27.653  1.00  0.00     0.034 A 
ATOM     59  C   UNL A   1      46.450  31.904  27.667  1.00  0.00     0.034 A 
ATOM     60  C   UNL A   1      46.681  38.378  27.218  1.00  0.00     0.049 A 
ATOM     61  C   UNL A   1      47.504  32.854  27.182  1.00  0.00     0.074 A 
ATOM     62  C   UNL A   1      47.737  39.168  26.793  1.00  0.00     0.029 A 
ATOM     63  N   UNL A   1      47.111  37.063  27.142  1.00  0.00    -0.354 N 
ATOM     64  N   UNL A   1      47.477  34.164  27.164  1.00  0.00    -0.248 NA
ATOM     65  C   UNL A   1      48.756  32.268  26.685  1.00  0.00     0.031 C 
ATOM     66  C   UNL A   1      48.801  38.329  26.449  1.00  0.00     0.029 A 
ATOM     67  C   UNL A   1      48.414  37.019  26.675  1.00  0.00     0.049 A 
ATOM     68  H   UNL A   1      46.571  36.277  27.384  1.00  0.00     0.167 HD
ATOM     69  C   UNL A   1      48.717  34.561  26.682  1.00  0.00     0.074 A 
ATOM     70  C   UNL A   1      49.475  33.352  26.426  1.00  0.00     0.031 C 
ATOM     71  C   UNL A   1      49.179  35.816  26.466  1.00  0.00     0.034 A 
BRANCH  58  72
ATOM     72  C   UNL A   1      45.095  40.277  27.652  1.00  0.00     0.023 A 
ATOM     73  C   UNL A   1      45.210  40.991  28.861  1.00  0.00     0.012 A 
ATOM     74  C   UNL A   1      44.869  40.977  26.451  1.00  0.00     0.148 A 
ATOM     75  C   UNL A   1      45.101  42.381  28.877  1.00  0.00     0.002 A 
ATOM     76  C   UNL A   1      44.788  42.366  26.471  1.00  0.00     0.091 A 
ATOM     77  F   UNL A   1      44.757  40.275  25.314  1.00  0.00    -0.205 F 
ATOM     78  C   UNL A   1      44.903  43.068  27.682  1.00  0.00     0.022 A 
BRANCH  76  79
ATOM     79  S   UNL A   1      44.594  43.352  24.981  1.00  0.00     0.127 S 
ATOM     80  O   UNL A   1      43.193  43.102  24.645  1.00  0.00    -0.237 OA
ATOM     81  O   UNL A   1      44.873  44.703  25.467  1.00  0.00    -0.237 OA
ATOM     82  O   UNL A   1      45.561  42.834  24.024  1.00  0.00    -0.744 OA
ENDBRANCH  76  79
ENDBRANCH  58  72
BRANCH  59  83
ATOM     83  C   UNL A   1      46.680  30.436  27.694  1.00  0.00     0.023 A 
ATOM     84  C   UNL A   1      47.101  29.830  28.892  1.00  0.00     0.012 A 
ATOM     85  C   UNL A   1      46.389  29.635  26.574  1.00  0.00     0.148 A 
ATOM     86  C   UNL A   1      47.235  28.445  28.973  1.00  0.00     0.002 A 
ATOM     87  C   UNL A   1      46.486  28.254  26.673  1.00  0.00     0.091 A 
ATOM     88  F   UNL A   1      45.986  30.243  25.449  1.00  0.00    -0.205 F 
ATOM     89  C   UNL A   1      46.918  27.657  27.869  1.00  0.00     0.022 A 
BRANCH  87  90
ATOM     90  S   UNL A   1      45.998  27.149  25.344  1.00  0.00     0.127 S 
ATOM     91  O   UNL A   1      44.676  27.666  24.997  1.00  0.00    -0.237 OA
ATOM     92  O   UNL A   1      47.040  27.402  24.349  1.00  0.00    -0.237 OA
ATOM     93  O   UNL A   1      46.016  25.809  25.915  1.00  0.00    -0.744 OA
ENDBRANCH  87  90
ENDBRANCH  59  83
BRANCH  71  94
ATOM     94  C   UNL A   1      50.580  35.972  25.944  1.00  0.00     0.023 A 
ATOM     95  C   UNL A   1      50.794  36.112  24.560  1.00  0.00     0.012 A 
ATOM     96  C   UNL A   1      51.667  36.093  26.832  1.00  0.00     0.148 A 
ATOM     97  C   UNL A   1      52.073  36.360  24.064  1.00  0.00     0.002 A 
ATOM     98  C   UNL A   1      52.934  36.375  26.334  1.00  0.00     0.091 A 
ATOM     99  F   UNL A   1      51.438  35.943  28.145  1.00  0.00    -0.205 F 
ATOM    100  C   UNL A   1      53.139  36.504  24.950  1.00  0.00     0.022 A 
BRANCH  98 101
ATOM    101  S   UNL A   1      54.355  36.647  27.399  1.00  0.00     0.127 S 
ATOM    102  O   UNL A   1      54.502  35.342  28.040  1.00  0.00    -0.237 OA
ATOM    103  O   UNL A   1      55.405  36.975  26.434  1.00  0.00    -0.237 OA
ATOM    104  O   UNL A   1      53.988  37.739  28.291  1.00  0.00    -0.744 OA
ENDBRANCH  98 101
ENDBRANCH  71  94
ENDBRANCH  45  46
ENDBRANCH  38  40
ENDBRANCH  37  38
ENDBRANCH  36  37
ENDBRANCH  35  36
ENDBRANCH  34  35
ENDBRANCH  33  34
ENDBRANCH  32  33
ENDBRANCH  31  32
ENDBRANCH   1  31
TORSDOF 29
ENDMDL
MODEL 3
REMARK VINA RESULT:      -7.2      3.873      6.139
REMARK SMILES CCC(CC)COc1cc2c(cc1Cl)C=C(C(=O)OCCOCCOCCOCCOC(=O)c1ccc(-c3c4nc(c(-c5cccc(S(=O)(=O)[O-])c5F)c5ccc([nH]5)c(-c5cccc(S(=O)(=O)[O-])c5F)c5nc(c(-c6cccc(S(=O)(=O)[O-])c6F)c6ccc3[nH]6)C=C5)C=C4)cc1)[C@@H](C(F)(F)F)O2
REMARK SMILES IDX 24 1 23 2 22 3 21 4 20 5 19 6 17 7 18 8 16 9 8 10 9 11 13 12
REMARK SMILES IDX 10 13 12 14 14 15 11 16 102 17 15 18 97 19 7 20 6 21 3 22
REMARK SMILES IDX 2 23 1 24 4 25 5 26 98 27 99 28 100 29 101 30 25 31 26 32
REMARK SMILES IDX 27 33 28 34 29 35 30 36 31 37 32 38 33 39 34 40 35 41 96 42
REMARK SMILES IDX 36 43 95 44 37 45 38 46 39 47 89 48 40 49 94 50 88 51 90 52
REMARK SMILES IDX 41 53 93 54 87 55 86 56 42 58 74 59 54 60 73 61 55 62 58 63
REMARK SMILES IDX 72 64 91 65 56 66 57 67 71 69 92 70 59 71 43 72 44 73 52 74
REMARK SMILES IDX 45 75 47 76 53 77 46 78 48 79 49 80 50 81 51 82 75 83 76 84
REMARK SMILES IDX 84 85 77 86 79 87 85 88 78 89 80 90 81 91 82 92 83 93 60 94
REMARK SMILES IDX 61 95 69 96 62 97 64 98 70 99 63 100 65 101 66 102 67 103
REMARK SMILES IDX 68 104
REMARK H PARENT 90 57 58 68
REMARK Flexibility Score: inf
ROOT
ATOM      1  C   UNL A   1      40.022  24.422  26.510  1.00  0.00     0.188 C 
ENDROOT
BRANCH   1   2
ATOM      2  C   UNL A   1      38.501  24.262  26.342  1.00  0.00     0.188 C 
BRANCH   2   3
ATOM      3  O   UNL A   1      38.112  23.028  25.751  1.00  0.00    -0.376 OA
BRANCH   3   4
ATOM      4  C   UNL A   1      36.784  22.582  26.006  1.00  0.00     0.202 C 
BRANCH   4   5
ATOM      5  C   UNL A   1      35.965  22.177  24.769  1.00  0.00     0.261 C 
BRANCH   5   6
ATOM      6  O   UNL A   1      34.600  21.825  25.049  1.00  0.00    -0.460 OA
BRANCH   6   7
ATOM      7  C   UNL A   1      33.678  22.299  24.192  1.00  0.00     0.338 C 
ATOM      8  O   UNL A   1      32.879  21.638  23.548  1.00  0.00    -0.246 OA
BRANCH   7   9
ATOM      9  C   UNL A   1      33.652  23.773  24.266  1.00  0.00     0.087 C 
ATOM     10  C   UNL A   1      32.989  28.517  25.714  1.00  0.00     0.141 A 
ATOM     11  C   UNL A   1      33.664  27.938  24.633  1.00  0.00     0.095 A 
ATOM     12  C   UNL A   1      32.278  27.705  26.607  1.00  0.00     0.083 A 
ATOM     13  C   UNL A   1      33.694  26.545  24.504  1.00  0.00     0.131 A 
ATOM     14  C   UNL A   1      32.404  26.321  26.539  1.00  0.00     0.036 A 
ATOM     15  Cl  UNL A   1      31.239  28.353  27.823  1.00  0.00    -0.080 Cl
ATOM     16  C   UNL A   1      33.123  25.741  25.495  1.00  0.00     0.019 A 
ATOM     17  O   UNL A   1      34.317  26.017  23.404  1.00  0.00    -0.475 OA
ATOM     18  C   UNL A   1      33.256  24.299  25.431  1.00  0.00     0.027 C 
ATOM     19  C   UNL A   1      34.025  24.618  23.074  1.00  0.00     0.316 C 
BRANCH  10  20
ATOM     20  O   UNL A   1      32.971  29.879  25.864  1.00  0.00    -0.492 OA
BRANCH  20  21
ATOM     21  C   UNL A   1      33.346  30.321  27.190  1.00  0.00     0.233 C 
BRANCH  21  22
ATOM     22  C   UNL A   1      34.863  30.628  27.307  1.00  0.00     0.026 C 
BRANCH  22  23
ATOM     23  C   UNL A   1      35.106  32.082  27.773  1.00  0.00     0.003 C 
ATOM     24  C   UNL A   1      34.633  32.339  29.198  1.00  0.00     0.004 C 
ENDBRANCH  22  23
BRANCH  22  25
ATOM     25  C   UNL A   1      35.607  29.601  28.191  1.00  0.00     0.003 C 
ATOM     26  C   UNL A   1      37.122  29.596  28.064  1.00  0.00     0.004 C 
ENDBRANCH  22  25
ENDBRANCH  21  22
ENDBRANCH  20  21
ENDBRANCH  10  20
BRANCH  19  27
ATOM     27  C   UNL A   1      32.938  24.522  21.993  1.00  0.00     0.430 C 
ATOM     28  F   UNL A   1      32.904  25.631  21.219  1.00  0.00    -0.167 F 
ATOM     29  F   UNL A   1      33.151  23.467  21.173  1.00  0.00    -0.167 F 
ATOM     30  F   UNL A   1      31.705  24.368  22.533  1.00  0.00    -0.167 F 
ENDBRANCH  19  27
ENDBRANCH   7   9
ENDBRANCH   6   7
ENDBRANCH   5   6
ENDBRANCH   4   5
ENDBRANCH   3   4
ENDBRANCH   2   3
ENDBRANCH   1   2
BRANCH   1  31
ATOM     31  O   UNL A   1      40.466  24.730  27.817  1.00  0.00    -0.377 OA
BRANCH  31  32
ATOM     32  C   UNL A   1      41.715  24.204  28.267  1.00  0.00     0.188 C 
BRANCH  32  33
ATOM     33  C   UNL A   1      41.913  22.719  28.650  1.00  0.00     0.188 C 
BRANCH  33  34
ATOM     34  O   UNL A   1      42.863  22.020  27.853  1.00  0.00    -0.376 OA
BRANCH  34  35
ATOM     35  C   UNL A   1      42.446  21.684  26.537  1.00  0.00     0.202 C 
BRANCH  35  36
ATOM     36  C   UNL A   1      43.539  21.881  25.483  1.00  0.00     0.261 C 
BRANCH  36  37
ATOM     37  O   UNL A   1      44.486  22.920  25.776  1.00  0.00    -0.460 OA
BRANCH  37  38
ATOM     38  C   UNL A   1      45.798  22.588  25.804  1.00  0.00     0.338 C 
ATOM     39  O   UNL A   1      46.279  21.478  25.673  1.00  0.00    -0.246 OA
BRANCH  38  40
ATOM     40  C   UNL A   1      46.555  23.857  25.821  1.00  0.00     0.060 A 
ATOM     41  C   UNL A   1      46.867  24.497  24.619  1.00  0.00     0.016 A 
ATOM     42  C   UNL A   1      47.022  24.363  27.040  1.00  0.00     0.016 A 
ATOM     43  C   UNL A   1      47.639  25.659  24.637  1.00  0.00     0.010 A 
ATOM     44  C   UNL A   1      47.807  25.520  27.054  1.00  0.00     0.010 A 
ATOM     45  C   UNL A   1      48.107  26.182  25.854  1.00  0.00    -0.014 A 
BRANCH  45  46
ATOM     46  C   UNL A   1      48.741  27.521  25.877  1.00  0.00     0.031 A 
ATOM     47  C   UNL A   1      48.005  28.752  26.311  1.00  0.00     0.074 A 
ATOM     48  C   UNL A   1      50.024  27.604  25.477  1.00  0.00     0.049 A 
ATOM     49  N   UNL A   1      48.464  29.969  26.443  1.00  0.00    -0.248 NA
ATOM     50  C   UNL A   1      46.578  28.606  26.635  1.00  0.00     0.031 C 
ATOM     51  C   UNL A   1      50.824  26.476  24.996  1.00  0.00     0.029 A 
ATOM     52  N   UNL A   1      50.875  28.675  25.403  1.00  0.00    -0.354 N 
ATOM     53  C   UNL A   1      47.390  30.741  26.864  1.00  0.00     0.074 A 
ATOM     54  C   UNL A   1      46.248  29.855  26.952  1.00  0.00     0.031 C 
ATOM     55  C   UNL A   1      52.049  26.915  24.675  1.00  0.00     0.029 A 
ATOM     56  C   UNL A   1      52.119  28.352  24.921  1.00  0.00     0.049 A 
ATOM     57  H   UNL A   1      50.619  29.587  25.670  1.00  0.00     0.167 HD
ATOM     58  C   UNL A   1      47.371  32.061  27.166  1.00  0.00     0.034 A 
ATOM     59  C   UNL A   1      53.202  29.121  24.704  1.00  0.00     0.034 A 
ATOM     60  C   UNL A   1      48.516  32.934  27.085  1.00  0.00     0.049 A 
ATOM     61  C   UNL A   1      53.156  30.576  25.059  1.00  0.00     0.074 A 
ATOM     62  C   UNL A   1      48.596  34.274  27.425  1.00  0.00     0.029 A 
ATOM     63  N   UNL A   1      49.770  32.563  26.628  1.00  0.00    -0.354 N 
ATOM     64  N   UNL A   1      52.165  31.261  25.576  1.00  0.00    -0.248 NA
ATOM     65  C   UNL A   1      54.380  31.358  24.837  1.00  0.00     0.031 C 
ATOM     66  C   UNL A   1      49.896  34.717  27.162  1.00  0.00     0.029 A 
ATOM     67  C   UNL A   1      50.629  33.649  26.674  1.00  0.00     0.049 A 
ATOM     68  H   UNL A   1      50.015  31.663  26.317  1.00  0.00     0.167 HD
ATOM     69  C   UNL A   1      52.654  32.546  25.770  1.00  0.00     0.074 A 
ATOM     70  C   UNL A   1      54.032  32.544  25.321  1.00  0.00     0.031 C 
ATOM     71  C   UNL A   1      52.011  33.629  26.269  1.00  0.00     0.034 A 
BRANCH  58  72
ATOM     72  C   UNL A   1      46.091  32.660  27.679  1.00  0.00     0.023 A 
ATOM     73  C   UNL A   1      45.198  33.247  26.761  1.00  0.00     0.012 A 
ATOM     74  C   UNL A   1      45.706  32.514  29.027  1.00  0.00     0.148 A 
ATOM     75  C   UNL A   1      43.940  33.683  27.176  1.00  0.00     0.002 A 
ATOM     76  C   UNL A   1      44.439  32.927  29.427  1.00  0.00     0.091 A 
ATOM     77  F   UNL A   1      46.575  31.958  29.882  1.00  0.00    -0.205 F 
ATOM     78  C   UNL A   1      43.557  33.513  28.503  1.00  0.00     0.022 A 
BRANCH  76  79
ATOM     79  S   UNL A   1      43.823  32.700  31.100  1.00  0.00     0.127 S 
ATOM     80  O   UNL A   1      45.063  32.729  31.875  1.00  0.00    -0.237 OA
ATOM     81  O   UNL A   1      42.967  33.873  31.274  1.00  0.00    -0.237 OA
ATOM     82  O   UNL A   1      43.122  31.425  31.102  1.00  0.00    -0.744 OA
ENDBRANCH  76  79
ENDBRANCH  58  72
BRANCH  59  83
ATOM     83  C   UNL A   1      54.445  28.482  24.200  1.00  0.00     0.023 A 
ATOM     84  C   UNL A   1      55.402  28.021  25.123  1.00  0.00     0.012 A 
ATOM     85  C   UNL A   1      54.633  28.243  22.825  1.00  0.00     0.148 A 
ATOM     86  C   UNL A   1      56.534  27.336  24.684  1.00  0.00     0.002 A 
ATOM     87  C   UNL A   1      55.742  27.526  22.398  1.00  0.00     0.091 A 
ATOM     88  F   UNL A   1      53.701  28.692  21.972  1.00  0.00    -0.205 F 
ATOM     89  C   UNL A   1      56.699  27.079  23.324  1.00  0.00     0.022 A 
BRANCH  87  90
ATOM     90  S   UNL A   1      55.988  27.051  20.684  1.00  0.00     0.127 S 
ATOM     91  O   UNL A   1      54.759  26.315  20.398  1.00  0.00    -0.237 OA
ATOM     92  O   UNL A   1      56.095  28.354  20.027  1.00  0.00    -0.237 OA
ATOM     93  O   UNL A   1      57.211  26.259  20.663  1.00  0.00    -0.744 OA
ENDBRANCH  87  90
ENDBRANCH  59  83
BRANCH  71  94
ATOM     94  C   UNL A   1      52.782  34.914  26.387  1.00  0.00     0.023 A 
ATOM     95  C   UNL A   1      52.734  35.851  25.337  1.00  0.00     0.012 A 
ATOM     96  C   UNL A   1      53.459  35.239  27.579  1.00  0.00     0.148 A 
ATOM     97  C   UNL A   1      53.356  37.092  25.469  1.00  0.00     0.002 A 
ATOM     98  C   UNL A   1      54.049  36.490  27.716  1.00  0.00     0.091 A 
ATOM     99  F   UNL A   1      53.502  34.323  28.557  1.00  0.00    -0.205 F 
ATOM    100  C   UNL A   1      54.003  37.415  26.660  1.00  0.00     0.022 A 
BRANCH  98 101
ATOM    101  S   UNL A   1      54.842  37.026  29.237  1.00  0.00     0.127 S 
ATOM    102  O   UNL A   1      55.282  38.375  28.884  1.00  0.00    -0.237 OA
ATOM    103  O   UNL A   1      53.737  36.975  30.195  1.00  0.00    -0.237 OA
ATOM    104  O   UNL A   1      55.912  36.071  29.492  1.00  0.00    -0.744 OA
ENDBRANCH  98 101
ENDBRANCH  71  94
ENDBRANCH  45  46
ENDBRANCH  38  40
ENDBRANCH  37  38
ENDBRANCH  36  37
ENDBRANCH  35  36
ENDBRANCH  34  35
ENDBRANCH  33  34
ENDBRANCH  32  33
ENDBRANCH  31  32
ENDBRANCH   1  31
TORSDOF 29
ENDMDL
