MODEL 1
REMARK VINA RESULT:      -8.7      0.000      0.000
REMARK SMILES O=C(OCCOCCOCCOCCOC(=O)c1ccc(-c2c3nc(c(-c4cccc(S(=O)(=O)[O-])c4F)c4ccc([nH]4)c(-c4cccc(S(=O)(=O)[O-])c4F)c4nc(c(-c5cccc(S(=O)(=O)[O-])c5F)c5ccc2[nH]5)C=C4)C=C3)cc1)c1ccc(/C=C/c2ccnc(-c3cccc([N+](=O)[O-])c3)[n+]2[O-])cc1
REMARK SMILES IDX 8 1 7 2 6 3 5 4 4 5 3 6 2 7 1 8 81 9 82 10 104 11 83 12
REMARK SMILES IDX 103 13 84 14 85 15 86 16 87 17 88 18 101 19 89 20 91 21
REMARK SMILES IDX 102 22 90 23 92 24 93 25 100 26 94 27 96 28 95 29 97 30
REMARK SMILES IDX 98 31 99 32 9 33 10 34 11 35 12 36 13 37 14 38 15 39 16 40
REMARK SMILES IDX 17 41 18 42 19 43 80 44 20 45 79 46 21 47 22 48 23 49 73 50
REMARK SMILES IDX 24 51 78 52 72 53 74 54 25 55 77 56 71 57 70 58 26 60 58 61
REMARK SMILES IDX 38 62 57 63 39 64 42 65 56 66 75 67 40 68 41 69 55 71 76 72
REMARK SMILES IDX 43 73 27 74 28 75 36 76 29 77 31 78 37 79 30 80 32 81 33 82
REMARK SMILES IDX 34 83 35 84 59 85 60 86 68 87 61 88 63 89 69 90 62 91 64 92
REMARK SMILES IDX 65 93 66 94 67 95 44 96 45 97 53 98 46 99 48 100 54 101
REMARK SMILES IDX 47 102 49 103 50 104 51 105 52 106
REMARK H PARENT 74 59 42 70
REMARK Flexibility Score: inf
ROOT
ATOM      1  C   UNL A   1      39.309  32.780  31.373  1.00  0.00     0.188 C 
ENDROOT
BRANCH   1   2
ATOM      2  C   UNL A   1      39.372  33.738  32.567  1.00  0.00     0.188 C 
BRANCH   2   3
ATOM      3  O   UNL A   1      38.222  34.576  32.573  1.00  0.00    -0.376 OA
BRANCH   3   4
ATOM      4  C   UNL A   1      37.274  34.441  33.619  1.00  0.00     0.202 C 
BRANCH   4   5
ATOM      5  C   UNL A   1      35.835  34.154  33.206  1.00  0.00     0.261 C 
BRANCH   5   6
ATOM      6  O   UNL A   1      35.279  35.069  32.247  1.00  0.00    -0.460 OA
BRANCH   6   7
ATOM      7  C   UNL A   1      34.308  34.867  31.330  1.00  0.00     0.338 C 
ATOM      8  O   UNL A   1      33.297  35.566  31.351  1.00  0.00    -0.246 OA
BRANCH   7   9
ATOM      9  C   UNL A   1      34.411  33.853  30.253  1.00  0.00     0.060 A 
ATOM     10  C   UNL A   1      35.016  32.612  30.409  1.00  0.00     0.016 A 
ATOM     11  C   UNL A   1      33.679  34.080  29.084  1.00  0.00     0.016 A 
ATOM     12  C   UNL A   1      35.005  31.658  29.401  1.00  0.00     0.009 A 
ATOM     13  C   UNL A   1      33.626  33.106  28.080  1.00  0.00     0.009 A 
ATOM     14  C   UNL A   1      34.313  31.892  28.220  1.00  0.00    -0.025 A 
BRANCH  14  15
ATOM     15  C   UNL A   1      34.298  30.915  27.130  1.00  0.00     0.012 C 
ATOM     16  C   UNL A   1      33.216  30.230  26.725  1.00  0.00     0.053 C 
BRANCH  16  17
ATOM     17  C   UNL A   1      33.303  29.134  25.756  1.00  0.00     0.134 A 
ATOM     18  C   UNL A   1      33.466  29.419  24.402  1.00  0.00     0.100 A 
ATOM     19  N   UNL A   1      33.166  27.810  26.192  1.00  0.00    -0.228 N 
ATOM     20  C   UNL A   1      33.550  28.356  23.531  1.00  0.00     0.259 A 
ATOM     21  C   UNL A   1      33.242  26.801  25.237  1.00  0.00     0.333 A 
ATOM     22  O   UNL A   1      32.964  27.528  27.429  1.00  0.00    -0.710 OA
ATOM     23  N   UNL A   1      33.459  27.068  23.915  1.00  0.00    -0.049 NA
BRANCH  21  24
ATOM     24  C   UNL A   1      33.054  25.416  25.659  1.00  0.00     0.076 A 
ATOM     25  C   UNL A   1      34.153  24.572  25.881  1.00  0.00     0.017 A 
ATOM     26  C   UNL A   1      31.762  24.933  25.934  1.00  0.00     0.102 A 
ATOM     27  C   UNL A   1      33.972  23.285  26.395  1.00  0.00     0.008 A 
ATOM     28  C   UNL A   1      31.584  23.645  26.448  1.00  0.00     0.270 A 
ATOM     29  C   UNL A   1      32.689  22.817  26.683  1.00  0.00     0.085 A 
BRANCH  28  30
ATOM     30  N   UNL A   1      30.230  23.168  26.751  1.00  0.00     0.062 N 
ATOM     31  O   UNL A   1      29.926  22.027  26.374  1.00  0.00    -0.258 OA
ATOM     32  O   UNL A   1      29.463  23.939  27.345  1.00  0.00    -0.258 OA
ENDBRANCH  28  30
ENDBRANCH  21  24
ENDBRANCH  16  17
ENDBRANCH  14  15
ENDBRANCH   7   9
ENDBRANCH   6   7
ENDBRANCH   5   6
ENDBRANCH   4   5
ENDBRANCH   3   4
ENDBRANCH   2   3
ENDBRANCH   1   2
BRANCH   1  33
ATOM     33  O   UNL A   1      38.314  31.759  31.454  1.00  0.00    -0.377 OA
BRANCH  33  34
ATOM     34  C   UNL A   1      38.764  30.422  31.245  1.00  0.00     0.188 C 
BRANCH  34  35
ATOM     35  C   UNL A   1      37.931  29.519  30.304  1.00  0.00     0.188 C 
BRANCH  35  36
ATOM     36  O   UNL A   1      38.328  29.580  28.942  1.00  0.00    -0.376 OA
BRANCH  36  37
ATOM     37  C   UNL A   1      38.992  28.440  28.412  1.00  0.00     0.202 C 
BRANCH  37  38
ATOM     38  C   UNL A   1      40.048  28.595  27.296  1.00  0.00     0.261 C 
BRANCH  38  39
ATOM     39  O   UNL A   1      40.971  27.515  27.111  1.00  0.00    -0.460 OA
BRANCH  39  40
ATOM     40  C   UNL A   1      40.711  26.336  27.731  1.00  0.00     0.338 C 
ATOM     41  O   UNL A   1      39.804  25.580  27.494  1.00  0.00    -0.246 OA
BRANCH  40  42
ATOM     42  C   UNL A   1      41.904  26.013  28.568  1.00  0.00     0.060 A 
ATOM     43  C   UNL A   1      42.406  27.022  29.405  1.00  0.00     0.016 A 
ATOM     44  C   UNL A   1      42.441  24.722  28.633  1.00  0.00     0.016 A 
ATOM     45  C   UNL A   1      43.457  26.749  30.284  1.00  0.00     0.010 A 
ATOM     46  C   UNL A   1      43.512  24.456  29.498  1.00  0.00     0.010 A 
ATOM     47  C   UNL A   1      44.049  25.479  30.300  1.00  0.00    -0.014 A 
BRANCH  47  48
ATOM     48  C   UNL A   1      45.377  25.318  30.944  1.00  0.00     0.031 A 
ATOM     49  C   UNL A   1      46.590  25.684  30.127  1.00  0.00     0.074 A 
ATOM     50  C   UNL A   1      45.522  24.916  32.220  1.00  0.00     0.049 A 
ATOM     51  N   UNL A   1      47.853  25.679  30.461  1.00  0.00    -0.248 NA
ATOM     52  C   UNL A   1      46.336  26.123  28.743  1.00  0.00     0.031 C 
ATOM     53  C   UNL A   1      44.438  24.533  33.121  1.00  0.00     0.029 A 
ATOM     54  N   UNL A   1      46.660  24.746  32.973  1.00  0.00    -0.354 N 
ATOM     55  C   UNL A   1      48.542  26.104  29.332  1.00  0.00     0.074 A 
ATOM     56  C   UNL A   1      47.563  26.329  28.293  1.00  0.00     0.031 C 
ATOM     57  C   UNL A   1      44.965  24.148  34.299  1.00  0.00     0.029 A 
ATOM     58  C   UNL A   1      46.423  24.240  34.231  1.00  0.00     0.049 A 
ATOM     59  H   UNL A   1      47.562  24.967  32.643  1.00  0.00     0.167 HD
ATOM     60  C   UNL A   1      49.869  26.315  29.174  1.00  0.00     0.034 A 
ATOM     61  C   UNL A   1      47.288  23.880  35.203  1.00  0.00     0.034 A 
ATOM     62  C   UNL A   1      50.847  26.088  30.199  1.00  0.00     0.049 A 
ATOM     63  C   UNL A   1      48.769  24.080  34.987  1.00  0.00     0.074 A 
ATOM     64  C   UNL A   1      52.216  26.281  30.140  1.00  0.00     0.029 A 
ATOM     65  N   UNL A   1      50.565  25.604  31.466  1.00  0.00    -0.354 N 
ATOM     66  N   UNL A   1      49.396  24.588  33.952  1.00  0.00    -0.248 NA
ATOM     67  C   UNL A   1      49.662  23.694  36.092  1.00  0.00     0.031 C 
ATOM     68  C   UNL A   1      52.765  25.887  31.364  1.00  0.00     0.029 A 
ATOM     69  C   UNL A   1      51.734  25.487  32.198  1.00  0.00     0.049 A 
ATOM     70  H   UNL A   1      49.666  25.377  31.797  1.00  0.00     0.167 HD
ATOM     71  C   UNL A   1      50.744  24.619  34.297  1.00  0.00     0.074 A 
ATOM     72  C   UNL A   1      50.842  24.102  35.645  1.00  0.00     0.031 C 
ATOM     73  C   UNL A   1      51.809  25.024  33.560  1.00  0.00     0.034 A 
BRANCH  60  74
ATOM     74  C   UNL A   1      50.331  26.845  27.843  1.00  0.00     0.023 A 
ATOM     75  C   UNL A   1      50.467  25.961  26.751  1.00  0.00     0.012 A 
ATOM     76  C   UNL A   1      50.594  28.216  27.660  1.00  0.00     0.148 A 
ATOM     77  C   UNL A   1      50.887  26.429  25.508  1.00  0.00     0.002 A 
ATOM     78  C   UNL A   1      50.966  28.681  26.405  1.00  0.00     0.091 A 
ATOM     79  F   UNL A   1      50.483  29.034  28.716  1.00  0.00    -0.205 F 
ATOM     80  C   UNL A   1      51.125  27.788  25.332  1.00  0.00     0.022 A 
BRANCH  78  81
ATOM     81  S   UNL A   1      51.221  30.423  26.054  1.00  0.00     0.127 S 
ATOM     82  O   UNL A   1      52.371  30.730  26.906  1.00  0.00    -0.237 OA
ATOM     83  O   UNL A   1      51.512  30.406  24.621  1.00  0.00    -0.237 OA
ATOM     84  O   UNL A   1      49.982  31.095  26.418  1.00  0.00    -0.744 OA
ENDBRANCH  78  81
ENDBRANCH  60  74
BRANCH  61  85
ATOM     85  C   UNL A   1      46.787  23.299  36.484  1.00  0.00     0.023 A 
ATOM     86  C   UNL A   1      46.207  24.136  37.460  1.00  0.00     0.012 A 
ATOM     87  C   UNL A   1      46.911  21.923  36.752  1.00  0.00     0.148 A 
ATOM     88  C   UNL A   1      45.802  23.620  38.693  1.00  0.00     0.002 A 
ATOM     89  C   UNL A   1      46.450  21.405  37.958  1.00  0.00     0.091 A 
ATOM     90  F   UNL A   1      47.484  21.144  35.824  1.00  0.00    -0.205 F 
ATOM     91  C   UNL A   1      45.915  22.256  38.938  1.00  0.00     0.022 A 
BRANCH  89  92
ATOM     92  S   UNL A   1      46.440  19.644  38.307  1.00  0.00     0.127 S 
ATOM     93  O   UNL A   1      45.881  19.609  39.655  1.00  0.00    -0.237 OA
ATOM     94  O   UNL A   1      45.555  19.136  37.258  1.00  0.00    -0.237 OA
ATOM     95  O   UNL A   1      47.826  19.212  38.183  1.00  0.00    -0.744 OA
ENDBRANCH  89  92
ENDBRANCH  61  85
BRANCH  73  96
ATOM     96  C   UNL A   1      53.170  24.980  34.208  1.00  0.00     0.023 A 
ATOM     97  C   UNL A   1      53.930  23.794  34.178  1.00  0.00     0.012 A 
ATOM     98  C   UNL A   1      53.722  26.138  34.792  1.00  0.00     0.148 A 
ATOM     99  C   UNL A   1      55.197  23.748  34.758  1.00  0.00     0.002 A 
ATOM    100  C   UNL A   1      55.008  26.099  35.320  1.00  0.00     0.091 A 
ATOM    101  F   UNL A   1      52.981  27.255  34.824  1.00  0.00    -0.205 F 
ATOM    102  C   UNL A   1      55.740  24.902  35.318  1.00  0.00     0.022 A 
BRANCH 100 103
ATOM    103  S   UNL A   1      55.825  27.560  35.972  1.00  0.00     0.127 S 
ATOM    104  O   UNL A   1      54.999  27.868  37.138  1.00  0.00    -0.237 OA
ATOM    105  O   UNL A   1      57.162  27.054  36.287  1.00  0.00    -0.237 OA
ATOM    106  O   UNL A   1      55.792  28.550  34.903  1.00  0.00    -0.744 OA
ENDBRANCH 100 103
ENDBRANCH  73  96
ENDBRANCH  47  48
ENDBRANCH  40  42
ENDBRANCH  39  40
ENDBRANCH  38  39
ENDBRANCH  37  38
ENDBRANCH  36  37
ENDBRANCH  35  36
ENDBRANCH  34  35
ENDBRANCH  33  34
ENDBRANCH   1  33
TORSDOF 27
ENDMDL
MODEL 2
REMARK VINA RESULT:      -8.4      7.013     11.258
REMARK SMILES O=C(OCCOCCOCCOCCOC(=O)c1ccc(-c2c3nc(c(-c4cccc(S(=O)(=O)[O-])c4F)c4ccc([nH]4)c(-c4cccc(S(=O)(=O)[O-])c4F)c4nc(c(-c5cccc(S(=O)(=O)[O-])c5F)c5ccc2[nH]5)C=C4)C=C3)cc1)c1ccc(/C=C/c2ccnc(-c3cccc([N+](=O)[O-])c3)[n+]2[O-])cc1
REMARK SMILES IDX 8 1 7 2 6 3 5 4 4 5 3 6 2 7 1 8 81 9 82 10 104 11 83 12
REMARK SMILES IDX 103 13 84 14 85 15 86 16 87 17 88 18 101 19 89 20 91 21
REMARK SMILES IDX 102 22 90 23 92 24 93 25 100 26 94 27 96 28 95 29 97 30
REMARK SMILES IDX 98 31 99 32 9 33 10 34 11 35 12 36 13 37 14 38 15 39 16 40
REMARK SMILES IDX 17 41 18 42 19 43 80 44 20 45 79 46 21 47 22 48 23 49 73 50
REMARK SMILES IDX 24 51 78 52 72 53 74 54 25 55 77 56 71 57 70 58 26 60 58 61
REMARK SMILES IDX 38 62 57 63 39 64 42 65 56 66 75 67 40 68 41 69 55 71 76 72
REMARK SMILES IDX 43 73 27 74 28 75 36 76 29 77 31 78 37 79 30 80 32 81 33 82
REMARK SMILES IDX 34 83 35 84 59 85 60 86 68 87 61 88 63 89 69 90 62 91 64 92
REMARK SMILES IDX 65 93 66 94 67 95 44 96 45 97 53 98 46 99 48 100 54 101
REMARK SMILES IDX 47 102 49 103 50 104 51 105 52 106
REMARK H PARENT 74 59 42 70
REMARK Flexibility Score: inf
ROOT
ATOM      1  C   UNL A   1      43.249  24.193  28.806  1.00  0.00     0.188 C 
ENDROOT
BRANCH   1   2
ATOM      2  C   UNL A   1      42.077  23.406  28.211  1.00  0.00     0.188 C 
BRANCH   2   3
ATOM      3  O   UNL A   1      40.851  24.058  28.524  1.00  0.00    -0.376 OA
BRANCH   3   4
ATOM      4  C   UNL A   1      40.105  24.664  27.481  1.00  0.00     0.202 C 
BRANCH   4   5
ATOM      5  C   UNL A   1      40.079  26.188  27.453  1.00  0.00     0.261 C 
BRANCH   5   6
ATOM      6  O   UNL A   1      39.705  26.817  28.691  1.00  0.00    -0.460 OA
BRANCH   6   7
ATOM      7  C   UNL A   1      39.026  27.966  28.898  1.00  0.00     0.338 C 
ATOM      8  O   UNL A   1      38.306  28.416  28.009  1.00  0.00    -0.246 OA
BRANCH   7   9
ATOM      9  C   UNL A   1      39.070  28.711  30.179  1.00  0.00     0.060 A 
ATOM     10  C   UNL A   1      39.111  28.106  31.429  1.00  0.00     0.016 A 
ATOM     11  C   UNL A   1      39.290  30.090  30.114  1.00  0.00     0.016 A 
ATOM     12  C   UNL A   1      39.247  28.843  32.598  1.00  0.00     0.009 A 
ATOM     13  C   UNL A   1      39.473  30.835  31.285  1.00  0.00     0.009 A 
ATOM     14  C   UNL A   1      39.426  30.219  32.543  1.00  0.00    -0.025 A 
BRANCH  14  15
ATOM     15  C   UNL A   1      39.553  31.027  33.757  1.00  0.00     0.012 C 
ATOM     16  C   UNL A   1      38.555  31.284  34.619  1.00  0.00     0.053 C 
BRANCH  16  17
ATOM     17  C   UNL A   1      38.697  32.248  35.713  1.00  0.00     0.134 A 
ATOM     18  C   UNL A   1      39.354  33.457  35.489  1.00  0.00     0.100 A 
ATOM     19  N   UNL A   1      38.221  31.925  36.989  1.00  0.00    -0.228 N 
ATOM     20  C   UNL A   1      39.456  34.333  36.546  1.00  0.00     0.259 A 
ATOM     21  C   UNL A   1      38.388  32.864  38.002  1.00  0.00     0.333 A 
ATOM     22  O   UNL A   1      37.657  30.795  37.230  1.00  0.00    -0.710 OA
ATOM     23  N   UNL A   1      38.979  34.076  37.779  1.00  0.00    -0.049 NA
BRANCH  21  24
ATOM     24  C   UNL A   1      37.943  32.532  39.353  1.00  0.00     0.076 A 
ATOM     25  C   UNL A   1      38.866  32.245  40.369  1.00  0.00     0.017 A 
ATOM     26  C   UNL A   1      36.574  32.582  39.675  1.00  0.00     0.102 A 
ATOM     27  C   UNL A   1      38.440  32.042  41.685  1.00  0.00     0.008 A 
ATOM     28  C   UNL A   1      36.150  32.377  40.991  1.00  0.00     0.270 A 
ATOM     29  C   UNL A   1      37.082  32.109  42.001  1.00  0.00     0.085 A 
BRANCH  28  30
ATOM     30  N   UNL A   1      34.721  32.458  41.311  1.00  0.00     0.062 N 
ATOM     31  O   UNL A   1      34.323  31.852  42.317  1.00  0.00    -0.258 OA
ATOM     32  O   UNL A   1      33.991  33.105  40.547  1.00  0.00    -0.258 OA
ENDBRANCH  28  30
ENDBRANCH  21  24
ENDBRANCH  16  17
ENDBRANCH  14  15
ENDBRANCH   7   9
ENDBRANCH   6   7
ENDBRANCH   5   6
ENDBRANCH   4   5
ENDBRANCH   3   4
ENDBRANCH   2   3
ENDBRANCH   1   2
BRANCH   1  33
ATOM     33  O   UNL A   1      44.472  23.466  28.943  1.00  0.00    -0.377 OA
BRANCH  33  34
ATOM     34  C   UNL A   1      45.560  23.905  28.133  1.00  0.00     0.188 C 
BRANCH  34  35
ATOM     35  C   UNL A   1      45.772  23.206  26.769  1.00  0.00     0.188 C 
BRANCH  35  36
ATOM     36  O   UNL A   1      45.722  24.084  25.654  1.00  0.00    -0.376 OA
BRANCH  36  37
ATOM     37  C   UNL A   1      44.556  24.031  24.843  1.00  0.00     0.202 C 
BRANCH  37  38
ATOM     38  C   UNL A   1      43.386  25.008  25.083  1.00  0.00     0.261 C 
BRANCH  38  39
ATOM     39  O   UNL A   1      43.675  26.216  25.799  1.00  0.00    -0.460 OA
BRANCH  39  40
ATOM     40  C   UNL A   1      43.194  27.385  25.305  1.00  0.00     0.338 C 
ATOM     41  O   UNL A   1      42.662  27.552  24.237  1.00  0.00    -0.246 OA
BRANCH  40  42
ATOM     42  C   UNL A   1      43.195  28.364  26.431  1.00  0.00     0.060 A 
ATOM     43  C   UNL A   1      44.428  28.681  27.020  1.00  0.00     0.016 A 
ATOM     44  C   UNL A   1      42.040  29.056  26.816  1.00  0.00     0.016 A 
ATOM     45  C   UNL A   1      44.504  29.664  28.009  1.00  0.00     0.010 A 
ATOM     46  C   UNL A   1      42.113  30.025  27.827  1.00  0.00     0.010 A 
ATOM     47  C   UNL A   1      43.341  30.306  28.453  1.00  0.00    -0.014 A 
BRANCH  47  48
ATOM     48  C   UNL A   1      43.382  31.052  29.737  1.00  0.00     0.031 A 
ATOM     49  C   UNL A   1      43.576  32.545  29.663  1.00  0.00     0.074 A 
ATOM     50  C   UNL A   1      43.201  30.455  30.930  1.00  0.00     0.049 A 
ATOM     51  N   UNL A   1      43.605  33.430  30.624  1.00  0.00    -0.248 NA
ATOM     52  C   UNL A   1      43.756  33.113  28.315  1.00  0.00     0.031 C 
ATOM     53  C   UNL A   1      43.002  29.024  31.146  1.00  0.00     0.029 A 
ATOM     54  N   UNL A   1      43.177  30.992  32.196  1.00  0.00    -0.354 N 
ATOM     55  C   UNL A   1      43.812  34.654  30.000  1.00  0.00     0.074 A 
ATOM     56  C   UNL A   1      43.934  34.396  28.583  1.00  0.00     0.031 C 
ATOM     57  C   UNL A   1      42.901  28.792  32.468  1.00  0.00     0.029 A 
ATOM     58  C   UNL A   1      43.045  30.053  33.194  1.00  0.00     0.049 A 
ATOM     59  H   UNL A   1      43.245  31.958  32.372  1.00  0.00     0.167 HD
ATOM     60  C   UNL A   1      43.873  35.890  30.547  1.00  0.00     0.034 A 
ATOM     61  C   UNL A   1      43.058  30.200  34.536  1.00  0.00     0.034 A 
ATOM     62  C   UNL A   1      43.758  36.152  31.954  1.00  0.00     0.049 A 
ATOM     63  C   UNL A   1      43.173  31.585  35.128  1.00  0.00     0.074 A 
ATOM     64  C   UNL A   1      43.797  37.371  32.607  1.00  0.00     0.029 A 
ATOM     65  N   UNL A   1      43.597  35.180  32.927  1.00  0.00    -0.354 N 
ATOM     66  N   UNL A   1      43.258  32.743  34.518  1.00  0.00    -0.248 NA
ATOM     67  C   UNL A   1      43.154  31.686  36.596  1.00  0.00     0.031 C 
ATOM     68  C   UNL A   1      43.687  37.132  33.981  1.00  0.00     0.029 A 
ATOM     69  C   UNL A   1      43.539  35.770  34.178  1.00  0.00     0.049 A 
ATOM     70  H   UNL A   1      43.534  34.213  32.755  1.00  0.00     0.167 HD
ATOM     71  C   UNL A   1      43.261  33.707  35.522  1.00  0.00     0.074 A 
ATOM     72  C   UNL A   1      43.145  32.999  36.779  1.00  0.00     0.031 C 
ATOM     73  C   UNL A   1      43.366  35.055  35.418  1.00  0.00     0.034 A 
BRANCH  60  74
ATOM     74  C   UNL A   1      44.045  37.054  29.609  1.00  0.00     0.023 A 
ATOM     75  C   UNL A   1      42.908  37.656  29.031  1.00  0.00     0.012 A 
ATOM     76  C   UNL A   1      45.322  37.576  29.328  1.00  0.00     0.148 A 
ATOM     77  C   UNL A   1      43.041  38.739  28.165  1.00  0.00     0.002 A 
ATOM     78  C   UNL A   1      45.443  38.685  28.501  1.00  0.00     0.091 A 
ATOM     79  F   UNL A   1      46.391  36.973  29.867  1.00  0.00    -0.205 F 
ATOM     80  C   UNL A   1      44.306  39.259  27.909  1.00  0.00     0.022 A 
BRANCH  78  81
ATOM     81  S   UNL A   1      47.018  39.480  28.169  1.00  0.00     0.127 S 
ATOM     82  O   UNL A   1      46.589  40.756  27.595  1.00  0.00    -0.237 OA
ATOM     83  O   UNL A   1      47.598  39.579  29.508  1.00  0.00    -0.237 OA
ATOM     84  O   UNL A   1      47.733  38.598  27.258  1.00  0.00    -0.744 OA
ENDBRANCH  78  81
ENDBRANCH  60  74
BRANCH  61  85
ATOM     85  C   UNL A   1      42.947  29.008  35.428  1.00  0.00     0.023 A 
ATOM     86  C   UNL A   1      41.680  28.465  35.727  1.00  0.00     0.012 A 
ATOM     87  C   UNL A   1      44.092  28.429  36.008  1.00  0.00     0.148 A 
ATOM     88  C   UNL A   1      41.554  27.398  36.619  1.00  0.00     0.002 A 
ATOM     89  C   UNL A   1      43.965  27.328  36.848  1.00  0.00     0.091 A 
ATOM     90  F   UNL A   1      45.286  28.971  35.732  1.00  0.00    -0.205 F 
ATOM     91  C   UNL A   1      42.695  26.824  37.171  1.00  0.00     0.022 A 
BRANCH  89  92
ATOM     92  S   UNL A   1      45.387  26.449  37.503  1.00  0.00     0.127 S 
ATOM     93  O   UNL A   1      46.250  27.548  37.924  1.00  0.00    -0.237 OA
ATOM     94  O   UNL A   1      44.787  25.681  38.595  1.00  0.00    -0.237 OA
ATOM     95  O   UNL A   1      45.885  25.636  36.402  1.00  0.00    -0.744 OA
ENDBRANCH  89  92
ENDBRANCH  61  85
BRANCH  73  96
ATOM     96  C   UNL A   1      43.306  35.867  36.687  1.00  0.00     0.023 A 
ATOM     97  C   UNL A   1      42.061  36.198  37.258  1.00  0.00     0.012 A 
ATOM     98  C   UNL A   1      44.491  36.248  37.349  1.00  0.00     0.148 A 
ATOM     99  C   UNL A   1      41.995  36.932  38.441  1.00  0.00     0.002 A 
ATOM    100  C   UNL A   1      44.417  36.933  38.557  1.00  0.00     0.091 A 
ATOM    101  F   UNL A   1      45.667  35.937  36.787  1.00  0.00    -0.205 F 
ATOM    102  C   UNL A   1      43.171  37.290  39.096  1.00  0.00     0.022 A 
BRANCH 100 103
ATOM    103  S   UNL A   1      45.876  37.347  39.520  1.00  0.00     0.127 S 
ATOM    104  O   UNL A   1      46.536  38.325  38.655  1.00  0.00    -0.237 OA
ATOM    105  O   UNL A   1      45.294  37.907  40.741  1.00  0.00    -0.237 OA
ATOM    106  O   UNL A   1      46.598  36.097  39.714  1.00  0.00    -0.744 OA
ENDBRANCH 100 103
ENDBRANCH  73  96
ENDBRANCH  47  48
ENDBRANCH  40  42
ENDBRANCH  39  40
ENDBRANCH  38  39
ENDBRANCH  37  38
ENDBRANCH  36  37
ENDBRANCH  35  36
ENDBRANCH  34  35
ENDBRANCH  33  34
ENDBRANCH   1  33
TORSDOF 27
ENDMDL
MODEL 3
REMARK VINA RESULT:      -7.9      6.861     12.750
REMARK SMILES O=C(OCCOCCOCCOCCOC(=O)c1ccc(-c2c3nc(c(-c4cccc(S(=O)(=O)[O-])c4F)c4ccc([nH]4)c(-c4cccc(S(=O)(=O)[O-])c4F)c4nc(c(-c5cccc(S(=O)(=O)[O-])c5F)c5ccc2[nH]5)C=C4)C=C3)cc1)c1ccc(/C=C/c2ccnc(-c3cccc([N+](=O)[O-])c3)[n+]2[O-])cc1
REMARK SMILES IDX 8 1 7 2 6 3 5 4 4 5 3 6 2 7 1 8 81 9 82 10 104 11 83 12
REMARK SMILES IDX 103 13 84 14 85 15 86 16 87 17 88 18 101 19 89 20 91 21
REMARK SMILES IDX 102 22 90 23 92 24 93 25 100 26 94 27 96 28 95 29 97 30
REMARK SMILES IDX 98 31 99 32 9 33 10 34 11 35 12 36 13 37 14 38 15 39 16 40
REMARK SMILES IDX 17 41 18 42 19 43 80 44 20 45 79 46 21 47 22 48 23 49 73 50
REMARK SMILES IDX 24 51 78 52 72 53 74 54 25 55 77 56 71 57 70 58 26 60 58 61
REMARK SMILES IDX 38 62 57 63 39 64 42 65 56 66 75 67 40 68 41 69 55 71 76 72
REMARK SMILES IDX 43 73 27 74 28 75 36 76 29 77 31 78 37 79 30 80 32 81 33 82
REMARK SMILES IDX 34 83 35 84 59 85 60 86 68 87 61 88 63 89 69 90 62 91 64 92
REMARK SMILES IDX 65 93 66 94 67 95 44 96 45 97 53 98 46 99 48 100 54 101
REMARK SMILES IDX 47 102 49 103 50 104 51 105 52 106
REMARK H PARENT 74 59 42 70
REMARK Flexibility Score: inf
ROOT
ATOM      1  C   UNL A   1      43.060  24.232  28.638  1.00  0.00     0.188 C 
ENDROOT
BRANCH   1   2
ATOM      2  C   UNL A   1      41.975  23.325  28.049  1.00  0.00     0.188 C 
BRANCH   2   3
ATOM      3  O   UNL A   1      40.707  23.963  28.146  1.00  0.00    -0.376 OA
BRANCH   3   4
ATOM      4  C   UNL A   1      40.195  24.657  27.021  1.00  0.00     0.202 C 
BRANCH   4   5
ATOM      5  C   UNL A   1      40.205  26.180  27.092  1.00  0.00     0.261 C 
BRANCH   5   6
ATOM      6  O   UNL A   1      39.873  26.734  28.377  1.00  0.00    -0.460 OA
BRANCH   6   7
ATOM      7  C   UNL A   1      39.376  27.953  28.683  1.00  0.00     0.338 C 
ATOM      8  O   UNL A   1      38.877  28.646  27.798  1.00  0.00    -0.246 OA
BRANCH   7   9
ATOM      9  C   UNL A   1      39.363  28.498  30.061  1.00  0.00     0.060 A 
ATOM     10  C   UNL A   1      39.394  27.712  31.208  1.00  0.00     0.016 A 
ATOM     11  C   UNL A   1      39.537  29.876  30.210  1.00  0.00     0.016 A 
ATOM     12  C   UNL A   1      39.476  28.269  32.477  1.00  0.00     0.009 A 
ATOM     13  C   UNL A   1      39.666  30.442  31.485  1.00  0.00     0.009 A 
ATOM     14  C   UNL A   1      39.609  29.642  32.634  1.00  0.00    -0.025 A 
BRANCH  14  15
ATOM     15  C   UNL A   1      39.679  30.262  33.959  1.00  0.00     0.012 C 
ATOM     16  C   UNL A   1      39.076  31.412  34.303  1.00  0.00     0.053 C 
BRANCH  16  17
ATOM     17  C   UNL A   1      39.333  32.075  35.584  1.00  0.00     0.134 A 
ATOM     18  C   UNL A   1      40.491  32.834  35.750  1.00  0.00     0.100 A 
ATOM     19  N   UNL A   1      38.443  31.896  36.649  1.00  0.00    -0.228 N 
ATOM     20  C   UNL A   1      40.685  33.443  36.969  1.00  0.00     0.259 A 
ATOM     21  C   UNL A   1      38.732  32.532  37.852  1.00  0.00     0.333 A 
ATOM     22  O   UNL A   1      37.396  31.159  36.533  1.00  0.00    -0.710 OA
ATOM     23  N   UNL A   1      39.834  33.326  38.007  1.00  0.00    -0.049 NA
BRANCH  21  24
ATOM     24  C   UNL A   1      37.845  32.323  38.993  1.00  0.00     0.076 A 
ATOM     25  C   UNL A   1      36.514  32.766  38.965  1.00  0.00     0.017 A 
ATOM     26  C   UNL A   1      38.292  31.590  40.107  1.00  0.00     0.102 A 
ATOM     27  C   UNL A   1      35.638  32.461  40.011  1.00  0.00     0.008 A 
ATOM     28  C   UNL A   1      37.414  31.287  41.152  1.00  0.00     0.270 A 
ATOM     29  C   UNL A   1      36.083  31.719  41.106  1.00  0.00     0.085 A 
BRANCH  28  30
ATOM     30  N   UNL A   1      37.894  30.501  42.294  1.00  0.00     0.062 N 
ATOM     31  O   UNL A   1      39.060  30.082  42.252  1.00  0.00    -0.258 OA
ATOM     32  O   UNL A   1      37.103  30.283  43.222  1.00  0.00    -0.258 OA
ENDBRANCH  28  30
ENDBRANCH  21  24
ENDBRANCH  16  17
ENDBRANCH  14  15
ENDBRANCH   7   9
ENDBRANCH   6   7
ENDBRANCH   5   6
ENDBRANCH   4   5
ENDBRANCH   3   4
ENDBRANCH   2   3
ENDBRANCH   1   2
BRANCH   1  33
ATOM     33  O   UNL A   1      44.305  23.595  28.930  1.00  0.00    -0.377 OA
BRANCH  33  34
ATOM     34  C   UNL A   1      45.406  23.953  28.099  1.00  0.00     0.188 C 
BRANCH  34  35
ATOM     35  C   UNL A   1      45.570  23.203  26.756  1.00  0.00     0.188 C 
BRANCH  35  36
ATOM     36  O   UNL A   1      45.551  24.047  25.614  1.00  0.00    -0.376 OA
BRANCH  36  37
ATOM     37  C   UNL A   1      44.365  24.049  24.832  1.00  0.00     0.202 C 
BRANCH  37  38
ATOM     38  C   UNL A   1      43.285  25.130  25.045  1.00  0.00     0.261 C 
BRANCH  38  39
ATOM     39  O   UNL A   1      43.671  26.314  25.754  1.00  0.00    -0.460 OA
BRANCH  39  40
ATOM     40  C   UNL A   1      43.222  27.510  25.297  1.00  0.00     0.338 C 
ATOM     41  O   UNL A   1      42.653  27.717  24.256  1.00  0.00    -0.246 OA
BRANCH  40  42
ATOM     42  C   UNL A   1      43.315  28.472  26.435  1.00  0.00     0.060 A 
ATOM     43  C   UNL A   1      44.583  28.712  26.984  1.00  0.00     0.016 A 
ATOM     44  C   UNL A   1      42.214  29.219  26.870  1.00  0.00     0.016 A 
ATOM     45  C   UNL A   1      44.747  29.676  27.983  1.00  0.00     0.010 A 
ATOM     46  C   UNL A   1      42.375  30.167  27.890  1.00  0.00     0.010 A 
ATOM     47  C   UNL A   1      43.636  30.373  28.476  1.00  0.00    -0.014 A 
BRANCH  47  48
ATOM     48  C   UNL A   1      43.762  31.096  29.767  1.00  0.00     0.031 A 
ATOM     49  C   UNL A   1      43.577  30.293  31.029  1.00  0.00     0.074 A 
ATOM     50  C   UNL A   1      44.082  32.402  29.841  1.00  0.00     0.049 A 
ATOM     51  N   UNL A   1      43.677  30.667  32.277  1.00  0.00    -0.248 NA
ATOM     52  C   UNL A   1      43.238  28.870  30.854  1.00  0.00     0.031 C 
ATOM     53  C   UNL A   1      44.290  33.293  28.703  1.00  0.00     0.029 A 
ATOM     54  N   UNL A   1      44.268  33.209  30.939  1.00  0.00    -0.354 N 
ATOM     55  C   UNL A   1      43.407  29.532  33.032  1.00  0.00     0.074 A 
ATOM     56  C   UNL A   1      43.108  28.464  32.106  1.00  0.00     0.031 C 
ATOM     57  C   UNL A   1      44.551  34.533  29.161  1.00  0.00     0.029 A 
ATOM     58  C   UNL A   1      44.512  34.526  30.624  1.00  0.00     0.049 A 
ATOM     59  H   UNL A   1      44.232  32.875  31.864  1.00  0.00     0.167 HD
ATOM     60  C   UNL A   1      43.428  29.378  34.376  1.00  0.00     0.034 A 
ATOM     61  C   UNL A   1      44.666  35.600  31.426  1.00  0.00     0.034 A 
ATOM     62  C   UNL A   1      43.718  30.437  35.302  1.00  0.00     0.049 A 
ATOM     63  C   UNL A   1      44.640  35.414  32.924  1.00  0.00     0.074 A 
ATOM     64  C   UNL A   1      43.774  30.379  36.683  1.00  0.00     0.029 A 
ATOM     65  N   UNL A   1      43.987  31.747  34.943  1.00  0.00    -0.354 N 
ATOM     66  N   UNL A   1      44.493  34.312  33.621  1.00  0.00    -0.248 NA
ATOM     67  C   UNL A   1      44.840  36.616  33.750  1.00  0.00     0.031 C 
ATOM     68  C   UNL A   1      44.050  31.664  37.161  1.00  0.00     0.029 A 
ATOM     69  C   UNL A   1      44.206  32.511  36.076  1.00  0.00     0.049 A 
ATOM     70  H   UNL A   1      44.018  32.085  34.019  1.00  0.00     0.167 HD
ATOM     71  C   UNL A   1      44.624  34.681  34.957  1.00  0.00     0.074 A 
ATOM     72  C   UNL A   1      44.887  36.104  34.972  1.00  0.00     0.031 C 
ATOM     73  C   UNL A   1      44.522  33.917  36.073  1.00  0.00     0.034 A 
BRANCH  60  74
ATOM     74  C   UNL A   1      43.154  28.002  34.919  1.00  0.00     0.023 A 
ATOM     75  C   UNL A   1      41.836  27.641  35.268  1.00  0.00     0.012 A 
ATOM     76  C   UNL A   1      44.189  27.055  35.050  1.00  0.00     0.148 A 
ATOM     77  C   UNL A   1      41.556  26.370  35.767  1.00  0.00     0.002 A 
ATOM     78  C   UNL A   1      43.894  25.775  35.503  1.00  0.00     0.091 A 
ATOM     79  F   UNL A   1      45.438  27.427  34.737  1.00  0.00    -0.205 F 
ATOM     80  C   UNL A   1      42.582  25.436  35.874  1.00  0.00     0.022 A 
BRANCH  78  81
ATOM     81  S   UNL A   1      45.127  24.475  35.603  1.00  0.00     0.127 S 
ATOM     82  O   UNL A   1      45.409  24.226  34.189  1.00  0.00    -0.237 OA
ATOM     83  O   UNL A   1      46.208  25.136  36.333  1.00  0.00    -0.237 OA
ATOM     84  O   UNL A   1      44.496  23.372  36.314  1.00  0.00    -0.744 OA
ENDBRANCH  78  81
ENDBRANCH  60  74
BRANCH  61  85
ATOM     85  C   UNL A   1      44.873  36.958  30.841  1.00  0.00     0.023 A 
ATOM     86  C   UNL A   1      43.762  37.740  30.462  1.00  0.00     0.012 A 
ATOM     87  C   UNL A   1      46.169  37.466  30.630  1.00  0.00     0.148 A 
ATOM     88  C   UNL A   1      43.940  38.980  29.844  1.00  0.00     0.002 A 
ATOM     89  C   UNL A   1      46.338  38.728  30.070  1.00  0.00     0.091 A 
ATOM     90  F   UNL A   1      47.214  36.702  30.976  1.00  0.00    -0.205 F 
ATOM     91  C   UNL A   1      45.226  39.477  29.657  1.00  0.00     0.022 A 
BRANCH  89  92
ATOM     92  S   UNL A   1      47.952  39.499  29.909  1.00  0.00     0.127 S 
ATOM     93  O   UNL A   1      48.707  38.469  29.203  1.00  0.00    -0.237 OA
ATOM     94  O   UNL A   1      47.637  40.688  29.116  1.00  0.00    -0.237 OA
ATOM     95  O   UNL A   1      48.387  39.785  31.270  1.00  0.00    -0.744 OA
ENDBRANCH  89  92
ENDBRANCH  61  85
BRANCH  73  96
ATOM     96  C   UNL A   1      44.747  34.584  37.407  1.00  0.00     0.023 A 
ATOM     97  C   UNL A   1      45.994  34.471  38.053  1.00  0.00     0.012 A 
ATOM     98  C   UNL A   1      43.738  35.377  37.989  1.00  0.00     0.148 A 
ATOM     99  C   UNL A   1      46.218  35.099  39.278  1.00  0.00     0.002 A 
ATOM    100  C   UNL A   1      43.987  36.045  39.183  1.00  0.00     0.091 A 
ATOM    101  F   UNL A   1      42.553  35.464  37.368  1.00  0.00    -0.205 F 
ATOM    102  C   UNL A   1      45.220  35.894  39.836  1.00  0.00     0.022 A 
BRANCH 100 103
ATOM    103  S   UNL A   1      42.797  37.168  39.925  1.00  0.00     0.127 S 
ATOM    104  O   UNL A   1      42.703  38.215  38.908  1.00  0.00    -0.237 OA
ATOM    105  O   UNL A   1      41.607  36.325  40.045  1.00  0.00    -0.237 OA
ATOM    106  O   UNL A   1      43.375  37.581  41.197  1.00  0.00    -0.744 OA
ENDBRANCH 100 103
ENDBRANCH  73  96
ENDBRANCH  47  48
ENDBRANCH  40  42
ENDBRANCH  39  40
ENDBRANCH  38  39
ENDBRANCH  37  38
ENDBRANCH  36  37
ENDBRANCH  35  36
ENDBRANCH  34  35
ENDBRANCH  33  34
ENDBRANCH   1  33
TORSDOF 27
ENDMDL
