MODEL 1
REMARK VINA RESULT:      -9.4      0.000      0.000
REMARK SMILES O=C(C[C@H]1CN(c2nc(C3CC3)ns2)CCO1)OCCOCCOCCOCCOC(=O)c1ccc(-c2c3nc(c(-c4cccc(S(=O)(=O)[O-])c4F)c4ccc([nH]4)c(-c4cccc(S(=O)(=O)[O-])c4F)c4nc(c(-c5cccc(S(=O)(=O)[O-])c5F)c5ccc2[nH]5)C=C4)C=C3)cc1
REMARK SMILES IDX 24 1 23 2 22 3 21 4 20 5 19 6 18 7 2 8 1 9 3 10 4 11 5 12
REMARK SMILES IDX 17 13 6 14 16 15 15 16 7 17 8 18 14 19 9 20 13 21 10 22
REMARK SMILES IDX 11 23 12 24 25 25 26 26 27 27 28 28 29 29 30 30 31 31 32 32
REMARK SMILES IDX 33 33 34 34 95 35 35 36 94 37 36 38 37 39 38 40 88 41 39 42
REMARK SMILES IDX 93 43 87 44 89 45 40 46 92 47 86 48 85 49 41 51 73 52 53 53
REMARK SMILES IDX 72 54 54 55 57 56 71 57 90 58 55 59 56 60 70 62 91 63 58 64
REMARK SMILES IDX 42 65 43 66 51 67 44 68 46 69 52 70 45 71 47 72 48 73 49 74
REMARK SMILES IDX 50 75 74 76 75 77 83 78 76 79 78 80 84 81 77 82 79 83 80 84
REMARK SMILES IDX 81 85 82 86 59 87 60 88 68 89 61 90 63 91 69 92 62 93 64 94
REMARK SMILES IDX 65 95 66 96 67 97
REMARK H PARENT 89 50 57 61
REMARK Flexibility Score: inf
ROOT
ATOM      1  O   UNL A   1      34.925  21.635  24.574  1.00  0.00    -0.377 OA
ENDROOT
BRANCH   1   2
ATOM      2  C   UNL A   1      34.811  21.114  25.892  1.00  0.00     0.188 C 
BRANCH   2   3
ATOM      3  C   UNL A   1      34.483  22.177  26.946  1.00  0.00     0.188 C 
BRANCH   3   4
ATOM      4  O   UNL A   1      33.137  22.195  27.402  1.00  0.00    -0.376 OA
BRANCH   4   5
ATOM      5  C   UNL A   1      32.120  23.066  26.940  1.00  0.00     0.202 C 
BRANCH   5   6
ATOM      6  C   UNL A   1      31.085  22.609  25.919  1.00  0.00     0.261 C 
BRANCH   6   7
ATOM      7  O   UNL A   1      30.710  23.518  24.869  1.00  0.00    -0.463 OA
BRANCH   7   8
ATOM      8  C   UNL A   1      31.049  23.531  23.570  1.00  0.00     0.308 C 
ATOM      9  O   UNL A   1      31.301  22.464  23.016  1.00  0.00    -0.252 OA
BRANCH   8  10
ATOM     10  C   UNL A   1      31.180  24.841  22.855  1.00  0.00     0.156 C 
BRANCH  10  11
ATOM     11  C   UNL A   1      32.453  25.108  22.075  1.00  0.00     0.148 C 
ATOM     12  C   UNL A   1      32.521  26.569  21.634  1.00  0.00     0.151 C 
ATOM     13  O   UNL A   1      33.677  24.677  22.687  1.00  0.00    -0.374 OA
ATOM     14  N   UNL A   1      32.823  27.398  22.784  1.00  0.00    -0.342 N 
ATOM     15  C   UNL A   1      34.157  25.526  23.746  1.00  0.00     0.182 C 
ATOM     16  C   UNL A   1      34.056  27.047  23.487  1.00  0.00     0.147 C 
BRANCH  14  17
ATOM     17  C   UNL A   1      31.883  28.242  23.292  1.00  0.00     0.205 A 
ATOM     18  N   UNL A   1      30.877  28.767  22.617  1.00  0.00    -0.203 NA
ATOM     19  S   UNL A   1      31.919  28.869  24.909  1.00  0.00     0.004 S 
ATOM     20  C   UNL A   1      30.146  29.603  23.456  1.00  0.00     0.147 A 
ATOM     21  N   UNL A   1      30.628  29.892  24.666  1.00  0.00    -0.174 NA
BRANCH  20  22
ATOM     22  C   UNL A   1      28.813  30.232  23.038  1.00  0.00     0.059 C 
ATOM     23  C   UNL A   1      28.206  29.963  21.680  1.00  0.00     0.012 C 
ATOM     24  C   UNL A   1      27.607  29.327  22.892  1.00  0.00     0.012 C 
ENDBRANCH  20  22
ENDBRANCH  14  17
ENDBRANCH  10  11
ENDBRANCH   8  10
ENDBRANCH   7   8
ENDBRANCH   6   7
ENDBRANCH   5   6
ENDBRANCH   4   5
ENDBRANCH   3   4
ENDBRANCH   2   3
ENDBRANCH   1   2
BRANCH   1  25
ATOM     25  C   UNL A   1      36.113  22.375  24.347  1.00  0.00     0.188 C 
BRANCH  25  26
ATOM     26  C   UNL A   1      37.408  21.762  24.934  1.00  0.00     0.188 C 
BRANCH  26  27
ATOM     27  O   UNL A   1      38.213  22.436  25.895  1.00  0.00    -0.376 OA
BRANCH  27  28
ATOM     28  C   UNL A   1      39.447  21.887  26.324  1.00  0.00     0.202 C 
BRANCH  28  29
ATOM     29  C   UNL A   1      39.799  20.435  25.977  1.00  0.00     0.261 C 
BRANCH  29  30
ATOM     30  O   UNL A   1      40.937  19.904  26.660  1.00  0.00    -0.460 OA
BRANCH  30  31
ATOM     31  C   UNL A   1      42.094  19.900  25.956  1.00  0.00     0.338 C 
ATOM     32  O   UNL A   1      42.482  19.046  25.174  1.00  0.00    -0.246 OA
BRANCH  31  33
ATOM     33  C   UNL A   1      42.739  21.219  26.115  1.00  0.00     0.060 A 
ATOM     34  C   UNL A   1      43.032  21.669  27.413  1.00  0.00     0.016 A 
ATOM     35  C   UNL A   1      43.098  21.980  25.001  1.00  0.00     0.016 A 
ATOM     36  C   UNL A   1      43.664  22.894  27.604  1.00  0.00     0.010 A 
ATOM     37  C   UNL A   1      43.689  23.227  25.193  1.00  0.00     0.010 A 
ATOM     38  C   UNL A   1      43.934  23.701  26.495  1.00  0.00    -0.014 A 
BRANCH  38  39
ATOM     39  C   UNL A   1      44.168  25.147  26.686  1.00  0.00     0.031 A 
ATOM     40  C   UNL A   1      45.582  25.629  26.533  1.00  0.00     0.074 A 
ATOM     41  C   UNL A   1      43.186  25.982  27.058  1.00  0.00     0.049 A 
ATOM     42  N   UNL A   1      46.093  26.800  26.793  1.00  0.00    -0.248 NA
ATOM     43  C   UNL A   1      46.557  24.641  26.033  1.00  0.00     0.031 C 
ATOM     44  C   UNL A   1      41.783  25.616  27.228  1.00  0.00     0.029 A 
ATOM     45  N   UNL A   1      43.241  27.306  27.412  1.00  0.00    -0.354 N 
ATOM     46  C   UNL A   1      47.453  26.677  26.539  1.00  0.00     0.074 A 
ATOM     47  C   UNL A   1      47.688  25.323  26.095  1.00  0.00     0.031 C 
ATOM     48  C   UNL A   1      41.118  26.677  27.717  1.00  0.00     0.029 A 
ATOM     49  C   UNL A   1      42.057  27.779  27.924  1.00  0.00     0.049 A 
ATOM     50  H   UNL A   1      44.048  27.861  27.310  1.00  0.00     0.167 HD
ATOM     51  C   UNL A   1      48.423  27.609  26.667  1.00  0.00     0.034 A 
ATOM     52  C   UNL A   1      41.783  28.948  28.534  1.00  0.00     0.034 A 
ATOM     53  C   UNL A   1      48.177  28.951  27.111  1.00  0.00     0.049 A 
ATOM     54  C   UNL A   1      42.879  29.974  28.683  1.00  0.00     0.074 A 
ATOM     55  C   UNL A   1      49.073  29.997  27.221  1.00  0.00     0.029 A 
ATOM     56  N   UNL A   1      46.947  29.422  27.544  1.00  0.00    -0.354 N 
ATOM     57  N   UNL A   1      44.137  29.896  28.317  1.00  0.00    -0.248 NA
ATOM     58  C   UNL A   1      42.515  31.257  29.300  1.00  0.00     0.031 C 
ATOM     59  C   UNL A   1      48.391  31.094  27.756  1.00  0.00     0.029 A 
ATOM     60  C   UNL A   1      47.062  30.740  27.941  1.00  0.00     0.049 A 
ATOM     61  H   UNL A   1      46.116  28.895  27.566  1.00  0.00     0.167 HD
ATOM     62  C   UNL A   1      44.706  31.126  28.628  1.00  0.00     0.074 A 
ATOM     63  C   UNL A   1      43.651  31.937  29.203  1.00  0.00     0.031 C 
ATOM     64  C   UNL A   1      45.985  31.547  28.459  1.00  0.00     0.034 A 
BRANCH  51  65
ATOM     65  C   UNL A   1      49.828  27.192  26.332  1.00  0.00     0.023 A 
ATOM     66  C   UNL A   1      50.665  26.666  27.337  1.00  0.00     0.012 A 
ATOM     67  C   UNL A   1      50.319  27.322  25.020  1.00  0.00     0.148 A 
ATOM     68  C   UNL A   1      51.983  26.316  27.049  1.00  0.00     0.002 A 
ATOM     69  C   UNL A   1      51.618  26.926  24.730  1.00  0.00     0.091 A 
ATOM     70  F   UNL A   1      49.520  27.859  24.086  1.00  0.00    -0.205 F 
ATOM     71  C   UNL A   1      52.455  26.437  25.746  1.00  0.00     0.022 A 
BRANCH  69  72
ATOM     72  S   UNL A   1      52.285  26.970  23.064  1.00  0.00     0.127 S 
ATOM     73  O   UNL A   1      51.080  26.787  22.257  1.00  0.00    -0.237 OA
ATOM     74  O   UNL A   1      52.863  28.314  22.999  1.00  0.00    -0.237 OA
ATOM     75  O   UNL A   1      53.259  25.892  22.996  1.00  0.00    -0.744 OA
ENDBRANCH  69  72
ENDBRANCH  51  65
BRANCH  52  76
ATOM     76  C   UNL A   1      40.407  29.207  29.043  1.00  0.00     0.023 A 
ATOM     77  C   UNL A   1      39.385  29.560  28.143  1.00  0.00     0.012 A 
ATOM     78  C   UNL A   1      40.097  29.049  30.409  1.00  0.00     0.148 A 
ATOM     79  C   UNL A   1      38.081  29.770  28.595  1.00  0.00     0.002 A 
ATOM     80  C   UNL A   1      38.786  29.205  30.844  1.00  0.00     0.091 A 
ATOM     81  F   UNL A   1      41.088  28.723  31.250  1.00  0.00    -0.205 F 
ATOM     82  C   UNL A   1      37.780  29.580  29.942  1.00  0.00     0.022 A 
BRANCH  80  83
ATOM     83  S   UNL A   1      38.276  28.851  32.530  1.00  0.00     0.127 S 
ATOM     84  O   UNL A   1      39.068  29.815  33.290  1.00  0.00    -0.237 OA
ATOM     85  O   UNL A   1      36.842  29.140  32.472  1.00  0.00    -0.237 OA
ATOM     86  O   UNL A   1      38.602  27.451  32.758  1.00  0.00    -0.744 OA
ENDBRANCH  80  83
ENDBRANCH  52  76
BRANCH  64  87
ATOM     87  C   UNL A   1      46.325  32.961  28.848  1.00  0.00     0.023 A 
ATOM     88  C   UNL A   1      46.863  33.232  30.121  1.00  0.00     0.012 A 
ATOM     89  C   UNL A   1      46.231  33.998  27.898  1.00  0.00     0.148 A 
ATOM     90  C   UNL A   1      47.288  34.519  30.447  1.00  0.00     0.002 A 
ATOM     91  C   UNL A   1      46.703  35.266  28.214  1.00  0.00     0.091 A 
ATOM     92  F   UNL A   1      45.703  33.718  26.698  1.00  0.00    -0.205 F 
ATOM     93  C   UNL A   1      47.222  35.531  29.490  1.00  0.00     0.022 A 
BRANCH  91  94
ATOM     94  S   UNL A   1      46.757  36.601  27.013  1.00  0.00     0.127 S 
ATOM     95  O   UNL A   1      47.532  35.997  25.930  1.00  0.00    -0.237 OA
ATOM     96  O   UNL A   1      45.339  36.803  26.711  1.00  0.00    -0.237 OA
ATOM     97  O   UNL A   1      47.399  37.723  27.685  1.00  0.00    -0.744 OA
ENDBRANCH  91  94
ENDBRANCH  64  87
ENDBRANCH  38  39
ENDBRANCH  31  33
ENDBRANCH  30  31
ENDBRANCH  29  30
ENDBRANCH  28  29
ENDBRANCH  27  28
ENDBRANCH  26  27
ENDBRANCH  25  26
ENDBRANCH   1  25
TORSDOF 26
ENDMDL
MODEL 2
REMARK VINA RESULT:      -9.1      2.008      3.840
REMARK SMILES O=C(C[C@H]1CN(c2nc(C3CC3)ns2)CCO1)OCCOCCOCCOCCOC(=O)c1ccc(-c2c3nc(c(-c4cccc(S(=O)(=O)[O-])c4F)c4ccc([nH]4)c(-c4cccc(S(=O)(=O)[O-])c4F)c4nc(c(-c5cccc(S(=O)(=O)[O-])c5F)c5ccc2[nH]5)C=C4)C=C3)cc1
REMARK SMILES IDX 24 1 23 2 22 3 21 4 20 5 19 6 18 7 2 8 1 9 3 10 4 11 5 12
REMARK SMILES IDX 17 13 6 14 16 15 15 16 7 17 8 18 14 19 9 20 13 21 10 22
REMARK SMILES IDX 11 23 12 24 25 25 26 26 27 27 28 28 29 29 30 30 31 31 32 32
REMARK SMILES IDX 33 33 34 34 95 35 35 36 94 37 36 38 37 39 38 40 88 41 39 42
REMARK SMILES IDX 93 43 87 44 89 45 40 46 92 47 86 48 85 49 41 51 73 52 53 53
REMARK SMILES IDX 72 54 54 55 57 56 71 57 90 58 55 59 56 60 70 62 91 63 58 64
REMARK SMILES IDX 42 65 43 66 51 67 44 68 46 69 52 70 45 71 47 72 48 73 49 74
REMARK SMILES IDX 50 75 74 76 75 77 83 78 76 79 78 80 84 81 77 82 79 83 80 84
REMARK SMILES IDX 81 85 82 86 59 87 60 88 68 89 61 90 63 91 69 92 62 93 64 94
REMARK SMILES IDX 65 95 66 96 67 97
REMARK H PARENT 89 50 57 61
REMARK Flexibility Score: inf
ROOT
ATOM      1  O   UNL A   1      35.161  24.453  24.902  1.00  0.00    -0.377 OA
ENDROOT
BRANCH   1   2
ATOM      2  C   UNL A   1      34.382  25.255  24.023  1.00  0.00     0.188 C 
BRANCH   2   3
ATOM      3  C   UNL A   1      33.953  24.525  22.745  1.00  0.00     0.188 C 
BRANCH   3   4
ATOM      4  O   UNL A   1      33.772  25.348  21.599  1.00  0.00    -0.376 OA
BRANCH   4   5
ATOM      5  C   UNL A   1      32.529  25.810  21.104  1.00  0.00     0.202 C 
BRANCH   5   6
ATOM      6  C   UNL A   1      31.562  26.593  21.985  1.00  0.00     0.261 C 
BRANCH   6   7
ATOM      7  O   UNL A   1      30.495  25.879  22.634  1.00  0.00    -0.463 OA
BRANCH   7   8
ATOM      8  C   UNL A   1      30.266  25.658  23.938  1.00  0.00     0.308 C 
ATOM      9  O   UNL A   1      29.789  26.566  24.615  1.00  0.00    -0.252 OA
BRANCH   8  10
ATOM     10  C   UNL A   1      30.662  24.347  24.544  1.00  0.00     0.156 C 
BRANCH  10  11
ATOM     11  C   UNL A   1      30.421  24.141  26.028  1.00  0.00     0.148 C 
ATOM     12  C   UNL A   1      30.464  22.655  26.381  1.00  0.00     0.151 C 
ATOM     13  O   UNL A   1      31.226  24.925  26.919  1.00  0.00    -0.374 OA
ATOM     14  N   UNL A   1      31.839  22.198  26.345  1.00  0.00    -0.342 N 
ATOM     15  C   UNL A   1      32.579  24.460  27.082  1.00  0.00     0.182 C 
ATOM     16  C   UNL A   1      32.752  22.930  27.221  1.00  0.00     0.147 C 
BRANCH  14  17
ATOM     17  C   UNL A   1      32.256  21.342  25.371  1.00  0.00     0.205 A 
ATOM     18  N   UNL A   1      32.965  20.245  25.566  1.00  0.00    -0.203 NA
ATOM     19  S   UNL A   1      32.018  21.616  23.676  1.00  0.00     0.004 S 
ATOM     20  C   UNL A   1      33.230  19.646  24.338  1.00  0.00     0.147 A 
ATOM     21  N   UNL A   1      32.929  20.301  23.216  1.00  0.00    -0.174 NA
BRANCH  20  22
ATOM     22  C   UNL A   1      33.881  18.263  24.217  1.00  0.00     0.059 C 
ATOM     23  C   UNL A   1      33.366  17.078  25.003  1.00  0.00     0.012 C 
ATOM     24  C   UNL A   1      33.099  17.159  23.535  1.00  0.00     0.012 C 
ENDBRANCH  20  22
ENDBRANCH  14  17
ENDBRANCH  10  11
ENDBRANCH   8  10
ENDBRANCH   7   8
ENDBRANCH   6   7
ENDBRANCH   5   6
ENDBRANCH   4   5
ENDBRANCH   3   4
ENDBRANCH   2   3
ENDBRANCH   1   2
BRANCH   1  25
ATOM     25  C   UNL A   1      35.518  23.190  24.366  1.00  0.00     0.188 C 
BRANCH  25  26
ATOM     26  C   UNL A   1      36.999  22.779  24.547  1.00  0.00     0.188 C 
BRANCH  26  27
ATOM     27  O   UNL A   1      37.483  21.479  24.225  1.00  0.00    -0.376 OA
BRANCH  27  28
ATOM     28  C   UNL A   1      38.073  20.656  25.217  1.00  0.00     0.202 C 
BRANCH  28  29
ATOM     29  C   UNL A   1      39.397  21.073  25.867  1.00  0.00     0.261 C 
BRANCH  29  30
ATOM     30  O   UNL A   1      40.109  20.023  26.528  1.00  0.00    -0.460 OA
BRANCH  30  31
ATOM     31  C   UNL A   1      41.391  19.843  26.130  1.00  0.00     0.338 C 
ATOM     32  O   UNL A   1      41.861  18.868  25.566  1.00  0.00    -0.246 OA
BRANCH  31  33
ATOM     33  C   UNL A   1      42.111  21.123  26.293  1.00  0.00     0.060 A 
ATOM     34  C   UNL A   1      42.377  21.581  27.594  1.00  0.00     0.016 A 
ATOM     35  C   UNL A   1      42.565  21.835  25.181  1.00  0.00     0.016 A 
ATOM     36  C   UNL A   1      43.077  22.767  27.789  1.00  0.00     0.010 A 
ATOM     37  C   UNL A   1      43.224  23.047  25.375  1.00  0.00     0.010 A 
ATOM     38  C   UNL A   1      43.444  23.532  26.677  1.00  0.00    -0.014 A 
BRANCH  38  39
ATOM     39  C   UNL A   1      43.761  24.965  26.851  1.00  0.00     0.031 A 
ATOM     40  C   UNL A   1      45.197  25.366  26.669  1.00  0.00     0.074 A 
ATOM     41  C   UNL A   1      42.834  25.855  27.233  1.00  0.00     0.049 A 
ATOM     42  N   UNL A   1      45.775  26.510  26.910  1.00  0.00    -0.248 NA
ATOM     43  C   UNL A   1      46.106  24.322  26.161  1.00  0.00     0.031 C 
ATOM     44  C   UNL A   1      41.415  25.569  27.431  1.00  0.00     0.029 A 
ATOM     45  N   UNL A   1      42.968  27.177  27.574  1.00  0.00    -0.354 N 
ATOM     46  C   UNL A   1      47.121  26.309  26.632  1.00  0.00     0.074 A 
ATOM     47  C   UNL A   1      47.274  24.941  26.196  1.00  0.00     0.031 C 
ATOM     48  C   UNL A   1      40.819  26.669  27.922  1.00  0.00     0.029 A 
ATOM     49  C   UNL A   1      41.821  27.719  28.103  1.00  0.00     0.049 A 
ATOM     50  H   UNL A   1      43.802  27.686  27.453  1.00  0.00     0.167 HD
ATOM     51  C   UNL A   1      48.144  27.188  26.735  1.00  0.00     0.034 A 
ATOM     52  C   UNL A   1      41.624  28.907  28.707  1.00  0.00     0.034 A 
ATOM     53  C   UNL A   1      47.981  28.544  27.171  1.00  0.00     0.049 A 
ATOM     54  C   UNL A   1      42.777  29.871  28.828  1.00  0.00     0.074 A 
ATOM     55  C   UNL A   1      48.935  29.540  27.256  1.00  0.00     0.029 A 
ATOM     56  N   UNL A   1      46.787  29.086  27.622  1.00  0.00    -0.354 N 
ATOM     57  N   UNL A   1      44.022  29.721  28.441  1.00  0.00    -0.248 NA
ATOM     58  C   UNL A   1      42.496  31.177  29.440  1.00  0.00     0.031 C 
ATOM     59  C   UNL A   1      48.324  30.677  27.793  1.00  0.00     0.029 A 
ATOM     60  C   UNL A   1      46.981  30.399  28.005  1.00  0.00     0.049 A 
ATOM     61  H   UNL A   1      45.928  28.606  27.663  1.00  0.00     0.167 HD
ATOM     62  C   UNL A   1      44.663  30.920  28.730  1.00  0.00     0.074 A 
ATOM     63  C   UNL A   1      43.666  31.792  29.316  1.00  0.00     0.031 C 
ATOM     64  C   UNL A   1      45.960  31.268  28.534  1.00  0.00     0.034 A 
BRANCH  51  65
ATOM     65  C   UNL A   1      49.517  26.691  26.378  1.00  0.00     0.023 A 
ATOM     66  C   UNL A   1      50.206  25.831  27.259  1.00  0.00     0.012 A 
ATOM     67  C   UNL A   1      50.126  27.077  25.170  1.00  0.00     0.148 A 
ATOM     68  C   UNL A   1      51.497  25.397  26.961  1.00  0.00     0.002 A 
ATOM     69  C   UNL A   1      51.393  26.602  24.858  1.00  0.00     0.091 A 
ATOM     70  F   UNL A   1      49.471  27.924  24.363  1.00  0.00    -0.205 F 
ATOM     71  C   UNL A   1      52.085  25.775  25.757  1.00  0.00     0.022 A 
BRANCH  69  72
ATOM     72  S   UNL A   1      52.197  26.970  23.295  1.00  0.00     0.127 S 
ATOM     73  O   UNL A   1      53.248  25.955  23.256  1.00  0.00    -0.237 OA
ATOM     74  O   UNL A   1      51.113  26.762  22.333  1.00  0.00    -0.237 OA
ATOM     75  O   UNL A   1      52.655  28.348  23.398  1.00  0.00    -0.744 OA
ENDBRANCH  69  72
ENDBRANCH  51  65
BRANCH  52  76
ATOM     76  C   UNL A   1      40.274  29.245  29.239  1.00  0.00     0.023 A 
ATOM     77  C   UNL A   1      39.275  29.710  28.363  1.00  0.00     0.012 A 
ATOM     78  C   UNL A   1      39.960  29.054  30.599  1.00  0.00     0.148 A 
ATOM     79  C   UNL A   1      37.993  29.997  28.834  1.00  0.00     0.002 A 
ATOM     80  C   UNL A   1      38.667  29.289  31.052  1.00  0.00     0.091 A 
ATOM     81  F   UNL A   1      40.930  28.622  31.418  1.00  0.00    -0.205 F 
ATOM     82  C   UNL A   1      37.687  29.774  30.175  1.00  0.00     0.022 A 
BRANCH  80  83
ATOM     83  S   UNL A   1      38.142  28.905  32.726  1.00  0.00     0.127 S 
ATOM     84  O   UNL A   1      39.182  29.553  33.522  1.00  0.00    -0.237 OA
ATOM     85  O   UNL A   1      36.830  29.553  32.781  1.00  0.00    -0.237 OA
ATOM     86  O   UNL A   1      38.102  27.452  32.806  1.00  0.00    -0.744 OA
ENDBRANCH  80  83
ENDBRANCH  52  76
BRANCH  64  87
ATOM     87  C   UNL A   1      46.385  32.664  28.905  1.00  0.00     0.023 A 
ATOM     88  C   UNL A   1      47.012  32.905  30.142  1.00  0.00     0.012 A 
ATOM     89  C   UNL A   1      46.278  33.709  27.964  1.00  0.00     0.148 A 
ATOM     90  C   UNL A   1      47.512  34.172  30.445  1.00  0.00     0.002 A 
ATOM     91  C   UNL A   1      46.823  34.954  28.253  1.00  0.00     0.091 A 
ATOM     92  F   UNL A   1      45.665  33.458  26.799  1.00  0.00    -0.205 F 
ATOM     93  C   UNL A   1      47.431  35.190  29.496  1.00  0.00     0.022 A 
BRANCH  91  94
ATOM     94  S   UNL A   1      46.860  36.291  27.054  1.00  0.00     0.127 S 
ATOM     95  O   UNL A   1      47.543  37.345  27.804  1.00  0.00    -0.237 OA
ATOM     96  O   UNL A   1      47.644  35.709  25.965  1.00  0.00    -0.237 OA
ATOM     97  O   UNL A   1      45.470  36.570  26.717  1.00  0.00    -0.744 OA
ENDBRANCH  91  94
ENDBRANCH  64  87
ENDBRANCH  38  39
ENDBRANCH  31  33
ENDBRANCH  30  31
ENDBRANCH  29  30
ENDBRANCH  28  29
ENDBRANCH  27  28
ENDBRANCH  26  27
ENDBRANCH  25  26
ENDBRANCH   1  25
TORSDOF 26
ENDMDL
MODEL 3
REMARK VINA RESULT:      -8.6      1.975      2.513
REMARK SMILES O=C(C[C@H]1CN(c2nc(C3CC3)ns2)CCO1)OCCOCCOCCOCCOC(=O)c1ccc(-c2c3nc(c(-c4cccc(S(=O)(=O)[O-])c4F)c4ccc([nH]4)c(-c4cccc(S(=O)(=O)[O-])c4F)c4nc(c(-c5cccc(S(=O)(=O)[O-])c5F)c5ccc2[nH]5)C=C4)C=C3)cc1
REMARK SMILES IDX 24 1 23 2 22 3 21 4 20 5 19 6 18 7 2 8 1 9 3 10 4 11 5 12
REMARK SMILES IDX 17 13 6 14 16 15 15 16 7 17 8 18 14 19 9 20 13 21 10 22
REMARK SMILES IDX 11 23 12 24 25 25 26 26 27 27 28 28 29 29 30 30 31 31 32 32
REMARK SMILES IDX 33 33 34 34 95 35 35 36 94 37 36 38 37 39 38 40 88 41 39 42
REMARK SMILES IDX 93 43 87 44 89 45 40 46 92 47 86 48 85 49 41 51 73 52 53 53
REMARK SMILES IDX 72 54 54 55 57 56 71 57 90 58 55 59 56 60 70 62 91 63 58 64
REMARK SMILES IDX 42 65 43 66 51 67 44 68 46 69 52 70 45 71 47 72 48 73 49 74
REMARK SMILES IDX 50 75 74 76 75 77 83 78 76 79 78 80 84 81 77 82 79 83 80 84
REMARK SMILES IDX 81 85 82 86 59 87 60 88 68 89 61 90 63 91 69 92 62 93 64 94
REMARK SMILES IDX 65 95 66 96 67 97
REMARK H PARENT 89 50 57 61
REMARK Flexibility Score: inf
ROOT
ATOM      1  O   UNL A   1      34.761  25.518  26.217  1.00  0.00    -0.377 OA
ENDROOT
BRANCH   1   2
ATOM      2  C   UNL A   1      33.495  26.139  26.399  1.00  0.00     0.188 C 
BRANCH   2   3
ATOM      3  C   UNL A   1      32.317  25.278  25.928  1.00  0.00     0.188 C 
BRANCH   3   4
ATOM      4  O   UNL A   1      31.749  24.423  26.913  1.00  0.00    -0.376 OA
BRANCH   4   5
ATOM      5  C   UNL A   1      31.928  23.021  26.990  1.00  0.00     0.202 C 
BRANCH   5   6
ATOM      6  C   UNL A   1      31.969  22.154  25.737  1.00  0.00     0.261 C 
BRANCH   6   7
ATOM      7  O   UNL A   1      31.318  22.635  24.549  1.00  0.00    -0.463 OA
BRANCH   7   8
ATOM      8  C   UNL A   1      31.827  22.949  23.347  1.00  0.00     0.308 C 
ATOM      9  O   UNL A   1      32.562  22.139  22.788  1.00  0.00    -0.252 OA
BRANCH   8  10
ATOM     10  C   UNL A   1      31.547  24.297  22.757  1.00  0.00     0.156 C 
BRANCH  10  11
ATOM     11  C   UNL A   1      32.483  24.820  21.684  1.00  0.00     0.148 C 
ATOM     12  C   UNL A   1      31.849  25.991  20.936  1.00  0.00     0.151 C 
ATOM     13  O   UNL A   1      33.825  25.114  22.099  1.00  0.00    -0.374 OA
ATOM     14  N   UNL A   1      31.862  27.162  21.790  1.00  0.00    -0.342 N 
ATOM     15  C   UNL A   1      33.978  26.348  22.823  1.00  0.00     0.182 C 
ATOM     16  C   UNL A   1      33.186  27.555  22.271  1.00  0.00     0.147 C 
BRANCH  14  17
ATOM     17  C   UNL A   1      30.700  27.662  22.294  1.00  0.00     0.205 A 
ATOM     18  N   UNL A   1      30.131  28.797  21.930  1.00  0.00    -0.203 NA
ATOM     19  S   UNL A   1      29.821  26.935  23.599  1.00  0.00     0.004 S 
ATOM     20  C   UNL A   1      28.977  28.993  22.682  1.00  0.00     0.147 A 
ATOM     21  N   UNL A   1      28.726  28.184  23.713  1.00  0.00    -0.174 NA
BRANCH  20  22
ATOM     22  C   UNL A   1      27.985  30.125  22.392  1.00  0.00     0.059 C 
ATOM     23  C   UNL A   1      27.488  31.039  23.489  1.00  0.00     0.012 C 
ATOM     24  C   UNL A   1      28.476  31.554  22.494  1.00  0.00     0.012 C 
ENDBRANCH  20  22
ENDBRANCH  14  17
ENDBRANCH  10  11
ENDBRANCH   8  10
ENDBRANCH   7   8
ENDBRANCH   6   7
ENDBRANCH   5   6
ENDBRANCH   4   5
ENDBRANCH   3   4
ENDBRANCH   2   3
ENDBRANCH   1   2
BRANCH   1  25
ATOM     25  C   UNL A   1      34.725  24.365  25.393  1.00  0.00     0.188 C 
BRANCH  25  26
ATOM     26  C   UNL A   1      35.946  23.421  25.506  1.00  0.00     0.188 C 
BRANCH  26  27
ATOM     27  O   UNL A   1      35.985  22.134  24.896  1.00  0.00    -0.376 OA
BRANCH  27  28
ATOM     28  C   UNL A   1      36.887  21.140  25.352  1.00  0.00     0.202 C 
BRANCH  28  29
ATOM     29  C   UNL A   1      38.367  21.486  25.552  1.00  0.00     0.261 C 
BRANCH  29  30
ATOM     30  O   UNL A   1      39.054  20.689  26.521  1.00  0.00    -0.460 OA
BRANCH  30  31
ATOM     31  C   UNL A   1      40.384  20.539  26.319  1.00  0.00     0.338 C 
ATOM     32  O   UNL A   1      40.952  19.596  25.792  1.00  0.00    -0.246 OA
BRANCH  31  33
ATOM     33  C   UNL A   1      41.051  21.816  26.649  1.00  0.00     0.060 A 
ATOM     34  C   UNL A   1      41.039  22.252  27.984  1.00  0.00     0.016 A 
ATOM     35  C   UNL A   1      41.722  22.547  25.667  1.00  0.00     0.016 A 
ATOM     36  C   UNL A   1      41.679  23.435  28.340  1.00  0.00     0.010 A 
ATOM     37  C   UNL A   1      42.323  23.756  26.014  1.00  0.00     0.010 A 
ATOM     38  C   UNL A   1      42.266  24.219  27.342  1.00  0.00    -0.014 A 
BRANCH  38  39
ATOM     39  C   UNL A   1      42.535  25.648  27.602  1.00  0.00     0.031 A 
ATOM     40  C   UNL A   1      43.965  26.095  27.507  1.00  0.00     0.074 A 
ATOM     41  C   UNL A   1      41.567  26.494  27.984  1.00  0.00     0.049 A 
ATOM     42  N   UNL A   1      44.501  27.239  27.830  1.00  0.00    -0.248 NA
ATOM     43  C   UNL A   1      44.925  25.102  26.990  1.00  0.00     0.031 C 
ATOM     44  C   UNL A   1      40.149  26.162  28.102  1.00  0.00     0.029 A 
ATOM     45  N   UNL A   1      41.649  27.800  28.397  1.00  0.00    -0.354 N 
ATOM     46  C   UNL A   1      45.863  27.088  27.606  1.00  0.00     0.074 A 
ATOM     47  C   UNL A   1      46.073  25.748  27.109  1.00  0.00     0.031 C 
ATOM     48  C   UNL A   1      39.501  27.220  28.619  1.00  0.00     0.029 A 
ATOM     49  C   UNL A   1      40.465  28.285  28.898  1.00  0.00     0.049 A 
ATOM     50  H   UNL A   1      42.473  28.335  28.340  1.00  0.00     0.167 HD
ATOM     51  C   UNL A   1      46.855  27.985  27.800  1.00  0.00     0.034 A 
ATOM     52  C   UNL A   1      40.207  29.434  29.551  1.00  0.00     0.034 A 
ATOM     53  C   UNL A   1      46.635  29.313  28.295  1.00  0.00     0.049 A 
ATOM     54  C   UNL A   1      41.327  30.420  29.773  1.00  0.00     0.074 A 
ATOM     55  C   UNL A   1      47.556  30.327  28.474  1.00  0.00     0.029 A 
ATOM     56  N   UNL A   1      45.407  29.801  28.717  1.00  0.00    -0.354 N 
ATOM     57  N   UNL A   1      42.591  30.322  29.437  1.00  0.00    -0.248 NA
ATOM     58  C   UNL A   1      40.982  31.686  30.436  1.00  0.00     0.031 C 
ATOM     59  C   UNL A   1      46.890  31.420  29.038  1.00  0.00     0.029 A 
ATOM     60  C   UNL A   1      45.547  31.097  29.173  1.00  0.00     0.049 A 
ATOM     61  H   UNL A   1      44.561  29.298  28.694  1.00  0.00     0.167 HD
ATOM     62  C   UNL A   1      43.185  31.521  29.815  1.00  0.00     0.074 A 
ATOM     63  C   UNL A   1      42.138  32.336  30.398  1.00  0.00     0.031 C 
ATOM     64  C   UNL A   1      44.479  31.911  29.697  1.00  0.00     0.034 A 
BRANCH  51  65
ATOM     65  C   UNL A   1      48.256  27.543  27.483  1.00  0.00     0.023 A 
ATOM     66  C   UNL A   1      49.061  26.975  28.492  1.00  0.00     0.012 A 
ATOM     67  C   UNL A   1      48.776  27.690  26.184  1.00  0.00     0.148 A 
ATOM     68  C   UNL A   1      50.376  26.600  28.223  1.00  0.00     0.002 A 
ATOM     69  C   UNL A   1      50.072  27.269  25.911  1.00  0.00     0.091 A 
ATOM     70  F   UNL A   1      48.009  28.265  25.246  1.00  0.00    -0.205 F 
ATOM     71  C   UNL A   1      50.877  26.738  26.932  1.00  0.00     0.022 A 
BRANCH  69  72
ATOM     72  S   UNL A   1      50.773  27.334  24.260  1.00  0.00     0.127 S 
ATOM     73  O   UNL A   1      49.699  26.749  23.459  1.00  0.00    -0.237 OA
ATOM     74  O   UNL A   1      50.966  28.772  24.062  1.00  0.00    -0.237 OA
ATOM     75  O   UNL A   1      52.006  26.564  24.320  1.00  0.00    -0.744 OA
ENDBRANCH  69  72
ENDBRANCH  51  65
BRANCH  52  76
ATOM     76  C   UNL A   1      38.826  29.710  30.036  1.00  0.00     0.023 A 
ATOM     77  C   UNL A   1      38.462  29.355  31.348  1.00  0.00     0.012 A 
ATOM     78  C   UNL A   1      37.888  30.373  29.218  1.00  0.00     0.148 A 
ATOM     79  C   UNL A   1      37.184  29.638  31.833  1.00  0.00     0.002 A 
ATOM     80  C   UNL A   1      36.637  30.702  29.725  1.00  0.00     0.091 A 
ATOM     81  F   UNL A   1      38.252  30.692  27.968  1.00  0.00    -0.205 F 
ATOM     82  C   UNL A   1      36.277  30.322  31.026  1.00  0.00     0.022 A 
BRANCH  80  83
ATOM     83  S   UNL A   1      35.452  31.697  28.812  1.00  0.00     0.127 S 
ATOM     84  O   UNL A   1      34.878  30.713  27.897  1.00  0.00    -0.237 OA
ATOM     85  O   UNL A   1      34.556  32.144  29.879  1.00  0.00    -0.237 OA
ATOM     86  O   UNL A   1      36.225  32.760  28.186  1.00  0.00    -0.744 OA
ENDBRANCH  80  83
ENDBRANCH  52  76
BRANCH  64  87
ATOM     87  C   UNL A   1      44.848  33.297  30.157  1.00  0.00     0.023 A 
ATOM     88  C   UNL A   1      45.354  33.498  31.455  1.00  0.00     0.012 A 
ATOM     89  C   UNL A   1      44.814  34.376  29.249  1.00  0.00     0.148 A 
ATOM     90  C   UNL A   1      45.805  34.758  31.849  1.00  0.00     0.002 A 
ATOM     91  C   UNL A   1      45.313  35.614  29.632  1.00  0.00     0.091 A 
ATOM     92  F   UNL A   1      44.316  34.162  28.023  1.00  0.00    -0.205 F 
ATOM     93  C   UNL A   1      45.799  35.810  30.934  1.00  0.00     0.022 A 
BRANCH  91  94
ATOM     94  S   UNL A   1      45.442  36.996  28.491  1.00  0.00     0.127 S 
ATOM     95  O   UNL A   1      46.029  38.031  29.342  1.00  0.00    -0.237 OA
ATOM     96  O   UNL A   1      46.341  36.466  27.465  1.00  0.00    -0.237 OA
ATOM     97  O   UNL A   1      44.087  37.266  28.029  1.00  0.00    -0.744 OA
ENDBRANCH  91  94
ENDBRANCH  64  87
ENDBRANCH  38  39
ENDBRANCH  31  33
ENDBRANCH  30  31
ENDBRANCH  29  30
ENDBRANCH  28  29
ENDBRANCH  27  28
ENDBRANCH  26  27
ENDBRANCH  25  26
ENDBRANCH   1  25
TORSDOF 26
ENDMDL
