MODEL 1
REMARK VINA RESULT:      -8.1      0.000      0.000
REMARK SMILES O=C(CCCN1C(=O)C(=O)/C(=C(/[O-])c2ccccc2)[C@@H]1/C=C/c1ccccc1)OCCOCCOCCOCCOC(=O)c1ccc(-c2c3nc(c(-c4cccc(S(=O)(=O)[O-])c4F)c4ccc([nH]4)c(-c4cccc(S(=O)(=O)[O-])c4F)c4nc(c(-c5cccc(S(=O)(=O)[O-])c5F)c5ccc2[nH]5)C=C4)C=C3)cc1
REMARK SMILES IDX 34 1 33 2 32 3 31 4 30 5 29 6 2 7 1 8 3 9 4 10 5 11 6 12
REMARK SMILES IDX 7 13 20 14 8 15 9 16 11 17 10 18 12 19 13 20 21 21 22 22
REMARK SMILES IDX 23 23 24 24 28 25 25 26 27 27 26 28 14 29 15 30 19 31 16 32
REMARK SMILES IDX 18 33 17 34 35 35 36 36 37 37 38 38 39 39 40 40 41 41 42 42
REMARK SMILES IDX 43 43 44 44 45 45 106 46 46 47 105 48 47 49 48 50 49 51
REMARK SMILES IDX 99 52 50 53 104 54 98 55 100 56 51 57 103 58 97 59 96 60
REMARK SMILES IDX 52 62 84 63 64 64 83 65 65 66 68 67 82 68 101 69 66 70 67 71
REMARK SMILES IDX 81 73 102 74 69 75 53 76 54 77 62 78 55 79 57 80 63 81 56 82
REMARK SMILES IDX 58 83 59 84 60 85 61 86 85 87 86 88 94 89 87 90 89 91 95 92
REMARK SMILES IDX 88 93 90 94 91 95 92 96 93 97 70 98 71 99 79 100 72 101
REMARK SMILES IDX 74 102 80 103 73 104 75 105 76 106 77 107 78 108
REMARK H PARENT 100 61 68 72
REMARK Flexibility Score: inf
ROOT
ATOM      1  C   UNL A   1      33.052  28.548  26.781  1.00  0.00     0.188 C 
ENDROOT
BRANCH   1   2
ATOM      2  C   UNL A   1      33.370  27.571  25.647  1.00  0.00     0.188 C 
BRANCH   2   3
ATOM      3  O   UNL A   1      32.289  26.907  25.013  1.00  0.00    -0.376 OA
BRANCH   3   4
ATOM      4  C   UNL A   1      31.820  25.671  25.528  1.00  0.00     0.202 C 
BRANCH   4   5
ATOM      5  C   UNL A   1      32.341  24.344  24.999  1.00  0.00     0.261 C 
BRANCH   5   6
ATOM      6  O   UNL A   1      33.545  23.925  25.651  1.00  0.00    -0.463 OA
BRANCH   6   7
ATOM      7  C   UNL A   1      34.375  23.244  24.848  1.00  0.00     0.305 C 
ATOM      8  O   UNL A   1      34.131  22.128  24.407  1.00  0.00    -0.252 OA
BRANCH   7   9
ATOM      9  C   UNL A   1      35.676  23.959  24.607  1.00  0.00     0.124 C 
BRANCH   9  10
ATOM     10  C   UNL A   1      37.012  23.419  25.126  1.00  0.00     0.033 C 
BRANCH  10  11
ATOM     11  C   UNL A   1      37.723  23.763  26.467  1.00  0.00     0.121 C 
BRANCH  11  12
ATOM     12  N   UNL A   1      39.198  23.915  26.533  1.00  0.00    -0.325 N 
ATOM     13  C   UNL A   1      40.006  22.794  26.639  1.00  0.00     0.295 C 
ATOM     14  C   UNL A   1      39.967  25.157  26.655  1.00  0.00     0.143 C 
ATOM     15  O   UNL A   1      39.662  21.623  26.693  1.00  0.00    -0.265 OA
ATOM     16  C   UNL A   1      41.450  23.257  26.577  1.00  0.00     0.248 C 
ATOM     17  C   UNL A   1      41.432  24.739  26.584  1.00  0.00     0.024 C 
ATOM     18  O   UNL A   1      42.404  22.509  26.450  1.00  0.00    -0.283 OA
ATOM     19  C   UNL A   1      42.536  25.518  26.578  1.00  0.00    -0.092 C 
ATOM     20  O   UNL A   1      42.481  26.900  26.591  1.00  0.00    -0.872 OA
BRANCH  14  21
ATOM     21  C   UNL A   1      39.648  25.821  27.984  1.00  0.00     0.003 C 
ATOM     22  C   UNL A   1      39.281  27.105  28.071  1.00  0.00     0.006 C 
BRANCH  22  23
ATOM     23  C   UNL A   1      38.774  27.890  29.177  1.00  0.00    -0.026 A 
ATOM     24  C   UNL A   1      38.452  29.228  28.906  1.00  0.00     0.008 A 
ATOM     25  C   UNL A   1      38.891  27.441  30.487  1.00  0.00     0.008 A 
ATOM     26  C   UNL A   1      38.277  30.127  29.949  1.00  0.00     0.001 A 
ATOM     27  C   UNL A   1      38.716  28.346  31.531  1.00  0.00     0.001 A 
ATOM     28  C   UNL A   1      38.420  29.686  31.262  1.00  0.00     0.000 A 
ENDBRANCH  22  23
ENDBRANCH  14  21
BRANCH  19  29
ATOM     29  C   UNL A   1      43.930  25.030  26.646  1.00  0.00    -0.033 A 
ATOM     30  C   UNL A   1      44.652  24.836  25.458  1.00  0.00     0.007 A 
ATOM     31  C   UNL A   1      44.543  24.711  27.865  1.00  0.00     0.007 A 
ATOM     32  C   UNL A   1      45.963  24.350  25.489  1.00  0.00     0.001 A 
ATOM     33  C   UNL A   1      45.857  24.227  27.894  1.00  0.00     0.001 A 
ATOM     34  C   UNL A   1      46.566  24.049  26.707  1.00  0.00     0.000 A 
ENDBRANCH  19  29
ENDBRANCH  11  12
ENDBRANCH  10  11
ENDBRANCH   9  10
ENDBRANCH   7   9
ENDBRANCH   6   7
ENDBRANCH   5   6
ENDBRANCH   4   5
ENDBRANCH   3   4
ENDBRANCH   2   3
ENDBRANCH   1   2
BRANCH   1  35
ATOM     35  O   UNL A   1      33.227  29.904  26.445  1.00  0.00    -0.377 OA
BRANCH  35  36
ATOM     36  C   UNL A   1      33.388  30.889  27.463  1.00  0.00     0.188 C 
BRANCH  36  37
ATOM     37  C   UNL A   1      34.655  31.763  27.631  1.00  0.00     0.188 C 
BRANCH  37  38
ATOM     38  O   UNL A   1      34.995  32.157  28.938  1.00  0.00    -0.376 OA
BRANCH  38  39
ATOM     39  C   UNL A   1      35.291  33.490  29.290  1.00  0.00     0.202 C 
BRANCH  39  40
ATOM     40  C   UNL A   1      34.515  34.385  30.280  1.00  0.00     0.261 C 
BRANCH  40  41
ATOM     41  O   UNL A   1      35.119  34.748  31.518  1.00  0.00    -0.460 OA
BRANCH  41  42
ATOM     42  C   UNL A   1      34.760  34.049  32.625  1.00  0.00     0.338 C 
ATOM     43  O   UNL A   1      33.646  33.628  32.879  1.00  0.00    -0.246 OA
BRANCH  42  44
ATOM     44  C   UNL A   1      35.996  33.665  33.365  1.00  0.00     0.060 A 
ATOM     45  C   UNL A   1      35.905  33.465  34.751  1.00  0.00     0.016 A 
ATOM     46  C   UNL A   1      37.199  33.400  32.701  1.00  0.00     0.016 A 
ATOM     47  C   UNL A   1      37.025  33.060  35.483  1.00  0.00     0.010 A 
ATOM     48  C   UNL A   1      38.324  33.010  33.435  1.00  0.00     0.010 A 
ATOM     49  C   UNL A   1      38.257  32.889  34.837  1.00  0.00    -0.014 A 
BRANCH  49  50
ATOM     50  C   UNL A   1      39.517  32.910  35.626  1.00  0.00     0.031 A 
ATOM     51  C   UNL A   1      40.467  31.758  35.417  1.00  0.00     0.074 A 
ATOM     52  C   UNL A   1      39.817  33.877  36.512  1.00  0.00     0.049 A 
ATOM     53  N   UNL A   1      41.577  31.465  36.041  1.00  0.00    -0.248 NA
ATOM     54  C   UNL A   1      40.098  30.796  34.364  1.00  0.00     0.031 C 
ATOM     55  C   UNL A   1      39.006  35.058  36.792  1.00  0.00     0.029 A 
ATOM     56  N   UNL A   1      40.888  33.992  37.368  1.00  0.00    -0.354 N 
ATOM     57  C   UNL A   1      42.012  30.267  35.487  1.00  0.00     0.074 A 
ATOM     58  C   UNL A   1      41.044  29.881  34.487  1.00  0.00     0.031 C 
ATOM     59  C   UNL A   1      39.588  35.760  37.782  1.00  0.00     0.029 A 
ATOM     60  C   UNL A   1      40.795  35.062  38.226  1.00  0.00     0.049 A 
ATOM     61  H   UNL A   1      41.649  33.366  37.366  1.00  0.00     0.167 HD
ATOM     62  C   UNL A   1      43.123  29.550  35.775  1.00  0.00     0.034 A 
ATOM     63  C   UNL A   1      41.577  35.417  39.268  1.00  0.00     0.034 A 
ATOM     64  C   UNL A   1      44.091  29.936  36.762  1.00  0.00     0.049 A 
ATOM     65  C   UNL A   1      42.794  34.585  39.598  1.00  0.00     0.074 A 
ATOM     66  C   UNL A   1      45.270  29.302  37.102  1.00  0.00     0.029 A 
ATOM     67  N   UNL A   1      43.980  31.049  37.581  1.00  0.00    -0.354 N 
ATOM     68  N   UNL A   1      43.246  33.506  39.005  1.00  0.00    -0.248 NA
ATOM     69  C   UNL A   1      43.627  35.037  40.725  1.00  0.00     0.031 C 
ATOM     70  C   UNL A   1      45.853  30.007  38.160  1.00  0.00     0.029 A 
ATOM     71  C   UNL A   1      45.063  31.112  38.439  1.00  0.00     0.049 A 
ATOM     72  H   UNL A   1      43.240  31.699  37.556  1.00  0.00     0.167 HD
ATOM     73  C   UNL A   1      44.435  33.179  39.653  1.00  0.00     0.074 A 
ATOM     74  C   UNL A   1      44.637  34.178  40.680  1.00  0.00     0.031 C 
ATOM     75  C   UNL A   1      45.281  32.143  39.421  1.00  0.00     0.034 A 
BRANCH  62  76
ATOM     76  C   UNL A   1      43.339  28.270  35.012  1.00  0.00     0.023 A 
ATOM     77  C   UNL A   1      43.979  28.296  33.755  1.00  0.00     0.012 A 
ATOM     78  C   UNL A   1      42.923  27.038  35.549  1.00  0.00     0.148 A 
ATOM     79  C   UNL A   1      44.161  27.121  33.026  1.00  0.00     0.002 A 
ATOM     80  C   UNL A   1      43.155  25.865  34.842  1.00  0.00     0.091 A 
ATOM     81  F   UNL A   1      42.291  27.036  36.732  1.00  0.00    -0.205 F 
ATOM     82  C   UNL A   1      43.758  25.906  33.575  1.00  0.00     0.022 A 
BRANCH  80  83
ATOM     83  S   UNL A   1      42.750  24.244  35.499  1.00  0.00     0.127 S 
ATOM     84  O   UNL A   1      43.642  24.164  36.656  1.00  0.00    -0.237 OA
ATOM     85  O   UNL A   1      41.333  24.394  35.831  1.00  0.00    -0.237 OA
ATOM     86  O   UNL A   1      43.028  23.294  34.431  1.00  0.00    -0.744 OA
ENDBRANCH  80  83
ENDBRANCH  62  76
BRANCH  63  87
ATOM     87  C   UNL A   1      41.250  36.631  40.073  1.00  0.00     0.023 A 
ATOM     88  C   UNL A   1      40.377  36.525  41.173  1.00  0.00     0.012 A 
ATOM     89  C   UNL A   1      41.799  37.888  39.753  1.00  0.00     0.148 A 
ATOM     90  C   UNL A   1      40.035  37.653  41.923  1.00  0.00     0.002 A 
ATOM     91  C   UNL A   1      41.498  38.997  40.536  1.00  0.00     0.091 A 
ATOM     92  F   UNL A   1      42.613  37.972  38.690  1.00  0.00    -0.205 F 
ATOM     93  C   UNL A   1      40.603  38.885  41.611  1.00  0.00     0.022 A 
BRANCH  91  94
ATOM     94  S   UNL A   1      42.265  40.601  40.280  1.00  0.00     0.127 S 
ATOM     95  O   UNL A   1      42.604  40.992  41.647  1.00  0.00    -0.237 OA
ATOM     96  O   UNL A   1      43.410  40.254  39.438  1.00  0.00    -0.237 OA
ATOM     97  O   UNL A   1      41.258  41.424  39.625  1.00  0.00    -0.744 OA
ENDBRANCH  91  94
ENDBRANCH  63  87
BRANCH  75  98
ATOM     98  C   UNL A   1      46.544  32.059  40.238  1.00  0.00     0.023 A 
ATOM     99  C   UNL A   1      47.702  32.751  39.833  1.00  0.00     0.012 A 
ATOM    100  C   UNL A   1      46.548  31.366  41.466  1.00  0.00     0.148 A 
ATOM    101  C   UNL A   1      48.853  32.729  40.623  1.00  0.00     0.002 A 
ATOM    102  C   UNL A   1      47.678  31.394  42.273  1.00  0.00     0.091 A 
ATOM    103  F   UNL A   1      45.440  30.703  41.828  1.00  0.00    -0.205 F 
ATOM    104  C   UNL A   1      48.837  32.063  41.847  1.00  0.00     0.022 A 
BRANCH 102 105
ATOM    105  S   UNL A   1      47.715  30.655  43.910  1.00  0.00     0.127 S 
ATOM    106  O   UNL A   1      48.576  29.493  43.693  1.00  0.00    -0.237 OA
ATOM    107  O   UNL A   1      48.316  31.718  44.716  1.00  0.00    -0.237 OA
ATOM    108  O   UNL A   1      46.331  30.350  44.247  1.00  0.00    -0.744 OA
ENDBRANCH 102 105
ENDBRANCH  75  98
ENDBRANCH  49  50
ENDBRANCH  42  44
ENDBRANCH  41  42
ENDBRANCH  40  41
ENDBRANCH  39  40
ENDBRANCH  38  39
ENDBRANCH  37  38
ENDBRANCH  36  37
ENDBRANCH  35  36
ENDBRANCH   1  35
TORSDOF 29
ENDMDL
MODEL 2
REMARK VINA RESULT:      -7.8      4.045      7.326
REMARK SMILES O=C(CCCN1C(=O)C(=O)/C(=C(/[O-])c2ccccc2)[C@@H]1/C=C/c1ccccc1)OCCOCCOCCOCCOC(=O)c1ccc(-c2c3nc(c(-c4cccc(S(=O)(=O)[O-])c4F)c4ccc([nH]4)c(-c4cccc(S(=O)(=O)[O-])c4F)c4nc(c(-c5cccc(S(=O)(=O)[O-])c5F)c5ccc2[nH]5)C=C4)C=C3)cc1
REMARK SMILES IDX 34 1 33 2 32 3 31 4 30 5 29 6 2 7 1 8 3 9 4 10 5 11 6 12
REMARK SMILES IDX 7 13 20 14 8 15 9 16 11 17 10 18 12 19 13 20 21 21 22 22
REMARK SMILES IDX 23 23 24 24 28 25 25 26 27 27 26 28 14 29 15 30 19 31 16 32
REMARK SMILES IDX 18 33 17 34 35 35 36 36 37 37 38 38 39 39 40 40 41 41 42 42
REMARK SMILES IDX 43 43 44 44 45 45 106 46 46 47 105 48 47 49 48 50 49 51
REMARK SMILES IDX 99 52 50 53 104 54 98 55 100 56 51 57 103 58 97 59 96 60
REMARK SMILES IDX 52 62 84 63 64 64 83 65 65 66 68 67 82 68 101 69 66 70 67 71
REMARK SMILES IDX 81 73 102 74 69 75 53 76 54 77 62 78 55 79 57 80 63 81 56 82
REMARK SMILES IDX 58 83 59 84 60 85 61 86 85 87 86 88 94 89 87 90 89 91 95 92
REMARK SMILES IDX 88 93 90 94 91 95 92 96 93 97 70 98 71 99 79 100 72 101
REMARK SMILES IDX 74 102 80 103 73 104 75 105 76 106 77 107 78 108
REMARK H PARENT 100 61 68 72
REMARK Flexibility Score: inf
ROOT
ATOM      1  C   UNL A   1      36.890  29.007  28.152  1.00  0.00     0.188 C 
ENDROOT
BRANCH   1   2
ATOM      2  C   UNL A   1      38.048  29.857  28.679  1.00  0.00     0.188 C 
BRANCH   2   3
ATOM      3  O   UNL A   1      38.834  29.335  29.739  1.00  0.00    -0.376 OA
BRANCH   3   4
ATOM      4  C   UNL A   1      38.231  29.055  30.992  1.00  0.00     0.202 C 
BRANCH   4   5
ATOM      5  C   UNL A   1      38.959  28.251  32.058  1.00  0.00     0.261 C 
BRANCH   5   6
ATOM      6  O   UNL A   1      38.732  28.755  33.379  1.00  0.00    -0.463 OA
BRANCH   6   7
ATOM      7  C   UNL A   1      39.863  29.020  34.048  1.00  0.00     0.305 C 
ATOM      8  O   UNL A   1      39.917  29.758  35.025  1.00  0.00    -0.252 OA
BRANCH   7   9
ATOM      9  C   UNL A   1      41.076  28.380  33.431  1.00  0.00     0.124 C 
BRANCH   9  10
ATOM     10  C   UNL A   1      42.500  28.784  33.824  1.00  0.00     0.033 C 
BRANCH  10  11
ATOM     11  C   UNL A   1      43.319  28.308  35.059  1.00  0.00     0.121 C 
BRANCH  11  12
ATOM     12  N   UNL A   1      43.960  26.971  35.082  1.00  0.00    -0.325 N 
ATOM     13  C   UNL A   1      45.012  26.722  35.951  1.00  0.00     0.295 C 
ATOM     14  C   UNL A   1      43.727  25.848  34.169  1.00  0.00     0.143 C 
ATOM     15  O   UNL A   1      45.525  27.492  36.748  1.00  0.00    -0.265 OA
ATOM     16  C   UNL A   1      45.381  25.255  35.822  1.00  0.00     0.248 C 
ATOM     17  C   UNL A   1      44.576  24.701  34.707  1.00  0.00     0.024 C 
ATOM     18  O   UNL A   1      46.134  24.670  36.580  1.00  0.00    -0.283 OA
ATOM     19  C   UNL A   1      44.658  23.427  34.265  1.00  0.00    -0.092 C 
ATOM     20  O   UNL A   1      43.894  22.946  33.216  1.00  0.00    -0.872 OA
BRANCH  14  21
ATOM     21  C   UNL A   1      44.159  26.240  32.766  1.00  0.00     0.003 C 
ATOM     22  C   UNL A   1      45.410  26.058  32.326  1.00  0.00     0.006 C 
BRANCH  22  23
ATOM     23  C   UNL A   1      45.998  26.189  31.010  1.00  0.00    -0.026 A 
ATOM     24  C   UNL A   1      47.396  26.281  30.950  1.00  0.00     0.008 A 
ATOM     25  C   UNL A   1      45.217  26.514  29.906  1.00  0.00     0.008 A 
ATOM     26  C   UNL A   1      48.014  26.731  29.790  1.00  0.00     0.001 A 
ATOM     27  C   UNL A   1      45.842  26.965  28.745  1.00  0.00     0.001 A 
ATOM     28  C   UNL A   1      47.235  27.083  28.692  1.00  0.00     0.000 A 
ENDBRANCH  22  23
ENDBRANCH  14  21
BRANCH  19  29
ATOM     29  C   UNL A   1      45.609  22.408  34.755  1.00  0.00    -0.033 A 
ATOM     30  C   UNL A   1      45.174  21.446  35.679  1.00  0.00     0.007 A 
ATOM     31  C   UNL A   1      46.954  22.398  34.357  1.00  0.00     0.007 A 
ATOM     32  C   UNL A   1      46.058  20.485  36.183  1.00  0.00     0.001 A 
ATOM     33  C   UNL A   1      47.836  21.434  34.860  1.00  0.00     0.001 A 
ATOM     34  C   UNL A   1      47.387  20.478  35.770  1.00  0.00     0.000 A 
ENDBRANCH  19  29
ENDBRANCH  11  12
ENDBRANCH  10  11
ENDBRANCH   9  10
ENDBRANCH   7   9
ENDBRANCH   6   7
ENDBRANCH   5   6
ENDBRANCH   4   5
ENDBRANCH   3   4
ENDBRANCH   2   3
ENDBRANCH   1   2
BRANCH   1  35
ATOM     35  O   UNL A   1      35.622  29.395  28.624  1.00  0.00    -0.377 OA
BRANCH  35  36
ATOM     36  C   UNL A   1      34.589  29.762  27.712  1.00  0.00     0.188 C 
BRANCH  36  37
ATOM     37  C   UNL A   1      34.239  31.224  27.341  1.00  0.00     0.188 C 
BRANCH  37  38
ATOM     38  O   UNL A   1      33.934  32.099  28.399  1.00  0.00    -0.376 OA
BRANCH  38  39
ATOM     39  C   UNL A   1      34.887  32.528  29.346  1.00  0.00     0.202 C 
BRANCH  39  40
ATOM     40  C   UNL A   1      35.281  33.984  29.675  1.00  0.00     0.261 C 
BRANCH  40  41
ATOM     41  O   UNL A   1      34.935  34.533  30.943  1.00  0.00    -0.460 OA
BRANCH  41  42
ATOM     42  C   UNL A   1      34.873  33.688  32.004  1.00  0.00     0.338 C 
ATOM     43  O   UNL A   1      33.906  33.030  32.343  1.00  0.00    -0.246 OA
BRANCH  42  44
ATOM     44  C   UNL A   1      36.250  33.504  32.544  1.00  0.00     0.060 A 
ATOM     45  C   UNL A   1      37.164  34.559  32.404  1.00  0.00     0.016 A 
ATOM     46  C   UNL A   1      36.609  32.362  33.269  1.00  0.00     0.016 A 
ATOM     47  C   UNL A   1      38.454  34.453  32.935  1.00  0.00     0.010 A 
ATOM     48  C   UNL A   1      37.905  32.250  33.786  1.00  0.00     0.010 A 
ATOM     49  C   UNL A   1      38.851  33.272  33.576  1.00  0.00    -0.014 A 
BRANCH  49  50
ATOM     50  C   UNL A   1      40.297  32.964  33.734  1.00  0.00     0.031 A 
ATOM     51  C   UNL A   1      40.983  32.308  32.563  1.00  0.00     0.074 A 
ATOM     52  C   UNL A   1      40.986  33.217  34.862  1.00  0.00     0.049 A 
ATOM     53  N   UNL A   1      42.197  31.837  32.462  1.00  0.00    -0.248 NA
ATOM     54  C   UNL A   1      40.174  32.152  31.341  1.00  0.00     0.031 C 
ATOM     55  C   UNL A   1      40.456  33.870  36.056  1.00  0.00     0.029 A 
ATOM     56  N   UNL A   1      42.288  32.918  35.189  1.00  0.00    -0.354 N 
ATOM     57  C   UNL A   1      42.281  31.292  31.186  1.00  0.00     0.074 A 
ATOM     58  C   UNL A   1      40.995  31.479  30.554  1.00  0.00     0.031 C 
ATOM     59  C   UNL A   1      41.413  33.887  37.003  1.00  0.00     0.029 A 
ATOM     60  C   UNL A   1      42.611  33.220  36.491  1.00  0.00     0.049 A 
ATOM     61  H   UNL A   1      42.927  32.525  34.552  1.00  0.00     0.167 HD
ATOM     62  C   UNL A   1      43.335  30.694  30.584  1.00  0.00     0.034 A 
ATOM     63  C   UNL A   1      43.734  32.959  37.196  1.00  0.00     0.034 A 
ATOM     64  C   UNL A   1      44.616  30.514  31.206  1.00  0.00     0.049 A 
ATOM     65  C   UNL A   1      44.888  32.259  36.518  1.00  0.00     0.074 A 
ATOM     66  C   UNL A   1      45.761  29.957  30.669  1.00  0.00     0.029 A 
ATOM     67  N   UNL A   1      44.914  30.871  32.511  1.00  0.00    -0.354 N 
ATOM     68  N   UNL A   1      44.988  31.832  35.281  1.00  0.00    -0.248 NA
ATOM     69  C   UNL A   1      46.097  32.029  37.325  1.00  0.00     0.031 C 
ATOM     70  C   UNL A   1      46.742  29.936  31.665  1.00  0.00     0.029 A 
ATOM     71  C   UNL A   1      46.223  30.531  32.804  1.00  0.00     0.049 A 
ATOM     72  H   UNL A   1      44.289  31.302  33.138  1.00  0.00     0.167 HD
ATOM     73  C   UNL A   1      46.280  31.329  35.150  1.00  0.00     0.074 A 
ATOM     74  C   UNL A   1      46.929  31.509  36.431  1.00  0.00     0.031 C 
ATOM     75  C   UNL A   1      46.874  30.766  34.068  1.00  0.00     0.034 A 
BRANCH  62  76
ATOM     76  C   UNL A   1      43.134  30.185  29.181  1.00  0.00     0.023 A 
ATOM     77  C   UNL A   1      43.610  30.932  28.083  1.00  0.00     0.012 A 
ATOM     78  C   UNL A   1      42.489  28.956  28.951  1.00  0.00     0.148 A 
ATOM     79  C   UNL A   1      43.406  30.485  26.778  1.00  0.00     0.002 A 
ATOM     80  C   UNL A   1      42.336  28.491  27.651  1.00  0.00     0.091 A 
ATOM     81  F   UNL A   1      42.019  28.273  30.005  1.00  0.00    -0.205 F 
ATOM     82  C   UNL A   1      42.780  29.261  26.563  1.00  0.00     0.022 A 
BRANCH  80  83
ATOM     83  S   UNL A   1      41.619  26.888  27.275  1.00  0.00     0.127 S 
ATOM     84  O   UNL A   1      42.235  26.043  28.297  1.00  0.00    -0.237 OA
ATOM     85  O   UNL A   1      40.191  27.140  27.472  1.00  0.00    -0.237 OA
ATOM     86  O   UNL A   1      41.999  26.586  25.903  1.00  0.00    -0.744 OA
ENDBRANCH  80  83
ENDBRANCH  62  76
BRANCH  63  87
ATOM     87  C   UNL A   1      43.837  33.377  38.625  1.00  0.00     0.023 A 
ATOM     88  C   UNL A   1      44.454  34.599  38.953  1.00  0.00     0.012 A 
ATOM     89  C   UNL A   1      43.326  32.568  39.659  1.00  0.00     0.148 A 
ATOM     90  C   UNL A   1      44.587  34.996  40.285  1.00  0.00     0.002 A 
ATOM     91  C   UNL A   1      43.412  32.994  40.980  1.00  0.00     0.091 A 
ATOM     92  F   UNL A   1      42.759  31.399  39.329  1.00  0.00    -0.205 F 
ATOM     93  C   UNL A   1      44.057  34.200  41.297  1.00  0.00     0.022 A 
BRANCH  91  94
ATOM     94  S   UNL A   1      42.663  32.092  42.341  1.00  0.00     0.127 S 
ATOM     95  O   UNL A   1      43.292  32.721  43.500  1.00  0.00    -0.237 OA
ATOM     96  O   UNL A   1      41.245  32.407  42.164  1.00  0.00    -0.237 OA
ATOM     97  O   UNL A   1      43.003  30.692  42.126  1.00  0.00    -0.744 OA
ENDBRANCH  91  94
ENDBRANCH  63  87
BRANCH  75  98
ATOM     98  C   UNL A   1      48.321  30.358  34.182  1.00  0.00     0.023 A 
ATOM     99  C   UNL A   1      49.344  31.319  34.056  1.00  0.00     0.012 A 
ATOM    100  C   UNL A   1      48.658  29.030  34.513  1.00  0.00     0.148 A 
ATOM    101  C   UNL A   1      50.680  30.957  34.228  1.00  0.00     0.002 A 
ATOM    102  C   UNL A   1      49.986  28.688  34.736  1.00  0.00     0.091 A 
ATOM    103  F   UNL A   1      47.671  28.128  34.615  1.00  0.00    -0.205 F 
ATOM    104  C   UNL A   1      51.000  29.646  34.580  1.00  0.00     0.022 A 
BRANCH 102 105
ATOM    105  S   UNL A   1      50.482  27.055  35.296  1.00  0.00     0.127 S 
ATOM    106  O   UNL A   1      50.279  26.252  34.090  1.00  0.00    -0.237 OA
ATOM    107  O   UNL A   1      51.883  27.265  35.660  1.00  0.00    -0.237 OA
ATOM    108  O   UNL A   1      49.608  26.729  36.414  1.00  0.00    -0.744 OA
ENDBRANCH 102 105
ENDBRANCH  75  98
ENDBRANCH  49  50
ENDBRANCH  42  44
ENDBRANCH  41  42
ENDBRANCH  40  41
ENDBRANCH  39  40
ENDBRANCH  38  39
ENDBRANCH  37  38
ENDBRANCH  36  37
ENDBRANCH  35  36
ENDBRANCH   1  35
TORSDOF 29
ENDMDL
MODEL 3
REMARK VINA RESULT:      -7.6      8.491     14.974
REMARK SMILES O=C(CCCN1C(=O)C(=O)/C(=C(/[O-])c2ccccc2)[C@@H]1/C=C/c1ccccc1)OCCOCCOCCOCCOC(=O)c1ccc(-c2c3nc(c(-c4cccc(S(=O)(=O)[O-])c4F)c4ccc([nH]4)c(-c4cccc(S(=O)(=O)[O-])c4F)c4nc(c(-c5cccc(S(=O)(=O)[O-])c5F)c5ccc2[nH]5)C=C4)C=C3)cc1
REMARK SMILES IDX 34 1 33 2 32 3 31 4 30 5 29 6 2 7 1 8 3 9 4 10 5 11 6 12
REMARK SMILES IDX 7 13 20 14 8 15 9 16 11 17 10 18 12 19 13 20 21 21 22 22
REMARK SMILES IDX 23 23 24 24 28 25 25 26 27 27 26 28 14 29 15 30 19 31 16 32
REMARK SMILES IDX 18 33 17 34 35 35 36 36 37 37 38 38 39 39 40 40 41 41 42 42
REMARK SMILES IDX 43 43 44 44 45 45 106 46 46 47 105 48 47 49 48 50 49 51
REMARK SMILES IDX 99 52 50 53 104 54 98 55 100 56 51 57 103 58 97 59 96 60
REMARK SMILES IDX 52 62 84 63 64 64 83 65 65 66 68 67 82 68 101 69 66 70 67 71
REMARK SMILES IDX 81 73 102 74 69 75 53 76 54 77 62 78 55 79 57 80 63 81 56 82
REMARK SMILES IDX 58 83 59 84 60 85 61 86 85 87 86 88 94 89 87 90 89 91 95 92
REMARK SMILES IDX 88 93 90 94 91 95 92 96 93 97 70 98 71 99 79 100 72 101
REMARK SMILES IDX 74 102 80 103 73 104 75 105 76 106 77 107 78 108
REMARK H PARENT 100 61 68 72
REMARK Flexibility Score: inf
ROOT
ATOM      1  C   UNL A   1      50.240  46.164  35.491  1.00  0.00     0.188 C 
ENDROOT
BRANCH   1   2
ATOM      2  C   UNL A   1      50.712  45.018  34.595  1.00  0.00     0.188 C 
BRANCH   2   3
ATOM      3  O   UNL A   1      49.742  44.102  34.113  1.00  0.00    -0.376 OA
BRANCH   3   4
ATOM      4  C   UNL A   1      50.154  42.857  33.572  1.00  0.00     0.202 C 
BRANCH   4   5
ATOM      5  C   UNL A   1      49.638  42.367  32.228  1.00  0.00     0.261 C 
BRANCH   5   6
ATOM      6  O   UNL A   1      48.447  43.046  31.814  1.00  0.00    -0.463 OA
BRANCH   6   7
ATOM      7  C   UNL A   1      48.349  43.187  30.485  1.00  0.00     0.305 C 
ATOM      8  O   UNL A   1      49.283  43.523  29.767  1.00  0.00    -0.252 OA
BRANCH   7   9
ATOM      9  C   UNL A   1      46.953  42.965  29.971  1.00  0.00     0.124 C 
BRANCH   9  10
ATOM     10  C   UNL A   1      46.487  41.608  29.436  1.00  0.00     0.033 C 
BRANCH  10  11
ATOM     11  C   UNL A   1      46.012  41.264  27.994  1.00  0.00     0.121 C 
BRANCH  11  12
ATOM     12  N   UNL A   1      45.598  39.885  27.634  1.00  0.00    -0.325 N 
ATOM     13  C   UNL A   1      46.513  39.013  27.064  1.00  0.00     0.295 C 
ATOM     14  C   UNL A   1      44.246  39.319  27.661  1.00  0.00     0.143 C 
ATOM     15  O   UNL A   1      47.685  39.226  26.794  1.00  0.00    -0.265 OA
ATOM     16  C   UNL A   1      45.833  37.664  26.911  1.00  0.00     0.248 C 
ATOM     17  C   UNL A   1      44.411  37.850  27.286  1.00  0.00     0.024 C 
ATOM     18  O   UNL A   1      46.415  36.634  26.622  1.00  0.00    -0.283 OA
ATOM     19  C   UNL A   1      43.475  36.877  27.238  1.00  0.00    -0.092 C 
ATOM     20  O   UNL A   1      42.153  37.088  27.590  1.00  0.00    -0.872 OA
BRANCH  14  21
ATOM     21  C   UNL A   1      43.372  40.048  26.653  1.00  0.00     0.003 C 
ATOM     22  C   UNL A   1      43.685  41.261  26.182  1.00  0.00     0.006 C 
BRANCH  22  23
ATOM     23  C   UNL A   1      43.114  42.058  25.117  1.00  0.00    -0.026 A 
ATOM     24  C   UNL A   1      42.002  41.520  24.453  1.00  0.00     0.008 A 
ATOM     25  C   UNL A   1      43.807  43.138  24.581  1.00  0.00     0.008 A 
ATOM     26  C   UNL A   1      41.600  42.045  23.232  1.00  0.00     0.001 A 
ATOM     27  C   UNL A   1      43.400  43.660  23.355  1.00  0.00     0.001 A 
ATOM     28  C   UNL A   1      42.307  43.109  22.679  1.00  0.00     0.000 A 
ENDBRANCH  22  23
ENDBRANCH  14  21
BRANCH  19  29
ATOM     29  C   UNL A   1      43.688  35.505  26.732  1.00  0.00    -0.033 A 
ATOM     30  C   UNL A   1      43.435  35.222  25.380  1.00  0.00     0.007 A 
ATOM     31  C   UNL A   1      44.094  34.460  27.573  1.00  0.00     0.007 A 
ATOM     32  C   UNL A   1      43.600  33.927  24.877  1.00  0.00     0.001 A 
ATOM     33  C   UNL A   1      44.262  33.165  27.066  1.00  0.00     0.001 A 
ATOM     34  C   UNL A   1      44.017  32.900  25.719  1.00  0.00     0.000 A 
ENDBRANCH  19  29
ENDBRANCH  11  12
ENDBRANCH  10  11
ENDBRANCH   9  10
ENDBRANCH   7   9
ENDBRANCH   6   7
ENDBRANCH   5   6
ENDBRANCH   4   5
ENDBRANCH   3   4
ENDBRANCH   2   3
ENDBRANCH   1   2
BRANCH   1  35
ATOM     35  O   UNL A   1      49.061  45.893  36.210  1.00  0.00    -0.377 OA
BRANCH  35  36
ATOM     36  C   UNL A   1      47.875  46.648  35.974  1.00  0.00     0.188 C 
BRANCH  36  37
ATOM     37  C   UNL A   1      46.542  46.036  35.477  1.00  0.00     0.188 C 
BRANCH  37  38
ATOM     38  O   UNL A   1      46.622  44.862  34.706  1.00  0.00    -0.376 OA
BRANCH  38  39
ATOM     39  C   UNL A   1      45.610  44.455  33.812  1.00  0.00     0.202 C 
BRANCH  39  40
ATOM     40  C   UNL A   1      45.286  43.013  33.368  1.00  0.00     0.261 C 
BRANCH  40  41
ATOM     41  O   UNL A   1      46.126  41.943  33.794  1.00  0.00    -0.460 OA
BRANCH  41  42
ATOM     42  C   UNL A   1      45.687  41.163  34.815  1.00  0.00     0.338 C 
ATOM     43  O   UNL A   1      45.493  41.523  35.962  1.00  0.00    -0.246 OA
BRANCH  42  44
ATOM     44  C   UNL A   1      45.245  39.854  34.255  1.00  0.00     0.060 A 
ATOM     45  C   UNL A   1      45.667  38.681  34.899  1.00  0.00     0.016 A 
ATOM     46  C   UNL A   1      44.347  39.777  33.185  1.00  0.00     0.016 A 
ATOM     47  C   UNL A   1      45.243  37.430  34.440  1.00  0.00     0.010 A 
ATOM     48  C   UNL A   1      43.935  38.524  32.715  1.00  0.00     0.010 A 
ATOM     49  C   UNL A   1      44.423  37.343  33.307  1.00  0.00    -0.014 A 
BRANCH  49  50
ATOM     50  C   UNL A   1      44.336  36.066  32.550  1.00  0.00     0.031 A 
ATOM     51  C   UNL A   1      43.078  35.255  32.727  1.00  0.00     0.074 A 
ATOM     52  C   UNL A   1      45.324  35.610  31.757  1.00  0.00     0.049 A 
ATOM     53  N   UNL A   1      42.779  34.065  32.279  1.00  0.00    -0.248 NA
ATOM     54  C   UNL A   1      42.017  35.875  33.541  1.00  0.00     0.031 C 
ATOM     55  C   UNL A   1      46.578  36.302  31.475  1.00  0.00     0.029 A 
ATOM     56  N   UNL A   1      45.428  34.425  31.067  1.00  0.00    -0.354 N 
ATOM     57  C   UNL A   1      41.519  33.779  32.790  1.00  0.00     0.074 A 
ATOM     58  C   UNL A   1      41.114  34.911  33.591  1.00  0.00     0.031 C 
ATOM     59  C   UNL A   1      47.345  35.512  30.700  1.00  0.00     0.029 A 
ATOM     60  C   UNL A   1      46.649  34.248  30.459  1.00  0.00     0.049 A 
ATOM     61  H   UNL A   1      44.699  33.766  31.013  1.00  0.00     0.167 HD
ATOM     62  C   UNL A   1      40.756  32.676  32.606  1.00  0.00     0.034 A 
ATOM     63  C   UNL A   1      47.155  33.177  29.811  1.00  0.00     0.034 A 
ATOM     64  C   UNL A   1      41.152  31.554  31.803  1.00  0.00     0.049 A 
ATOM     65  C   UNL A   1      46.303  31.940  29.645  1.00  0.00     0.074 A 
ATOM     66  C   UNL A   1      40.437  30.406  31.521  1.00  0.00     0.029 A 
ATOM     67  N   UNL A   1      42.379  31.432  31.172  1.00  0.00    -0.354 N 
ATOM     68  N   UNL A   1      45.076  31.718  30.054  1.00  0.00    -0.248 NA
ATOM     69  C   UNL A   1      46.895  30.815  28.903  1.00  0.00     0.031 C 
ATOM     70  C   UNL A   1      41.250  29.567  30.752  1.00  0.00     0.029 A 
ATOM     71  C   UNL A   1      42.450  30.218  30.511  1.00  0.00     0.049 A 
ATOM     72  H   UNL A   1      43.096  32.108  31.190  1.00  0.00     0.167 HD
ATOM     73  C   UNL A   1      44.735  30.454  29.580  1.00  0.00     0.074 A 
ATOM     74  C   UNL A   1      45.881  29.960  28.848  1.00  0.00     0.031 C 
ATOM     75  C   UNL A   1      43.578  29.763  29.739  1.00  0.00     0.034 A 
BRANCH  62  76
ATOM     76  C   UNL A   1      39.418  32.635  33.297  1.00  0.00     0.023 A 
ATOM     77  C   UNL A   1      39.288  31.997  34.548  1.00  0.00     0.012 A 
ATOM     78  C   UNL A   1      38.293  33.246  32.713  1.00  0.00     0.148 A 
ATOM     79  C   UNL A   1      38.049  31.929  35.184  1.00  0.00     0.002 A 
ATOM     80  C   UNL A   1      37.073  33.221  33.377  1.00  0.00     0.091 A 
ATOM     81  F   UNL A   1      38.430  33.824  31.510  1.00  0.00    -0.205 F 
ATOM     82  C   UNL A   1      36.946  32.550  34.604  1.00  0.00     0.022 A 
BRANCH  80  83
ATOM     83  S   UNL A   1      35.615  34.063  32.754  1.00  0.00     0.127 S 
ATOM     84  O   UNL A   1      35.851  35.434  33.206  1.00  0.00    -0.237 OA
ATOM     85  O   UNL A   1      35.744  33.867  31.310  1.00  0.00    -0.237 OA
ATOM     86  O   UNL A   1      34.473  33.394  33.359  1.00  0.00    -0.744 OA
ENDBRANCH  80  83
ENDBRANCH  62  76
BRANCH  63  87
ATOM     87  C   UNL A   1      48.537  33.223  29.248  1.00  0.00     0.023 A 
ATOM     88  C   UNL A   1      49.635  32.887  30.063  1.00  0.00     0.012 A 
ATOM     89  C   UNL A   1      48.766  33.599  27.910  1.00  0.00     0.148 A 
ATOM     90  C   UNL A   1      50.938  32.952  29.566  1.00  0.00     0.002 A 
ATOM     91  C   UNL A   1      50.062  33.608  27.404  1.00  0.00     0.091 A 
ATOM     92  F   UNL A   1      47.710  33.934  27.155  1.00  0.00    -0.205 F 
ATOM     93  C   UNL A   1      51.150  33.301  28.235  1.00  0.00     0.022 A 
BRANCH  91  94
ATOM     94  S   UNL A   1      50.426  33.938  25.676  1.00  0.00     0.127 S 
ATOM     95  O   UNL A   1      51.583  34.825  25.778  1.00  0.00    -0.237 OA
ATOM     96  O   UNL A   1      50.722  32.596  25.173  1.00  0.00    -0.237 OA
ATOM     97  O   UNL A   1      49.221  34.541  25.123  1.00  0.00    -0.744 OA
ENDBRANCH  91  94
ENDBRANCH  63  87
BRANCH  75  98
ATOM     98  C   UNL A   1      43.449  28.423  29.060  1.00  0.00     0.023 A 
ATOM     99  C   UNL A   1      43.533  27.233  29.810  1.00  0.00     0.012 A 
ATOM    100  C   UNL A   1      43.145  28.353  27.685  1.00  0.00     0.148 A 
ATOM    101  C   UNL A   1      43.347  25.994  29.195  1.00  0.00     0.002 A 
ATOM    102  C   UNL A   1      42.907  27.120  27.091  1.00  0.00     0.091 A 
ATOM    103  F   UNL A   1      43.082  29.496  26.986  1.00  0.00    -0.205 F 
ATOM    104  C   UNL A   1      43.022  25.938  27.841  1.00  0.00     0.022 A 
BRANCH 102 105
ATOM    105  S   UNL A   1      42.380  26.957  25.382  1.00  0.00     0.127 S 
ATOM    106  O   UNL A   1      43.476  26.181  24.804  1.00  0.00    -0.237 OA
ATOM    107  O   UNL A   1      41.119  26.226  25.515  1.00  0.00    -0.237 OA
ATOM    108  O   UNL A   1      42.241  28.314  24.871  1.00  0.00    -0.744 OA
ENDBRANCH 102 105
ENDBRANCH  75  98
ENDBRANCH  49  50
ENDBRANCH  42  44
ENDBRANCH  41  42
ENDBRANCH  40  41
ENDBRANCH  39  40
ENDBRANCH  38  39
ENDBRANCH  37  38
ENDBRANCH  36  37
ENDBRANCH  35  36
ENDBRANCH   1  35
TORSDOF 29
ENDMDL
