MODEL 1
REMARK VINA RESULT:      -8.3      0.000      0.000
REMARK SMILES CC1(C)O[C@@H]2C[C@@H]3[C@H]4CCC5=CC(=O)C=C[C@@]5(C)[C@]4(F)[C@H](O)C[C@]3(C)[C@]2(C(=O)OCCOCCOCCOCCOC(=O)c2ccc(-c3c4nc(c(-c5cccc(S(=O)(=O)[O-])c5F)c5ccc([nH]5)c(-c5cccc(S(=O)(=O)[O-])c5F)c5nc(c(-c6cccc(S(=O)(=O)[O-])c6F)c6ccc3[nH]6)C=C5)C=C4)cc2)O1
REMARK SMILES IDX 36 1 35 2 34 3 33 4 32 5 31 6 30 7 29 8 27 9 28 10 26 11
REMARK SMILES IDX 1 12 2 13 4 14 107 15 3 16 5 17 6 18 24 19 7 20 23 21 25 22
REMARK SMILES IDX 8 23 21 24 9 25 19 26 10 27 17 28 20 29 11 30 16 31 18 32
REMARK SMILES IDX 12 33 15 34 13 35 14 36 22 37 37 39 38 40 39 41 40 42 41 43
REMARK SMILES IDX 42 44 43 45 44 46 45 47 106 48 46 49 105 50 47 51 48 52
REMARK SMILES IDX 49 53 99 54 50 55 104 56 98 57 100 58 51 59 103 60 97 61
REMARK SMILES IDX 96 62 52 64 84 65 64 66 83 67 65 68 68 69 82 70 101 71 66 72
REMARK SMILES IDX 67 73 81 75 102 76 69 77 53 78 54 79 62 80 55 81 57 82 63 83
REMARK SMILES IDX 56 84 58 85 59 86 60 87 61 88 85 89 86 90 94 91 87 92 89 93
REMARK SMILES IDX 95 94 88 95 90 96 91 97 92 98 93 99 70 100 71 101 79 102
REMARK SMILES IDX 72 103 74 104 80 105 73 106 75 107 76 108 77 109 78 110
REMARK H PARENT 22 38 100 63 68 74
REMARK Flexibility Score: inf
ROOT
ATOM      1  C   UNL A   1      51.422  28.553  23.503  1.00  0.00     0.188 C 
ENDROOT
BRANCH   1   2
ATOM      2  O   UNL A   1      50.999  27.736  22.408  1.00  0.00    -0.377 OA
BRANCH   2   3
ATOM      3  C   UNL A   1      50.216  28.299  21.365  1.00  0.00     0.188 C 
BRANCH   3   4
ATOM      4  C   UNL A   1      49.032  27.440  20.918  1.00  0.00     0.188 C 
BRANCH   4   5
ATOM      5  O   UNL A   1      48.165  26.919  21.912  1.00  0.00    -0.376 OA
BRANCH   5   6
ATOM      6  C   UNL A   1      47.564  27.800  22.855  1.00  0.00     0.202 C 
BRANCH   6   7
ATOM      7  C   UNL A   1      47.414  27.363  24.318  1.00  0.00     0.261 C 
BRANCH   7   8
ATOM      8  O   UNL A   1      46.480  26.282  24.528  1.00  0.00    -0.461 OA
BRANCH   8   9
ATOM      9  C   UNL A   1      46.920  25.298  25.346  1.00  0.00     0.341 C 
ATOM     10  O   UNL A   1      48.055  24.833  25.246  1.00  0.00    -0.249 OA
BRANCH   9  11
ATOM     11  C   UNL A   1      45.878  24.744  26.329  1.00  0.00     0.200 C 
ATOM     12  C   UNL A   1      45.024  22.901  23.631  1.00  0.00     0.075 C 
ATOM     13  C   UNL A   1      44.563  23.239  25.045  1.00  0.00     0.165 C 
ATOM     14  O   UNL A   1      45.314  22.430  25.952  1.00  0.00    -0.344 OA
ATOM     15  O   UNL A   1      44.734  24.641  25.365  1.00  0.00    -0.329 OA
ATOM     16  C   UNL A   1      43.068  22.889  25.137  1.00  0.00     0.075 C 
ATOM     17  C   UNL A   1      45.880  23.305  26.929  1.00  0.00     0.166 C 
ATOM     18  C   UNL A   1      44.871  23.350  28.199  1.00  0.00     0.040 C 
ATOM     19  C   UNL A   1      45.512  25.591  27.612  1.00  0.00     0.016 C 
ATOM     20  C   UNL A   1      44.253  24.763  28.032  1.00  0.00     0.008 C 
ATOM     21  C   UNL A   1      45.286  27.102  27.527  1.00  0.00     0.046 C 
ATOM     22  C   UNL A   1      46.633  25.485  28.708  1.00  0.00     0.015 C 
ATOM     23  C   UNL A   1      42.833  25.407  27.888  1.00  0.00     0.035 C 
ATOM     24  C   UNL A   1      43.938  27.528  27.014  1.00  0.00     0.154 C 
ATOM     25  C   UNL A   1      41.763  24.772  28.765  1.00  0.00     0.012 C 
ATOM     26  C   UNL A   1      42.797  26.944  27.902  1.00  0.00     0.152 C 
ATOM     27  C   UNL A   1      40.391  25.173  28.213  1.00  0.00     0.032 C 
ATOM     28  C   UNL A   1      41.368  27.513  27.516  1.00  0.00     0.044 C 
ATOM     29  F   UNL A   1      43.058  27.298  29.207  1.00  0.00    -0.239 F 
ATOM     30  C   UNL A   1      40.216  26.669  28.110  1.00  0.00    -0.053 C 
ATOM     31  C   UNL A   1      41.246  28.959  28.000  1.00  0.00    -0.009 C 
ATOM     32  C   UNL A   1      41.082  27.543  25.985  1.00  0.00     0.024 C 
ATOM     33  C   UNL A   1      39.035  27.235  28.419  1.00  0.00     0.052 C 
ATOM     34  C   UNL A   1      40.076  29.521  28.336  1.00  0.00     0.048 C 
ATOM     35  C   UNL A   1      38.846  28.701  28.316  1.00  0.00     0.178 C 
ATOM     36  O   UNL A   1      37.729  29.195  28.260  1.00  0.00    -0.290 OA
BRANCH  24  37
ATOM     37  O   UNL A   1      43.898  27.185  25.632  1.00  0.00    -0.390 OA
ATOM     38  H   UNL A   1      44.523  27.742  25.142  1.00  0.00     0.211 HD
ENDBRANCH  24  37
ENDBRANCH   9  11
ENDBRANCH   8   9
ENDBRANCH   7   8
ENDBRANCH   6   7
ENDBRANCH   5   6
ENDBRANCH   4   5
ENDBRANCH   3   4
ENDBRANCH   2   3
ENDBRANCH   1   2
BRANCH   1  39
ATOM     39  C   UNL A   1      52.862  28.389  23.983  1.00  0.00     0.188 C 
BRANCH  39  40
ATOM     40  O   UNL A   1      53.718  29.526  23.835  1.00  0.00    -0.376 OA
BRANCH  40  41
ATOM     41  C   UNL A   1      54.225  30.153  25.011  1.00  0.00     0.202 C 
BRANCH  41  42
ATOM     42  C   UNL A   1      53.936  29.425  26.322  1.00  0.00     0.261 C 
BRANCH  42  43
ATOM     43  O   UNL A   1      52.887  30.050  27.073  1.00  0.00    -0.460 OA
BRANCH  43  44
ATOM     44  C   UNL A   1      51.987  29.188  27.605  1.00  0.00     0.338 C 
ATOM     45  O   UNL A   1      52.172  28.029  27.922  1.00  0.00    -0.246 OA
BRANCH  44  46
ATOM     46  C   UNL A   1      50.733  29.905  27.889  1.00  0.00     0.060 A 
ATOM     47  C   UNL A   1      50.624  30.594  29.104  1.00  0.00     0.016 A 
ATOM     48  C   UNL A   1      49.641  29.792  27.026  1.00  0.00     0.016 A 
ATOM     49  C   UNL A   1      49.396  31.105  29.501  1.00  0.00     0.010 A 
ATOM     50  C   UNL A   1      48.407  30.296  27.430  1.00  0.00     0.010 A 
ATOM     51  C   UNL A   1      48.272  30.899  28.693  1.00  0.00    -0.014 A 
BRANCH  51  52
ATOM     52  C   UNL A   1      46.926  31.102  29.268  1.00  0.00     0.031 A 
ATOM     53  C   UNL A   1      46.322  29.986  30.074  1.00  0.00     0.074 A 
ATOM     54  C   UNL A   1      46.269  32.258  29.083  1.00  0.00     0.049 A 
ATOM     55  N   UNL A   1      45.142  29.907  30.625  1.00  0.00    -0.248 NA
ATOM     56  C   UNL A   1      47.162  28.792  30.280  1.00  0.00     0.031 C 
ATOM     57  C   UNL A   1      46.777  33.407  28.337  1.00  0.00     0.029 A 
ATOM     58  N   UNL A   1      45.017  32.639  29.487  1.00  0.00    -0.354 N 
ATOM     59  C   UNL A   1      45.080  28.648  31.208  1.00  0.00     0.074 A 
ATOM     60  C   UNL A   1      46.338  27.989  30.936  1.00  0.00     0.031 C 
ATOM     61  C   UNL A   1      45.828  34.359  28.309  1.00  0.00     0.029 A 
ATOM     62  C   UNL A   1      44.641  33.870  29.005  1.00  0.00     0.049 A 
ATOM     63  H   UNL A   1      44.444  32.087  30.067  1.00  0.00     0.167 HD
ATOM     64  C   UNL A   1      44.068  28.093  31.916  1.00  0.00     0.034 A 
ATOM     65  C   UNL A   1      43.457  34.506  29.092  1.00  0.00     0.034 A 
ATOM     66  C   UNL A   1      42.830  28.766  32.191  1.00  0.00     0.049 A 
ATOM     67  C   UNL A   1      42.336  33.856  29.860  1.00  0.00     0.074 A 
ATOM     68  C   UNL A   1      41.752  28.317  32.932  1.00  0.00     0.029 A 
ATOM     69  N   UNL A   1      42.495  30.026  31.720  1.00  0.00    -0.354 N 
ATOM     70  N   UNL A   1      42.324  32.704  30.489  1.00  0.00    -0.248 NA
ATOM     71  C   UNL A   1      41.077  34.606  29.958  1.00  0.00     0.031 C 
ATOM     72  C   UNL A   1      40.751  29.290  32.876  1.00  0.00     0.029 A 
ATOM     73  C   UNL A   1      41.223  30.367  32.141  1.00  0.00     0.049 A 
ATOM     74  H   UNL A   1      43.079  30.596  31.167  1.00  0.00     0.167 HD
ATOM     75  C   UNL A   1      41.074  32.612  31.093  1.00  0.00     0.074 A 
ATOM     76  C   UNL A   1      40.365  33.832  30.765  1.00  0.00     0.031 C 
ATOM     77  C   UNL A   1      40.556  31.609  31.844  1.00  0.00     0.034 A 
BRANCH  64  78
ATOM     78  C   UNL A   1      44.263  26.694  32.439  1.00  0.00     0.023 A 
ATOM     79  C   UNL A   1      44.219  25.596  31.556  1.00  0.00     0.012 A 
ATOM     80  C   UNL A   1      44.534  26.472  33.804  1.00  0.00     0.148 A 
ATOM     81  C   UNL A   1      44.404  24.296  32.029  1.00  0.00     0.002 A 
ATOM     82  C   UNL A   1      44.767  25.180  34.259  1.00  0.00     0.091 A 
ATOM     83  F   UNL A   1      44.549  27.526  34.632  1.00  0.00    -0.205 F 
ATOM     84  C   UNL A   1      44.689  24.091  33.377  1.00  0.00     0.022 A 
BRANCH  82  85
ATOM     85  S   UNL A   1      45.219  24.817  35.959  1.00  0.00     0.127 S 
ATOM     86  O   UNL A   1      45.375  23.365  35.919  1.00  0.00    -0.237 OA
ATOM     87  O   UNL A   1      46.470  25.561  36.107  1.00  0.00    -0.237 OA
ATOM     88  O   UNL A   1      44.121  25.303  36.781  1.00  0.00    -0.744 OA
ENDBRANCH  82  85
ENDBRANCH  64  78
BRANCH  65  89
ATOM     89  C   UNL A   1      43.281  35.840  28.454  1.00  0.00     0.023 A 
ATOM     90  C   UNL A   1      42.661  35.934  27.193  1.00  0.00     0.012 A 
ATOM     91  C   UNL A   1      43.712  37.016  29.098  1.00  0.00     0.148 A 
ATOM     92  C   UNL A   1      42.505  37.173  26.569  1.00  0.00     0.002 A 
ATOM     93  C   UNL A   1      43.502  38.251  28.498  1.00  0.00     0.091 A 
ATOM     94  F   UNL A   1      44.309  36.902  30.293  1.00  0.00    -0.205 F 
ATOM     95  C   UNL A   1      42.917  38.331  27.225  1.00  0.00     0.022 A 
BRANCH  93  96
ATOM     96  S   UNL A   1      43.880  39.800  29.323  1.00  0.00     0.127 S 
ATOM     97  O   UNL A   1      45.340  39.806  29.294  1.00  0.00    -0.237 OA
ATOM     98  O   UNL A   1      43.239  40.773  28.440  1.00  0.00    -0.237 OA
ATOM     99  O   UNL A   1      43.275  39.701  30.645  1.00  0.00    -0.744 OA
ENDBRANCH  93  96
ENDBRANCH  65  89
BRANCH  77 100
ATOM    100  C   UNL A   1      39.176  31.806  32.416  1.00  0.00     0.023 A 
ATOM    101  C   UNL A   1      39.003  32.010  33.799  1.00  0.00     0.012 A 
ATOM    102  C   UNL A   1      38.057  31.861  31.562  1.00  0.00     0.148 A 
ATOM    103  C   UNL A   1      37.732  32.229  34.327  1.00  0.00     0.002 A 
ATOM    104  C   UNL A   1      36.801  32.136  32.089  1.00  0.00     0.091 A 
ATOM    105  F   UNL A   1      38.241  31.649  30.251  1.00  0.00    -0.205 F 
ATOM    106  C   UNL A   1      36.634  32.305  33.473  1.00  0.00     0.022 A 
BRANCH 104 107
ATOM    107  S   UNL A   1      35.350  32.355  31.053  1.00  0.00     0.127 S 
ATOM    108  O   UNL A   1      34.276  32.364  32.044  1.00  0.00    -0.237 OA
ATOM    109  O   UNL A   1      35.612  33.651  30.426  1.00  0.00    -0.237 OA
ATOM    110  O   UNL A   1      35.338  31.228  30.131  1.00  0.00    -0.744 OA
ENDBRANCH 104 107
ENDBRANCH  77 100
ENDBRANCH  51  52
ENDBRANCH  44  46
ENDBRANCH  43  44
ENDBRANCH  42  43
ENDBRANCH  41  42
ENDBRANCH  40  41
ENDBRANCH  39  40
ENDBRANCH   1  39
TORSDOF 24
ENDMDL
MODEL 2
REMARK VINA RESULT:      -8.3      2.913      9.552
REMARK SMILES CC1(C)O[C@@H]2C[C@@H]3[C@H]4CCC5=CC(=O)C=C[C@@]5(C)[C@]4(F)[C@H](O)C[C@]3(C)[C@]2(C(=O)OCCOCCOCCOCCOC(=O)c2ccc(-c3c4nc(c(-c5cccc(S(=O)(=O)[O-])c5F)c5ccc([nH]5)c(-c5cccc(S(=O)(=O)[O-])c5F)c5nc(c(-c6cccc(S(=O)(=O)[O-])c6F)c6ccc3[nH]6)C=C5)C=C4)cc2)O1
REMARK SMILES IDX 36 1 35 2 34 3 33 4 32 5 31 6 30 7 29 8 27 9 28 10 26 11
REMARK SMILES IDX 1 12 2 13 4 14 107 15 3 16 5 17 6 18 24 19 7 20 23 21 25 22
REMARK SMILES IDX 8 23 21 24 9 25 19 26 10 27 17 28 20 29 11 30 16 31 18 32
REMARK SMILES IDX 12 33 15 34 13 35 14 36 22 37 37 39 38 40 39 41 40 42 41 43
REMARK SMILES IDX 42 44 43 45 44 46 45 47 106 48 46 49 105 50 47 51 48 52
REMARK SMILES IDX 49 53 99 54 50 55 104 56 98 57 100 58 51 59 103 60 97 61
REMARK SMILES IDX 96 62 52 64 84 65 64 66 83 67 65 68 68 69 82 70 101 71 66 72
REMARK SMILES IDX 67 73 81 75 102 76 69 77 53 78 54 79 62 80 55 81 57 82 63 83
REMARK SMILES IDX 56 84 58 85 59 86 60 87 61 88 85 89 86 90 94 91 87 92 89 93
REMARK SMILES IDX 95 94 88 95 90 96 91 97 92 98 93 99 70 100 71 101 79 102
REMARK SMILES IDX 72 103 74 104 80 105 73 106 75 107 76 108 77 109 78 110
REMARK H PARENT 22 38 100 63 68 74
REMARK Flexibility Score: inf
ROOT
ATOM      1  C   UNL A   1      34.836  34.368  28.523  1.00  0.00     0.188 C 
ENDROOT
BRANCH   1   2
ATOM      2  O   UNL A   1      34.775  33.299  27.574  1.00  0.00    -0.377 OA
BRANCH   2   3
ATOM      3  C   UNL A   1      35.275  32.016  27.920  1.00  0.00     0.188 C 
BRANCH   3   4
ATOM      4  C   UNL A   1      36.737  31.999  28.370  1.00  0.00     0.188 C 
BRANCH   4   5
ATOM      5  O   UNL A   1      37.328  30.751  28.695  1.00  0.00    -0.376 OA
BRANCH   5   6
ATOM      6  C   UNL A   1      37.765  29.886  27.651  1.00  0.00     0.202 C 
BRANCH   6   7
ATOM      7  C   UNL A   1      38.838  28.828  27.939  1.00  0.00     0.261 C 
BRANCH   7   8
ATOM      8  O   UNL A   1      40.185  29.237  27.618  1.00  0.00    -0.461 OA
BRANCH   8   9
ATOM      9  C   UNL A   1      40.925  29.641  28.676  1.00  0.00     0.341 C 
ATOM     10  O   UNL A   1      40.641  30.653  29.315  1.00  0.00    -0.249 OA
BRANCH   9  11
ATOM     11  C   UNL A   1      42.187  28.810  28.952  1.00  0.00     0.200 C 
ATOM     12  C   UNL A   1      43.516  30.982  26.734  1.00  0.00     0.075 C 
ATOM     13  C   UNL A   1      43.840  29.703  27.496  1.00  0.00     0.165 C 
ATOM     14  O   UNL A   1      44.236  30.074  28.818  1.00  0.00    -0.344 OA
ATOM     15  O   UNL A   1      42.718  28.788  27.550  1.00  0.00    -0.329 OA
ATOM     16  C   UNL A   1      45.006  29.015  26.768  1.00  0.00     0.075 C 
ATOM     17  C   UNL A   1      43.444  29.310  29.728  1.00  0.00     0.166 C 
ATOM     18  C   UNL A   1      44.284  27.978  30.120  1.00  0.00     0.040 C 
ATOM     19  C   UNL A   1      42.030  27.361  29.560  1.00  0.00     0.016 C 
ATOM     20  C   UNL A   1      43.505  26.896  29.327  1.00  0.00     0.008 C 
ATOM     21  C   UNL A   1      40.964  26.394  29.040  1.00  0.00     0.046 C 
ATOM     22  C   UNL A   1      41.704  27.416  31.097  1.00  0.00     0.015 C 
ATOM     23  C   UNL A   1      43.799  25.802  28.246  1.00  0.00     0.035 C 
ATOM     24  C   UNL A   1      41.303  25.684  27.759  1.00  0.00     0.154 C 
ATOM     25  C   UNL A   1      45.117  25.065  28.439  1.00  0.00     0.012 C 
ATOM     26  C   UNL A   1      42.625  24.870  27.909  1.00  0.00     0.152 C 
ATOM     27  C   UNL A   1      45.480  24.379  27.118  1.00  0.00     0.032 C 
ATOM     28  C   UNL A   1      42.928  23.956  26.649  1.00  0.00     0.044 C 
ATOM     29  F   UNL A   1      42.489  24.050  29.007  1.00  0.00    -0.239 F 
ATOM     30  C   UNL A   1      44.392  23.460  26.618  1.00  0.00    -0.053 C 
ATOM     31  C   UNL A   1      41.979  22.755  26.648  1.00  0.00    -0.009 C 
ATOM     32  C   UNL A   1      42.726  24.667  25.277  1.00  0.00     0.024 C 
ATOM     33  C   UNL A   1      44.710  22.283  26.047  1.00  0.00     0.052 C 
ATOM     34  C   UNL A   1      42.300  21.571  26.106  1.00  0.00     0.048 C 
ATOM     35  C   UNL A   1      43.653  21.374  25.544  1.00  0.00     0.178 C 
ATOM     36  O   UNL A   1      43.907  20.488  24.741  1.00  0.00    -0.290 OA
BRANCH  24  37
ATOM     37  O   UNL A   1      41.282  26.665  26.727  1.00  0.00    -0.390 OA
ATOM     38  H   UNL A   1      41.091  26.238  25.878  1.00  0.00     0.211 HD
ENDBRANCH  24  37
ENDBRANCH   9  11
ENDBRANCH   8   9
ENDBRANCH   7   8
ENDBRANCH   6   7
ENDBRANCH   5   6
ENDBRANCH   4   5
ENDBRANCH   3   4
ENDBRANCH   2   3
ENDBRANCH   1   2
BRANCH   1  39
ATOM     39  C   UNL A   1      33.516  34.849  29.120  1.00  0.00     0.188 C 
BRANCH  39  40
ATOM     40  O   UNL A   1      33.599  35.889  30.100  1.00  0.00    -0.376 OA
BRANCH  40  41
ATOM     41  C   UNL A   1      32.593  35.955  31.109  1.00  0.00     0.202 C 
BRANCH  41  42
ATOM     42  C   UNL A   1      33.047  35.574  32.517  1.00  0.00     0.261 C 
BRANCH  42  43
ATOM     43  O   UNL A   1      34.322  34.919  32.520  1.00  0.00    -0.460 OA
BRANCH  43  44
ATOM     44  C   UNL A   1      34.298  33.644  32.979  1.00  0.00     0.338 C 
ATOM     45  O   UNL A   1      33.319  32.968  33.230  1.00  0.00    -0.246 OA
BRANCH  44  46
ATOM     46  C   UNL A   1      35.669  33.111  33.010  1.00  0.00     0.060 A 
ATOM     47  C   UNL A   1      36.624  33.784  33.784  1.00  0.00     0.016 A 
ATOM     48  C   UNL A   1      36.033  32.042  32.188  1.00  0.00     0.016 A 
ATOM     49  C   UNL A   1      37.966  33.440  33.678  1.00  0.00     0.010 A 
ATOM     50  C   UNL A   1      37.380  31.706  32.075  1.00  0.00     0.010 A 
ATOM     51  C   UNL A   1      38.351  32.445  32.774  1.00  0.00    -0.014 A 
BRANCH  51  52
ATOM     52  C   UNL A   1      39.773  32.337  32.387  1.00  0.00     0.031 A 
ATOM     53  C   UNL A   1      40.606  31.267  33.037  1.00  0.00     0.074 A 
ATOM     54  C   UNL A   1      40.300  33.165  31.472  1.00  0.00     0.049 A 
ATOM     55  N   UNL A   1      41.880  31.014  32.904  1.00  0.00    -0.248 NA
ATOM     56  C   UNL A   1      39.909  30.363  33.969  1.00  0.00     0.031 C 
ATOM     57  C   UNL A   1      39.571  34.219  30.769  1.00  0.00     0.029 A 
ATOM     58  N   UNL A   1      41.582  33.264  31.000  1.00  0.00    -0.354 N 
ATOM     59  C   UNL A   1      42.145  29.953  33.761  1.00  0.00     0.074 A 
ATOM     60  C   UNL A   1      40.903  29.613  34.418  1.00  0.00     0.031 C 
ATOM     61  C   UNL A   1      40.429  34.884  29.975  1.00  0.00     0.029 A 
ATOM     62  C   UNL A   1      41.767  34.321  30.142  1.00  0.00     0.049 A 
ATOM     63  H   UNL A   1      42.300  32.639  31.251  1.00  0.00     0.167 HD
ATOM     64  C   UNL A   1      43.319  29.313  33.973  1.00  0.00     0.034 A 
ATOM     65  C   UNL A   1      42.898  34.794  29.586  1.00  0.00     0.034 A 
ATOM     66  C   UNL A   1      44.542  29.652  33.301  1.00  0.00     0.049 A 
ATOM     67  C   UNL A   1      44.197  34.083  29.860  1.00  0.00     0.074 A 
ATOM     68  C   UNL A   1      45.779  29.045  33.407  1.00  0.00     0.029 A 
ATOM     69  N   UNL A   1      44.686  30.704  32.410  1.00  0.00    -0.354 N 
ATOM     70  N   UNL A   1      44.418  33.020  30.598  1.00  0.00    -0.248 NA
ATOM     71  C   UNL A   1      45.397  34.615  29.201  1.00  0.00     0.031 C 
ATOM     72  C   UNL A   1      46.681  29.755  32.609  1.00  0.00     0.029 A 
ATOM     73  C   UNL A   1      45.994  30.774  31.968  1.00  0.00     0.049 A 
ATOM     74  H   UNL A   1      43.963  31.312  32.131  1.00  0.00     0.167 HD
ATOM     75  C   UNL A   1      45.771  32.731  30.456  1.00  0.00     0.074 A 
ATOM     76  C   UNL A   1      46.314  33.723  29.551  1.00  0.00     0.031 C 
ATOM     77  C   UNL A   1      46.501  31.741  31.027  1.00  0.00     0.034 A 
BRANCH  64  78
ATOM     78  C   UNL A   1      43.331  28.183  34.969  1.00  0.00     0.023 A 
ATOM     79  C   UNL A   1      43.250  28.457  36.350  1.00  0.00     0.012 A 
ATOM     80  C   UNL A   1      43.379  26.844  34.533  1.00  0.00     0.148 A 
ATOM     81  C   UNL A   1      43.254  27.418  37.281  1.00  0.00     0.002 A 
ATOM     82  C   UNL A   1      43.333  25.814  35.463  1.00  0.00     0.091 A 
ATOM     83  F   UNL A   1      43.480  26.604  33.218  1.00  0.00    -0.205 F 
ATOM     84  C   UNL A   1      43.284  26.099  36.838  1.00  0.00     0.022 A 
BRANCH  82  85
ATOM     85  S   UNL A   1      43.286  24.081  34.991  1.00  0.00     0.127 S 
ATOM     86  O   UNL A   1      44.272  23.501  35.901  1.00  0.00    -0.237 OA
ATOM     87  O   UNL A   1      41.898  23.723  35.286  1.00  0.00    -0.237 OA
ATOM     88  O   UNL A   1      43.640  24.039  33.580  1.00  0.00    -0.744 OA
ENDBRANCH  82  85
ENDBRANCH  64  78
BRANCH  65  89
ATOM     89  C   UNL A   1      42.847  35.990  28.700  1.00  0.00     0.023 A 
ATOM     90  C   UNL A   1      42.439  35.849  27.359  1.00  0.00     0.012 A 
ATOM     91  C   UNL A   1      43.188  37.268  29.183  1.00  0.00     0.148 A 
ATOM     92  C   UNL A   1      42.405  36.954  26.507  1.00  0.00     0.002 A 
ATOM     93  C   UNL A   1      43.096  38.373  28.347  1.00  0.00     0.091 A 
ATOM     94  F   UNL A   1      43.583  37.378  30.460  1.00  0.00    -0.205 F 
ATOM     95  C   UNL A   1      42.724  38.216  27.003  1.00  0.00     0.022 A 
BRANCH  93  96
ATOM     96  S   UNL A   1      43.360  40.049  28.932  1.00  0.00     0.127 S 
ATOM     97  O   UNL A   1      44.665  39.938  29.579  1.00  0.00    -0.237 OA
ATOM     98  O   UNL A   1      43.352  40.807  27.681  1.00  0.00    -0.237 OA
ATOM     99  O   UNL A   1      42.240  40.341  29.816  1.00  0.00    -0.744 OA
ENDBRANCH  93  96
ENDBRANCH  65  89
BRANCH  77 100
ATOM    100  C   UNL A   1      47.956  31.639  30.649  1.00  0.00     0.023 A 
ATOM    101  C   UNL A   1      48.947  32.192  31.483  1.00  0.00     0.012 A 
ATOM    102  C   UNL A   1      48.340  30.927  29.496  1.00  0.00     0.148 A 
ATOM    103  C   UNL A   1      50.296  32.068  31.156  1.00  0.00     0.002 A 
ATOM    104  C   UNL A   1      49.688  30.759  29.206  1.00  0.00     0.091 A 
ATOM    105  F   UNL A   1      47.381  30.422  28.707  1.00  0.00    -0.205 F 
ATOM    106  C   UNL A   1      50.668  31.342  30.026  1.00  0.00     0.022 A 
BRANCH 104 107
ATOM    107  S   UNL A   1      50.259  29.753  27.833  1.00  0.00     0.127 S 
ATOM    108  O   UNL A   1      51.676  29.588  28.154  1.00  0.00    -0.237 OA
ATOM    109  O   UNL A   1      49.454  28.541  27.983  1.00  0.00    -0.237 OA
ATOM    110  O   UNL A   1      49.980  30.520  26.627  1.00  0.00    -0.744 OA
ENDBRANCH 104 107
ENDBRANCH  77 100
ENDBRANCH  51  52
ENDBRANCH  44  46
ENDBRANCH  43  44
ENDBRANCH  42  43
ENDBRANCH  41  42
ENDBRANCH  40  41
ENDBRANCH  39  40
ENDBRANCH   1  39
TORSDOF 24
ENDMDL
MODEL 3
REMARK VINA RESULT:      -8.2      5.555     12.290
REMARK SMILES CC1(C)O[C@@H]2C[C@@H]3[C@H]4CCC5=CC(=O)C=C[C@@]5(C)[C@]4(F)[C@H](O)C[C@]3(C)[C@]2(C(=O)OCCOCCOCCOCCOC(=O)c2ccc(-c3c4nc(c(-c5cccc(S(=O)(=O)[O-])c5F)c5ccc([nH]5)c(-c5cccc(S(=O)(=O)[O-])c5F)c5nc(c(-c6cccc(S(=O)(=O)[O-])c6F)c6ccc3[nH]6)C=C5)C=C4)cc2)O1
REMARK SMILES IDX 36 1 35 2 34 3 33 4 32 5 31 6 30 7 29 8 27 9 28 10 26 11
REMARK SMILES IDX 1 12 2 13 4 14 107 15 3 16 5 17 6 18 24 19 7 20 23 21 25 22
REMARK SMILES IDX 8 23 21 24 9 25 19 26 10 27 17 28 20 29 11 30 16 31 18 32
REMARK SMILES IDX 12 33 15 34 13 35 14 36 22 37 37 39 38 40 39 41 40 42 41 43
REMARK SMILES IDX 42 44 43 45 44 46 45 47 106 48 46 49 105 50 47 51 48 52
REMARK SMILES IDX 49 53 99 54 50 55 104 56 98 57 100 58 51 59 103 60 97 61
REMARK SMILES IDX 96 62 52 64 84 65 64 66 83 67 65 68 68 69 82 70 101 71 66 72
REMARK SMILES IDX 67 73 81 75 102 76 69 77 53 78 54 79 62 80 55 81 57 82 63 83
REMARK SMILES IDX 56 84 58 85 59 86 60 87 61 88 85 89 86 90 94 91 87 92 89 93
REMARK SMILES IDX 95 94 88 95 90 96 91 97 92 98 93 99 70 100 71 101 79 102
REMARK SMILES IDX 72 103 74 104 80 105 73 106 75 107 76 108 77 109 78 110
REMARK H PARENT 22 38 100 63 68 74
REMARK Flexibility Score: inf
ROOT
ATOM      1  C   UNL A   1      33.386  35.654  29.264  1.00  0.00     0.188 C 
ENDROOT
BRANCH   1   2
ATOM      2  O   UNL A   1      32.728  34.509  28.711  1.00  0.00    -0.377 OA
BRANCH   2   3
ATOM      3  C   UNL A   1      33.466  33.571  27.942  1.00  0.00     0.188 C 
BRANCH   3   4
ATOM      4  C   UNL A   1      32.705  32.290  27.594  1.00  0.00     0.188 C 
BRANCH   4   5
ATOM      5  O   UNL A   1      33.438  31.081  27.482  1.00  0.00    -0.376 OA
BRANCH   5   6
ATOM      6  C   UNL A   1      32.840  29.951  26.854  1.00  0.00     0.202 C 
BRANCH   6   7
ATOM      7  C   UNL A   1      33.165  29.635  25.388  1.00  0.00     0.261 C 
BRANCH   7   8
ATOM      8  O   UNL A   1      32.973  28.253  25.016  1.00  0.00    -0.461 OA
BRANCH   8   9
ATOM      9  C   UNL A   1      31.945  28.028  24.166  1.00  0.00     0.341 C 
ATOM     10  O   UNL A   1      31.312  28.952  23.658  1.00  0.00    -0.249 OA
BRANCH   9  11
ATOM     11  C   UNL A   1      31.569  26.553  23.965  1.00  0.00     0.200 C 
ATOM     12  C   UNL A   1      30.284  26.959  27.061  1.00  0.00     0.075 C 
ATOM     13  C   UNL A   1      30.578  25.886  26.019  1.00  0.00     0.165 C 
ATOM     14  O   UNL A   1      29.519  25.910  25.060  1.00  0.00    -0.344 OA
ATOM     15  O   UNL A   1      31.853  26.085  25.360  1.00  0.00    -0.329 OA
ATOM     16  C   UNL A   1      30.602  24.532  26.747  1.00  0.00     0.075 C 
ATOM     17  C   UNL A   1      30.120  26.011  23.768  1.00  0.00     0.166 C 
ATOM     18  C   UNL A   1      30.282  24.508  23.178  1.00  0.00     0.040 C 
ATOM     19  C   UNL A   1      32.342  25.708  22.876  1.00  0.00     0.016 C 
ATOM     20  C   UNL A   1      31.814  24.303  23.315  1.00  0.00     0.008 C 
ATOM     21  C   UNL A   1      33.862  25.804  22.731  1.00  0.00     0.046 C 
ATOM     22  C   UNL A   1      31.849  26.055  21.425  1.00  0.00     0.015 C 
ATOM     23  C   UNL A   1      32.801  23.293  23.991  1.00  0.00     0.035 C 
ATOM     24  C   UNL A   1      34.660  25.014  23.731  1.00  0.00     0.154 C 
ATOM     25  C   UNL A   1      32.364  21.837  23.911  1.00  0.00     0.012 C 
ATOM     26  C   UNL A   1      34.289  23.500  23.665  1.00  0.00     0.152 C 
ATOM     27  C   UNL A   1      33.148  21.043  24.961  1.00  0.00     0.032 C 
ATOM     28  C   UNL A   1      35.231  22.599  24.565  1.00  0.00     0.044 C 
ATOM     29  F   UNL A   1      34.430  23.091  22.357  1.00  0.00    -0.239 F 
ATOM     30  C   UNL A   1      34.644  21.189  24.809  1.00  0.00    -0.053 C 
ATOM     31  C   UNL A   1      36.605  22.473  23.903  1.00  0.00    -0.009 C 
ATOM     32  C   UNL A   1      35.490  23.167  25.993  1.00  0.00     0.024 C 
ATOM     33  C   UNL A   1      35.450  20.129  25.003  1.00  0.00     0.052 C 
ATOM     34  C   UNL A   1      37.402  21.407  24.069  1.00  0.00     0.048 C 
ATOM     35  C   UNL A   1      36.919  20.258  24.864  1.00  0.00     0.178 C 
ATOM     36  O   UNL A   1      37.678  19.432  25.350  1.00  0.00    -0.290 OA
BRANCH  24  37
ATOM     37  O   UNL A   1      34.483  25.650  24.993  1.00  0.00    -0.390 OA
ATOM     38  H   UNL A   1      34.666  25.016  25.703  1.00  0.00     0.211 HD
ENDBRANCH  24  37
ENDBRANCH   9  11
ENDBRANCH   8   9
ENDBRANCH   7   8
ENDBRANCH   6   7
ENDBRANCH   5   6
ENDBRANCH   4   5
ENDBRANCH   3   4
ENDBRANCH   2   3
ENDBRANCH   1   2
BRANCH   1  39
ATOM     39  C   UNL A   1      32.906  36.146  30.626  1.00  0.00     0.188 C 
BRANCH  39  40
ATOM     40  O   UNL A   1      33.800  35.950  31.727  1.00  0.00    -0.376 OA
BRANCH  40  41
ATOM     41  C   UNL A   1      34.224  34.622  32.031  1.00  0.00     0.202 C 
BRANCH  41  42
ATOM     42  C   UNL A   1      35.723  34.363  31.901  1.00  0.00     0.261 C 
BRANCH  42  43
ATOM     43  O   UNL A   1      36.057  33.703  30.672  1.00  0.00    -0.460 OA
BRANCH  43  44
ATOM     44  C   UNL A   1      35.707  32.394  30.625  1.00  0.00     0.338 C 
ATOM     45  O   UNL A   1      34.585  31.928  30.661  1.00  0.00    -0.246 OA
BRANCH  44  46
ATOM     46  C   UNL A   1      36.907  31.577  30.381  1.00  0.00     0.060 A 
ATOM     47  C   UNL A   1      37.051  30.381  31.096  1.00  0.00     0.016 A 
ATOM     48  C   UNL A   1      37.929  32.049  29.555  1.00  0.00     0.016 A 
ATOM     49  C   UNL A   1      38.254  29.690  31.051  1.00  0.00     0.010 A 
ATOM     50  C   UNL A   1      39.140  31.360  29.520  1.00  0.00     0.010 A 
ATOM     51  C   UNL A   1      39.321  30.215  30.315  1.00  0.00    -0.014 A 
BRANCH  51  52
ATOM     52  C   UNL A   1      40.685  29.701  30.558  1.00  0.00     0.031 A 
ATOM     53  C   UNL A   1      41.171  28.551  29.720  1.00  0.00     0.074 A 
ATOM     54  C   UNL A   1      41.470  30.256  31.495  1.00  0.00     0.049 A 
ATOM     55  N   UNL A   1      42.298  27.896  29.787  1.00  0.00    -0.248 NA
ATOM     56  C   UNL A   1      40.257  28.069  28.669  1.00  0.00     0.031 C 
ATOM     57  C   UNL A   1      41.100  31.388  32.343  1.00  0.00     0.029 A 
ATOM     58  N   UNL A   1      42.732  29.919  31.906  1.00  0.00    -0.354 N 
ATOM     59  C   UNL A   1      42.216  26.904  28.818  1.00  0.00     0.074 A 
ATOM     60  C   UNL A   1      40.924  27.034  28.182  1.00  0.00     0.031 C 
ATOM     61  C   UNL A   1      42.105  31.633  33.201  1.00  0.00     0.029 A 
ATOM     62  C   UNL A   1      43.169  30.656  32.981  1.00  0.00     0.049 A 
ATOM     63  H   UNL A   1      43.273  29.220  31.474  1.00  0.00     0.167 HD
ATOM     64  C   UNL A   1      43.139  25.973  28.482  1.00  0.00     0.034 A 
ATOM     65  C   UNL A   1      44.288  30.525  33.719  1.00  0.00     0.034 A 
ATOM     66  C   UNL A   1      44.425  25.866  29.113  1.00  0.00     0.049 A 
ATOM     67  C   UNL A   1      45.288  29.463  33.344  1.00  0.00     0.074 A 
ATOM     68  C   UNL A   1      45.455  24.989  28.825  1.00  0.00     0.029 A 
ATOM     69  N   UNL A   1      44.851  26.651  30.173  1.00  0.00    -0.354 N 
ATOM     70  N   UNL A   1      45.241  28.593  32.363  1.00  0.00    -0.248 NA
ATOM     71  C   UNL A   1      46.509  29.386  34.157  1.00  0.00     0.031 C 
ATOM     72  C   UNL A   1      46.488  25.219  29.738  1.00  0.00     0.029 A 
ATOM     73  C   UNL A   1      46.122  26.272  30.563  1.00  0.00     0.049 A 
ATOM     74  H   UNL A   1      44.325  27.374  30.588  1.00  0.00     0.167 HD
ATOM     75  C   UNL A   1      46.442  27.895  32.414  1.00  0.00     0.074 A 
ATOM     76  C   UNL A   1      47.201  28.455  33.514  1.00  0.00     0.031 C 
ATOM     77  C   UNL A   1      46.878  26.878  31.629  1.00  0.00     0.034 A 
BRANCH  64  78
ATOM     78  C   UNL A   1      42.790  25.003  27.384  1.00  0.00     0.023 A 
ATOM     79  C   UNL A   1      43.363  25.146  26.104  1.00  0.00     0.012 A 
ATOM     80  C   UNL A   1      41.923  23.921  27.634  1.00  0.00     0.148 A 
ATOM     81  C   UNL A   1      43.052  24.250  25.081  1.00  0.00     0.002 A 
ATOM     82  C   UNL A   1      41.656  23.004  26.625  1.00  0.00     0.091 A 
ATOM     83  F   UNL A   1      41.368  23.814  28.850  1.00  0.00    -0.205 F 
ATOM     84  C   UNL A   1      42.208  23.174  25.345  1.00  0.00     0.022 A 
BRANCH  82  85
ATOM     85  S   UNL A   1      40.647  21.541  26.886  1.00  0.00     0.127 S 
ATOM     86  O   UNL A   1      41.044  21.146  28.236  1.00  0.00    -0.237 OA
ATOM     87  O   UNL A   1      39.292  22.082  26.782  1.00  0.00    -0.237 OA
ATOM     88  O   UNL A   1      41.012  20.606  25.831  1.00  0.00    -0.744 OA
ENDBRANCH  82  85
ENDBRANCH  64  78
BRANCH  65  89
ATOM     89  C   UNL A   1      44.530  31.438  34.870  1.00  0.00     0.023 A 
ATOM     90  C   UNL A   1      45.195  32.662  34.664  1.00  0.00     0.012 A 
ATOM     91  C   UNL A   1      44.090  31.105  36.166  1.00  0.00     0.148 A 
ATOM     92  C   UNL A   1      45.449  33.522  35.734  1.00  0.00     0.002 A 
ATOM     93  C   UNL A   1      44.294  31.990  37.216  1.00  0.00     0.091 A 
ATOM     94  F   UNL A   1      43.467  29.930  36.342  1.00  0.00    -0.205 F 
ATOM     95  C   UNL A   1      44.990  33.190  37.007  1.00  0.00     0.022 A 
BRANCH  93  96
ATOM     96  S   UNL A   1      43.625  31.708  38.859  1.00  0.00     0.127 S 
ATOM     97  O   UNL A   1      42.196  31.585  38.583  1.00  0.00    -0.237 OA
ATOM     98  O   UNL A   1      44.291  30.464  39.243  1.00  0.00    -0.237 OA
ATOM     99  O   UNL A   1      44.018  32.867  39.650  1.00  0.00    -0.744 OA
ENDBRANCH  93  96
ENDBRANCH  65  89
BRANCH  77 100
ATOM    100  C   UNL A   1      48.262  26.340  31.887  1.00  0.00     0.023 A 
ATOM    101  C   UNL A   1      49.370  26.866  31.195  1.00  0.00     0.012 A 
ATOM    102  C   UNL A   1      48.466  25.358  32.877  1.00  0.00     0.148 A 
ATOM    103  C   UNL A   1      50.655  26.396  31.457  1.00  0.00     0.002 A 
ATOM    104  C   UNL A   1      49.756  24.935  33.173  1.00  0.00     0.091 A 
ATOM    105  F   UNL A   1      47.397  24.859  33.514  1.00  0.00    -0.205 F 
ATOM    106  C   UNL A   1      50.851  25.442  32.453  1.00  0.00     0.022 A 
BRANCH 104 107
ATOM    107  S   UNL A   1      50.111  23.789  34.509  1.00  0.00     0.127 S 
ATOM    108  O   UNL A   1      51.572  23.752  34.489  1.00  0.00    -0.237 OA
ATOM    109  O   UNL A   1      49.533  24.476  35.665  1.00  0.00    -0.237 OA
ATOM    110  O   UNL A   1      49.451  22.540  34.155  1.00  0.00    -0.744 OA
ENDBRANCH 104 107
ENDBRANCH  77 100
ENDBRANCH  51  52
ENDBRANCH  44  46
ENDBRANCH  43  44
ENDBRANCH  42  43
ENDBRANCH  41  42
ENDBRANCH  40  41
ENDBRANCH  39  40
ENDBRANCH   1  39
TORSDOF 24
ENDMDL
