MODEL 1
REMARK VINA RESULT:     -10.4      0.000      0.000
REMARK SMILES COc1ccc2c(c1)C=C(C(=O)OCCOCCOCCOCCOC(=O)c1ccc(-c3c4nc(c(-c5cccc(S(=O)(=O)[O-])c5F)c5ccc([nH]5)c(-c5cccc(S(=O)(=O)[O-])c5F)c5nc(c(-c6cccc(S(=O)(=O)[O-])c6F)c6ccc3[nH]6)C=C5)C=C4)cc1)[C@H](C(F)(F)F)O2
REMARK SMILES IDX 20 1 19 2 18 3 17 4 16 5 15 6 14 7 13 8 11 9 12 10 10 11
REMARK SMILES IDX 3 12 4 13 8 14 5 15 7 16 6 17 9 18 96 19 91 20 2 21 1 22
REMARK SMILES IDX 92 23 93 24 94 25 95 26 21 27 22 28 23 29 24 30 25 31 26 32
REMARK SMILES IDX 27 33 28 34 29 35 90 36 30 37 89 38 31 39 32 40 33 41 83 42
REMARK SMILES IDX 34 43 88 44 82 45 84 46 35 47 87 48 81 49 80 50 36 52 68 53
REMARK SMILES IDX 48 54 67 55 49 56 52 57 66 58 85 59 50 60 51 61 65 63 86 64
REMARK SMILES IDX 53 65 37 66 38 67 46 68 39 69 41 70 47 71 40 72 42 73 43 74
REMARK SMILES IDX 44 75 45 76 69 77 70 78 78 79 71 80 73 81 79 82 72 83 74 84
REMARK SMILES IDX 75 85 76 86 77 87 54 88 55 89 63 90 56 91 58 92 64 93 57 94
REMARK SMILES IDX 59 95 60 96 61 97 62 98
REMARK H PARENT 84 51 52 62
REMARK Flexibility Score: inf
ROOT
ATOM      1  C   UNL A   1      33.145  22.237  26.672  1.00  0.00     0.188 C 
ENDROOT
BRANCH   1   2
ATOM      2  O   UNL A   1      32.196  21.508  25.902  1.00  0.00    -0.377 OA
BRANCH   2   3
ATOM      3  C   UNL A   1      31.859  21.949  24.598  1.00  0.00     0.188 C 
BRANCH   3   4
ATOM      4  C   UNL A   1      32.630  21.384  23.387  1.00  0.00     0.188 C 
BRANCH   4   5
ATOM      5  O   UNL A   1      33.478  22.317  22.740  1.00  0.00    -0.376 OA
BRANCH   5   6
ATOM      6  C   UNL A   1      32.943  23.586  22.405  1.00  0.00     0.202 C 
BRANCH   6   7
ATOM      7  C   UNL A   1      33.805  24.817  22.712  1.00  0.00     0.261 C 
BRANCH   7   8
ATOM      8  O   UNL A   1      33.136  26.079  22.574  1.00  0.00    -0.460 OA
BRANCH   8   9
ATOM      9  C   UNL A   1      32.934  26.808  23.694  1.00  0.00     0.338 C 
ATOM     10  O   UNL A   1      33.761  27.055  24.552  1.00  0.00    -0.246 OA
BRANCH   9  11
ATOM     11  C   UNL A   1      31.590  27.419  23.635  1.00  0.00     0.087 C 
ATOM     12  C   UNL A   1      28.282  30.286  21.603  1.00  0.00     0.119 A 
ATOM     13  C   UNL A   1      27.285  29.625  22.324  1.00  0.00     0.050 A 
ATOM     14  C   UNL A   1      29.618  29.893  21.746  1.00  0.00     0.058 A 
ATOM     15  C   UNL A   1      27.623  28.595  23.203  1.00  0.00     0.051 A 
ATOM     16  C   UNL A   1      29.960  28.849  22.612  1.00  0.00     0.021 A 
ATOM     17  C   UNL A   1      28.955  28.222  23.355  1.00  0.00     0.128 A 
ATOM     18  C   UNL A   1      31.318  28.316  22.671  1.00  0.00     0.027 C 
ATOM     19  O   UNL A   1      29.207  27.170  24.195  1.00  0.00    -0.475 OA
ATOM     20  C   UNL A   1      30.566  27.118  24.709  1.00  0.00     0.316 C 
BRANCH  12  21
ATOM     21  O   UNL A   1      28.069  31.280  20.688  1.00  0.00    -0.497 OA
ATOM     22  C   UNL A   1      28.102  32.615  21.176  1.00  0.00     0.278 C 
ENDBRANCH  12  21
BRANCH  20  23
ATOM     23  C   UNL A   1      30.707  25.827  25.534  1.00  0.00     0.430 C 
ATOM     24  F   UNL A   1      31.471  26.006  26.636  1.00  0.00    -0.167 F 
ATOM     25  F   UNL A   1      29.486  25.444  26.002  1.00  0.00    -0.167 F 
ATOM     26  F   UNL A   1      31.199  24.790  24.827  1.00  0.00    -0.167 F 
ENDBRANCH  20  23
ENDBRANCH   9  11
ENDBRANCH   8   9
ENDBRANCH   7   8
ENDBRANCH   6   7
ENDBRANCH   5   6
ENDBRANCH   4   5
ENDBRANCH   3   4
ENDBRANCH   2   3
ENDBRANCH   1   2
BRANCH   1  27
ATOM     27  C   UNL A   1      34.610  22.388  26.199  1.00  0.00     0.188 C 
BRANCH  27  28
ATOM     28  O   UNL A   1      35.392  21.204  26.278  1.00  0.00    -0.376 OA
BRANCH  28  29
ATOM     29  C   UNL A   1      35.869  20.664  25.058  1.00  0.00     0.202 C 
BRANCH  29  30
ATOM     30  C   UNL A   1      37.352  20.271  25.026  1.00  0.00     0.261 C 
BRANCH  30  31
ATOM     31  O   UNL A   1      38.287  21.345  25.205  1.00  0.00    -0.460 OA
BRANCH  31  32
ATOM     32  C   UNL A   1      39.322  21.133  26.046  1.00  0.00     0.338 C 
ATOM     33  O   UNL A   1      39.930  20.088  26.216  1.00  0.00    -0.246 OA
BRANCH  32  34
ATOM     34  C   UNL A   1      39.735  22.445  26.585  1.00  0.00     0.060 A 
ATOM     35  C   UNL A   1      39.118  23.607  26.102  1.00  0.00     0.016 A 
ATOM     36  C   UNL A   1      40.705  22.521  27.586  1.00  0.00     0.016 A 
ATOM     37  C   UNL A   1      39.495  24.854  26.599  1.00  0.00     0.010 A 
ATOM     38  C   UNL A   1      41.098  23.772  28.067  1.00  0.00     0.010 A 
ATOM     39  C   UNL A   1      40.518  24.946  27.551  1.00  0.00    -0.014 A 
BRANCH  39  40
ATOM     40  C   UNL A   1      41.115  26.265  27.866  1.00  0.00     0.031 A 
ATOM     41  C   UNL A   1      42.522  26.537  27.407  1.00  0.00     0.074 A 
ATOM     42  C   UNL A   1      40.429  27.203  28.543  1.00  0.00     0.049 A 
ATOM     43  N   UNL A   1      43.263  27.597  27.590  1.00  0.00    -0.248 NA
ATOM     44  C   UNL A   1      43.181  25.467  26.639  1.00  0.00     0.031 C 
ATOM     45  C   UNL A   1      39.061  27.061  29.037  1.00  0.00     0.029 A 
ATOM     46  N   UNL A   1      40.810  28.456  28.958  1.00  0.00    -0.354 N 
ATOM     47  C   UNL A   1      44.484  27.311  26.991  1.00  0.00     0.074 A 
ATOM     48  C   UNL A   1      44.389  25.976  26.444  1.00  0.00     0.031 C 
ATOM     49  C   UNL A   1      38.727  28.173  29.717  1.00  0.00     0.029 A 
ATOM     50  C   UNL A   1      39.865  29.090  29.729  1.00  0.00     0.049 A 
ATOM     51  H   UNL A   1      41.677  28.861  28.725  1.00  0.00     0.167 HD
ATOM     52  C   UNL A   1      45.584  28.094  26.894  1.00  0.00     0.034 A 
ATOM     53  C   UNL A   1      39.925  30.266  30.389  1.00  0.00     0.034 A 
ATOM     54  C   UNL A   1      45.674  29.425  27.426  1.00  0.00     0.049 A 
ATOM     55  C   UNL A   1      41.174  31.105  30.287  1.00  0.00     0.074 A 
ATOM     56  C   UNL A   1      46.728  30.317  27.333  1.00  0.00     0.029 A 
ATOM     57  N   UNL A   1      44.683  30.051  28.165  1.00  0.00    -0.354 N 
ATOM     58  N   UNL A   1      42.275  30.875  29.613  1.00  0.00    -0.248 NA
ATOM     59  C   UNL A   1      41.175  32.386  31.012  1.00  0.00     0.031 C 
ATOM     60  C   UNL A   1      46.389  31.468  28.050  1.00  0.00     0.029 A 
ATOM     61  C   UNL A   1      45.106  31.311  28.551  1.00  0.00     0.049 A 
ATOM     62  H   UNL A   1      43.808  29.658  28.383  1.00  0.00     0.167 HD
ATOM     63  C   UNL A   1      43.081  31.994  29.800  1.00  0.00     0.074 A 
ATOM     64  C   UNL A   1      42.332  32.912  30.632  1.00  0.00     0.031 C 
ATOM     65  C   UNL A   1      44.332  32.237  29.336  1.00  0.00     0.034 A 
BRANCH  52  66
ATOM     66  C   UNL A   1      46.782  27.534  26.174  1.00  0.00     0.023 A 
ATOM     67  C   UNL A   1      46.942  27.765  24.792  1.00  0.00     0.012 A 
ATOM     68  C   UNL A   1      47.781  26.837  26.881  1.00  0.00     0.148 A 
ATOM     69  C   UNL A   1      48.067  27.289  24.120  1.00  0.00     0.002 A 
ATOM     70  C   UNL A   1      48.921  26.406  26.214  1.00  0.00     0.091 A 
ATOM     71  F   UNL A   1      47.596  26.608  28.188  1.00  0.00    -0.205 F 
ATOM     72  C   UNL A   1      49.060  26.622  24.832  1.00  0.00     0.022 A 
BRANCH  70  73
ATOM     73  S   UNL A   1      50.293  25.610  27.054  1.00  0.00     0.127 S 
ATOM     74  O   UNL A   1      51.233  25.405  25.953  1.00  0.00    -0.237 OA
ATOM     75  O   UNL A   1      50.697  26.635  28.018  1.00  0.00    -0.237 OA
ATOM     76  O   UNL A   1      49.755  24.394  27.646  1.00  0.00    -0.744 OA
ENDBRANCH  70  73
ENDBRANCH  52  66
BRANCH  53  77
ATOM     77  C   UNL A   1      38.764  30.732  31.201  1.00  0.00     0.023 A 
ATOM     78  C   UNL A   1      38.745  30.503  32.591  1.00  0.00     0.012 A 
ATOM     79  C   UNL A   1      37.672  31.388  30.599  1.00  0.00     0.148 A 
ATOM     80  C   UNL A   1      37.644  30.883  33.360  1.00  0.00     0.002 A 
ATOM     81  C   UNL A   1      36.606  31.816  31.381  1.00  0.00     0.091 A 
ATOM     82  F   UNL A   1      37.699  31.580  29.274  1.00  0.00    -0.205 F 
ATOM     83  C   UNL A   1      36.579  31.547  32.757  1.00  0.00     0.022 A 
BRANCH  81  84
ATOM     84  S   UNL A   1      35.253  32.791  30.712  1.00  0.00     0.127 S 
ATOM     85  O   UNL A   1      34.383  32.934  31.876  1.00  0.00    -0.237 OA
ATOM     86  O   UNL A   1      35.940  34.016  30.302  1.00  0.00    -0.237 OA
ATOM     87  O   UNL A   1      34.711  32.008  29.609  1.00  0.00    -0.744 OA
ENDBRANCH  81  84
ENDBRANCH  53  77
BRANCH  65  88
ATOM     88  C   UNL A   1      44.962  33.565  29.671  1.00  0.00     0.023 A 
ATOM     89  C   UNL A   1      45.818  33.681  30.784  1.00  0.00     0.012 A 
ATOM     90  C   UNL A   1      44.759  34.683  28.838  1.00  0.00     0.148 A 
ATOM     91  C   UNL A   1      46.430  34.897  31.085  1.00  0.00     0.002 A 
ATOM     92  C   UNL A   1      45.413  35.877  29.113  1.00  0.00     0.091 A 
ATOM     93  F   UNL A   1      43.929  34.559  27.791  1.00  0.00    -0.205 F 
ATOM     94  C   UNL A   1      46.238  35.991  30.244  1.00  0.00     0.022 A 
BRANCH  92  95
ATOM     95  S   UNL A   1      45.305  37.307  28.031  1.00  0.00     0.127 S 
ATOM     96  O   UNL A   1      45.423  36.691  26.710  1.00  0.00    -0.237 OA
ATOM     97  O   UNL A   1      43.975  37.831  28.342  1.00  0.00    -0.237 OA
ATOM     98  O   UNL A   1      46.404  38.185  28.410  1.00  0.00    -0.744 OA
ENDBRANCH  92  95
ENDBRANCH  65  88
ENDBRANCH  39  40
ENDBRANCH  32  34
ENDBRANCH  31  32
ENDBRANCH  30  31
ENDBRANCH  29  30
ENDBRANCH  28  29
ENDBRANCH  27  28
ENDBRANCH   1  27
TORSDOF 25
ENDMDL
MODEL 2
REMARK VINA RESULT:     -10.4      1.755      7.471
REMARK SMILES COc1ccc2c(c1)C=C(C(=O)OCCOCCOCCOCCOC(=O)c1ccc(-c3c4nc(c(-c5cccc(S(=O)(=O)[O-])c5F)c5ccc([nH]5)c(-c5cccc(S(=O)(=O)[O-])c5F)c5nc(c(-c6cccc(S(=O)(=O)[O-])c6F)c6ccc3[nH]6)C=C5)C=C4)cc1)[C@H](C(F)(F)F)O2
REMARK SMILES IDX 20 1 19 2 18 3 17 4 16 5 15 6 14 7 13 8 11 9 12 10 10 11
REMARK SMILES IDX 3 12 4 13 8 14 5 15 7 16 6 17 9 18 96 19 91 20 2 21 1 22
REMARK SMILES IDX 92 23 93 24 94 25 95 26 21 27 22 28 23 29 24 30 25 31 26 32
REMARK SMILES IDX 27 33 28 34 29 35 90 36 30 37 89 38 31 39 32 40 33 41 83 42
REMARK SMILES IDX 34 43 88 44 82 45 84 46 35 47 87 48 81 49 80 50 36 52 68 53
REMARK SMILES IDX 48 54 67 55 49 56 52 57 66 58 85 59 50 60 51 61 65 63 86 64
REMARK SMILES IDX 53 65 37 66 38 67 46 68 39 69 41 70 47 71 40 72 42 73 43 74
REMARK SMILES IDX 44 75 45 76 69 77 70 78 78 79 71 80 73 81 79 82 72 83 74 84
REMARK SMILES IDX 75 85 76 86 77 87 54 88 55 89 63 90 56 91 58 92 64 93 57 94
REMARK SMILES IDX 59 95 60 96 61 97 62 98
REMARK H PARENT 84 51 52 62
REMARK Flexibility Score: inf
ROOT
ATOM      1  C   UNL A   1      32.669  20.310  24.385  1.00  0.00     0.188 C 
ENDROOT
BRANCH   1   2
ATOM      2  O   UNL A   1      32.054  21.583  24.557  1.00  0.00    -0.377 OA
BRANCH   2   3
ATOM      3  C   UNL A   1      31.913  22.452  23.447  1.00  0.00     0.188 C 
BRANCH   3   4
ATOM      4  C   UNL A   1      33.047  22.539  22.406  1.00  0.00     0.188 C 
BRANCH   4   5
ATOM      5  O   UNL A   1      33.393  23.856  22.016  1.00  0.00    -0.376 OA
BRANCH   5   6
ATOM      6  C   UNL A   1      33.996  24.702  22.980  1.00  0.00     0.202 C 
BRANCH   6   7
ATOM      7  C   UNL A   1      33.484  26.146  23.069  1.00  0.00     0.261 C 
BRANCH   7   8
ATOM      8  O   UNL A   1      32.098  26.322  22.743  1.00  0.00    -0.460 OA
BRANCH   8   9
ATOM      9  C   UNL A   1      31.244  26.592  23.754  1.00  0.00     0.338 C 
ATOM     10  O   UNL A   1      30.972  25.856  24.685  1.00  0.00    -0.246 OA
BRANCH   9  11
ATOM     11  C   UNL A   1      30.816  28.004  23.661  1.00  0.00     0.087 C 
ATOM     12  C   UNL A   1      28.160  31.547  21.741  1.00  0.00     0.119 A 
ATOM     13  C   UNL A   1      28.421  32.334  22.865  1.00  0.00     0.050 A 
ATOM     14  C   UNL A   1      28.691  30.253  21.661  1.00  0.00     0.058 A 
ATOM     15  C   UNL A   1      29.232  31.843  23.890  1.00  0.00     0.051 A 
ATOM     16  C   UNL A   1      29.488  29.751  22.694  1.00  0.00     0.021 A 
ATOM     17  C   UNL A   1      29.772  30.565  23.795  1.00  0.00     0.128 A 
ATOM     18  C   UNL A   1      29.932  28.359  22.713  1.00  0.00     0.027 C 
ATOM     19  O   UNL A   1      30.514  30.130  24.861  1.00  0.00    -0.475 OA
ATOM     20  C   UNL A   1      31.442  29.053  24.555  1.00  0.00     0.316 C 
BRANCH  12  21
ATOM     21  O   UNL A   1      27.353  31.904  20.696  1.00  0.00    -0.497 OA
ATOM     22  C   UNL A   1      27.968  32.616  19.630  1.00  0.00     0.278 C 
ENDBRANCH  12  21
BRANCH  20  23
ATOM     23  C   UNL A   1      32.103  28.614  25.871  1.00  0.00     0.430 C 
ATOM     24  F   UNL A   1      33.226  27.888  25.662  1.00  0.00    -0.167 F 
ATOM     25  F   UNL A   1      32.511  29.710  26.571  1.00  0.00    -0.167 F 
ATOM     26  F   UNL A   1      31.279  27.918  26.679  1.00  0.00    -0.167 F 
ENDBRANCH  20  23
ENDBRANCH   9  11
ENDBRANCH   8   9
ENDBRANCH   7   8
ENDBRANCH   6   7
ENDBRANCH   5   6
ENDBRANCH   4   5
ENDBRANCH   3   4
ENDBRANCH   2   3
ENDBRANCH   1   2
BRANCH   1  27
ATOM     27  C   UNL A   1      34.076  20.020  24.960  1.00  0.00     0.188 C 
BRANCH  27  28
ATOM     28  O   UNL A   1      35.072  20.975  24.623  1.00  0.00    -0.376 OA
BRANCH  28  29
ATOM     29  C   UNL A   1      36.212  21.039  25.462  1.00  0.00     0.202 C 
BRANCH  29  30
ATOM     30  C   UNL A   1      37.377  20.112  25.091  1.00  0.00     0.261 C 
BRANCH  30  31
ATOM     31  O   UNL A   1      38.674  20.725  25.043  1.00  0.00    -0.460 OA
BRANCH  31  32
ATOM     32  C   UNL A   1      39.517  20.478  26.069  1.00  0.00     0.338 C 
ATOM     33  O   UNL A   1      39.932  19.390  26.434  1.00  0.00    -0.246 OA
BRANCH  32  34
ATOM     34  C   UNL A   1      40.017  21.779  26.558  1.00  0.00     0.060 A 
ATOM     35  C   UNL A   1      39.473  22.960  26.036  1.00  0.00     0.016 A 
ATOM     36  C   UNL A   1      40.998  21.828  27.551  1.00  0.00     0.016 A 
ATOM     37  C   UNL A   1      39.933  24.197  26.487  1.00  0.00     0.010 A 
ATOM     38  C   UNL A   1      41.474  23.067  27.983  1.00  0.00     0.010 A 
ATOM     39  C   UNL A   1      40.968  24.256  27.429  1.00  0.00    -0.014 A 
BRANCH  39  40
ATOM     40  C   UNL A   1      41.651  25.545  27.692  1.00  0.00     0.031 A 
ATOM     41  C   UNL A   1      40.892  26.615  28.429  1.00  0.00     0.074 A 
ATOM     42  C   UNL A   1      42.914  25.766  27.287  1.00  0.00     0.049 A 
ATOM     43  N   UNL A   1      41.263  27.827  28.745  1.00  0.00    -0.248 NA
ATOM     44  C   UNL A   1      39.528  26.270  28.867  1.00  0.00     0.031 C 
ATOM     45  C   UNL A   1      43.754  24.809  26.569  1.00  0.00     0.029 A 
ATOM     46  N   UNL A   1      43.700  26.887  27.401  1.00  0.00    -0.354 N 
ATOM     47  C   UNL A   1      40.173  28.400  29.388  1.00  0.00     0.074 A 
ATOM     48  C   UNL A   1      39.122  27.408  29.412  1.00  0.00     0.031 C 
ATOM     49  C   UNL A   1      44.929  25.396  26.278  1.00  0.00     0.029 A 
ATOM     50  C   UNL A   1      44.913  26.774  26.763  1.00  0.00     0.049 A 
ATOM     51  H   UNL A   1      43.421  27.693  27.892  1.00  0.00     0.167 HD
ATOM     52  C   UNL A   1      40.059  29.638  29.921  1.00  0.00     0.034 A 
ATOM     53  C   UNL A   1      45.886  27.690  26.573  1.00  0.00     0.034 A 
ATOM     54  C   UNL A   1      41.108  30.620  29.909  1.00  0.00     0.049 A 
ATOM     55  C   UNL A   1      45.721  29.072  27.154  1.00  0.00     0.074 A 
ATOM     56  C   UNL A   1      41.106  31.885  30.470  1.00  0.00     0.029 A 
ATOM     57  N   UNL A   1      42.337  30.457  29.291  1.00  0.00    -0.354 N 
ATOM     58  N   UNL A   1      44.734  29.559  27.867  1.00  0.00    -0.248 NA
ATOM     59  C   UNL A   1      46.822  30.023  26.933  1.00  0.00     0.031 C 
ATOM     60  C   UNL A   1      42.320  32.502  30.156  1.00  0.00     0.029 A 
ATOM     61  C   UNL A   1      43.097  31.604  29.440  1.00  0.00     0.049 A 
ATOM     62  H   UNL A   1      42.627  29.645  28.817  1.00  0.00     0.167 HD
ATOM     63  C   UNL A   1      45.111  30.854  28.211  1.00  0.00     0.074 A 
ATOM     64  C   UNL A   1      46.427  31.068  27.646  1.00  0.00     0.031 C 
ATOM     65  C   UNL A   1      44.426  31.787  28.918  1.00  0.00     0.034 A 
BRANCH  52  66
ATOM     66  C   UNL A   1      38.753  30.002  30.577  1.00  0.00     0.023 A 
ATOM     67  C   UNL A   1      38.528  29.668  31.928  1.00  0.00     0.012 A 
ATOM     68  C   UNL A   1      37.778  30.735  29.872  1.00  0.00     0.148 A 
ATOM     69  C   UNL A   1      37.342  30.035  32.560  1.00  0.00     0.002 A 
ATOM     70  C   UNL A   1      36.618  31.137  30.522  1.00  0.00     0.091 A 
ATOM     71  F   UNL A   1      38.003  31.021  28.582  1.00  0.00    -0.205 F 
ATOM     72  C   UNL A   1      36.394  30.779  31.863  1.00  0.00     0.022 A 
BRANCH  70  73
ATOM     73  S   UNL A   1      35.374  32.167  29.737  1.00  0.00     0.127 S 
ATOM     74  O   UNL A   1      36.165  33.329  29.336  1.00  0.00    -0.237 OA
ATOM     75  O   UNL A   1      34.931  31.319  28.629  1.00  0.00    -0.237 OA
ATOM     76  O   UNL A   1      34.362  32.423  30.752  1.00  0.00    -0.744 OA
ENDBRANCH  70  73
ENDBRANCH  52  66
BRANCH  53  77
ATOM     77  C   UNL A   1      47.114  27.334  25.806  1.00  0.00     0.023 A 
ATOM     78  C   UNL A   1      48.169  26.658  26.449  1.00  0.00     0.012 A 
ATOM     79  C   UNL A   1      47.246  27.675  24.446  1.00  0.00     0.148 A 
ATOM     80  C   UNL A   1      49.349  26.364  25.763  1.00  0.00     0.002 A 
ATOM     81  C   UNL A   1      48.400  27.326  23.753  1.00  0.00     0.091 A 
ATOM     82  F   UNL A   1      46.240  28.334  23.856  1.00  0.00    -0.205 F 
ATOM     83  C   UNL A   1      49.461  26.690  24.414  1.00  0.00     0.022 A 
BRANCH  81  84
ATOM     84  S   UNL A   1      48.578  27.591  21.986  1.00  0.00     0.127 S 
ATOM     85  O   UNL A   1      48.831  26.236  21.505  1.00  0.00    -0.237 OA
ATOM     86  O   UNL A   1      47.268  28.137  21.631  1.00  0.00    -0.237 OA
ATOM     87  O   UNL A   1      49.681  28.532  21.837  1.00  0.00    -0.744 OA
ENDBRANCH  81  84
ENDBRANCH  53  77
BRANCH  65  88
ATOM     88  C   UNL A   1      45.098  33.113  29.170  1.00  0.00     0.023 A 
ATOM     89  C   UNL A   1      45.963  33.270  30.271  1.00  0.00     0.012 A 
ATOM     90  C   UNL A   1      44.926  34.184  28.271  1.00  0.00     0.148 A 
ATOM     91  C   UNL A   1      46.613  34.482  30.496  1.00  0.00     0.002 A 
ATOM     92  C   UNL A   1      45.619  35.372  28.470  1.00  0.00     0.091 A 
ATOM     93  F   UNL A   1      44.089  34.022  27.235  1.00  0.00    -0.205 F 
ATOM     94  C   UNL A   1      46.452  35.529  29.590  1.00  0.00     0.022 A 
BRANCH  92  95
ATOM     95  S   UNL A   1      45.551  36.736  27.303  1.00  0.00     0.127 S 
ATOM     96  O   UNL A   1      46.186  36.150  26.123  1.00  0.00    -0.237 OA
ATOM     97  O   UNL A   1      44.111  36.959  27.171  1.00  0.00    -0.237 OA
ATOM     98  O   UNL A   1      46.279  37.834  27.922  1.00  0.00    -0.744 OA
ENDBRANCH  92  95
ENDBRANCH  65  88
ENDBRANCH  39  40
ENDBRANCH  32  34
ENDBRANCH  31  32
ENDBRANCH  30  31
ENDBRANCH  29  30
ENDBRANCH  28  29
ENDBRANCH  27  28
ENDBRANCH   1  27
TORSDOF 25
ENDMDL
MODEL 3
REMARK VINA RESULT:     -10.1      1.840      2.937
REMARK SMILES COc1ccc2c(c1)C=C(C(=O)OCCOCCOCCOCCOC(=O)c1ccc(-c3c4nc(c(-c5cccc(S(=O)(=O)[O-])c5F)c5ccc([nH]5)c(-c5cccc(S(=O)(=O)[O-])c5F)c5nc(c(-c6cccc(S(=O)(=O)[O-])c6F)c6ccc3[nH]6)C=C5)C=C4)cc1)[C@H](C(F)(F)F)O2
REMARK SMILES IDX 20 1 19 2 18 3 17 4 16 5 15 6 14 7 13 8 11 9 12 10 10 11
REMARK SMILES IDX 3 12 4 13 8 14 5 15 7 16 6 17 9 18 96 19 91 20 2 21 1 22
REMARK SMILES IDX 92 23 93 24 94 25 95 26 21 27 22 28 23 29 24 30 25 31 26 32
REMARK SMILES IDX 27 33 28 34 29 35 90 36 30 37 89 38 31 39 32 40 33 41 83 42
REMARK SMILES IDX 34 43 88 44 82 45 84 46 35 47 87 48 81 49 80 50 36 52 68 53
REMARK SMILES IDX 48 54 67 55 49 56 52 57 66 58 85 59 50 60 51 61 65 63 86 64
REMARK SMILES IDX 53 65 37 66 38 67 46 68 39 69 41 70 47 71 40 72 42 73 43 74
REMARK SMILES IDX 44 75 45 76 69 77 70 78 78 79 71 80 73 81 79 82 72 83 74 84
REMARK SMILES IDX 75 85 76 86 77 87 54 88 55 89 63 90 56 91 58 92 64 93 57 94
REMARK SMILES IDX 59 95 60 96 61 97 62 98
REMARK H PARENT 84 51 52 62
REMARK Flexibility Score: inf
ROOT
ATOM      1  C   UNL A   1      34.776  23.324  26.476  1.00  0.00     0.188 C 
ENDROOT
BRANCH   1   2
ATOM      2  O   UNL A   1      33.613  22.647  26.944  1.00  0.00    -0.377 OA
BRANCH   2   3
ATOM      3  C   UNL A   1      32.401  22.747  26.219  1.00  0.00     0.188 C 
BRANCH   3   4
ATOM      4  C   UNL A   1      32.108  21.735  25.092  1.00  0.00     0.188 C 
BRANCH   4   5
ATOM      5  O   UNL A   1      32.963  21.839  23.967  1.00  0.00    -0.376 OA
BRANCH   5   6
ATOM      6  C   UNL A   1      32.578  22.706  22.914  1.00  0.00     0.202 C 
BRANCH   6   7
ATOM      7  C   UNL A   1      33.253  24.082  22.851  1.00  0.00     0.261 C 
BRANCH   7   8
ATOM      8  O   UNL A   1      32.360  25.193  22.692  1.00  0.00    -0.460 OA
BRANCH   8   9
ATOM      9  C   UNL A   1      31.352  25.322  23.582  1.00  0.00     0.338 C 
ATOM     10  O   UNL A   1      30.478  24.504  23.805  1.00  0.00    -0.246 OA
BRANCH   9  11
ATOM     11  C   UNL A   1      31.568  26.544  24.384  1.00  0.00     0.087 C 
ATOM     12  C   UNL A   1      34.200  29.307  27.339  1.00  0.00     0.119 A 
ATOM     13  C   UNL A   1      33.412  30.407  26.991  1.00  0.00     0.050 A 
ATOM     14  C   UNL A   1      33.939  28.057  26.764  1.00  0.00     0.058 A 
ATOM     15  C   UNL A   1      32.352  30.253  26.096  1.00  0.00     0.051 A 
ATOM     16  C   UNL A   1      32.890  27.902  25.853  1.00  0.00     0.021 A 
ATOM     17  C   UNL A   1      32.086  29.004  25.544  1.00  0.00     0.128 A 
ATOM     18  C   UNL A   1      32.686  26.654  25.124  1.00  0.00     0.027 C 
ATOM     19  O   UNL A   1      31.065  28.939  24.633  1.00  0.00    -0.475 OA
ATOM     20  C   UNL A   1      30.498  27.612  24.453  1.00  0.00     0.316 C 
BRANCH  12  21
ATOM     21  O   UNL A   1      35.284  29.343  28.172  1.00  0.00    -0.497 OA
ATOM     22  C   UNL A   1      36.548  29.579  27.565  1.00  0.00     0.278 C 
ENDBRANCH  12  21
BRANCH  20  23
ATOM     23  C   UNL A   1      29.453  27.697  23.328  1.00  0.00     0.430 C 
ATOM     24  F   UNL A   1      28.480  26.767  23.464  1.00  0.00    -0.167 F 
ATOM     25  F   UNL A   1      28.813  28.898  23.383  1.00  0.00    -0.167 F 
ATOM     26  F   UNL A   1      29.985  27.593  22.094  1.00  0.00    -0.167 F 
ENDBRANCH  20  23
ENDBRANCH   9  11
ENDBRANCH   8   9
ENDBRANCH   7   8
ENDBRANCH   6   7
ENDBRANCH   5   6
ENDBRANCH   4   5
ENDBRANCH   3   4
ENDBRANCH   2   3
ENDBRANCH   1   2
BRANCH   1  27
ATOM     27  C   UNL A   1      35.941  22.548  25.818  1.00  0.00     0.188 C 
BRANCH  27  28
ATOM     28  O   UNL A   1      35.783  21.137  25.791  1.00  0.00    -0.376 OA
BRANCH  28  29
ATOM     29  C   UNL A   1      36.559  20.420  24.847  1.00  0.00     0.202 C 
BRANCH  29  30
ATOM     30  C   UNL A   1      37.946  19.965  25.318  1.00  0.00     0.261 C 
BRANCH  30  31
ATOM     31  O   UNL A   1      38.945  20.992  25.408  1.00  0.00    -0.460 OA
BRANCH  31  32
ATOM     32  C   UNL A   1      39.912  20.839  26.337  1.00  0.00     0.338 C 
ATOM     33  O   UNL A   1      40.525  19.817  26.600  1.00  0.00    -0.246 OA
BRANCH  32  34
ATOM     34  C   UNL A   1      40.250  22.181  26.854  1.00  0.00     0.060 A 
ATOM     35  C   UNL A   1      39.568  23.298  26.353  1.00  0.00     0.016 A 
ATOM     36  C   UNL A   1      41.217  22.329  27.850  1.00  0.00     0.016 A 
ATOM     37  C   UNL A   1      39.874  24.573  26.829  1.00  0.00     0.010 A 
ATOM     38  C   UNL A   1      41.539  23.608  28.309  1.00  0.00     0.010 A 
ATOM     39  C   UNL A   1      40.893  24.738  27.776  1.00  0.00    -0.014 A 
BRANCH  39  40
ATOM     40  C   UNL A   1      41.415  26.094  28.067  1.00  0.00     0.031 A 
ATOM     41  C   UNL A   1      42.809  26.432  27.614  1.00  0.00     0.074 A 
ATOM     42  C   UNL A   1      40.673  27.008  28.719  1.00  0.00     0.049 A 
ATOM     43  N   UNL A   1      43.491  27.534  27.780  1.00  0.00    -0.248 NA
ATOM     44  C   UNL A   1      43.533  25.383  26.874  1.00  0.00     0.031 C 
ATOM     45  C   UNL A   1      39.310  26.802  29.204  1.00  0.00     0.029 A 
ATOM     46  N   UNL A   1      40.982  28.288  29.109  1.00  0.00    -0.354 N 
ATOM     47  C   UNL A   1      44.731  27.302  27.197  1.00  0.00     0.074 A 
ATOM     48  C   UNL A   1      44.713  25.953  26.679  1.00  0.00     0.031 C 
ATOM     49  C   UNL A   1      38.911  27.908  29.857  1.00  0.00     0.029 A 
ATOM     50  C   UNL A   1      39.997  28.886  29.859  1.00  0.00     0.049 A 
ATOM     51  H   UNL A   1      41.828  28.733  28.874  1.00  0.00     0.167 HD
ATOM     52  C   UNL A   1      45.788  28.141  27.092  1.00  0.00     0.034 A 
ATOM     53  C   UNL A   1      39.988  30.077  30.494  1.00  0.00     0.034 A 
ATOM     54  C   UNL A   1      45.801  29.486  27.596  1.00  0.00     0.049 A 
ATOM     55  C   UNL A   1      41.191  30.980  30.384  1.00  0.00     0.074 A 
ATOM     56  C   UNL A   1      46.807  30.432  27.492  1.00  0.00     0.029 A 
ATOM     57  N   UNL A   1      44.771  30.073  28.314  1.00  0.00    -0.354 N 
ATOM     58  N   UNL A   1      42.308  30.796  29.724  1.00  0.00    -0.248 NA
ATOM     59  C   UNL A   1      41.116  32.274  31.081  1.00  0.00     0.031 C 
ATOM     60  C   UNL A   1      46.399  31.577  28.182  1.00  0.00     0.029 A 
ATOM     61  C   UNL A   1      45.122  31.362  28.676  1.00  0.00     0.049 A 
ATOM     62  H   UNL A   1      43.916  29.638  28.533  1.00  0.00     0.167 HD
ATOM     63  C   UNL A   1      43.051  31.961  29.893  1.00  0.00     0.074 A 
ATOM     64  C   UNL A   1      42.247  32.854  30.699  1.00  0.00     0.031 C 
ATOM     65  C   UNL A   1      44.292  32.260  29.434  1.00  0.00     0.034 A 
BRANCH  52  66
ATOM     66  C   UNL A   1      47.021  27.631  26.394  1.00  0.00     0.023 A 
ATOM     67  C   UNL A   1      47.952  26.842  27.099  1.00  0.00     0.012 A 
ATOM     68  C   UNL A   1      47.220  27.879  25.021  1.00  0.00     0.148 A 
ATOM     69  C   UNL A   1      49.077  26.329  26.455  1.00  0.00     0.002 A 
ATOM     70  C   UNL A   1      48.318  27.325  24.376  1.00  0.00     0.091 A 
ATOM     71  F   UNL A   1      46.334  28.651  24.377  1.00  0.00    -0.205 F 
ATOM     72  C   UNL A   1      49.253  26.559  25.093  1.00  0.00     0.022 A 
BRANCH  70  73
ATOM     73  S   UNL A   1      48.592  27.495  22.610  1.00  0.00     0.127 S 
ATOM     74  O   UNL A   1      47.410  28.253  22.201  1.00  0.00    -0.237 OA
ATOM     75  O   UNL A   1      49.846  28.249  22.566  1.00  0.00    -0.237 OA
ATOM     76  O   UNL A   1      48.676  26.142  22.081  1.00  0.00    -0.744 OA
ENDBRANCH  70  73
ENDBRANCH  52  66
BRANCH  53  77
ATOM     77  C   UNL A   1      38.796  30.496  31.286  1.00  0.00     0.023 A 
ATOM     78  C   UNL A   1      38.651  30.058  32.616  1.00  0.00     0.012 A 
ATOM     79  C   UNL A   1      37.799  31.316  30.722  1.00  0.00     0.148 A 
ATOM     80  C   UNL A   1      37.516  30.394  33.357  1.00  0.00     0.002 A 
ATOM     81  C   UNL A   1      36.701  31.696  31.484  1.00  0.00     0.091 A 
ATOM     82  F   UNL A   1      37.945  31.708  29.449  1.00  0.00    -0.205 F 
ATOM     83  C   UNL A   1      36.547  31.220  32.795  1.00  0.00     0.022 A 
BRANCH  81  84
ATOM     84  S   UNL A   1      35.471  32.860  30.886  1.00  0.00     0.127 S 
ATOM     85  O   UNL A   1      35.177  32.328  29.558  1.00  0.00    -0.237 OA
ATOM     86  O   UNL A   1      34.398  32.693  31.868  1.00  0.00    -0.237 OA
ATOM     87  O   UNL A   1      36.115  34.166  30.917  1.00  0.00    -0.744 OA
ENDBRANCH  81  84
ENDBRANCH  53  77
BRANCH  65  88
ATOM     88  C   UNL A   1      44.846  33.627  29.746  1.00  0.00     0.023 A 
ATOM     89  C   UNL A   1      45.593  33.837  30.922  1.00  0.00     0.012 A 
ATOM     90  C   UNL A   1      44.685  34.689  28.834  1.00  0.00     0.148 A 
ATOM     91  C   UNL A   1      46.136  35.089  31.205  1.00  0.00     0.002 A 
ATOM     92  C   UNL A   1      45.274  35.920  29.095  1.00  0.00     0.091 A 
ATOM     93  F   UNL A   1      43.959  34.477  27.726  1.00  0.00    -0.205 F 
ATOM     94  C   UNL A   1      45.987  36.127  30.287  1.00  0.00     0.022 A 
BRANCH  92  95
ATOM     95  S   UNL A   1      45.220  37.283  27.925  1.00  0.00     0.127 S 
ATOM     96  O   UNL A   1      46.549  37.869  28.090  1.00  0.00    -0.237 OA
ATOM     97  O   UNL A   1      45.013  36.590  26.653  1.00  0.00    -0.237 OA
ATOM     98  O   UNL A   1      44.109  38.128  28.341  1.00  0.00    -0.744 OA
ENDBRANCH  92  95
ENDBRANCH  65  88
ENDBRANCH  39  40
ENDBRANCH  32  34
ENDBRANCH  31  32
ENDBRANCH  30  31
ENDBRANCH  29  30
ENDBRANCH  28  29
ENDBRANCH  27  28
ENDBRANCH   1  27
TORSDOF 25
ENDMDL
