MODEL 1
REMARK VINA RESULT:     -11.4      0.000      0.000
REMARK SMILES O=C(OCCOCCOCCOCCOC(=O)c1ccc(-c2c3nc(c(-c4cccc(S(=O)(=O)[O-])c4F)c4ccc([nH]4)c(-c4cccc(S(=O)(=O)[O-])c4F)c4nc(c(-c5cccc(S(=O)(=O)[O-])c5F)c5ccc2[nH]5)C=C4)C=C3)cc1)C1=Cc2cc(Cl)c(Cl)c(Cl)c2O[C@@H]1C(F)(F)F
REMARK SMILES IDX 10 1 9 2 8 3 7 4 6 5 5 6 4 7 3 8 2 9 1 10 81 11 82 12 93 13
REMARK SMILES IDX 83 14 92 15 84 16 91 17 85 18 89 19 86 20 87 21 90 22 88 23
REMARK SMILES IDX 94 24 95 25 96 26 97 27 11 28 12 29 13 30 14 31 15 32 16 33
REMARK SMILES IDX 17 34 18 35 19 36 80 37 20 38 79 39 21 40 22 41 23 42 73 43
REMARK SMILES IDX 24 44 78 45 72 46 74 47 25 48 77 49 71 50 70 51 26 53 58 54
REMARK SMILES IDX 38 55 57 56 39 57 42 58 56 59 75 60 40 61 41 62 55 64 76 65
REMARK SMILES IDX 43 66 27 67 28 68 36 69 29 70 31 71 37 72 30 73 32 74 33 75
REMARK SMILES IDX 34 76 35 77 59 78 60 79 68 80 61 81 63 82 69 83 62 84 64 85
REMARK SMILES IDX 65 86 66 87 67 88 44 89 45 90 53 91 46 92 48 93 54 94 47 95
REMARK SMILES IDX 49 96 50 97 51 98 52 99
REMARK H PARENT 74 52 42 63
REMARK Flexibility Score: inf
ROOT
ATOM      1  C   UNL A   1      29.925  25.810  25.363  1.00  0.00     0.188 C 
ENDROOT
BRANCH   1   2
ATOM      2  O   UNL A   1      28.716  26.130  24.714  1.00  0.00    -0.377 OA
BRANCH   2   3
ATOM      3  C   UNL A   1      28.931  26.521  23.378  1.00  0.00     0.188 C 
BRANCH   3   4
ATOM      4  C   UNL A   1      28.912  28.039  23.163  1.00  0.00     0.188 C 
BRANCH   4   5
ATOM      5  O   UNL A   1      30.116  28.853  22.989  1.00  0.00    -0.376 OA
BRANCH   5   6
ATOM      6  C   UNL A   1      31.677  28.507  22.628  1.00  0.00     0.202 C 
BRANCH   6   7
ATOM      7  C   UNL A   1      32.554  26.581  22.101  1.00  0.00     0.261 C 
BRANCH   7   8
ATOM      8  O   UNL A   1      32.068  25.204  22.580  1.00  0.00    -0.460 OA
BRANCH   8   9
ATOM      9  C   UNL A   1      33.012  24.259  22.502  1.00  0.00     0.338 C 
ATOM     10  O   UNL A   1      33.549  23.780  21.537  1.00  0.00    -0.246 OA
BRANCH   9  11
ATOM     11  C   UNL A   1      32.839  23.773  23.851  1.00  0.00     0.087 C 
ATOM     12  C   UNL A   1      32.184  22.453  23.893  1.00  0.00     0.027 C 
ATOM     13  C   UNL A   1      34.650  24.133  24.412  1.00  0.00     0.316 C 
ATOM     14  C   UNL A   1      33.051  20.920  24.289  1.00  0.00     0.020 A 
ATOM     15  O   UNL A   1      35.627  22.480  24.728  1.00  0.00    -0.474 OA
ATOM     16  C   UNL A   1      32.365  19.739  24.223  1.00  0.00     0.034 A 
ATOM     17  C   UNL A   1      34.753  20.871  24.601  1.00  0.00     0.148 A 
ATOM     18  C   UNL A   1      33.129  18.574  24.449  1.00  0.00     0.062 A 
ATOM     19  C   UNL A   1      35.433  19.681  24.749  1.00  0.00     0.103 A 
ATOM     20  Cl  UNL A   1      32.188  17.101  24.375  1.00  0.00    -0.083 Cl
ATOM     21  C   UNL A   1      34.580  18.534  24.700  1.00  0.00     0.082 A 
ATOM     22  Cl  UNL A   1      37.135  19.589  24.874  1.00  0.00    -0.079 Cl
ATOM     23  Cl  UNL A   1      35.293  16.956  24.975  1.00  0.00    -0.081 Cl
BRANCH  13  24
ATOM     24  C   UNL A   1      34.255  25.382  25.396  1.00  0.00     0.430 C 
ATOM     25  F   UNL A   1      33.219  25.220  26.238  1.00  0.00    -0.167 F 
ATOM     26  F   UNL A   1      35.328  25.574  26.226  1.00  0.00    -0.167 F 
ATOM     27  F   UNL A   1      34.104  26.575  24.771  1.00  0.00    -0.167 F 
ENDBRANCH  13  24
ENDBRANCH   9  11
ENDBRANCH   8   9
ENDBRANCH   7   8
ENDBRANCH   6   7
ENDBRANCH   5   6
ENDBRANCH   4   5
ENDBRANCH   3   4
ENDBRANCH   2   3
ENDBRANCH   1   2
BRANCH   1  28
ATOM     28  C   UNL A   1      30.760  26.998  25.849  1.00  0.00     0.188 C 
BRANCH  28  29
ATOM     29  O   UNL A   1      30.993  27.259  27.223  1.00  0.00    -0.376 OA
BRANCH  29  30
ATOM     30  C   UNL A   1      31.927  28.244  27.634  1.00  0.00     0.202 C 
BRANCH  30  31
ATOM     31  C   UNL A   1      31.783  29.718  27.220  1.00  0.00     0.261 C 
BRANCH  31  32
ATOM     32  O   UNL A   1      32.921  30.316  26.590  1.00  0.00    -0.460 OA
BRANCH  32  33
ATOM     33  C   UNL A   1      33.419  31.413  27.206  1.00  0.00     0.338 C 
ATOM     34  O   UNL A   1      32.804  32.424  27.505  1.00  0.00    -0.246 OA
BRANCH  33  35
ATOM     35  C   UNL A   1      34.799  31.140  27.662  1.00  0.00     0.060 A 
ATOM     36  C   UNL A   1      35.187  29.800  27.822  1.00  0.00     0.016 A 
ATOM     37  C   UNL A   1      35.700  32.171  27.939  1.00  0.00     0.016 A 
ATOM     38  C   UNL A   1      36.458  29.484  28.293  1.00  0.00     0.010 A 
ATOM     39  C   UNL A   1      36.959  31.855  28.456  1.00  0.00     0.010 A 
ATOM     40  C   UNL A   1      37.323  30.513  28.675  1.00  0.00    -0.014 A 
BRANCH  40  41
ATOM     41  C   UNL A   1      38.484  30.191  29.536  1.00  0.00     0.031 A 
ATOM     42  C   UNL A   1      39.507  29.229  28.997  1.00  0.00     0.074 A 
ATOM     43  C   UNL A   1      38.635  30.739  30.753  1.00  0.00     0.049 A 
ATOM     44  N   UNL A   1      40.564  28.731  29.579  1.00  0.00    -0.248 NA
ATOM     45  C   UNL A   1      39.306  28.765  27.613  1.00  0.00     0.031 C 
ATOM     46  C   UNL A   1      37.731  31.710  31.360  1.00  0.00     0.029 A 
ATOM     47  N   UNL A   1      39.597  30.526  31.708  1.00  0.00    -0.354 N 
ATOM     48  C   UNL A   1      41.128  27.862  28.653  1.00  0.00     0.074 A 
ATOM     49  C   UNL A   1      40.299  27.902  27.470  1.00  0.00     0.031 C 
ATOM     50  C   UNL A   1      38.157  31.981  32.605  1.00  0.00     0.029 A 
ATOM     51  C   UNL A   1      39.341  31.173  32.894  1.00  0.00     0.049 A 
ATOM     52  H   UNL A   1      40.393  29.966  31.558  1.00  0.00     0.167 HD
ATOM     53  C   UNL A   1      42.238  27.100  28.777  1.00  0.00     0.034 A 
ATOM     54  C   UNL A   1      39.967  31.084  34.084  1.00  0.00     0.034 A 
ATOM     55  C   UNL A   1      43.060  27.072  29.955  1.00  0.00     0.049 A 
ATOM     56  C   UNL A   1      41.173  30.187  34.215  1.00  0.00     0.074 A 
ATOM     57  C   UNL A   1      44.231  26.367  30.168  1.00  0.00     0.029 A 
ATOM     58  N   UNL A   1      42.783  27.755  31.129  1.00  0.00    -0.354 N 
ATOM     59  N   UNL A   1      41.754  29.444  33.303  1.00  0.00    -0.248 NA
ATOM     60  C   UNL A   1      41.825  30.134  35.532  1.00  0.00     0.031 C 
ATOM     61  C   UNL A   1      44.634  26.583  31.489  1.00  0.00     0.029 A 
ATOM     62  C   UNL A   1      43.746  27.470  32.080  1.00  0.00     0.049 A 
ATOM     63  H   UNL A   1      42.015  28.356  31.265  1.00  0.00     0.167 HD
ATOM     64  C   UNL A   1      42.859  28.870  33.923  1.00  0.00     0.074 A 
ATOM     65  C   UNL A   1      42.876  29.363  35.285  1.00  0.00     0.031 C 
ATOM     66  C   UNL A   1      43.774  28.005  33.417  1.00  0.00     0.034 A 
BRANCH  53  67
ATOM     67  C   UNL A   1      42.619  26.220  27.616  1.00  0.00     0.023 A 
ATOM     68  C   UNL A   1      43.481  26.704  26.612  1.00  0.00     0.012 A 
ATOM     69  C   UNL A   1      42.155  24.892  27.550  1.00  0.00     0.148 A 
ATOM     70  C   UNL A   1      43.848  25.890  25.541  1.00  0.00     0.002 A 
ATOM     71  C   UNL A   1      42.566  24.071  26.508  1.00  0.00     0.091 A 
ATOM     72  F   UNL A   1      41.317  24.459  28.503  1.00  0.00    -0.205 F 
ATOM     73  C   UNL A   1      43.400  24.573  25.495  1.00  0.00     0.022 A 
BRANCH  71  74
ATOM     74  S   UNL A   1      42.112  22.337  26.404  1.00  0.00     0.127 S 
ATOM     75  O   UNL A   1      42.813  21.921  25.190  1.00  0.00    -0.237 OA
ATOM     76  O   UNL A   1      42.670  21.801  27.646  1.00  0.00    -0.237 OA
ATOM     77  O   UNL A   1      40.659  22.304  26.324  1.00  0.00    -0.744 OA
ENDBRANCH  71  74
ENDBRANCH  53  67
BRANCH  54  78
ATOM     78  C   UNL A   1      39.465  31.858  35.255  1.00  0.00     0.023 A 
ATOM     79  C   UNL A   1      38.490  31.296  36.102  1.00  0.00     0.012 A 
ATOM     80  C   UNL A   1      39.947  33.153  35.530  1.00  0.00     0.148 A 
ATOM     81  C   UNL A   1      37.978  32.023  37.177  1.00  0.00     0.002 A 
ATOM     82  C   UNL A   1      39.477  33.847  36.637  1.00  0.00     0.091 A 
ATOM     83  F   UNL A   1      40.864  33.679  34.704  1.00  0.00    -0.205 F 
ATOM     84  C   UNL A   1      38.478  33.293  37.451  1.00  0.00     0.022 A 
BRANCH  82  85
ATOM     85  S   UNL A   1      40.149  35.436  37.140  1.00  0.00     0.127 S 
ATOM     86  O   UNL A   1      41.587  35.193  37.056  1.00  0.00    -0.237 OA
ATOM     87  O   UNL A   1      39.613  36.325  36.109  1.00  0.00    -0.237 OA
ATOM     88  O   UNL A   1      39.630  35.682  38.478  1.00  0.00    -0.744 OA
ENDBRANCH  82  85
ENDBRANCH  54  78
BRANCH  66  89
ATOM     89  C   UNL A   1      44.907  27.572  34.311  1.00  0.00     0.023 A 
ATOM     90  C   UNL A   1      46.126  28.278  34.306  1.00  0.00     0.012 A 
ATOM     91  C   UNL A   1      44.726  26.513  35.223  1.00  0.00     0.148 A 
ATOM     92  C   UNL A   1      47.158  27.917  35.172  1.00  0.00     0.002 A 
ATOM     93  C   UNL A   1      45.736  26.195  36.121  1.00  0.00     0.091 A 
ATOM     94  F   UNL A   1      43.562  25.846  35.205  1.00  0.00    -0.205 F 
ATOM     95  C   UNL A   1      46.958  26.885  36.088  1.00  0.00     0.022 A 
BRANCH  93  96
ATOM     96  S   UNL A   1      45.535  24.952  37.403  1.00  0.00     0.127 S 
ATOM     97  O   UNL A   1      46.735  25.161  38.211  1.00  0.00    -0.237 OA
ATOM     98  O   UNL A   1      44.287  25.368  38.042  1.00  0.00    -0.237 OA
ATOM     99  O   UNL A   1      45.468  23.669  36.716  1.00  0.00    -0.744 OA
ENDBRANCH  93  96
ENDBRANCH  66  89
ENDBRANCH  40  41
ENDBRANCH  33  35
ENDBRANCH  32  33
ENDBRANCH  31  32
ENDBRANCH  30  31
ENDBRANCH  29  30
ENDBRANCH  28  29
ENDBRANCH   1  28
TORSDOF 24
ENDMDL
MODEL 2
REMARK VINA RESULT:     -11.0      1.747      2.009
REMARK SMILES O=C(OCCOCCOCCOCCOC(=O)c1ccc(-c2c3nc(c(-c4cccc(S(=O)(=O)[O-])c4F)c4ccc([nH]4)c(-c4cccc(S(=O)(=O)[O-])c4F)c4nc(c(-c5cccc(S(=O)(=O)[O-])c5F)c5ccc2[nH]5)C=C4)C=C3)cc1)C1=Cc2cc(Cl)c(Cl)c(Cl)c2O[C@@H]1C(F)(F)F
REMARK SMILES IDX 10 1 9 2 8 3 7 4 6 5 5 6 4 7 3 8 2 9 1 10 81 11 82 12 93 13
REMARK SMILES IDX 83 14 92 15 84 16 91 17 85 18 89 19 86 20 87 21 90 22 88 23
REMARK SMILES IDX 94 24 95 25 96 26 97 27 11 28 12 29 13 30 14 31 15 32 16 33
REMARK SMILES IDX 17 34 18 35 19 36 80 37 20 38 79 39 21 40 22 41 23 42 73 43
REMARK SMILES IDX 24 44 78 45 72 46 74 47 25 48 77 49 71 50 70 51 26 53 58 54
REMARK SMILES IDX 38 55 57 56 39 57 42 58 56 59 75 60 40 61 41 62 55 64 76 65
REMARK SMILES IDX 43 66 27 67 28 68 36 69 29 70 31 71 37 72 30 73 32 74 33 75
REMARK SMILES IDX 34 76 35 77 59 78 60 79 68 80 61 81 63 82 69 83 62 84 64 85
REMARK SMILES IDX 65 86 66 87 67 88 44 89 45 90 53 91 46 92 48 93 54 94 47 95
REMARK SMILES IDX 49 96 50 97 51 98 52 99
REMARK H PARENT 74 52 42 63
REMARK Flexibility Score: inf
ROOT
ATOM      1  C   UNL A   1      29.994  25.879  25.560  1.00  0.00     0.188 C 
ENDROOT
BRANCH   1   2
ATOM      2  O   UNL A   1      28.737  26.173  24.997  1.00  0.00    -0.377 OA
BRANCH   2   3
ATOM      3  C   UNL A   1      28.830  26.422  23.614  1.00  0.00     0.188 C 
BRANCH   3   4
ATOM      4  C   UNL A   1      28.901  27.910  23.254  1.00  0.00     0.188 C 
BRANCH   4   5
ATOM      5  O   UNL A   1      30.145  28.614  22.936  1.00  0.00    -0.376 OA
BRANCH   5   6
ATOM      6  C   UNL A   1      31.644  28.124  22.488  1.00  0.00     0.202 C 
BRANCH   6   7
ATOM      7  C   UNL A   1      32.263  26.179  21.722  1.00  0.00     0.261 C 
BRANCH   7   8
ATOM      8  O   UNL A   1      31.982  24.817  22.377  1.00  0.00    -0.460 OA
BRANCH   8   9
ATOM      9  C   UNL A   1      33.049  24.010  22.386  1.00  0.00     0.338 C 
ATOM     10  O   UNL A   1      33.694  23.570  21.470  1.00  0.00    -0.246 OA
BRANCH   9  11
ATOM     11  C   UNL A   1      32.880  23.566  23.749  1.00  0.00     0.087 C 
ATOM     12  C   UNL A   1      32.238  22.240  23.831  1.00  0.00     0.027 C 
ATOM     13  C   UNL A   1      34.687  23.960  24.301  1.00  0.00     0.316 C 
ATOM     14  C   UNL A   1      33.119  20.730  24.276  1.00  0.00     0.020 A 
ATOM     15  O   UNL A   1      35.680  22.328  24.669  1.00  0.00    -0.474 OA
ATOM     16  C   UNL A   1      32.445  19.540  24.246  1.00  0.00     0.034 A 
ATOM     17  C   UNL A   1      34.822  20.707  24.592  1.00  0.00     0.148 A 
ATOM     18  C   UNL A   1      33.221  18.390  24.509  1.00  0.00     0.062 A 
ATOM     19  C   UNL A   1      35.513  19.529  24.778  1.00  0.00     0.103 A 
ATOM     20  Cl  UNL A   1      32.295  16.907  24.480  1.00  0.00    -0.083 Cl
ATOM     21  C   UNL A   1      34.672  18.373  24.763  1.00  0.00     0.082 A 
ATOM     22  Cl  UNL A   1      37.215  19.459  24.907  1.00  0.00    -0.079 Cl
ATOM     23  Cl  UNL A   1      35.400  16.811  25.088  1.00  0.00    -0.081 Cl
BRANCH  13  24
ATOM     24  C   UNL A   1      34.277  25.236  25.245  1.00  0.00     0.430 C 
ATOM     25  F   UNL A   1      33.351  25.043  26.201  1.00  0.00    -0.167 F 
ATOM     26  F   UNL A   1      35.406  25.577  25.943  1.00  0.00    -0.167 F 
ATOM     27  F   UNL A   1      33.953  26.365  24.569  1.00  0.00    -0.167 F 
ENDBRANCH  13  24
ENDBRANCH   9  11
ENDBRANCH   8   9
ENDBRANCH   7   8
ENDBRANCH   6   7
ENDBRANCH   5   6
ENDBRANCH   4   5
ENDBRANCH   3   4
ENDBRANCH   2   3
ENDBRANCH   1   2
BRANCH   1  28
ATOM     28  C   UNL A   1      30.860  27.086  25.934  1.00  0.00     0.188 C 
BRANCH  28  29
ATOM     29  O   UNL A   1      31.336  27.309  27.251  1.00  0.00    -0.376 OA
BRANCH  29  30
ATOM     30  C   UNL A   1      32.153  28.427  27.556  1.00  0.00     0.202 C 
BRANCH  30  31
ATOM     31  C   UNL A   1      31.863  29.821  26.975  1.00  0.00     0.261 C 
BRANCH  31  32
ATOM     32  O   UNL A   1      32.990  30.544  26.466  1.00  0.00    -0.460 OA
BRANCH  32  33
ATOM     33  C   UNL A   1      33.434  31.557  27.245  1.00  0.00     0.338 C 
ATOM     34  O   UNL A   1      32.776  32.494  27.668  1.00  0.00    -0.246 OA
BRANCH  33  35
ATOM     35  C   UNL A   1      34.813  31.267  27.695  1.00  0.00     0.060 A 
ATOM     36  C   UNL A   1      35.147  29.932  27.974  1.00  0.00     0.016 A 
ATOM     37  C   UNL A   1      35.763  32.277  27.852  1.00  0.00     0.016 A 
ATOM     38  C   UNL A   1      36.415  29.605  28.444  1.00  0.00     0.010 A 
ATOM     39  C   UNL A   1      37.021  31.956  28.369  1.00  0.00     0.010 A 
ATOM     40  C   UNL A   1      37.333  30.626  28.707  1.00  0.00    -0.014 A 
BRANCH  40  41
ATOM     41  C   UNL A   1      38.501  30.335  29.569  1.00  0.00     0.031 A 
ATOM     42  C   UNL A   1      39.528  29.367  29.050  1.00  0.00     0.074 A 
ATOM     43  C   UNL A   1      38.655  30.914  30.771  1.00  0.00     0.049 A 
ATOM     44  N   UNL A   1      40.593  28.892  29.638  1.00  0.00    -0.248 NA
ATOM     45  C   UNL A   1      39.324  28.866  27.679  1.00  0.00     0.031 C 
ATOM     46  C   UNL A   1      37.746  31.894  31.359  1.00  0.00     0.029 A 
ATOM     47  N   UNL A   1      39.624  30.734  31.726  1.00  0.00    -0.354 N 
ATOM     48  C   UNL A   1      41.158  28.004  28.732  1.00  0.00     0.074 A 
ATOM     49  C   UNL A   1      40.323  28.007  27.552  1.00  0.00     0.031 C 
ATOM     50  C   UNL A   1      38.177  32.201  32.594  1.00  0.00     0.029 A 
ATOM     51  C   UNL A   1      39.369  31.409  32.896  1.00  0.00     0.049 A 
ATOM     52  H   UNL A   1      40.423  30.176  31.586  1.00  0.00     0.167 HD
ATOM     53  C   UNL A   1      42.275  27.254  28.869  1.00  0.00     0.034 A 
ATOM     54  C   UNL A   1      40.002  31.355  34.085  1.00  0.00     0.034 A 
ATOM     55  C   UNL A   1      43.104  27.262  30.043  1.00  0.00     0.049 A 
ATOM     56  C   UNL A   1      41.216  30.471  34.232  1.00  0.00     0.074 A 
ATOM     57  C   UNL A   1      44.281  26.573  30.266  1.00  0.00     0.029 A 
ATOM     58  N   UNL A   1      42.828  27.973  31.200  1.00  0.00    -0.354 N 
ATOM     59  N   UNL A   1      41.798  29.710  33.336  1.00  0.00    -0.248 NA
ATOM     60  C   UNL A   1      41.876  30.457  35.546  1.00  0.00     0.031 C 
ATOM     61  C   UNL A   1      44.689  26.826  31.580  1.00  0.00     0.029 A 
ATOM     62  C   UNL A   1      43.798  27.720  32.153  1.00  0.00     0.049 A 
ATOM     63  H   UNL A   1      42.056  28.572  31.325  1.00  0.00     0.167 HD
ATOM     64  C   UNL A   1      42.911  29.160  33.964  1.00  0.00     0.074 A 
ATOM     65  C   UNL A   1      42.931  29.688  35.313  1.00  0.00     0.031 C 
ATOM     66  C   UNL A   1      43.829  28.290  33.475  1.00  0.00     0.034 A 
BRANCH  53  67
ATOM     67  C   UNL A   1      42.657  26.348  27.729  1.00  0.00     0.023 A 
ATOM     68  C   UNL A   1      43.569  26.786  26.748  1.00  0.00     0.012 A 
ATOM     69  C   UNL A   1      42.141  25.039  27.659  1.00  0.00     0.148 A 
ATOM     70  C   UNL A   1      43.937  25.946  25.697  1.00  0.00     0.002 A 
ATOM     71  C   UNL A   1      42.551  24.192  26.638  1.00  0.00     0.091 A 
ATOM     72  F   UNL A   1      41.255  24.650  28.588  1.00  0.00    -0.205 F 
ATOM     73  C   UNL A   1      43.437  24.648  25.649  1.00  0.00     0.022 A 
BRANCH  71  74
ATOM     74  S   UNL A   1      42.029  22.477  26.535  1.00  0.00     0.127 S 
ATOM     75  O   UNL A   1      42.654  22.053  25.283  1.00  0.00    -0.237 OA
ATOM     76  O   UNL A   1      42.628  21.903  27.740  1.00  0.00    -0.237 OA
ATOM     77  O   UNL A   1      40.573  22.497  26.527  1.00  0.00    -0.744 OA
ENDBRANCH  71  74
ENDBRANCH  53  67
BRANCH  54  78
ATOM     78  C   UNL A   1      39.500  32.156  35.239  1.00  0.00     0.023 A 
ATOM     79  C   UNL A   1      39.762  33.538  35.299  1.00  0.00     0.012 A 
ATOM     80  C   UNL A   1      38.768  31.550  36.279  1.00  0.00     0.148 A 
ATOM     81  C   UNL A   1      39.336  34.295  36.391  1.00  0.00     0.002 A 
ATOM     82  C   UNL A   1      38.296  32.321  37.334  1.00  0.00     0.091 A 
ATOM     83  F   UNL A   1      38.542  30.230  36.213  1.00  0.00    -0.205 F 
ATOM     84  C   UNL A   1      38.596  33.689  37.402  1.00  0.00     0.022 A 
BRANCH  82  85
ATOM     85  S   UNL A   1      37.231  31.654  38.617  1.00  0.00     0.127 S 
ATOM     86  O   UNL A   1      36.087  32.562  38.560  1.00  0.00    -0.237 OA
ATOM     87  O   UNL A   1      36.971  30.304  38.117  1.00  0.00    -0.237 OA
ATOM     88  O   UNL A   1      38.011  31.702  39.846  1.00  0.00    -0.744 OA
ENDBRANCH  82  85
ENDBRANCH  54  78
BRANCH  66  89
ATOM     89  C   UNL A   1      44.971  27.888  34.373  1.00  0.00     0.023 A 
ATOM     90  C   UNL A   1      44.876  26.728  35.167  1.00  0.00     0.012 A 
ATOM     91  C   UNL A   1      46.176  28.618  34.358  1.00  0.00     0.148 A 
ATOM     92  C   UNL A   1      45.951  26.320  35.956  1.00  0.00     0.002 A 
ATOM     93  C   UNL A   1      47.261  28.175  35.102  1.00  0.00     0.091 A 
ATOM     94  F   UNL A   1      46.243  29.726  33.604  1.00  0.00    -0.205 F 
ATOM     95  C   UNL A   1      47.147  27.035  35.914  1.00  0.00     0.022 A 
BRANCH  93  96
ATOM     96  S   UNL A   1      48.871  28.970  35.035  1.00  0.00     0.127 S 
ATOM     97  O   UNL A   1      48.577  30.286  35.600  1.00  0.00    -0.237 OA
ATOM     98  O   UNL A   1      49.679  28.103  35.892  1.00  0.00    -0.237 OA
ATOM     99  O   UNL A   1      49.263  28.974  33.631  1.00  0.00    -0.744 OA
ENDBRANCH  93  96
ENDBRANCH  66  89
ENDBRANCH  40  41
ENDBRANCH  33  35
ENDBRANCH  32  33
ENDBRANCH  31  32
ENDBRANCH  30  31
ENDBRANCH  29  30
ENDBRANCH  28  29
ENDBRANCH   1  28
TORSDOF 24
ENDMDL
MODEL 3
REMARK VINA RESULT:     -10.3      1.283      7.701
REMARK SMILES O=C(OCCOCCOCCOCCOC(=O)c1ccc(-c2c3nc(c(-c4cccc(S(=O)(=O)[O-])c4F)c4ccc([nH]4)c(-c4cccc(S(=O)(=O)[O-])c4F)c4nc(c(-c5cccc(S(=O)(=O)[O-])c5F)c5ccc2[nH]5)C=C4)C=C3)cc1)C1=Cc2cc(Cl)c(Cl)c(Cl)c2O[C@@H]1C(F)(F)F
REMARK SMILES IDX 10 1 9 2 8 3 7 4 6 5 5 6 4 7 3 8 2 9 1 10 81 11 82 12 93 13
REMARK SMILES IDX 83 14 92 15 84 16 91 17 85 18 89 19 86 20 87 21 90 22 88 23
REMARK SMILES IDX 94 24 95 25 96 26 97 27 11 28 12 29 13 30 14 31 15 32 16 33
REMARK SMILES IDX 17 34 18 35 19 36 80 37 20 38 79 39 21 40 22 41 23 42 73 43
REMARK SMILES IDX 24 44 78 45 72 46 74 47 25 48 77 49 71 50 70 51 26 53 58 54
REMARK SMILES IDX 38 55 57 56 39 57 42 58 56 59 75 60 40 61 41 62 55 64 76 65
REMARK SMILES IDX 43 66 27 67 28 68 36 69 29 70 31 71 37 72 30 73 32 74 33 75
REMARK SMILES IDX 34 76 35 77 59 78 60 79 68 80 61 81 63 82 69 83 62 84 64 85
REMARK SMILES IDX 65 86 66 87 67 88 44 89 45 90 53 91 46 92 48 93 54 94 47 95
REMARK SMILES IDX 49 96 50 97 51 98 52 99
REMARK H PARENT 74 52 42 63
REMARK Flexibility Score: inf
ROOT
ATOM      1  C   UNL A   1      31.458  26.852  26.953  1.00  0.00     0.188 C 
ENDROOT
BRANCH   1   2
ATOM      2  O   UNL A   1      30.228  26.186  26.785  1.00  0.00    -0.377 OA
BRANCH   2   3
ATOM      3  C   UNL A   1      30.256  25.311  25.682  1.00  0.00     0.188 C 
BRANCH   3   4
ATOM      4  C   UNL A   1      29.905  25.981  24.348  1.00  0.00     0.188 C 
BRANCH   4   5
ATOM      5  O   UNL A   1      30.010  27.421  24.106  1.00  0.00    -0.376 OA
BRANCH   5   6
ATOM      6  C   UNL A   1      31.253  28.422  23.733  1.00  0.00     0.202 C 
BRANCH   6   7
ATOM      7  C   UNL A   1      33.364  28.210  24.239  1.00  0.00     0.261 C 
BRANCH   7   8
ATOM      8  O   UNL A   1      34.286  27.058  23.811  1.00  0.00    -0.460 OA
BRANCH   8   9
ATOM      9  C   UNL A   1      34.002  25.904  24.423  1.00  0.00     0.338 C 
ATOM     10  O   UNL A   1      33.786  25.678  25.586  1.00  0.00    -0.246 OA
BRANCH   9  11
ATOM     11  C   UNL A   1      34.440  25.055  23.340  1.00  0.00     0.087 C 
ATOM     12  C   UNL A   1      35.543  24.161  23.740  1.00  0.00     0.027 C 
ATOM     13  C   UNL A   1      32.672  24.478  22.827  1.00  0.00     0.316 C 
ATOM     14  C   UNL A   1      35.344  22.387  24.005  1.00  0.00     0.020 A 
ATOM     15  O   UNL A   1      32.410  22.591  23.220  1.00  0.00    -0.474 OA
ATOM     16  C   UNL A   1      36.414  21.663  24.451  1.00  0.00     0.034 A 
ATOM     17  C   UNL A   1      33.811  21.595  23.865  1.00  0.00     0.148 A 
ATOM     18  C   UNL A   1      36.160  20.303  24.730  1.00  0.00     0.062 A 
ATOM     19  C   UNL A   1      33.638  20.274  24.219  1.00  0.00     0.103 A 
ATOM     20  Cl  UNL A   1      37.575  19.429  25.271  1.00  0.00    -0.083 Cl
ATOM     21  C   UNL A   1      34.852  19.635  24.624  1.00  0.00     0.082 A 
ATOM     22  Cl  UNL A   1      32.108  19.515  24.268  1.00  0.00    -0.079 Cl
ATOM     23  Cl  UNL A   1      34.802  17.924  25.007  1.00  0.00    -0.081 Cl
BRANCH  13  24
ATOM     24  C   UNL A   1      32.643  25.324  21.423  1.00  0.00     0.430 C 
ATOM     25  F   UNL A   1      32.798  24.645  20.273  1.00  0.00    -0.167 F 
ATOM     26  F   UNL A   1      31.386  25.859  21.323  1.00  0.00    -0.167 F 
ATOM     27  F   UNL A   1      33.465  26.401  21.389  1.00  0.00    -0.167 F 
ENDBRANCH  13  24
ENDBRANCH   9  11
ENDBRANCH   8   9
ENDBRANCH   7   8
ENDBRANCH   6   7
ENDBRANCH   5   6
ENDBRANCH   4   5
ENDBRANCH   3   4
ENDBRANCH   2   3
ENDBRANCH   1   2
BRANCH   1  28
ATOM     28  C   UNL A   1      31.389  28.227  27.624  1.00  0.00     0.188 C 
BRANCH  28  29
ATOM     29  O   UNL A   1      32.194  29.321  27.215  1.00  0.00    -0.376 OA
BRANCH  29  30
ATOM     30  C   UNL A   1      31.616  30.570  26.876  1.00  0.00     0.202 C 
BRANCH  30  31
ATOM     31  C   UNL A   1      32.469  31.839  26.719  1.00  0.00     0.261 C 
BRANCH  31  32
ATOM     32  O   UNL A   1      32.734  32.580  27.916  1.00  0.00    -0.460 OA
BRANCH  32  33
ATOM     33  C   UNL A   1      33.803  33.406  27.867  1.00  0.00     0.338 C 
ATOM     34  O   UNL A   1      33.784  34.620  27.742  1.00  0.00    -0.246 OA
BRANCH  33  35
ATOM     35  C   UNL A   1      35.030  32.646  28.193  1.00  0.00     0.060 A 
ATOM     36  C   UNL A   1      34.897  31.283  28.504  1.00  0.00     0.016 A 
ATOM     37  C   UNL A   1      36.289  33.250  28.204  1.00  0.00     0.016 A 
ATOM     38  C   UNL A   1      36.010  30.529  28.863  1.00  0.00     0.010 A 
ATOM     39  C   UNL A   1      37.399  32.505  28.610  1.00  0.00     0.010 A 
ATOM     40  C   UNL A   1      37.253  31.155  28.982  1.00  0.00    -0.014 A 
BRANCH  40  41
ATOM     41  C   UNL A   1      38.329  30.475  29.738  1.00  0.00     0.031 A 
ATOM     42  C   UNL A   1      38.537  30.878  31.172  1.00  0.00     0.074 A 
ATOM     43  C   UNL A   1      39.093  29.522  29.179  1.00  0.00     0.049 A 
ATOM     44  N   UNL A   1      39.453  30.490  32.018  1.00  0.00    -0.248 NA
ATOM     45  C   UNL A   1      37.582  31.854  31.725  1.00  0.00     0.031 C 
ATOM     46  C   UNL A   1      38.956  29.024  27.813  1.00  0.00     0.029 A 
ATOM     47  N   UNL A   1      40.160  28.826  29.689  1.00  0.00    -0.354 N 
ATOM     48  C   UNL A   1      39.214  31.207  33.184  1.00  0.00     0.074 A 
ATOM     49  C   UNL A   1      38.067  32.050  32.940  1.00  0.00     0.031 C 
ATOM     50  C   UNL A   1      39.931  28.129  27.578  1.00  0.00     0.029 A 
ATOM     51  C   UNL A   1      40.781  28.022  28.763  1.00  0.00     0.049 A 
ATOM     52  H   UNL A   1      40.451  28.896  30.628  1.00  0.00     0.167 HD
ATOM     53  C   UNL A   1      39.891  31.164  34.355  1.00  0.00     0.034 A 
ATOM     54  C   UNL A   1      41.928  27.320  28.853  1.00  0.00     0.034 A 
ATOM     55  C   UNL A   1      41.027  30.317  34.590  1.00  0.00     0.049 A 
ATOM     56  C   UNL A   1      42.694  27.328  30.153  1.00  0.00     0.074 A 
ATOM     57  C   UNL A   1      41.757  30.166  35.755  1.00  0.00     0.029 A 
ATOM     58  N   UNL A   1      41.616  29.501  33.638  1.00  0.00    -0.354 N 
ATOM     59  N   UNL A   1      42.405  27.934  31.280  1.00  0.00    -0.248 NA
ATOM     60  C   UNL A   1      43.934  26.537  30.201  1.00  0.00     0.031 C 
ATOM     61  C   UNL A   1      42.821  29.298  35.491  1.00  0.00     0.029 A 
ATOM     62  C   UNL A   1      42.717  28.862  34.179  1.00  0.00     0.049 A 
ATOM     63  H   UNL A   1      41.297  29.391  32.713  1.00  0.00     0.167 HD
ATOM     64  C   UNL A   1      43.400  27.566  32.180  1.00  0.00     0.074 A 
ATOM     65  C   UNL A   1      44.292  26.671  31.470  1.00  0.00     0.031 C 
ATOM     66  C   UNL A   1      43.568  27.939  33.473  1.00  0.00     0.034 A 
BRANCH  53  67
ATOM     67  C   UNL A   1      39.431  32.072  35.464  1.00  0.00     0.023 A 
ATOM     68  C   UNL A   1      38.583  31.582  36.477  1.00  0.00     0.012 A 
ATOM     69  C   UNL A   1      39.881  33.405  35.524  1.00  0.00     0.148 A 
ATOM     70  C   UNL A   1      38.164  32.414  37.515  1.00  0.00     0.002 A 
ATOM     71  C   UNL A   1      39.502  34.213  36.588  1.00  0.00     0.091 A 
ATOM     72  F   UNL A   1      40.668  33.859  34.537  1.00  0.00    -0.205 F 
ATOM     73  C   UNL A   1      38.632  33.724  37.576  1.00  0.00     0.022 A 
BRANCH  71  74
ATOM     74  S   UNL A   1      40.116  35.887  36.800  1.00  0.00     0.127 S 
ATOM     75  O   UNL A   1      41.530  35.649  37.082  1.00  0.00    -0.237 OA
ATOM     76  O   UNL A   1      39.845  36.479  35.490  1.00  0.00    -0.237 OA
ATOM     77  O   UNL A   1      39.352  36.461  37.899  1.00  0.00    -0.744 OA
ENDBRANCH  71  74
ENDBRANCH  53  67
BRANCH  54  78
ATOM     78  C   UNL A   1      42.431  26.553  27.678  1.00  0.00     0.023 A 
ATOM     79  C   UNL A   1      43.247  27.189  26.723  1.00  0.00     0.012 A 
ATOM     80  C   UNL A   1      42.100  25.194  27.502  1.00  0.00     0.148 A 
ATOM     81  C   UNL A   1      43.692  26.498  25.595  1.00  0.00     0.002 A 
ATOM     82  C   UNL A   1      42.597  24.496  26.409  1.00  0.00     0.091 A 
ATOM     83  F   UNL A   1      41.310  24.610  28.414  1.00  0.00    -0.205 F 
ATOM     84  C   UNL A   1      43.376  25.151  25.443  1.00  0.00     0.022 A 
BRANCH  82  85
ATOM     85  S   UNL A   1      42.345  22.731  26.193  1.00  0.00     0.127 S 
ATOM     86  O   UNL A   1      42.966  22.190  27.400  1.00  0.00    -0.237 OA
ATOM     87  O   UNL A   1      40.884  22.641  26.158  1.00  0.00    -0.237 OA
ATOM     88  O   UNL A   1      43.001  22.385  24.940  1.00  0.00    -0.744 OA
ENDBRANCH  82  85
ENDBRANCH  54  78
BRANCH  66  89
ATOM     89  C   UNL A   1      44.725  27.346  34.235  1.00  0.00     0.023 A 
ATOM     90  C   UNL A   1      46.017  27.893  34.106  1.00  0.00     0.012 A 
ATOM     91  C   UNL A   1      44.508  26.298  35.152  1.00  0.00     0.148 A 
ATOM     92  C   UNL A   1      47.079  27.385  34.852  1.00  0.00     0.002 A 
ATOM     93  C   UNL A   1      45.558  25.835  35.933  1.00  0.00     0.091 A 
ATOM     94  F   UNL A   1      43.273  25.783  35.253  1.00  0.00    -0.205 F 
ATOM     95  C   UNL A   1      46.848  26.366  35.775  1.00  0.00     0.022 A 
BRANCH  93  96
ATOM     96  S   UNL A   1      45.337  24.598  37.217  1.00  0.00     0.127 S 
ATOM     97  O   UNL A   1      45.047  23.401  36.430  1.00  0.00    -0.237 OA
ATOM     98  O   UNL A   1      46.646  24.596  37.871  1.00  0.00    -0.237 OA
ATOM     99  O   UNL A   1      44.240  25.070  38.052  1.00  0.00    -0.744 OA
ENDBRANCH  93  96
ENDBRANCH  66  89
ENDBRANCH  40  41
ENDBRANCH  33  35
ENDBRANCH  32  33
ENDBRANCH  31  32
ENDBRANCH  30  31
ENDBRANCH  29  30
ENDBRANCH  28  29
ENDBRANCH   1  28
TORSDOF 24
ENDMDL
