MODEL 1
REMARK VINA RESULT:     -10.4      0.000      0.000
REMARK SMILES C[C@H]1OCC[C@@H]1C(=O)Nc1sc2c(c1C(=O)OCCOCCOCCOCCOC(=O)c1ccc(-c3c4nc(c(-c5cccc(S(=O)(=O)[O-])c5F)c5ccc([nH]5)c(-c5cccc(S(=O)(=O)[O-])c5F)c5nc(c(-c6cccc(S(=O)(=O)[O-])c6F)c6ccc3[nH]6)C=C5)C=C4)cc1)CCC2
REMARK SMILES IDX 24 1 23 2 22 3 21 4 20 5 19 6 18 7 17 8 15 9 16 10 14 11
REMARK SMILES IDX 10 12 11 13 12 14 13 15 97 16 95 17 96 18 9 19 7 20 8 21
REMARK SMILES IDX 6 23 1 24 2 25 3 26 4 27 5 28 25 29 26 30 27 31 28 32 29 33
REMARK SMILES IDX 30 34 31 35 32 36 33 37 94 38 34 39 93 40 35 41 36 42 37 43
REMARK SMILES IDX 87 44 38 45 92 46 86 47 88 48 39 49 91 50 85 51 84 52 40 54
REMARK SMILES IDX 72 55 52 56 71 57 53 58 56 59 70 60 89 61 54 62 55 63 69 65
REMARK SMILES IDX 90 66 57 67 41 68 42 69 50 70 43 71 45 72 51 73 44 74 46 75
REMARK SMILES IDX 47 76 48 77 49 78 73 79 74 80 82 81 75 82 77 83 83 84 76 85
REMARK SMILES IDX 78 86 79 87 80 88 81 89 58 90 59 91 67 92 60 93 62 94 68 95
REMARK SMILES IDX 61 96 63 97 64 98 65 99 66 100
REMARK H PARENT 9 22 88 53 56 64
REMARK Flexibility Score: inf
ROOT
ATOM      1  C   UNL A   1      33.466  35.223  29.635  1.00  0.00     0.188 C 
ENDROOT
BRANCH   1   2
ATOM      2  O   UNL A   1      34.023  34.027  29.095  1.00  0.00    -0.377 OA
BRANCH   2   3
ATOM      3  C   UNL A   1      33.245  33.368  28.102  1.00  0.00     0.188 C 
BRANCH   3   4
ATOM      4  C   UNL A   1      33.871  32.028  27.751  1.00  0.00     0.188 C 
BRANCH   4   5
ATOM      5  O   UNL A   1      33.037  31.261  26.885  1.00  0.00    -0.376 OA
BRANCH   5   6
ATOM      6  C   UNL A   1      32.990  29.856  27.173  1.00  0.00     0.202 C 
BRANCH   6   7
ATOM      7  C   UNL A   1      34.187  29.079  26.603  1.00  0.00     0.261 C 
BRANCH   7   8
ATOM      8  O   UNL A   1      34.029  27.638  26.661  1.00  0.00    -0.460 OA
BRANCH   8   9
ATOM      9  C   UNL A   1      33.935  27.001  25.445  1.00  0.00     0.341 C 
ATOM     10  O   UNL A   1      34.175  27.538  24.374  1.00  0.00    -0.246 OA
BRANCH   9  11
ATOM     11  C   UNL A   1      33.514  25.598  25.531  1.00  0.00     0.098 A 
ATOM     12  C   UNL A   1      32.317  25.175  26.109  1.00  0.00     0.110 A 
ATOM     13  S   UNL A   1      32.207  23.476  26.336  1.00  0.00    -0.122 S 
ATOM     14  C   UNL A   1      33.535  23.272  25.357  1.00  0.00     0.011 A 
ATOM     15  C   UNL A   1      34.153  24.440  24.988  1.00  0.00    -0.017 A 
ATOM     16  C   UNL A   1      34.098  22.047  24.749  1.00  0.00     0.047 C 
ATOM     17  C   UNL A   1      35.271  24.149  24.050  1.00  0.00     0.038 C 
ATOM     18  C   UNL A   1      34.962  22.674  23.618  1.00  0.00     0.010 C 
BRANCH  12  19
ATOM     19  N   UNL A   1      31.207  25.857  26.561  1.00  0.00    -0.317 N 
ATOM     20  C   UNL A   1      29.992  25.722  25.923  1.00  0.00     0.230 C 
ATOM     21  O   UNL A   1      28.998  25.523  26.635  1.00  0.00    -0.274 OA
ATOM     22  H   UNL A   1      31.282  26.446  27.347  1.00  0.00     0.170 HD
BRANCH  20  23
ATOM     23  C   UNL A   1      29.799  25.925  24.417  1.00  0.00     0.110 C 
ATOM     24  C   UNL A   1      31.391  26.368  22.509  1.00  0.00     0.039 C 
ATOM     25  C   UNL A   1      30.706  26.950  23.744  1.00  0.00     0.127 C 
ATOM     26  O   UNL A   1      29.887  28.024  23.244  1.00  0.00    -0.378 OA
ATOM     27  C   UNL A   1      28.519  27.733  23.495  1.00  0.00     0.161 C 
ATOM     28  C   UNL A   1      28.441  26.282  23.898  1.00  0.00     0.044 C 
ENDBRANCH  20  23
ENDBRANCH  12  19
ENDBRANCH   9  11
ENDBRANCH   8   9
ENDBRANCH   7   8
ENDBRANCH   6   7
ENDBRANCH   5   6
ENDBRANCH   4   5
ENDBRANCH   3   4
ENDBRANCH   2   3
ENDBRANCH   1   2
BRANCH   1  29
ATOM     29  C   UNL A   1      33.313  35.300  31.160  1.00  0.00     0.188 C 
BRANCH  29  30
ATOM     30  O   UNL A   1      33.637  34.153  31.955  1.00  0.00    -0.376 OA
BRANCH  30  31
ATOM     31  C   UNL A   1      34.926  34.004  32.554  1.00  0.00     0.202 C 
BRANCH  31  32
ATOM     32  C   UNL A   1      36.095  33.725  31.622  1.00  0.00     0.261 C 
BRANCH  32  33
ATOM     33  O   UNL A   1      36.861  32.680  32.187  1.00  0.00    -0.460 OA
BRANCH  33  34
ATOM     34  C   UNL A   1      36.639  31.494  31.582  1.00  0.00     0.338 C 
ATOM     35  O   UNL A   1      36.036  30.539  32.035  1.00  0.00    -0.246 OA
BRANCH  34  36
ATOM     36  C   UNL A   1      37.260  31.535  30.233  1.00  0.00     0.060 A 
ATOM     37  C   UNL A   1      37.082  30.302  29.616  1.00  0.00     0.016 A 
ATOM     38  C   UNL A   1      38.490  32.207  30.213  1.00  0.00     0.016 A 
ATOM     39  C   UNL A   1      38.194  29.509  29.585  1.00  0.00     0.010 A 
ATOM     40  C   UNL A   1      39.609  31.422  30.189  1.00  0.00     0.010 A 
ATOM     41  C   UNL A   1      39.423  30.060  29.980  1.00  0.00    -0.014 A 
BRANCH  41  42
ATOM     42  C   UNL A   1      40.552  29.176  29.904  1.00  0.00     0.031 A 
ATOM     43  C   UNL A   1      41.011  28.842  31.264  1.00  0.00     0.074 A 
ATOM     44  C   UNL A   1      41.075  28.708  28.763  1.00  0.00     0.049 A 
ATOM     45  N   UNL A   1      42.072  29.274  31.857  1.00  0.00    -0.248 NA
ATOM     46  C   UNL A   1      40.026  28.202  32.152  1.00  0.00     0.031 C 
ATOM     47  C   UNL A   1      40.515  28.734  27.414  1.00  0.00     0.029 A 
ATOM     48  N   UNL A   1      42.198  27.961  28.628  1.00  0.00    -0.354 N 
ATOM     49  C   UNL A   1      41.987  28.751  33.140  1.00  0.00     0.074 A 
ATOM     50  C   UNL A   1      40.622  28.350  33.332  1.00  0.00     0.031 C 
ATOM     51  C   UNL A   1      41.163  27.811  26.663  1.00  0.00     0.029 A 
ATOM     52  C   UNL A   1      42.244  27.237  27.450  1.00  0.00     0.049 A 
ATOM     53  H   UNL A   1      42.912  27.936  29.305  1.00  0.00     0.167 HD
ATOM     54  C   UNL A   1      43.109  28.403  33.819  1.00  0.00     0.034 A 
ATOM     55  C   UNL A   1      43.045  26.166  27.227  1.00  0.00     0.034 A 
ATOM     56  C   UNL A   1      44.269  29.074  33.285  1.00  0.00     0.049 A 
ATOM     57  C   UNL A   1      44.128  26.201  28.246  1.00  0.00     0.074 A 
ATOM     58  C   UNL A   1      44.627  30.396  33.104  1.00  0.00     0.029 A 
ATOM     59  N   UNL A   1      45.099  28.340  32.470  1.00  0.00    -0.354 N 
ATOM     60  N   UNL A   1      45.070  27.101  28.278  1.00  0.00    -0.248 NA
ATOM     61  C   UNL A   1      43.925  25.471  29.490  1.00  0.00     0.031 C 
ATOM     62  C   UNL A   1      45.344  30.424  31.872  1.00  0.00     0.029 A 
ATOM     63  C   UNL A   1      45.425  29.116  31.390  1.00  0.00     0.049 A 
ATOM     64  H   UNL A   1      45.404  27.419  32.634  1.00  0.00     0.167 HD
ATOM     65  C   UNL A   1      45.269  27.359  29.629  1.00  0.00     0.074 A 
ATOM     66  C   UNL A   1      44.627  26.245  30.324  1.00  0.00     0.031 C 
ATOM     67  C   UNL A   1      45.674  28.590  30.063  1.00  0.00     0.034 A 
BRANCH  54  68
ATOM     68  C   UNL A   1      43.206  27.157  34.669  1.00  0.00     0.023 A 
ATOM     69  C   UNL A   1      43.188  27.342  36.067  1.00  0.00     0.012 A 
ATOM     70  C   UNL A   1      43.583  25.872  34.204  1.00  0.00     0.148 A 
ATOM     71  C   UNL A   1      43.597  26.334  36.944  1.00  0.00     0.002 A 
ATOM     72  C   UNL A   1      43.909  24.848  35.080  1.00  0.00     0.091 A 
ATOM     73  F   UNL A   1      43.767  25.640  32.904  1.00  0.00    -0.205 F 
ATOM     74  C   UNL A   1      43.956  25.084  36.453  1.00  0.00     0.022 A 
BRANCH  72  75
ATOM     75  S   UNL A   1      44.328  23.204  34.481  1.00  0.00     0.127 S 
ATOM     76  O   UNL A   1      43.160  22.885  33.666  1.00  0.00    -0.237 OA
ATOM     77  O   UNL A   1      45.558  23.464  33.733  1.00  0.00    -0.237 OA
ATOM     78  O   UNL A   1      44.521  22.386  35.673  1.00  0.00    -0.744 OA
ENDBRANCH  72  75
ENDBRANCH  54  68
BRANCH  55  79
ATOM     79  C   UNL A   1      42.804  24.965  26.398  1.00  0.00     0.023 A 
ATOM     80  C   UNL A   1      43.675  24.695  25.323  1.00  0.00     0.012 A 
ATOM     81  C   UNL A   1      41.918  23.944  26.810  1.00  0.00     0.148 A 
ATOM     82  C   UNL A   1      43.692  23.440  24.706  1.00  0.00     0.002 A 
ATOM     83  C   UNL A   1      41.931  22.702  26.185  1.00  0.00     0.091 A 
ATOM     84  F   UNL A   1      41.137  24.152  27.877  1.00  0.00    -0.205 F 
ATOM     85  C   UNL A   1      42.826  22.441  25.141  1.00  0.00     0.022 A 
BRANCH  83  86
ATOM     86  S   UNL A   1      40.851  21.363  26.709  1.00  0.00     0.127 S 
ATOM     87  O   UNL A   1      39.596  21.697  26.034  1.00  0.00    -0.237 OA
ATOM     88  O   UNL A   1      41.542  20.192  26.176  1.00  0.00    -0.237 OA
ATOM     89  O   UNL A   1      40.787  21.456  28.163  1.00  0.00    -0.744 OA
ENDBRANCH  83  86
ENDBRANCH  55  79
BRANCH  67  90
ATOM     90  C   UNL A   1      46.163  29.578  29.031  1.00  0.00     0.023 A 
ATOM     91  C   UNL A   1      47.496  29.590  28.573  1.00  0.00     0.012 A 
ATOM     92  C   UNL A   1      45.220  30.402  28.392  1.00  0.00     0.148 A 
ATOM     93  C   UNL A   1      47.888  30.429  27.525  1.00  0.00     0.002 A 
ATOM     94  C   UNL A   1      45.603  31.197  27.317  1.00  0.00     0.091 A 
ATOM     95  F   UNL A   1      43.953  30.382  28.831  1.00  0.00    -0.205 F 
ATOM     96  C   UNL A   1      46.939  31.222  26.888  1.00  0.00     0.022 A 
BRANCH  94  97
ATOM     97  S   UNL A   1      44.396  32.135  26.376  1.00  0.00     0.127 S 
ATOM     98  O   UNL A   1      45.192  32.620  25.250  1.00  0.00    -0.237 OA
ATOM     99  O   UNL A   1      43.402  31.117  26.028  1.00  0.00    -0.237 OA
ATOM    100  O   UNL A   1      43.896  33.160  27.285  1.00  0.00    -0.744 OA
ENDBRANCH  94  97
ENDBRANCH  67  90
ENDBRANCH  41  42
ENDBRANCH  34  36
ENDBRANCH  33  34
ENDBRANCH  32  33
ENDBRANCH  31  32
ENDBRANCH  30  31
ENDBRANCH  29  30
ENDBRANCH   1  29
TORSDOF 25
ENDMDL
MODEL 2
REMARK VINA RESULT:     -10.3      1.682      2.872
REMARK SMILES C[C@H]1OCC[C@@H]1C(=O)Nc1sc2c(c1C(=O)OCCOCCOCCOCCOC(=O)c1ccc(-c3c4nc(c(-c5cccc(S(=O)(=O)[O-])c5F)c5ccc([nH]5)c(-c5cccc(S(=O)(=O)[O-])c5F)c5nc(c(-c6cccc(S(=O)(=O)[O-])c6F)c6ccc3[nH]6)C=C5)C=C4)cc1)CCC2
REMARK SMILES IDX 24 1 23 2 22 3 21 4 20 5 19 6 18 7 17 8 15 9 16 10 14 11
REMARK SMILES IDX 10 12 11 13 12 14 13 15 97 16 95 17 96 18 9 19 7 20 8 21
REMARK SMILES IDX 6 23 1 24 2 25 3 26 4 27 5 28 25 29 26 30 27 31 28 32 29 33
REMARK SMILES IDX 30 34 31 35 32 36 33 37 94 38 34 39 93 40 35 41 36 42 37 43
REMARK SMILES IDX 87 44 38 45 92 46 86 47 88 48 39 49 91 50 85 51 84 52 40 54
REMARK SMILES IDX 72 55 52 56 71 57 53 58 56 59 70 60 89 61 54 62 55 63 69 65
REMARK SMILES IDX 90 66 57 67 41 68 42 69 50 70 43 71 45 72 51 73 44 74 46 75
REMARK SMILES IDX 47 76 48 77 49 78 73 79 74 80 82 81 75 82 77 83 83 84 76 85
REMARK SMILES IDX 78 86 79 87 80 88 81 89 58 90 59 91 67 92 60 93 62 94 68 95
REMARK SMILES IDX 61 96 63 97 64 98 65 99 66 100
REMARK H PARENT 9 22 88 53 56 64
REMARK Flexibility Score: inf
ROOT
ATOM      1  C   UNL A   1      34.749  34.949  28.726  1.00  0.00     0.188 C 
ENDROOT
BRANCH   1   2
ATOM      2  O   UNL A   1      34.709  33.977  27.683  1.00  0.00    -0.377 OA
BRANCH   2   3
ATOM      3  C   UNL A   1      34.536  32.626  28.093  1.00  0.00     0.188 C 
BRANCH   3   4
ATOM      4  C   UNL A   1      35.802  31.829  27.819  1.00  0.00     0.188 C 
BRANCH   4   5
ATOM      5  O   UNL A   1      35.541  30.430  27.729  1.00  0.00    -0.376 OA
BRANCH   5   6
ATOM      6  C   UNL A   1      34.263  30.085  27.173  1.00  0.00     0.202 C 
BRANCH   6   7
ATOM      7  C   UNL A   1      34.024  28.568  27.098  1.00  0.00     0.261 C 
BRANCH   7   8
ATOM      8  O   UNL A   1      33.092  28.175  26.058  1.00  0.00    -0.460 OA
BRANCH   8   9
ATOM      9  C   UNL A   1      31.910  27.624  26.496  1.00  0.00     0.341 C 
ATOM     10  O   UNL A   1      31.678  27.347  27.664  1.00  0.00    -0.246 OA
BRANCH   9  11
ATOM     11  C   UNL A   1      30.926  27.387  25.434  1.00  0.00     0.098 A 
ATOM     12  C   UNL A   1      30.189  26.211  25.299  1.00  0.00     0.110 A 
ATOM     13  S   UNL A   1      29.330  26.085  23.818  1.00  0.00    -0.122 S 
ATOM     14  C   UNL A   1      29.617  27.697  23.528  1.00  0.00     0.011 A 
ATOM     15  C   UNL A   1      30.465  28.292  24.426  1.00  0.00    -0.017 A 
ATOM     16  C   UNL A   1      29.036  28.606  22.518  1.00  0.00     0.047 C 
ATOM     17  C   UNL A   1      30.585  29.744  24.126  1.00  0.00     0.038 C 
ATOM     18  C   UNL A   1      29.373  29.982  23.161  1.00  0.00     0.010 C 
BRANCH  12  19
ATOM     19  N   UNL A   1      30.033  25.109  26.114  1.00  0.00    -0.317 N 
ATOM     20  C   UNL A   1      31.072  24.223  26.303  1.00  0.00     0.230 C 
ATOM     21  O   UNL A   1      31.317  23.879  27.468  1.00  0.00    -0.274 OA
ATOM     22  H   UNL A   1      29.171  24.955  26.566  1.00  0.00     0.170 HD
BRANCH  20  23
ATOM     23  C   UNL A   1      31.841  23.562  25.155  1.00  0.00     0.110 C 
ATOM     24  C   UNL A   1      32.221  21.159  24.482  1.00  0.00     0.039 C 
ATOM     25  C   UNL A   1      32.567  22.261  25.481  1.00  0.00     0.127 C 
ATOM     26  O   UNL A   1      33.982  22.477  25.321  1.00  0.00    -0.378 OA
ATOM     27  C   UNL A   1      34.210  23.802  24.860  1.00  0.00     0.161 C 
ATOM     28  C   UNL A   1      32.877  24.353  24.421  1.00  0.00     0.044 C 
ENDBRANCH  20  23
ENDBRANCH  12  19
ENDBRANCH   9  11
ENDBRANCH   8   9
ENDBRANCH   7   8
ENDBRANCH   6   7
ENDBRANCH   5   6
ENDBRANCH   4   5
ENDBRANCH   3   4
ENDBRANCH   2   3
ENDBRANCH   1   2
BRANCH   1  29
ATOM     29  C   UNL A   1      33.967  34.634  30.008  1.00  0.00     0.188 C 
BRANCH  29  30
ATOM     30  O   UNL A   1      34.684  34.407  31.227  1.00  0.00    -0.376 OA
BRANCH  30  31
ATOM     31  C   UNL A   1      34.260  33.413  32.163  1.00  0.00     0.202 C 
BRANCH  31  32
ATOM     32  C   UNL A   1      35.346  32.592  32.842  1.00  0.00     0.261 C 
BRANCH  32  33
ATOM     33  O   UNL A   1      36.591  32.991  32.306  1.00  0.00    -0.460 OA
BRANCH  33  34
ATOM     34  C   UNL A   1      37.478  31.975  32.252  1.00  0.00     0.338 C 
ATOM     35  O   UNL A   1      38.042  31.439  33.188  1.00  0.00    -0.246 OA
BRANCH  34  36
ATOM     36  C   UNL A   1      37.665  31.595  30.828  1.00  0.00     0.060 A 
ATOM     37  C   UNL A   1      37.403  30.237  30.685  1.00  0.00     0.016 A 
ATOM     38  C   UNL A   1      38.779  32.205  30.236  1.00  0.00     0.016 A 
ATOM     39  C   UNL A   1      38.511  29.449  30.549  1.00  0.00     0.010 A 
ATOM     40  C   UNL A   1      39.896  31.427  30.101  1.00  0.00     0.010 A 
ATOM     41  C   UNL A   1      39.758  30.070  30.369  1.00  0.00    -0.014 A 
BRANCH  41  42
ATOM     42  C   UNL A   1      40.875  29.182  30.213  1.00  0.00     0.031 A 
ATOM     43  C   UNL A   1      41.427  28.844  31.537  1.00  0.00     0.074 A 
ATOM     44  C   UNL A   1      41.316  28.713  29.038  1.00  0.00     0.049 A 
ATOM     45  N   UNL A   1      42.529  29.271  32.055  1.00  0.00    -0.248 NA
ATOM     46  C   UNL A   1      40.505  28.207  32.491  1.00  0.00     0.031 C 
ATOM     47  C   UNL A   1      40.662  28.742  27.731  1.00  0.00     0.029 A 
ATOM     48  N   UNL A   1      42.423  27.961  28.824  1.00  0.00    -0.354 N 
ATOM     49  C   UNL A   1      42.532  28.748  33.340  1.00  0.00     0.074 A 
ATOM     50  C   UNL A   1      41.182  28.352  33.627  1.00  0.00     0.031 C 
ATOM     51  C   UNL A   1      41.253  27.818  26.936  1.00  0.00     0.029 A 
ATOM     52  C   UNL A   1      42.384  27.238  27.645  1.00  0.00     0.049 A 
ATOM     53  H   UNL A   1      43.183  27.933  29.449  1.00  0.00     0.167 HD
ATOM     54  C   UNL A   1      43.697  28.395  33.939  1.00  0.00     0.034 A 
ATOM     55  C   UNL A   1      43.163  26.165  27.366  1.00  0.00     0.034 A 
ATOM     56  C   UNL A   1      44.820  29.062  33.325  1.00  0.00     0.049 A 
ATOM     57  C   UNL A   1      44.315  26.195  28.307  1.00  0.00     0.074 A 
ATOM     58  C   UNL A   1      45.169  30.383  33.121  1.00  0.00     0.029 A 
ATOM     59  N   UNL A   1      45.587  28.326  32.454  1.00  0.00    -0.354 N 
ATOM     60  N   UNL A   1      45.261  27.091  28.273  1.00  0.00    -0.248 NA
ATOM     61  C   UNL A   1      44.197  25.465  29.561  1.00  0.00     0.031 C 
ATOM     62  C   UNL A   1      45.798  30.410  31.841  1.00  0.00     0.029 A 
ATOM     63  C   UNL A   1      45.840  29.102  31.354  1.00  0.00     0.049 A 
ATOM     64  H   UNL A   1      45.900  27.404  32.596  1.00  0.00     0.167 HD
ATOM     65  C   UNL A   1      45.555  27.347  29.607  1.00  0.00     0.074 A 
ATOM     66  C   UNL A   1      44.959  26.234  30.344  1.00  0.00     0.031 C 
ATOM     67  C   UNL A   1      45.993  28.576  30.012  1.00  0.00     0.034 A 
BRANCH  54  68
ATOM     68  C   UNL A   1      43.849  27.148  34.779  1.00  0.00     0.023 A 
ATOM     69  C   UNL A   1      43.153  26.002  34.341  1.00  0.00     0.012 A 
ATOM     70  C   UNL A   1      44.391  27.100  36.088  1.00  0.00     0.148 A 
ATOM     71  C   UNL A   1      42.942  24.907  35.184  1.00  0.00     0.002 A 
ATOM     72  C   UNL A   1      44.250  25.979  36.893  1.00  0.00     0.091 A 
ATOM     73  F   UNL A   1      44.940  28.180  36.644  1.00  0.00    -0.205 F 
ATOM     74  C   UNL A   1      43.492  24.892  36.460  1.00  0.00     0.022 A 
BRANCH  72  75
ATOM     75  S   UNL A   1      44.992  25.905  38.530  1.00  0.00     0.127 S 
ATOM     76  O   UNL A   1      46.384  26.229  38.233  1.00  0.00    -0.237 OA
ATOM     77  O   UNL A   1      44.248  26.946  39.241  1.00  0.00    -0.237 OA
ATOM     78  O   UNL A   1      44.738  24.555  39.019  1.00  0.00    -0.744 OA
ENDBRANCH  72  75
ENDBRANCH  54  68
BRANCH  55  79
ATOM     79  C   UNL A   1      42.861  24.965  26.555  1.00  0.00     0.023 A 
ATOM     80  C   UNL A   1      43.786  24.556  25.573  1.00  0.00     0.012 A 
ATOM     81  C   UNL A   1      41.830  24.068  26.914  1.00  0.00     0.148 A 
ATOM     82  C   UNL A   1      43.713  23.283  24.999  1.00  0.00     0.002 A 
ATOM     83  C   UNL A   1      41.755  22.807  26.330  1.00  0.00     0.091 A 
ATOM     84  F   UNL A   1      40.986  24.405  27.897  1.00  0.00    -0.205 F 
ATOM     85  C   UNL A   1      42.704  22.406  25.382  1.00  0.00     0.022 A 
BRANCH  83  86
ATOM     86  S   UNL A   1      40.487  21.620  26.792  1.00  0.00     0.127 S 
ATOM     87  O   UNL A   1      40.831  20.464  25.963  1.00  0.00    -0.237 OA
ATOM     88  O   UNL A   1      40.740  21.448  28.220  1.00  0.00    -0.237 OA
ATOM     89  O   UNL A   1      39.217  22.245  26.443  1.00  0.00    -0.744 OA
ENDBRANCH  83  86
ENDBRANCH  55  79
BRANCH  67  90
ATOM     90  C   UNL A   1      46.413  29.564  28.949  1.00  0.00     0.023 A 
ATOM     91  C   UNL A   1      47.722  29.595  28.426  1.00  0.00     0.012 A 
ATOM     92  C   UNL A   1      45.425  30.365  28.351  1.00  0.00     0.148 A 
ATOM     93  C   UNL A   1      48.046  30.432  27.353  1.00  0.00     0.002 A 
ATOM     94  C   UNL A   1      45.740  31.157  27.252  1.00  0.00     0.091 A 
ATOM     95  F   UNL A   1      44.181  30.326  28.853  1.00  0.00    -0.205 F 
ATOM     96  C   UNL A   1      47.052  31.202  26.757  1.00  0.00     0.022 A 
BRANCH  94  97
ATOM     97  S   UNL A   1      44.470  32.064  26.364  1.00  0.00     0.127 S 
ATOM     98  O   UNL A   1      43.477  31.024  26.101  1.00  0.00    -0.237 OA
ATOM     99  O   UNL A   1      44.056  33.072  27.341  1.00  0.00    -0.237 OA
ATOM    100  O   UNL A   1      45.131  32.619  25.188  1.00  0.00    -0.744 OA
ENDBRANCH  94  97
ENDBRANCH  67  90
ENDBRANCH  41  42
ENDBRANCH  34  36
ENDBRANCH  33  34
ENDBRANCH  32  33
ENDBRANCH  31  32
ENDBRANCH  30  31
ENDBRANCH  29  30
ENDBRANCH   1  29
TORSDOF 25
ENDMDL
MODEL 3
REMARK VINA RESULT:      -9.9      3.887      8.500
REMARK SMILES C[C@H]1OCC[C@@H]1C(=O)Nc1sc2c(c1C(=O)OCCOCCOCCOCCOC(=O)c1ccc(-c3c4nc(c(-c5cccc(S(=O)(=O)[O-])c5F)c5ccc([nH]5)c(-c5cccc(S(=O)(=O)[O-])c5F)c5nc(c(-c6cccc(S(=O)(=O)[O-])c6F)c6ccc3[nH]6)C=C5)C=C4)cc1)CCC2
REMARK SMILES IDX 24 1 23 2 22 3 21 4 20 5 19 6 18 7 17 8 15 9 16 10 14 11
REMARK SMILES IDX 10 12 11 13 12 14 13 15 97 16 95 17 96 18 9 19 7 20 8 21
REMARK SMILES IDX 6 23 1 24 2 25 3 26 4 27 5 28 25 29 26 30 27 31 28 32 29 33
REMARK SMILES IDX 30 34 31 35 32 36 33 37 94 38 34 39 93 40 35 41 36 42 37 43
REMARK SMILES IDX 87 44 38 45 92 46 86 47 88 48 39 49 91 50 85 51 84 52 40 54
REMARK SMILES IDX 72 55 52 56 71 57 53 58 56 59 70 60 89 61 54 62 55 63 69 65
REMARK SMILES IDX 90 66 57 67 41 68 42 69 50 70 43 71 45 72 51 73 44 74 46 75
REMARK SMILES IDX 47 76 48 77 49 78 73 79 74 80 82 81 75 82 77 83 83 84 76 85
REMARK SMILES IDX 78 86 79 87 80 88 81 89 58 90 59 91 67 92 60 93 62 94 68 95
REMARK SMILES IDX 61 96 63 97 64 98 65 99 66 100
REMARK H PARENT 9 22 88 53 56 64
REMARK Flexibility Score: inf
ROOT
ATOM      1  C   UNL A   1      31.606  28.641  25.809  1.00  0.00     0.188 C 
ENDROOT
BRANCH   1   2
ATOM      2  O   UNL A   1      32.414  27.949  26.758  1.00  0.00    -0.377 OA
BRANCH   2   3
ATOM      3  C   UNL A   1      32.414  26.529  26.661  1.00  0.00     0.188 C 
BRANCH   3   4
ATOM      4  C   UNL A   1      31.547  26.082  25.494  1.00  0.00     0.188 C 
BRANCH   4   5
ATOM      5  O   UNL A   1      32.001  24.852  24.934  1.00  0.00    -0.376 OA
BRANCH   5   6
ATOM      6  C   UNL A   1      31.338  24.453  23.725  1.00  0.00     0.202 C 
BRANCH   6   7
ATOM      7  C   UNL A   1      32.238  24.540  22.482  1.00  0.00     0.261 C 
BRANCH   7   8
ATOM      8  O   UNL A   1      33.138  23.411  22.333  1.00  0.00    -0.460 OA
BRANCH   8   9
ATOM      9  C   UNL A   1      32.867  22.326  23.134  1.00  0.00     0.341 C 
ATOM     10  O   UNL A   1      32.003  21.496  22.889  1.00  0.00    -0.246 OA
BRANCH   9  11
ATOM     11  C   UNL A   1      33.710  22.236  24.331  1.00  0.00     0.098 A 
ATOM     12  C   UNL A   1      33.425  21.425  25.429  1.00  0.00     0.110 A 
ATOM     13  S   UNL A   1      34.411  21.726  26.802  1.00  0.00    -0.122 S 
ATOM     14  C   UNL A   1      35.432  22.633  25.854  1.00  0.00     0.011 A 
ATOM     15  C   UNL A   1      34.979  22.848  24.578  1.00  0.00    -0.017 A 
ATOM     16  C   UNL A   1      36.783  23.164  26.137  1.00  0.00     0.047 C 
ATOM     17  C   UNL A   1      36.001  23.594  23.794  1.00  0.00     0.038 C 
ATOM     18  C   UNL A   1      37.279  23.436  24.688  1.00  0.00     0.010 C 
BRANCH  12  19
ATOM     19  N   UNL A   1      32.483  20.440  25.642  1.00  0.00    -0.317 N 
ATOM     20  C   UNL A   1      32.796  19.114  25.432  1.00  0.00     0.230 C 
ATOM     21  O   UNL A   1      32.467  18.308  26.314  1.00  0.00    -0.274 OA
ATOM     22  H   UNL A   1      31.579  20.685  25.946  1.00  0.00     0.170 HD
BRANCH  20  23
ATOM     23  C   UNL A   1      33.407  18.582  24.131  1.00  0.00     0.110 C 
ATOM     24  C   UNL A   1      32.460  18.105  21.840  1.00  0.00     0.039 C 
ATOM     25  C   UNL A   1      32.533  17.651  23.297  1.00  0.00     0.127 C 
ATOM     26  O   UNL A   1      33.160  16.356  23.253  1.00  0.00    -0.378 OA
ATOM     27  C   UNL A   1      34.399  16.406  23.947  1.00  0.00     0.161 C 
ATOM     28  C   UNL A   1      34.717  17.861  24.183  1.00  0.00     0.044 C 
ENDBRANCH  20  23
ENDBRANCH  12  19
ENDBRANCH   9  11
ENDBRANCH   8   9
ENDBRANCH   7   8
ENDBRANCH   6   7
ENDBRANCH   5   6
ENDBRANCH   4   5
ENDBRANCH   3   4
ENDBRANCH   2   3
ENDBRANCH   1   2
BRANCH   1  29
ATOM     29  C   UNL A   1      31.962  30.105  25.519  1.00  0.00     0.188 C 
BRANCH  29  30
ATOM     30  O   UNL A   1      30.914  31.078  25.439  1.00  0.00    -0.376 OA
BRANCH  30  31
ATOM     31  C   UNL A   1      31.035  32.354  26.072  1.00  0.00     0.202 C 
BRANCH  31  32
ATOM     32  C   UNL A   1      31.868  32.422  27.342  1.00  0.00     0.261 C 
BRANCH  32  33
ATOM     33  O   UNL A   1      32.301  33.756  27.507  1.00  0.00    -0.460 OA
BRANCH  33  34
ATOM     34  C   UNL A   1      33.541  33.835  28.036  1.00  0.00     0.338 C 
ATOM     35  O   UNL A   1      34.281  34.800  28.035  1.00  0.00    -0.246 OA
BRANCH  34  36
ATOM     36  C   UNL A   1      33.872  32.520  28.643  1.00  0.00     0.060 A 
ATOM     37  C   UNL A   1      34.332  32.723  29.939  1.00  0.00     0.016 A 
ATOM     38  C   UNL A   1      34.514  31.648  27.753  1.00  0.00     0.016 A 
ATOM     39  C   UNL A   1      35.684  32.604  30.094  1.00  0.00     0.010 A 
ATOM     40  C   UNL A   1      35.869  31.527  27.895  1.00  0.00     0.010 A 
ATOM     41  C   UNL A   1      36.442  32.107  29.021  1.00  0.00    -0.014 A 
BRANCH  41  42
ATOM     42  C   UNL A   1      37.852  31.989  29.261  1.00  0.00     0.031 A 
ATOM     43  C   UNL A   1      38.284  30.603  29.007  1.00  0.00     0.074 A 
ATOM     44  C   UNL A   1      38.649  33.002  29.627  1.00  0.00     0.049 A 
ATOM     45  N   UNL A   1      38.606  29.713  29.884  1.00  0.00    -0.248 NA
ATOM     46  C   UNL A   1      38.034  30.074  27.656  1.00  0.00     0.031 C 
ATOM     47  C   UNL A   1      38.381  34.439  29.605  1.00  0.00     0.029 A 
ATOM     48  N   UNL A   1      39.958  32.927  29.968  1.00  0.00    -0.354 N 
ATOM     49  C   UNL A   1      38.826  28.561  29.142  1.00  0.00     0.074 A 
ATOM     50  C   UNL A   1      38.210  28.772  27.862  1.00  0.00     0.031 C 
ATOM     51  C   UNL A   1      39.564  35.096  29.659  1.00  0.00     0.029 A 
ATOM     52  C   UNL A   1      40.635  34.128  29.839  1.00  0.00     0.049 A 
ATOM     53  H   UNL A   1      40.387  32.097  30.279  1.00  0.00     0.167 HD
ATOM     54  C   UNL A   1      39.765  27.660  29.528  1.00  0.00     0.034 A 
ATOM     55  C   UNL A   1      41.982  34.255  29.764  1.00  0.00     0.034 A 
ATOM     56  C   UNL A   1      40.075  27.802  30.930  1.00  0.00     0.049 A 
ATOM     57  C   UNL A   1      42.578  32.995  30.283  1.00  0.00     0.074 A 
ATOM     58  C   UNL A   1      39.338  27.737  32.097  1.00  0.00     0.029 A 
ATOM     59  N   UNL A   1      41.242  28.453  31.253  1.00  0.00    -0.354 N 
ATOM     60  N   UNL A   1      42.523  32.623  31.531  1.00  0.00    -0.248 NA
ATOM     61  C   UNL A   1      42.879  31.934  29.333  1.00  0.00     0.031 C 
ATOM     62  C   UNL A   1      39.899  28.732  32.950  1.00  0.00     0.029 A 
ATOM     63  C   UNL A   1      40.973  29.320  32.278  1.00  0.00     0.049 A 
ATOM     64  H   UNL A   1      42.117  28.319  30.822  1.00  0.00     0.167 HD
ATOM     65  C   UNL A   1      42.341  31.246  31.483  1.00  0.00     0.074 A 
ATOM     66  C   UNL A   1      42.689  30.868  30.115  1.00  0.00     0.031 C 
ATOM     67  C   UNL A   1      41.648  30.589  32.461  1.00  0.00     0.034 A 
BRANCH  54  68
ATOM     68  C   UNL A   1      40.684  26.958  28.555  1.00  0.00     0.023 A 
ATOM     69  C   UNL A   1      40.972  25.604  28.824  1.00  0.00     0.012 A 
ATOM     70  C   UNL A   1      41.485  27.596  27.575  1.00  0.00     0.148 A 
ATOM     71  C   UNL A   1      42.045  24.949  28.211  1.00  0.00     0.002 A 
ATOM     72  C   UNL A   1      42.495  26.919  26.908  1.00  0.00     0.091 A 
ATOM     73  F   UNL A   1      41.384  28.907  27.353  1.00  0.00    -0.205 F 
ATOM     74  C   UNL A   1      42.806  25.604  27.250  1.00  0.00     0.022 A 
BRANCH  72  75
ATOM     75  S   UNL A   1      43.466  27.720  25.623  1.00  0.00     0.127 S 
ATOM     76  O   UNL A   1      44.300  26.617  25.157  1.00  0.00    -0.237 OA
ATOM     77  O   UNL A   1      42.425  28.152  24.690  1.00  0.00    -0.237 OA
ATOM     78  O   UNL A   1      44.164  28.818  26.282  1.00  0.00    -0.744 OA
ENDBRANCH  72  75
ENDBRANCH  54  68
BRANCH  55  79
ATOM     79  C   UNL A   1      42.796  35.247  29.026  1.00  0.00     0.023 A 
ATOM     80  C   UNL A   1      42.752  35.250  27.618  1.00  0.00     0.012 A 
ATOM     81  C   UNL A   1      43.385  36.354  29.677  1.00  0.00     0.148 A 
ATOM     82  C   UNL A   1      43.240  36.335  26.883  1.00  0.00     0.002 A 
ATOM     83  C   UNL A   1      43.881  37.425  28.940  1.00  0.00     0.091 A 
ATOM     84  F   UNL A   1      43.369  36.408  31.014  1.00  0.00    -0.205 F 
ATOM     85  C   UNL A   1      43.797  37.426  27.542  1.00  0.00     0.022 A 
BRANCH  83  86
ATOM     86  S   UNL A   1      44.597  38.873  29.731  1.00  0.00     0.127 S 
ATOM     87  O   UNL A   1      44.392  38.580  31.151  1.00  0.00    -0.237 OA
ATOM     88  O   UNL A   1      45.985  38.805  29.284  1.00  0.00    -0.237 OA
ATOM     89  O   UNL A   1      43.826  40.010  29.242  1.00  0.00    -0.744 OA
ENDBRANCH  83  86
ENDBRANCH  55  79
BRANCH  67  90
ATOM     90  C   UNL A   1      41.323  31.345  33.727  1.00  0.00     0.023 A 
ATOM     91  C   UNL A   1      42.236  31.447  34.798  1.00  0.00     0.012 A 
ATOM     92  C   UNL A   1      40.140  32.102  33.772  1.00  0.00     0.148 A 
ATOM     93  C   UNL A   1      41.959  32.259  35.902  1.00  0.00     0.002 A 
ATOM     94  C   UNL A   1      39.893  32.948  34.848  1.00  0.00     0.091 A 
ATOM     95  F   UNL A   1      39.279  32.001  32.748  1.00  0.00    -0.205 F 
ATOM     96  C   UNL A   1      40.794  33.020  35.920  1.00  0.00     0.022 A 
BRANCH  94  97
ATOM     97  S   UNL A   1      38.475  34.049  34.859  1.00  0.00     0.127 S 
ATOM     98  O   UNL A   1      38.536  34.614  36.206  1.00  0.00    -0.237 OA
ATOM     99  O   UNL A   1      38.795  34.992  33.786  1.00  0.00    -0.237 OA
ATOM    100  O   UNL A   1      37.318  33.207  34.578  1.00  0.00    -0.744 OA
ENDBRANCH  94  97
ENDBRANCH  67  90
ENDBRANCH  41  42
ENDBRANCH  34  36
ENDBRANCH  33  34
ENDBRANCH  32  33
ENDBRANCH  31  32
ENDBRANCH  30  31
ENDBRANCH  29  30
ENDBRANCH   1  29
TORSDOF 25
ENDMDL
