MODEL 1
REMARK VINA RESULT:      -7.5      0.000      0.000
REMARK SMILES CC[C@H](C)CN(CC)c1nc(C(=O)OCCOCCOCCOCCOC(=O)c2ccc(-c3c4nc(c(-c5cccc(S(=O)(=O)[O-])c5F)c5ccc([nH]5)c(-c5cccc(S(=O)(=O)[O-])c5F)c5nc(c(-c6cccc(S(=O)(=O)[O-])c6F)c6ccc3[nH]6)C=C5)C=C4)cc2)cc2ccccc12
REMARK SMILES IDX 19 1 18 2 17 3 16 4 15 5 14 6 12 7 13 8 11 9 9 10 10 11
REMARK SMILES IDX 98 12 93 13 97 14 92 15 94 16 96 17 95 18 6 19 5 20 3 21
REMARK SMILES IDX 4 22 2 23 1 24 7 25 8 26 20 27 21 28 22 29 23 30 24 31 25 32
REMARK SMILES IDX 26 33 27 34 28 35 29 36 30 37 91 38 31 39 90 40 32 41 33 42
REMARK SMILES IDX 34 43 84 44 35 45 89 46 83 47 85 48 36 49 88 50 82 51 81 52
REMARK SMILES IDX 37 54 69 55 49 56 68 57 50 58 53 59 67 60 86 61 51 62 52 63
REMARK SMILES IDX 66 65 87 66 54 67 38 68 39 69 47 70 40 71 42 72 48 73 41 74
REMARK SMILES IDX 43 75 44 76 45 77 46 78 70 79 71 80 79 81 72 82 74 83 80 84
REMARK SMILES IDX 73 85 75 86 76 87 77 88 78 89 55 90 56 91 64 92 57 93 59 94
REMARK SMILES IDX 65 95 58 96 60 97 61 98 62 99 63 100
REMARK H PARENT 85 53 53 64
REMARK Flexibility Score: inf
ROOT
ATOM      1  C   UNL A   1      41.124  21.682  27.712  1.00  0.00     0.188 C 
ENDROOT
BRANCH   1   2
ATOM      2  C   UNL A   1      40.445  22.999  27.260  1.00  0.00     0.188 C 
BRANCH   2   3
ATOM      3  O   UNL A   1      40.498  24.051  28.213  1.00  0.00    -0.376 OA
BRANCH   3   4
ATOM      4  C   UNL A   1      39.995  25.337  27.907  1.00  0.00     0.202 C 
BRANCH   4   5
ATOM      5  C   UNL A   1      40.852  26.562  28.261  1.00  0.00     0.261 C 
BRANCH   5   6
ATOM      6  O   UNL A   1      40.265  27.481  29.188  1.00  0.00    -0.459 OA
BRANCH   6   7
ATOM      7  C   UNL A   1      40.876  28.678  29.317  1.00  0.00     0.357 C 
ATOM      8  O   UNL A   1      42.062  28.903  29.129  1.00  0.00    -0.244 OA
BRANCH   7   9
ATOM      9  C   UNL A   1      39.856  29.750  29.491  1.00  0.00     0.151 A 
ATOM     10  C   UNL A   1      39.280  31.861  30.294  1.00  0.00     0.137 A 
ATOM     11  N   UNL A   1      40.152  30.828  30.259  1.00  0.00    -0.223 NA
ATOM     12  C   UNL A   1      38.157  31.853  29.418  1.00  0.00     0.024 A 
ATOM     13  C   UNL A   1      37.754  30.628  28.850  1.00  0.00    -0.012 A 
ATOM     14  C   UNL A   1      37.429  32.988  29.006  1.00  0.00     0.012 A 
ATOM     15  C   UNL A   1      38.634  29.561  28.875  1.00  0.00     0.045 A 
ATOM     16  C   UNL A   1      36.507  30.510  28.215  1.00  0.00     0.009 A 
ATOM     17  C   UNL A   1      36.207  32.885  28.340  1.00  0.00     0.001 A 
ATOM     18  C   UNL A   1      35.714  31.633  28.003  1.00  0.00     0.001 A 
BRANCH  10  19
ATOM     19  N   UNL A   1      39.510  32.907  31.210  1.00  0.00    -0.356 N 
BRANCH  19  20
ATOM     20  C   UNL A   1      38.562  33.136  32.353  1.00  0.00     0.121 C 
BRANCH  20  21
ATOM     21  C   UNL A   1      37.986  31.854  33.002  1.00  0.00     0.005 C 
ATOM     22  C   UNL A   1      38.733  31.520  34.300  1.00  0.00     0.009 C 
BRANCH  21  23
ATOM     23  C   UNL A   1      36.464  31.855  33.280  1.00  0.00     0.002 C 
ATOM     24  C   UNL A   1      35.683  32.135  31.988  1.00  0.00     0.004 C 
ENDBRANCH  21  23
ENDBRANCH  20  21
ENDBRANCH  19  20
BRANCH  19  25
ATOM     25  C   UNL A   1      40.937  33.142  31.544  1.00  0.00     0.114 C 
ATOM     26  C   UNL A   1      41.302  34.592  31.857  1.00  0.00     0.027 C 
ENDBRANCH  19  25
ENDBRANCH  10  19
ENDBRANCH   7   9
ENDBRANCH   6   7
ENDBRANCH   5   6
ENDBRANCH   4   5
ENDBRANCH   3   4
ENDBRANCH   2   3
ENDBRANCH   1   2
BRANCH   1  27
ATOM     27  O   UNL A   1      41.432  20.670  26.758  1.00  0.00    -0.377 OA
BRANCH  27  28
ATOM     28  C   UNL A   1      42.032  19.481  27.262  1.00  0.00     0.188 C 
BRANCH  28  29
ATOM     29  C   UNL A   1      42.352  18.488  26.129  1.00  0.00     0.188 C 
BRANCH  29  30
ATOM     30  O   UNL A   1      43.675  17.979  26.169  1.00  0.00    -0.376 OA
BRANCH  30  31
ATOM     31  C   UNL A   1      44.732  18.686  25.538  1.00  0.00     0.202 C 
BRANCH  31  32
ATOM     32  C   UNL A   1      44.574  19.898  24.592  1.00  0.00     0.261 C 
BRANCH  32  33
ATOM     33  O   UNL A   1      44.373  21.199  25.149  1.00  0.00    -0.460 OA
BRANCH  33  34
ATOM     34  C   UNL A   1      44.559  22.274  24.360  1.00  0.00     0.338 C 
ATOM     35  O   UNL A   1      44.502  22.312  23.140  1.00  0.00    -0.246 OA
BRANCH  34  36
ATOM     36  C   UNL A   1      44.641  23.449  25.255  1.00  0.00     0.060 A 
ATOM     37  C   UNL A   1      45.900  23.903  25.675  1.00  0.00     0.016 A 
ATOM     38  C   UNL A   1      43.482  24.129  25.638  1.00  0.00     0.016 A 
ATOM     39  C   UNL A   1      46.001  25.025  26.496  1.00  0.00     0.010 A 
ATOM     40  C   UNL A   1      43.583  25.234  26.487  1.00  0.00     0.010 A 
ATOM     41  C   UNL A   1      44.841  25.669  26.942  1.00  0.00    -0.014 A 
BRANCH  41  42
ATOM     42  C   UNL A   1      44.922  26.676  28.026  1.00  0.00     0.031 A 
ATOM     43  C   UNL A   1      44.826  26.198  29.448  1.00  0.00     0.074 A 
ATOM     44  C   UNL A   1      45.058  27.986  27.757  1.00  0.00     0.049 A 
ATOM     45  N   UNL A   1      44.783  26.889  30.555  1.00  0.00    -0.248 NA
ATOM     46  C   UNL A   1      44.764  24.739  29.645  1.00  0.00     0.031 C 
ATOM     47  C   UNL A   1      45.181  28.567  26.421  1.00  0.00     0.029 A 
ATOM     48  N   UNL A   1      45.078  29.068  28.602  1.00  0.00    -0.354 N 
ATOM     49  C   UNL A   1      44.652  25.957  31.576  1.00  0.00     0.074 A 
ATOM     50  C   UNL A   1      44.619  24.650  30.958  1.00  0.00     0.031 C 
ATOM     51  C   UNL A   1      45.226  29.906  26.534  1.00  0.00     0.029 A 
ATOM     52  C   UNL A   1      45.098  30.275  27.944  1.00  0.00     0.049 A 
ATOM     53  H   UNL A   1      45.079  28.988  29.583  1.00  0.00     0.167 HD
ATOM     54  C   UNL A   1      44.574  26.169  32.911  1.00  0.00     0.034 A 
ATOM     55  C   UNL A   1      44.984  31.530  28.424  1.00  0.00     0.034 A 
ATOM     56  C   UNL A   1      44.615  27.470  33.521  1.00  0.00     0.049 A 
ATOM     57  C   UNL A   1      44.847  31.740  29.911  1.00  0.00     0.074 A 
ATOM     58  C   UNL A   1      44.590  27.788  34.867  1.00  0.00     0.029 A 
ATOM     59  N   UNL A   1      44.663  28.669  32.827  1.00  0.00    -0.354 N 
ATOM     60  N   UNL A   1      44.838  30.852  30.876  1.00  0.00    -0.248 NA
ATOM     61  C   UNL A   1      44.726  33.130  30.378  1.00  0.00     0.031 C 
ATOM     62  C   UNL A   1      44.579  29.182  34.986  1.00  0.00     0.029 A 
ATOM     63  C   UNL A   1      44.643  29.731  33.715  1.00  0.00     0.049 A 
ATOM     64  H   UNL A   1      44.706  28.753  31.847  1.00  0.00     0.167 HD
ATOM     65  C   UNL A   1      44.744  31.575  32.062  1.00  0.00     0.074 A 
ATOM     66  C   UNL A   1      44.723  32.975  31.695  1.00  0.00     0.031 C 
ATOM     67  C   UNL A   1      44.665  31.122  33.338  1.00  0.00     0.034 A 
BRANCH  54  68
ATOM     68  C   UNL A   1      44.435  24.965  33.802  1.00  0.00     0.023 A 
ATOM     69  C   UNL A   1      43.156  24.457  34.109  1.00  0.00     0.012 A 
ATOM     70  C   UNL A   1      45.578  24.305  34.298  1.00  0.00     0.148 A 
ATOM     71  C   UNL A   1      43.015  23.334  34.922  1.00  0.00     0.002 A 
ATOM     72  C   UNL A   1      45.431  23.158  35.067  1.00  0.00     0.091 A 
ATOM     73  F   UNL A   1      46.784  24.817  34.015  1.00  0.00    -0.205 F 
ATOM     74  C   UNL A   1      44.151  22.678  35.390  1.00  0.00     0.022 A 
BRANCH  72  75
ATOM     75  S   UNL A   1      46.831  22.196  35.651  1.00  0.00     0.127 S 
ATOM     76  O   UNL A   1      46.164  21.047  36.262  1.00  0.00    -0.237 OA
ATOM     77  O   UNL A   1      47.537  21.899  34.405  1.00  0.00    -0.237 OA
ATOM     78  O   UNL A   1      47.556  23.058  36.573  1.00  0.00    -0.744 OA
ENDBRANCH  72  75
ENDBRANCH  54  68
BRANCH  55  79
ATOM     79  C   UNL A   1      44.998  32.693  27.491  1.00  0.00     0.023 A 
ATOM     80  C   UNL A   1      43.790  33.147  26.925  1.00  0.00     0.012 A 
ATOM     81  C   UNL A   1      46.200  33.350  27.163  1.00  0.00     0.148 A 
ATOM     82  C   UNL A   1      43.784  34.211  26.023  1.00  0.00     0.002 A 
ATOM     83  C   UNL A   1      46.179  34.447  26.309  1.00  0.00     0.091 A 
ATOM     84  F   UNL A   1      47.341  32.893  27.698  1.00  0.00    -0.205 F 
ATOM     85  C   UNL A   1      44.976  34.867  25.722  1.00  0.00     0.022 A 
BRANCH  83  86
ATOM     86  S   UNL A   1      47.642  35.427  25.960  1.00  0.00     0.127 S 
ATOM     87  O   UNL A   1      48.266  35.514  27.278  1.00  0.00    -0.237 OA
ATOM     88  O   UNL A   1      48.348  34.579  24.998  1.00  0.00    -0.237 OA
ATOM     89  O   UNL A   1      47.156  36.685  25.410  1.00  0.00    -0.744 OA
ENDBRANCH  83  86
ENDBRANCH  55  79
BRANCH  67  90
ATOM     90  C   UNL A   1      44.581  32.144  34.443  1.00  0.00     0.023 A 
ATOM     91  C   UNL A   1      45.758  32.721  34.960  1.00  0.00     0.012 A 
ATOM     92  C   UNL A   1      43.331  32.590  34.916  1.00  0.00     0.148 A 
ATOM     93  C   UNL A   1      45.695  33.696  35.954  1.00  0.00     0.002 A 
ATOM     94  C   UNL A   1      43.272  33.601  35.869  1.00  0.00     0.091 A 
ATOM     95  F   UNL A   1      42.221  32.023  34.420  1.00  0.00    -0.205 F 
ATOM     96  C   UNL A   1      44.454  34.145  36.400  1.00  0.00     0.022 A 
BRANCH  94  97
ATOM     97  S   UNL A   1      41.722  34.312  36.432  1.00  0.00     0.127 S 
ATOM     98  O   UNL A   1      42.171  35.569  37.030  1.00  0.00    -0.237 OA
ATOM     99  O   UNL A   1      40.979  34.464  35.181  1.00  0.00    -0.237 OA
ATOM    100  O   UNL A   1      41.150  33.350  37.366  1.00  0.00    -0.744 OA
ENDBRANCH  94  97
ENDBRANCH  67  90
ENDBRANCH  41  42
ENDBRANCH  34  36
ENDBRANCH  33  34
ENDBRANCH  32  33
ENDBRANCH  31  32
ENDBRANCH  30  31
ENDBRANCH  29  30
ENDBRANCH  28  29
ENDBRANCH  27  28
ENDBRANCH   1  27
TORSDOF 28
ENDMDL
MODEL 2
REMARK VINA RESULT:      -6.9      5.027      7.805
REMARK SMILES CC[C@H](C)CN(CC)c1nc(C(=O)OCCOCCOCCOCCOC(=O)c2ccc(-c3c4nc(c(-c5cccc(S(=O)(=O)[O-])c5F)c5ccc([nH]5)c(-c5cccc(S(=O)(=O)[O-])c5F)c5nc(c(-c6cccc(S(=O)(=O)[O-])c6F)c6ccc3[nH]6)C=C5)C=C4)cc2)cc2ccccc12
REMARK SMILES IDX 19 1 18 2 17 3 16 4 15 5 14 6 12 7 13 8 11 9 9 10 10 11
REMARK SMILES IDX 98 12 93 13 97 14 92 15 94 16 96 17 95 18 6 19 5 20 3 21
REMARK SMILES IDX 4 22 2 23 1 24 7 25 8 26 20 27 21 28 22 29 23 30 24 31 25 32
REMARK SMILES IDX 26 33 27 34 28 35 29 36 30 37 91 38 31 39 90 40 32 41 33 42
REMARK SMILES IDX 34 43 84 44 35 45 89 46 83 47 85 48 36 49 88 50 82 51 81 52
REMARK SMILES IDX 37 54 69 55 49 56 68 57 50 58 53 59 67 60 86 61 51 62 52 63
REMARK SMILES IDX 66 65 87 66 54 67 38 68 39 69 47 70 40 71 42 72 48 73 41 74
REMARK SMILES IDX 43 75 44 76 45 77 46 78 70 79 71 80 79 81 72 82 74 83 80 84
REMARK SMILES IDX 73 85 75 86 76 87 77 88 78 89 55 90 56 91 64 92 57 93 59 94
REMARK SMILES IDX 65 95 58 96 60 97 61 98 62 99 63 100
REMARK H PARENT 85 53 53 64
REMARK Flexibility Score: inf
ROOT
ATOM      1  C   UNL A   1      42.249  21.540  26.502  1.00  0.00     0.188 C 
ENDROOT
BRANCH   1   2
ATOM      2  C   UNL A   1      42.382  23.045  26.161  1.00  0.00     0.188 C 
BRANCH   2   3
ATOM      3  O   UNL A   1      41.794  23.922  27.111  1.00  0.00    -0.376 OA
BRANCH   3   4
ATOM      4  C   UNL A   1      40.422  23.824  27.441  1.00  0.00     0.202 C 
BRANCH   4   5
ATOM      5  C   UNL A   1      39.392  24.450  26.487  1.00  0.00     0.261 C 
BRANCH   5   6
ATOM      6  O   UNL A   1      38.047  23.988  26.640  1.00  0.00    -0.459 OA
BRANCH   6   7
ATOM      7  C   UNL A   1      37.645  23.014  25.795  1.00  0.00     0.357 C 
ATOM      8  O   UNL A   1      38.325  22.078  25.403  1.00  0.00    -0.244 OA
BRANCH   7   9
ATOM      9  C   UNL A   1      36.172  23.102  25.585  1.00  0.00     0.151 A 
ATOM     10  C   UNL A   1      34.139  22.046  25.161  1.00  0.00     0.137 A 
ATOM     11  N   UNL A   1      35.489  21.994  25.208  1.00  0.00    -0.223 NA
ATOM     12  C   UNL A   1      33.471  23.206  25.648  1.00  0.00     0.024 A 
ATOM     13  C   UNL A   1      34.205  24.402  25.776  1.00  0.00    -0.012 A 
ATOM     14  C   UNL A   1      32.131  23.260  26.082  1.00  0.00     0.012 A 
ATOM     15  C   UNL A   1      35.586  24.341  25.760  1.00  0.00     0.045 A 
ATOM     16  C   UNL A   1      33.546  25.627  25.977  1.00  0.00     0.009 A 
ATOM     17  C   UNL A   1      31.476  24.468  26.324  1.00  0.00     0.001 A 
ATOM     18  C   UNL A   1      32.174  25.661  26.205  1.00  0.00     0.001 A 
BRANCH  10  19
ATOM     19  N   UNL A   1      33.440  20.949  24.620  1.00  0.00    -0.356 N 
BRANCH  19  20
ATOM     20  C   UNL A   1      33.261  19.692  25.424  1.00  0.00     0.121 C 
BRANCH  20  21
ATOM     21  C   UNL A   1      33.182  18.385  24.598  1.00  0.00     0.005 C 
ATOM     22  C   UNL A   1      34.589  17.851  24.292  1.00  0.00     0.009 C 
BRANCH  21  23
ATOM     23  C   UNL A   1      32.329  17.245  25.203  1.00  0.00     0.002 C 
ATOM     24  C   UNL A   1      33.211  16.032  25.533  1.00  0.00     0.004 C 
ENDBRANCH  21  23
ENDBRANCH  20  21
ENDBRANCH  19  20
BRANCH  19  25
ATOM     25  C   UNL A   1      32.271  21.307  23.778  1.00  0.00     0.114 C 
ATOM     26  C   UNL A   1      32.608  21.972  22.444  1.00  0.00     0.027 C 
ENDBRANCH  19  25
ENDBRANCH  10  19
ENDBRANCH   7   9
ENDBRANCH   6   7
ENDBRANCH   5   6
ENDBRANCH   4   5
ENDBRANCH   3   4
ENDBRANCH   2   3
ENDBRANCH   1   2
BRANCH   1  27
ATOM     27  O   UNL A   1      42.513  20.554  25.510  1.00  0.00    -0.377 OA
BRANCH  27  28
ATOM     28  C   UNL A   1      42.873  19.258  25.978  1.00  0.00     0.188 C 
BRANCH  28  29
ATOM     29  C   UNL A   1      43.779  18.526  24.970  1.00  0.00     0.188 C 
BRANCH  29  30
ATOM     30  O   UNL A   1      45.067  18.217  25.476  1.00  0.00    -0.376 OA
BRANCH  30  31
ATOM     31  C   UNL A   1      46.145  19.123  25.289  1.00  0.00     0.202 C 
BRANCH  31  32
ATOM     32  C   UNL A   1      46.033  20.564  24.741  1.00  0.00     0.261 C 
BRANCH  32  33
ATOM     33  O   UNL A   1      46.165  21.667  25.641  1.00  0.00    -0.460 OA
BRANCH  33  34
ATOM     34  C   UNL A   1      46.201  22.913  25.132  1.00  0.00     0.338 C 
ATOM     35  O   UNL A   1      46.319  23.226  23.957  1.00  0.00    -0.246 OA
BRANCH  34  36
ATOM     36  C   UNL A   1      45.862  23.833  26.240  1.00  0.00     0.060 A 
ATOM     37  C   UNL A   1      45.785  25.211  25.986  1.00  0.00     0.016 A 
ATOM     38  C   UNL A   1      45.573  23.333  27.512  1.00  0.00     0.016 A 
ATOM     39  C   UNL A   1      45.440  26.093  27.009  1.00  0.00     0.010 A 
ATOM     40  C   UNL A   1      45.258  24.221  28.543  1.00  0.00     0.010 A 
ATOM     41  C   UNL A   1      45.219  25.606  28.302  1.00  0.00    -0.014 A 
BRANCH  41  42
ATOM     42  C   UNL A   1      45.129  26.548  29.443  1.00  0.00     0.031 A 
ATOM     43  C   UNL A   1      46.377  26.829  30.231  1.00  0.00     0.074 A 
ATOM     44  C   UNL A   1      43.964  27.125  29.785  1.00  0.00     0.049 A 
ATOM     45  N   UNL A   1      46.532  27.541  31.315  1.00  0.00    -0.248 NA
ATOM     46  C   UNL A   1      47.620  26.217  29.729  1.00  0.00     0.031 C 
ATOM     47  C   UNL A   1      42.693  26.946  29.086  1.00  0.00     0.029 A 
ATOM     48  N   UNL A   1      43.660  27.955  30.836  1.00  0.00    -0.354 N 
ATOM     49  C   UNL A   1      47.876  27.435  31.647  1.00  0.00     0.074 A 
ATOM     50  C   UNL A   1      48.495  26.586  30.652  1.00  0.00     0.031 C 
ATOM     51  C   UNL A   1      41.735  27.615  29.751  1.00  0.00     0.029 A 
ATOM     52  C   UNL A   1      42.319  28.238  30.938  1.00  0.00     0.049 A 
ATOM     53  H   UNL A   1      44.337  28.313  31.455  1.00  0.00     0.167 HD
ATOM     54  C   UNL A   1      48.539  27.999  32.683  1.00  0.00     0.034 A 
ATOM     55  C   UNL A   1      41.638  28.891  31.902  1.00  0.00     0.034 A 
ATOM     56  C   UNL A   1      47.922  28.848  33.665  1.00  0.00     0.049 A 
ATOM     57  C   UNL A   1      42.392  29.468  33.074  1.00  0.00     0.074 A 
ATOM     58  C   UNL A   1      48.517  29.506  34.727  1.00  0.00     0.029 A 
ATOM     59  N   UNL A   1      46.567  29.136  33.723  1.00  0.00    -0.354 N 
ATOM     60  N   UNL A   1      43.680  29.457  33.317  1.00  0.00    -0.248 NA
ATOM     61  C   UNL A   1      41.598  30.169  34.096  1.00  0.00     0.031 C 
ATOM     62  C   UNL A   1      47.514  30.158  35.452  1.00  0.00     0.029 A 
ATOM     63  C   UNL A   1      46.302  29.942  34.817  1.00  0.00     0.049 A 
ATOM     64  H   UNL A   1      45.894  28.816  33.080  1.00  0.00     0.167 HD
ATOM     65  C   UNL A   1      43.855  30.173  34.499  1.00  0.00     0.074 A 
ATOM     66  C   UNL A   1      42.542  30.625  34.908  1.00  0.00     0.031 C 
ATOM     67  C   UNL A   1      44.994  30.421  35.191  1.00  0.00     0.034 A 
BRANCH  54  68
ATOM     68  C   UNL A   1      50.012  27.715  32.808  1.00  0.00     0.023 A 
ATOM     69  C   UNL A   1      50.456  26.606  33.558  1.00  0.00     0.012 A 
ATOM     70  C   UNL A   1      50.956  28.520  32.140  1.00  0.00     0.148 A 
ATOM     71  C   UNL A   1      51.817  26.324  33.669  1.00  0.00     0.002 A 
ATOM     72  C   UNL A   1      52.307  28.204  32.215  1.00  0.00     0.091 A 
ATOM     73  F   UNL A   1      50.516  29.583  31.452  1.00  0.00    -0.205 F 
ATOM     74  C   UNL A   1      52.739  27.114  32.989  1.00  0.00     0.022 A 
BRANCH  72  75
ATOM     75  S   UNL A   1      53.567  29.111  31.312  1.00  0.00     0.127 S 
ATOM     76  O   UNL A   1      53.478  30.433  31.931  1.00  0.00    -0.237 OA
ATOM     77  O   UNL A   1      54.778  28.363  31.645  1.00  0.00    -0.237 OA
ATOM     78  O   UNL A   1      53.179  29.053  29.910  1.00  0.00    -0.744 OA
ENDBRANCH  72  75
ENDBRANCH  54  68
BRANCH  55  79
ATOM     79  C   UNL A   1      40.158  29.040  31.804  1.00  0.00     0.023 A 
ATOM     80  C   UNL A   1      39.319  28.116  32.458  1.00  0.00     0.012 A 
ATOM     81  C   UNL A   1      39.578  30.091  31.067  1.00  0.00     0.148 A 
ATOM     82  C   UNL A   1      37.932  28.216  32.351  1.00  0.00     0.002 A 
ATOM     83  C   UNL A   1      38.195  30.219  31.013  1.00  0.00     0.091 A 
ATOM     84  F   UNL A   1      40.393  30.950  30.438  1.00  0.00    -0.205 F 
ATOM     85  C   UNL A   1      37.370  29.272  31.637  1.00  0.00     0.022 A 
BRANCH  83  86
ATOM     86  S   UNL A   1      37.384  31.612  30.221  1.00  0.00     0.127 S 
ATOM     87  O   UNL A   1      35.974  31.303  30.441  1.00  0.00    -0.237 OA
ATOM     88  O   UNL A   1      37.897  32.739  31.001  1.00  0.00    -0.237 OA
ATOM     89  O   UNL A   1      37.824  31.592  28.833  1.00  0.00    -0.744 OA
ENDBRANCH  83  86
ENDBRANCH  55  79
BRANCH  67  90
ATOM     90  C   UNL A   1      44.887  31.245  36.449  1.00  0.00     0.023 A 
ATOM     91  C   UNL A   1      44.735  30.609  37.696  1.00  0.00     0.012 A 
ATOM     92  C   UNL A   1      45.015  32.648  36.401  1.00  0.00     0.148 A 
ATOM     93  C   UNL A   1      44.675  31.356  38.872  1.00  0.00     0.002 A 
ATOM     94  C   UNL A   1      45.008  33.383  37.581  1.00  0.00     0.091 A 
ATOM     95  F   UNL A   1      45.149  33.238  35.204  1.00  0.00    -0.205 F 
ATOM     96  C   UNL A   1      44.823  32.740  38.816  1.00  0.00     0.022 A 
BRANCH  94  97
ATOM     97  S   UNL A   1      45.288  35.157  37.619  1.00  0.00     0.127 S 
ATOM     98  O   UNL A   1      46.517  35.280  36.835  1.00  0.00    -0.237 OA
ATOM     99  O   UNL A   1      44.090  35.673  36.958  1.00  0.00    -0.237 OA
ATOM    100  O   UNL A   1      45.410  35.518  39.025  1.00  0.00    -0.744 OA
ENDBRANCH  94  97
ENDBRANCH  67  90
ENDBRANCH  41  42
ENDBRANCH  34  36
ENDBRANCH  33  34
ENDBRANCH  32  33
ENDBRANCH  31  32
ENDBRANCH  30  31
ENDBRANCH  29  30
ENDBRANCH  28  29
ENDBRANCH  27  28
ENDBRANCH   1  27
TORSDOF 28
ENDMDL
MODEL 3
REMARK VINA RESULT:      -6.8      3.877      7.172
REMARK SMILES CC[C@H](C)CN(CC)c1nc(C(=O)OCCOCCOCCOCCOC(=O)c2ccc(-c3c4nc(c(-c5cccc(S(=O)(=O)[O-])c5F)c5ccc([nH]5)c(-c5cccc(S(=O)(=O)[O-])c5F)c5nc(c(-c6cccc(S(=O)(=O)[O-])c6F)c6ccc3[nH]6)C=C5)C=C4)cc2)cc2ccccc12
REMARK SMILES IDX 19 1 18 2 17 3 16 4 15 5 14 6 12 7 13 8 11 9 9 10 10 11
REMARK SMILES IDX 98 12 93 13 97 14 92 15 94 16 96 17 95 18 6 19 5 20 3 21
REMARK SMILES IDX 4 22 2 23 1 24 7 25 8 26 20 27 21 28 22 29 23 30 24 31 25 32
REMARK SMILES IDX 26 33 27 34 28 35 29 36 30 37 91 38 31 39 90 40 32 41 33 42
REMARK SMILES IDX 34 43 84 44 35 45 89 46 83 47 85 48 36 49 88 50 82 51 81 52
REMARK SMILES IDX 37 54 69 55 49 56 68 57 50 58 53 59 67 60 86 61 51 62 52 63
REMARK SMILES IDX 66 65 87 66 54 67 38 68 39 69 47 70 40 71 42 72 48 73 41 74
REMARK SMILES IDX 43 75 44 76 45 77 46 78 70 79 71 80 79 81 72 82 74 83 80 84
REMARK SMILES IDX 73 85 75 86 76 87 77 88 78 89 55 90 56 91 64 92 57 93 59 94
REMARK SMILES IDX 65 95 58 96 60 97 61 98 62 99 63 100
REMARK H PARENT 85 53 53 64
REMARK Flexibility Score: inf
ROOT
ATOM      1  C   UNL A   1      33.271  25.994  23.869  1.00  0.00     0.188 C 
ENDROOT
BRANCH   1   2
ATOM      2  C   UNL A   1      32.961  27.511  23.881  1.00  0.00     0.188 C 
BRANCH   2   3
ATOM      3  O   UNL A   1      31.600  27.836  24.127  1.00  0.00    -0.376 OA
BRANCH   3   4
ATOM      4  C   UNL A   1      31.109  27.964  25.448  1.00  0.00     0.202 C 
BRANCH   4   5
ATOM      5  C   UNL A   1      32.090  27.777  26.615  1.00  0.00     0.261 C 
BRANCH   5   6
ATOM      6  O   UNL A   1      32.160  28.864  27.543  1.00  0.00    -0.459 OA
BRANCH   6   7
ATOM      7  C   UNL A   1      32.388  30.088  27.021  1.00  0.00     0.357 C 
ATOM      8  O   UNL A   1      31.576  30.773  26.417  1.00  0.00    -0.244 OA
BRANCH   7   9
ATOM      9  C   UNL A   1      33.706  30.602  27.490  1.00  0.00     0.151 A 
ATOM     10  C   UNL A   1      34.929  32.111  28.778  1.00  0.00     0.137 A 
ATOM     11  N   UNL A   1      33.749  31.732  28.236  1.00  0.00    -0.223 NA
ATOM     12  C   UNL A   1      36.051  31.239  28.675  1.00  0.00     0.024 A 
ATOM     13  C   UNL A   1      36.034  30.232  27.690  1.00  0.00    -0.012 A 
ATOM     14  C   UNL A   1      37.178  31.250  29.521  1.00  0.00     0.012 A 
ATOM     15  C   UNL A   1      34.828  29.898  27.100  1.00  0.00     0.045 A 
ATOM     16  C   UNL A   1      37.208  29.536  27.358  1.00  0.00     0.009 A 
ATOM     17  C   UNL A   1      38.338  30.532  29.224  1.00  0.00     0.001 A 
ATOM     18  C   UNL A   1      38.372  29.723  28.097  1.00  0.00     0.001 A 
BRANCH  10  19
ATOM     19  N   UNL A   1      35.007  33.363  29.417  1.00  0.00    -0.356 N 
BRANCH  19  20
ATOM     20  C   UNL A   1      35.663  33.487  30.764  1.00  0.00     0.121 C 
BRANCH  20  21
ATOM     21  C   UNL A   1      34.884  32.848  31.940  1.00  0.00     0.005 C 
ATOM     22  C   UNL A   1      35.715  31.740  32.602  1.00  0.00     0.009 C 
BRANCH  21  23
ATOM     23  C   UNL A   1      34.377  33.820  33.031  1.00  0.00     0.002 C 
ATOM     24  C   UNL A   1      34.027  35.182  32.415  1.00  0.00     0.004 C 
ENDBRANCH  21  23
ENDBRANCH  20  21
ENDBRANCH  19  20
BRANCH  19  25
ATOM     25  C   UNL A   1      35.251  34.514  28.511  1.00  0.00     0.114 C 
ATOM     26  C   UNL A   1      34.171  35.595  28.527  1.00  0.00     0.027 C 
ENDBRANCH  19  25
ENDBRANCH  10  19
ENDBRANCH   7   9
ENDBRANCH   6   7
ENDBRANCH   5   6
ENDBRANCH   4   5
ENDBRANCH   3   4
ENDBRANCH   2   3
ENDBRANCH   1   2
BRANCH   1  27
ATOM     27  O   UNL A   1      34.005  25.403  24.937  1.00  0.00    -0.377 OA
BRANCH  27  28
ATOM     28  C   UNL A   1      34.832  24.293  24.604  1.00  0.00     0.188 C 
BRANCH  28  29
ATOM     29  C   UNL A   1      35.573  23.751  25.842  1.00  0.00     0.188 C 
BRANCH  29  30
ATOM     30  O   UNL A   1      36.902  23.333  25.578  1.00  0.00    -0.376 OA
BRANCH  30  31
ATOM     31  C   UNL A   1      37.246  21.957  25.649  1.00  0.00     0.202 C 
BRANCH  31  32
ATOM     32  C   UNL A   1      38.680  21.381  25.669  1.00  0.00     0.261 C 
BRANCH  32  33
ATOM     33  O   UNL A   1      39.760  22.209  26.107  1.00  0.00    -0.460 OA
BRANCH  33  34
ATOM     34  C   UNL A   1      40.396  21.888  27.249  1.00  0.00     0.338 C 
ATOM     35  O   UNL A   1      40.473  20.783  27.764  1.00  0.00    -0.246 OA
BRANCH  34  36
ATOM     36  C   UNL A   1      41.162  23.085  27.659  1.00  0.00     0.060 A 
ATOM     37  C   UNL A   1      40.867  24.322  27.067  1.00  0.00     0.016 A 
ATOM     38  C   UNL A   1      42.132  22.995  28.660  1.00  0.00     0.016 A 
ATOM     39  C   UNL A   1      41.558  25.469  27.460  1.00  0.00     0.010 A 
ATOM     40  C   UNL A   1      42.845  24.139  29.029  1.00  0.00     0.010 A 
ATOM     41  C   UNL A   1      42.580  25.374  28.410  1.00  0.00    -0.014 A 
BRANCH  41  42
ATOM     42  C   UNL A   1      43.498  26.516  28.627  1.00  0.00     0.031 A 
ATOM     43  C   UNL A   1      43.022  27.658  29.481  1.00  0.00     0.074 A 
ATOM     44  C   UNL A   1      44.718  26.552  28.064  1.00  0.00     0.049 A 
ATOM     45  N   UNL A   1      43.603  28.798  29.742  1.00  0.00    -0.248 NA
ATOM     46  C   UNL A   1      41.706  27.490  30.122  1.00  0.00     0.031 C 
ATOM     47  C   UNL A   1      45.299  25.498  27.233  1.00  0.00     0.029 A 
ATOM     48  N   UNL A   1      45.676  27.536  28.081  1.00  0.00    -0.354 N 
ATOM     49  C   UNL A   1      42.713  29.498  30.546  1.00  0.00     0.074 A 
ATOM     50  C   UNL A   1      41.549  28.658  30.727  1.00  0.00     0.031 C 
ATOM     51  C   UNL A   1      46.499  25.909  26.788  1.00  0.00     0.029 A 
ATOM     52  C   UNL A   1      46.753  27.265  27.271  1.00  0.00     0.049 A 
ATOM     53  H   UNL A   1      45.598  28.356  28.621  1.00  0.00     0.167 HD
ATOM     54  C   UNL A   1      42.853  30.730  31.090  1.00  0.00     0.034 A 
ATOM     55  C   UNL A   1      47.802  28.041  26.929  1.00  0.00     0.034 A 
ATOM     56  C   UNL A   1      44.014  31.558  30.914  1.00  0.00     0.049 A 
ATOM     57  C   UNL A   1      47.911  29.429  27.509  1.00  0.00     0.074 A 
ATOM     58  C   UNL A   1      44.273  32.802  31.463  1.00  0.00     0.029 A 
ATOM     59  N   UNL A   1      45.098  31.241  30.110  1.00  0.00    -0.354 N 
ATOM     60  N   UNL A   1      47.118  30.037  28.358  1.00  0.00    -0.248 NA
ATOM     61  C   UNL A   1      49.076  30.231  27.101  1.00  0.00     0.031 C 
ATOM     62  C   UNL A   1      45.495  33.256  30.956  1.00  0.00     0.029 A 
ATOM     63  C   UNL A   1      46.018  32.276  30.128  1.00  0.00     0.049 A 
ATOM     64  H   UNL A   1      45.199  30.404  29.603  1.00  0.00     0.167 HD
ATOM     65  C   UNL A   1      47.702  31.276  28.609  1.00  0.00     0.074 A 
ATOM     66  C   UNL A   1      48.929  31.321  27.841  1.00  0.00     0.031 C 
ATOM     67  C   UNL A   1      47.257  32.291  29.390  1.00  0.00     0.034 A 
BRANCH  54  68
ATOM     68  C   UNL A   1      41.720  31.255  31.930  1.00  0.00     0.023 A 
ATOM     69  C   UNL A   1      40.695  32.019  31.335  1.00  0.00     0.012 A 
ATOM     70  C   UNL A   1      41.645  30.950  33.304  1.00  0.00     0.148 A 
ATOM     71  C   UNL A   1      39.633  32.499  32.100  1.00  0.00     0.002 A 
ATOM     72  C   UNL A   1      40.559  31.390  34.049  1.00  0.00     0.091 A 
ATOM     73  F   UNL A   1      42.642  30.242  33.856  1.00  0.00    -0.205 F 
ATOM     74  C   UNL A   1      39.559  32.175  33.451  1.00  0.00     0.022 A 
BRANCH  72  75
ATOM     75  S   UNL A   1      40.330  30.960  35.777  1.00  0.00     0.127 S 
ATOM     76  O   UNL A   1      41.687  31.111  36.301  1.00  0.00    -0.237 OA
ATOM     77  O   UNL A   1      39.387  31.985  36.225  1.00  0.00    -0.237 OA
ATOM     78  O   UNL A   1      39.805  29.601  35.790  1.00  0.00    -0.744 OA
ENDBRANCH  72  75
ENDBRANCH  54  68
BRANCH  55  79
ATOM     79  C   UNL A   1      48.839  27.526  25.990  1.00  0.00     0.023 A 
ATOM     80  C   UNL A   1      49.937  26.800  26.493  1.00  0.00     0.012 A 
ATOM     81  C   UNL A   1      48.743  27.752  24.603  1.00  0.00     0.148 A 
ATOM     82  C   UNL A   1      50.937  26.339  25.637  1.00  0.00     0.002 A 
ATOM     83  C   UNL A   1      49.713  27.239  23.749  1.00  0.00     0.091 A 
ATOM     84  F   UNL A   1      47.701  28.459  24.145  1.00  0.00    -0.205 F 
ATOM     85  C   UNL A   1      50.821  26.550  24.265  1.00  0.00     0.022 A 
BRANCH  83  86
ATOM     86  S   UNL A   1      49.585  27.355  21.962  1.00  0.00     0.127 S 
ATOM     87  O   UNL A   1      49.595  28.801  21.753  1.00  0.00    -0.237 OA
ATOM     88  O   UNL A   1      50.799  26.661  21.529  1.00  0.00    -0.237 OA
ATOM     89  O   UNL A   1      48.346  26.677  21.607  1.00  0.00    -0.744 OA
ENDBRANCH  83  86
ENDBRANCH  55  79
BRANCH  67  90
ATOM     90  C   UNL A   1      48.110  33.530  29.487  1.00  0.00     0.023 A 
ATOM     91  C   UNL A   1      49.195  33.570  30.385  1.00  0.00     0.012 A 
ATOM     92  C   UNL A   1      47.883  34.628  28.632  1.00  0.00     0.148 A 
ATOM     93  C   UNL A   1      50.017  34.694  30.457  1.00  0.00     0.002 A 
ATOM     94  C   UNL A   1      48.738  35.723  28.671  1.00  0.00     0.091 A 
ATOM     95  F   UNL A   1      46.839  34.577  27.791  1.00  0.00    -0.205 F 
ATOM     96  C   UNL A   1      49.796  35.764  29.594  1.00  0.00     0.022 A 
BRANCH  94  97
ATOM     97  S   UNL A   1      48.593  37.105  27.533  1.00  0.00     0.127 S 
ATOM     98  O   UNL A   1      48.653  36.431  26.237  1.00  0.00    -0.237 OA
ATOM     99  O   UNL A   1      47.280  37.652  27.876  1.00  0.00    -0.237 OA
ATOM    100  O   UNL A   1      49.714  37.989  27.825  1.00  0.00    -0.744 OA
ENDBRANCH  94  97
ENDBRANCH  67  90
ENDBRANCH  41  42
ENDBRANCH  34  36
ENDBRANCH  33  34
ENDBRANCH  32  33
ENDBRANCH  31  32
ENDBRANCH  30  31
ENDBRANCH  29  30
ENDBRANCH  28  29
ENDBRANCH  27  28
ENDBRANCH   1  27
TORSDOF 28
ENDMDL
