MODEL 1
REMARK VINA RESULT:      -9.5      0.000      0.000
REMARK SMILES Cc1cc(C)cc(C[N@@H+]2CCO[C@@H](CC(=O)OCCOCCOCCOCCOC(=O)c3ccc(-c4c5nc(c(-c6cccc(S(=O)(=O)[O-])c6F)c6ccc([nH]6)c(-c6cccc(S(=O)(=O)[O-])c6F)c6nc(c(-c7cccc(S(=O)(=O)[O-])c7F)c7ccc4[nH]7)C=C6)C=C5)cc3)C2)c1
REMARK SMILES IDX 23 1 22 2 21 3 20 4 19 5 18 6 17 7 15 8 16 9 14 10 13 11
REMARK SMILES IDX 9 12 10 13 95 14 11 16 12 17 8 18 7 19 1 20 2 21 3 22 96 23
REMARK SMILES IDX 4 24 5 25 6 26 24 27 25 28 26 29 27 30 28 31 29 32 30 33
REMARK SMILES IDX 31 34 32 35 33 36 94 37 34 38 93 39 35 40 36 41 37 42 87 43
REMARK SMILES IDX 38 44 92 45 86 46 88 47 39 48 91 49 85 50 84 51 40 53 72 54
REMARK SMILES IDX 52 55 71 56 53 57 56 58 70 59 89 60 54 61 55 62 69 64 90 65
REMARK SMILES IDX 57 66 41 67 42 68 50 69 43 70 45 71 51 72 44 73 46 74 47 75
REMARK SMILES IDX 48 76 49 77 73 78 74 79 82 80 75 81 77 82 83 83 76 84 78 85
REMARK SMILES IDX 79 86 80 87 81 88 58 89 59 90 67 91 60 92 62 93 68 94 61 95
REMARK SMILES IDX 63 96 64 97 65 98 66 99
REMARK H PARENT 9 15 88 52 56 63
REMARK Flexibility Score: inf
ROOT
ATOM      1  O   UNL A   1      31.032  27.243  26.908  1.00  0.00    -0.377 OA
ENDROOT
BRANCH   1   2
ATOM      2  C   UNL A   1      31.514  25.952  26.611  1.00  0.00     0.188 C 
BRANCH   2   3
ATOM      3  C   UNL A   1      30.415  24.915  26.384  1.00  0.00     0.188 C 
BRANCH   3   4
ATOM      4  O   UNL A   1      30.818  23.575  26.159  1.00  0.00    -0.376 OA
BRANCH   4   5
ATOM      5  C   UNL A   1      32.063  23.152  26.719  1.00  0.00     0.202 C 
BRANCH   5   6
ATOM      6  C   UNL A   1      32.771  21.910  26.137  1.00  0.00     0.261 C 
BRANCH   6   7
ATOM      7  O   UNL A   1      32.840  21.819  24.690  1.00  0.00    -0.463 OA
BRANCH   7   8
ATOM      8  C   UNL A   1      34.043  22.099  24.144  1.00  0.00     0.308 C 
ATOM      9  O   UNL A   1      35.111  21.697  24.608  1.00  0.00    -0.252 OA
BRANCH   8  10
ATOM     10  C   UNL A   1      34.054  23.011  22.947  1.00  0.00     0.160 C 
BRANCH  10  11
ATOM     11  C   UNL A   1      33.132  24.195  22.650  1.00  0.00     0.184 C 
ATOM     12  N   UNL A   1      32.540  26.648  22.953  1.00  0.00    -0.327 N 
ATOM     13  C   UNL A   1      32.810  26.829  21.525  1.00  0.00     0.291 C 
ATOM     14  C   UNL A   1      33.285  25.484  23.486  1.00  0.00     0.295 C 
ATOM     15  H   UNL A   1      32.935  27.445  23.451  1.00  0.00     0.348 HD
ATOM     16  C   UNL A   1      32.715  25.541  20.696  1.00  0.00     0.222 C 
ATOM     17  O   UNL A   1      33.468  24.474  21.259  1.00  0.00    -0.366 OA
BRANCH  12  18
ATOM     18  C   UNL A   1      31.150  26.855  23.379  1.00  0.00     0.299 C 
BRANCH  18  19
ATOM     19  C   UNL A   1      30.578  28.260  23.294  1.00  0.00     0.007 A 
ATOM     20  C   UNL A   1      30.580  31.487  25.367  1.00  0.00     0.044 C 
ATOM     21  C   UNL A   1      30.271  30.467  24.312  1.00  0.00    -0.050 A 
ATOM     22  C   UNL A   1      29.267  30.744  23.385  1.00  0.00     0.006 A 
ATOM     23  C   UNL A   1      30.922  29.228  24.242  1.00  0.00     0.013 A 
ATOM     24  C   UNL A   1      28.945  29.820  22.388  1.00  0.00    -0.050 A 
ATOM     25  C   UNL A   1      27.778  30.089  21.488  1.00  0.00     0.044 C 
ATOM     26  C   UNL A   1      29.652  28.614  22.308  1.00  0.00     0.013 A 
ENDBRANCH  18  19
ENDBRANCH  12  18
ENDBRANCH  10  11
ENDBRANCH   8  10
ENDBRANCH   7   8
ENDBRANCH   6   7
ENDBRANCH   5   6
ENDBRANCH   4   5
ENDBRANCH   3   4
ENDBRANCH   2   3
ENDBRANCH   1   2
BRANCH   1  27
ATOM     27  C   UNL A   1      31.847  28.088  27.708  1.00  0.00     0.188 C 
BRANCH  27  28
ATOM     28  C   UNL A   1      33.169  28.550  27.076  1.00  0.00     0.188 C 
BRANCH  28  29
ATOM     29  O   UNL A   1      33.294  29.845  26.499  1.00  0.00    -0.376 OA
BRANCH  29  30
ATOM     30  C   UNL A   1      33.917  30.931  27.162  1.00  0.00     0.202 C 
BRANCH  30  31
ATOM     31  C   UNL A   1      33.167  32.177  27.658  1.00  0.00     0.261 C 
BRANCH  31  32
ATOM     32  O   UNL A   1      33.924  33.380  27.716  1.00  0.00    -0.460 OA
BRANCH  32  33
ATOM     33  C   UNL A   1      34.436  33.647  28.940  1.00  0.00     0.338 C 
ATOM     34  O   UNL A   1      33.974  34.384  29.789  1.00  0.00    -0.246 OA
BRANCH  33  35
ATOM     35  C   UNL A   1      35.584  32.756  29.160  1.00  0.00     0.060 A 
ATOM     36  C   UNL A   1      35.374  31.591  29.905  1.00  0.00     0.016 A 
ATOM     37  C   UNL A   1      36.854  33.093  28.687  1.00  0.00     0.016 A 
ATOM     38  C   UNL A   1      36.447  30.770  30.217  1.00  0.00     0.010 A 
ATOM     39  C   UNL A   1      37.936  32.282  29.023  1.00  0.00     0.010 A 
ATOM     40  C   UNL A   1      37.737  31.145  29.826  1.00  0.00    -0.014 A 
BRANCH  40  41
ATOM     41  C   UNL A   1      38.890  30.466  30.444  1.00  0.00     0.031 A 
ATOM     42  C   UNL A   1      39.298  30.887  31.828  1.00  0.00     0.074 A 
ATOM     43  C   UNL A   1      39.535  29.484  29.795  1.00  0.00     0.049 A 
ATOM     44  N   UNL A   1      40.288  30.459  32.563  1.00  0.00    -0.248 NA
ATOM     45  C   UNL A   1      38.482  31.935  32.466  1.00  0.00     0.031 C 
ATOM     46  C   UNL A   1      39.197  28.993  28.459  1.00  0.00     0.029 A 
ATOM     47  N   UNL A   1      40.625  28.743  30.165  1.00  0.00    -0.354 N 
ATOM     48  C   UNL A   1      40.233  31.204  33.734  1.00  0.00     0.074 A 
ATOM     49  C   UNL A   1      39.121  32.118  33.611  1.00  0.00     0.031 C 
ATOM     50  C   UNL A   1      40.088  28.050  28.107  1.00  0.00     0.029 A 
ATOM     51  C   UNL A   1      41.069  27.896  29.178  1.00  0.00     0.049 A 
ATOM     52  H   UNL A   1      41.048  28.811  31.051  1.00  0.00     0.167 HD
ATOM     53  C   UNL A   1      41.037  31.125  34.819  1.00  0.00     0.034 A 
ATOM     54  C   UNL A   1      42.164  27.112  29.144  1.00  0.00     0.034 A 
ATOM     55  C   UNL A   1      42.133  30.203  34.929  1.00  0.00     0.049 A 
ATOM     56  C   UNL A   1      43.063  27.069  30.352  1.00  0.00     0.074 A 
ATOM     57  C   UNL A   1      42.988  30.008  35.997  1.00  0.00     0.029 A 
ATOM     58  N   UNL A   1      42.536  29.335  33.925  1.00  0.00    -0.354 N 
ATOM     59  N   UNL A   1      42.942  27.701  31.495  1.00  0.00    -0.248 NA
ATOM     60  C   UNL A   1      44.232  26.180  30.279  1.00  0.00     0.031 C 
ATOM     61  C   UNL A   1      43.935  29.049  35.624  1.00  0.00     0.029 A 
ATOM     62  C   UNL A   1      43.639  28.613  34.340  1.00  0.00     0.049 A 
ATOM     63  H   UNL A   1      42.101  29.247  33.047  1.00  0.00     0.167 HD
ATOM     64  C   UNL A   1      43.993  27.257  32.291  1.00  0.00     0.074 A 
ATOM     65  C   UNL A   1      44.731  26.291  31.502  1.00  0.00     0.031 C 
ATOM     66  C   UNL A   1      44.323  27.619  33.555  1.00  0.00     0.034 A 
BRANCH  53  67
ATOM     67  C   UNL A   1      40.757  32.055  35.970  1.00  0.00     0.023 A 
ATOM     68  C   UNL A   1      41.622  33.137  36.228  1.00  0.00     0.012 A 
ATOM     69  C   UNL A   1      39.610  31.880  36.768  1.00  0.00     0.148 A 
ATOM     70  C   UNL A   1      41.368  34.013  37.283  1.00  0.00     0.002 A 
ATOM     71  C   UNL A   1      39.338  32.784  37.787  1.00  0.00     0.091 A 
ATOM     72  F   UNL A   1      38.815  30.829  36.523  1.00  0.00    -0.205 F 
ATOM     73  C   UNL A   1      40.221  33.842  38.054  1.00  0.00     0.022 A 
BRANCH  71  74
ATOM     74  S   UNL A   1      37.849  32.697  38.787  1.00  0.00     0.127 S 
ATOM     75  O   UNL A   1      38.060  33.797  39.728  1.00  0.00    -0.237 OA
ATOM     76  O   UNL A   1      36.801  32.936  37.794  1.00  0.00    -0.237 OA
ATOM     77  O   UNL A   1      37.836  31.367  39.378  1.00  0.00    -0.744 OA
ENDBRANCH  71  74
ENDBRANCH  53  67
BRANCH  54  78
ATOM     78  C   UNL A   1      42.458  26.296  27.934  1.00  0.00     0.023 A 
ATOM     79  C   UNL A   1      43.269  26.828  26.913  1.00  0.00     0.012 A 
ATOM     80  C   UNL A   1      41.947  24.991  27.795  1.00  0.00     0.148 A 
ATOM     81  C   UNL A   1      43.537  26.088  25.761  1.00  0.00     0.002 A 
ATOM     82  C   UNL A   1      42.263  24.239  26.670  1.00  0.00     0.091 A 
ATOM     83  F   UNL A   1      41.167  24.507  28.773  1.00  0.00    -0.205 F 
ATOM     84  C   UNL A   1      43.043  24.792  25.643  1.00  0.00     0.022 A 
BRANCH  82  85
ATOM     85  S   UNL A   1      41.773  22.520  26.489  1.00  0.00     0.127 S 
ATOM     86  O   UNL A   1      42.403  22.162  25.221  1.00  0.00    -0.237 OA
ATOM     87  O   UNL A   1      42.379  21.910  27.674  1.00  0.00    -0.237 OA
ATOM     88  O   UNL A   1      40.316  22.523  26.492  1.00  0.00    -0.744 OA
ENDBRANCH  82  85
ENDBRANCH  54  78
BRANCH  66  89
ATOM     89  C   UNL A   1      45.503  26.934  34.194  1.00  0.00     0.023 A 
ATOM     90  C   UNL A   1      46.780  27.523  34.136  1.00  0.00     0.012 A 
ATOM     91  C   UNL A   1      45.318  25.750  34.936  1.00  0.00     0.148 A 
ATOM     92  C   UNL A   1      47.863  26.928  34.782  1.00  0.00     0.002 A 
ATOM     93  C   UNL A   1      46.389  25.193  35.623  1.00  0.00     0.091 A 
ATOM     94  F   UNL A   1      44.095  25.199  34.966  1.00  0.00    -0.205 F 
ATOM     95  C   UNL A   1      47.665  25.773  35.536  1.00  0.00     0.022 A 
BRANCH  93  96
ATOM     96  S   UNL A   1      46.207  23.769  36.701  1.00  0.00     0.127 S 
ATOM     97  O   UNL A   1      45.422  22.861  35.866  1.00  0.00    -0.237 OA
ATOM     98  O   UNL A   1      47.596  23.359  36.908  1.00  0.00    -0.237 OA
ATOM     99  O   UNL A   1      45.532  24.251  37.899  1.00  0.00    -0.744 OA
ENDBRANCH  93  96
ENDBRANCH  66  89
ENDBRANCH  40  41
ENDBRANCH  33  35
ENDBRANCH  32  33
ENDBRANCH  31  32
ENDBRANCH  30  31
ENDBRANCH  29  30
ENDBRANCH  28  29
ENDBRANCH  27  28
ENDBRANCH   1  27
TORSDOF 26
ENDMDL
MODEL 2
REMARK VINA RESULT:      -9.3      2.078      7.775
REMARK SMILES Cc1cc(C)cc(C[N@@H+]2CCO[C@@H](CC(=O)OCCOCCOCCOCCOC(=O)c3ccc(-c4c5nc(c(-c6cccc(S(=O)(=O)[O-])c6F)c6ccc([nH]6)c(-c6cccc(S(=O)(=O)[O-])c6F)c6nc(c(-c7cccc(S(=O)(=O)[O-])c7F)c7ccc4[nH]7)C=C6)C=C5)cc3)C2)c1
REMARK SMILES IDX 23 1 22 2 21 3 20 4 19 5 18 6 17 7 15 8 16 9 14 10 13 11
REMARK SMILES IDX 9 12 10 13 95 14 11 16 12 17 8 18 7 19 1 20 2 21 3 22 96 23
REMARK SMILES IDX 4 24 5 25 6 26 24 27 25 28 26 29 27 30 28 31 29 32 30 33
REMARK SMILES IDX 31 34 32 35 33 36 94 37 34 38 93 39 35 40 36 41 37 42 87 43
REMARK SMILES IDX 38 44 92 45 86 46 88 47 39 48 91 49 85 50 84 51 40 53 72 54
REMARK SMILES IDX 52 55 71 56 53 57 56 58 70 59 89 60 54 61 55 62 69 64 90 65
REMARK SMILES IDX 57 66 41 67 42 68 50 69 43 70 45 71 51 72 44 73 46 74 47 75
REMARK SMILES IDX 48 76 49 77 73 78 74 79 82 80 75 81 77 82 83 83 76 84 78 85
REMARK SMILES IDX 79 86 80 87 81 88 58 89 59 90 67 91 60 92 62 93 68 94 61 95
REMARK SMILES IDX 63 96 64 97 65 98 66 99
REMARK H PARENT 9 15 88 52 56 63
REMARK Flexibility Score: inf
ROOT
ATOM      1  O   UNL A   1      33.176  26.606  25.925  1.00  0.00    -0.377 OA
ENDROOT
BRANCH   1   2
ATOM      2  C   UNL A   1      32.079  26.086  26.641  1.00  0.00     0.188 C 
BRANCH   2   3
ATOM      3  C   UNL A   1      31.927  24.570  26.530  1.00  0.00     0.188 C 
BRANCH   3   4
ATOM      4  O   UNL A   1      33.096  23.783  26.688  1.00  0.00    -0.376 OA
BRANCH   4   5
ATOM      5  C   UNL A   1      33.359  22.782  25.702  1.00  0.00     0.202 C 
BRANCH   5   6
ATOM      6  C   UNL A   1      33.421  23.186  24.214  1.00  0.00     0.261 C 
BRANCH   6   7
ATOM      7  O   UNL A   1      32.272  22.838  23.396  1.00  0.00    -0.463 OA
BRANCH   7   8
ATOM      8  C   UNL A   1      31.418  23.849  23.129  1.00  0.00     0.308 C 
ATOM      9  O   UNL A   1      30.194  23.718  23.102  1.00  0.00    -0.252 OA
BRANCH   8  10
ATOM     10  C   UNL A   1      32.027  25.181  22.780  1.00  0.00     0.160 C 
BRANCH  10  11
ATOM     11  C   UNL A   1      31.338  26.545  22.701  1.00  0.00     0.184 C 
ATOM     12  N   UNL A   1      30.022  28.410  23.818  1.00  0.00    -0.327 N 
ATOM     13  C   UNL A   1      31.189  29.273  23.619  1.00  0.00     0.291 C 
ATOM     14  C   UNL A   1      30.424  26.985  23.864  1.00  0.00     0.295 C 
ATOM     15  H   UNL A   1      29.651  28.593  24.750  1.00  0.00     0.348 HD
ATOM     16  C   UNL A   1      32.133  28.811  22.501  1.00  0.00     0.222 C 
ATOM     17  O   UNL A   1      32.488  27.438  22.620  1.00  0.00    -0.366 OA
BRANCH  12  18
ATOM     18  C   UNL A   1      28.810  28.782  23.077  1.00  0.00     0.299 C 
BRANCH  18  19
ATOM     19  C   UNL A   1      28.757  30.159  22.438  1.00  0.00     0.007 A 
ATOM     20  C   UNL A   1      29.018  33.832  23.514  1.00  0.00     0.044 C 
ATOM     21  C   UNL A   1      28.800  32.595  22.693  1.00  0.00    -0.050 A 
ATOM     22  C   UNL A   1      28.314  32.729  21.393  1.00  0.00     0.006 A 
ATOM     23  C   UNL A   1      29.027  31.305  23.191  1.00  0.00     0.013 A 
ATOM     24  C   UNL A   1      28.094  31.604  20.596  1.00  0.00    -0.050 A 
ATOM     25  C   UNL A   1      27.452  31.770  19.253  1.00  0.00     0.044 C 
ATOM     26  C   UNL A   1      28.384  30.330  21.102  1.00  0.00     0.013 A 
ENDBRANCH  18  19
ENDBRANCH  12  18
ENDBRANCH  10  11
ENDBRANCH   8  10
ENDBRANCH   7   8
ENDBRANCH   6   7
ENDBRANCH   5   6
ENDBRANCH   4   5
ENDBRANCH   3   4
ENDBRANCH   2   3
ENDBRANCH   1   2
BRANCH   1  27
ATOM     27  C   UNL A   1      33.460  27.992  26.060  1.00  0.00     0.188 C 
BRANCH  27  28
ATOM     28  C   UNL A   1      32.880  28.684  27.303  1.00  0.00     0.188 C 
BRANCH  28  29
ATOM     29  O   UNL A   1      31.814  29.620  27.193  1.00  0.00    -0.376 OA
BRANCH  29  30
ATOM     30  C   UNL A   1      31.928  30.845  26.490  1.00  0.00     0.202 C 
BRANCH  30  31
ATOM     31  C   UNL A   1      32.056  32.215  27.170  1.00  0.00     0.261 C 
BRANCH  31  32
ATOM     32  O   UNL A   1      33.378  32.632  27.493  1.00  0.00    -0.460 OA
BRANCH  32  33
ATOM     33  C   UNL A   1      33.430  33.698  28.326  1.00  0.00     0.338 C 
ATOM     34  O   UNL A   1      32.657  34.634  28.377  1.00  0.00    -0.246 OA
BRANCH  33  35
ATOM     35  C   UNL A   1      34.504  33.462  29.301  1.00  0.00     0.060 A 
ATOM     36  C   UNL A   1      35.779  33.953  29.000  1.00  0.00     0.016 A 
ATOM     37  C   UNL A   1      34.269  32.725  30.463  1.00  0.00     0.016 A 
ATOM     38  C   UNL A   1      36.843  33.672  29.845  1.00  0.00     0.010 A 
ATOM     39  C   UNL A   1      35.343  32.421  31.298  1.00  0.00     0.010 A 
ATOM     40  C   UNL A   1      36.636  32.858  30.963  1.00  0.00    -0.014 A 
BRANCH  40  41
ATOM     41  C   UNL A   1      37.810  32.289  31.651  1.00  0.00     0.031 A 
ATOM     42  C   UNL A   1      38.555  31.176  30.971  1.00  0.00     0.074 A 
ATOM     43  C   UNL A   1      38.209  32.774  32.837  1.00  0.00     0.049 A 
ATOM     44  N   UNL A   1      39.593  30.502  31.386  1.00  0.00    -0.248 NA
ATOM     45  C   UNL A   1      38.060  30.764  29.645  1.00  0.00     0.031 C 
ATOM     46  C   UNL A   1      37.563  33.867  33.563  1.00  0.00     0.029 A 
ATOM     47  N   UNL A   1      39.242  32.389  33.649  1.00  0.00    -0.354 N 
ATOM     48  C   UNL A   1      39.856  29.569  30.391  1.00  0.00     0.074 A 
ATOM     49  C   UNL A   1      38.865  29.754  29.356  1.00  0.00     0.031 C 
ATOM     50  C   UNL A   1      38.197  34.043  34.735  1.00  0.00     0.029 A 
ATOM     51  C   UNL A   1      39.271  33.059  34.849  1.00  0.00     0.049 A 
ATOM     52  H   UNL A   1      39.900  31.701  33.398  1.00  0.00     0.167 HD
ATOM     53  C   UNL A   1      40.844  28.646  30.343  1.00  0.00     0.034 A 
ATOM     54  C   UNL A   1      40.060  32.869  35.924  1.00  0.00     0.034 A 
ATOM     55  C   UNL A   1      41.827  28.483  31.377  1.00  0.00     0.049 A 
ATOM     56  C   UNL A   1      41.129  31.809  35.860  1.00  0.00     0.074 A 
ATOM     57  C   UNL A   1      42.896  27.607  31.417  1.00  0.00     0.029 A 
ATOM     58  N   UNL A   1      41.847  29.200  32.565  1.00  0.00    -0.354 N 
ATOM     59  N   UNL A   1      41.436  31.003  34.871  1.00  0.00    -0.248 NA
ATOM     60  C   UNL A   1      41.983  31.655  37.046  1.00  0.00     0.031 C 
ATOM     61  C   UNL A   1      43.541  27.767  32.647  1.00  0.00     0.029 A 
ATOM     62  C   UNL A   1      42.901  28.775  33.353  1.00  0.00     0.049 A 
ATOM     63  H   UNL A   1      41.208  29.906  32.810  1.00  0.00     0.167 HD
ATOM     64  C   UNL A   1      42.541  30.275  35.299  1.00  0.00     0.074 A 
ATOM     65  C   UNL A   1      42.858  30.748  36.632  1.00  0.00     0.031 C 
ATOM     66  C   UNL A   1      43.227  29.300  34.654  1.00  0.00     0.034 A 
BRANCH  53  67
ATOM     67  C   UNL A   1      40.909  27.749  29.136  1.00  0.00     0.023 A 
ATOM     68  C   UNL A   1      40.052  26.634  29.040  1.00  0.00     0.012 A 
ATOM     69  C   UNL A   1      41.790  28.038  28.077  1.00  0.00     0.148 A 
ATOM     70  C   UNL A   1      40.094  25.802  27.922  1.00  0.00     0.002 A 
ATOM     71  C   UNL A   1      41.792  27.232  26.945  1.00  0.00     0.091 A 
ATOM     72  F   UNL A   1      42.615  29.088  28.200  1.00  0.00    -0.205 F 
ATOM     73  C   UNL A   1      40.956  26.107  26.872  1.00  0.00     0.022 A 
BRANCH  71  74
ATOM     74  S   UNL A   1      42.808  27.585  25.507  1.00  0.00     0.127 S 
ATOM     75  O   UNL A   1      44.135  27.719  26.109  1.00  0.00    -0.237 OA
ATOM     76  O   UNL A   1      42.624  26.379  24.700  1.00  0.00    -0.237 OA
ATOM     77  O   UNL A   1      42.267  28.801  24.918  1.00  0.00    -0.744 OA
ENDBRANCH  71  74
ENDBRANCH  53  67
BRANCH  54  78
ATOM     78  C   UNL A   1      39.879  33.710  37.139  1.00  0.00     0.023 A 
ATOM     79  C   UNL A   1      40.422  35.009  37.177  1.00  0.00     0.012 A 
ATOM     80  C   UNL A   1      39.163  33.232  38.254  1.00  0.00     0.148 A 
ATOM     81  C   UNL A   1      40.283  35.804  38.315  1.00  0.00     0.002 A 
ATOM     82  C   UNL A   1      38.981  34.049  39.363  1.00  0.00     0.091 A 
ATOM     83  F   UNL A   1      38.665  31.989  38.203  1.00  0.00    -0.205 F 
ATOM     84  C   UNL A   1      39.557  35.329  39.404  1.00  0.00     0.022 A 
BRANCH  82  85
ATOM     85  S   UNL A   1      37.958  33.569  40.758  1.00  0.00     0.127 S 
ATOM     86  O   UNL A   1      36.618  33.620  40.179  1.00  0.00    -0.237 OA
ATOM     87  O   UNL A   1      38.456  32.223  41.045  1.00  0.00    -0.237 OA
ATOM     88  O   UNL A   1      38.231  34.547  41.803  1.00  0.00    -0.744 OA
ENDBRANCH  82  85
ENDBRANCH  54  78
BRANCH  66  89
ATOM     89  C   UNL A   1      44.425  28.709  35.351  1.00  0.00     0.023 A 
ATOM     90  C   UNL A   1      45.644  29.412  35.382  1.00  0.00     0.012 A 
ATOM     91  C   UNL A   1      44.306  27.496  36.058  1.00  0.00     0.148 A 
ATOM     92  C   UNL A   1      46.737  28.903  36.082  1.00  0.00     0.002 A 
ATOM     93  C   UNL A   1      45.380  27.022  36.799  1.00  0.00     0.091 A 
ATOM     94  F   UNL A   1      43.139  26.836  36.004  1.00  0.00    -0.205 F 
ATOM     95  C   UNL A   1      46.601  27.716  36.801  1.00  0.00     0.022 A 
BRANCH  93  96
ATOM     96  S   UNL A   1      45.266  25.562  37.838  1.00  0.00     0.127 S 
ATOM     97  O   UNL A   1      44.591  26.091  39.023  1.00  0.00    -0.237 OA
ATOM     98  O   UNL A   1      44.449  24.665  37.021  1.00  0.00    -0.237 OA
ATOM     99  O   UNL A   1      46.634  25.110  38.054  1.00  0.00    -0.744 OA
ENDBRANCH  93  96
ENDBRANCH  66  89
ENDBRANCH  40  41
ENDBRANCH  33  35
ENDBRANCH  32  33
ENDBRANCH  31  32
ENDBRANCH  30  31
ENDBRANCH  29  30
ENDBRANCH  28  29
ENDBRANCH  27  28
ENDBRANCH   1  27
TORSDOF 26
ENDMDL
MODEL 3
REMARK VINA RESULT:      -9.1      1.788      2.237
REMARK SMILES Cc1cc(C)cc(C[N@@H+]2CCO[C@@H](CC(=O)OCCOCCOCCOCCOC(=O)c3ccc(-c4c5nc(c(-c6cccc(S(=O)(=O)[O-])c6F)c6ccc([nH]6)c(-c6cccc(S(=O)(=O)[O-])c6F)c6nc(c(-c7cccc(S(=O)(=O)[O-])c7F)c7ccc4[nH]7)C=C6)C=C5)cc3)C2)c1
REMARK SMILES IDX 23 1 22 2 21 3 20 4 19 5 18 6 17 7 15 8 16 9 14 10 13 11
REMARK SMILES IDX 9 12 10 13 95 14 11 16 12 17 8 18 7 19 1 20 2 21 3 22 96 23
REMARK SMILES IDX 4 24 5 25 6 26 24 27 25 28 26 29 27 30 28 31 29 32 30 33
REMARK SMILES IDX 31 34 32 35 33 36 94 37 34 38 93 39 35 40 36 41 37 42 87 43
REMARK SMILES IDX 38 44 92 45 86 46 88 47 39 48 91 49 85 50 84 51 40 53 72 54
REMARK SMILES IDX 52 55 71 56 53 57 56 58 70 59 89 60 54 61 55 62 69 64 90 65
REMARK SMILES IDX 57 66 41 67 42 68 50 69 43 70 45 71 51 72 44 73 46 74 47 75
REMARK SMILES IDX 48 76 49 77 73 78 74 79 82 80 75 81 77 82 83 83 76 84 78 85
REMARK SMILES IDX 79 86 80 87 81 88 58 89 59 90 67 91 60 92 62 93 68 94 61 95
REMARK SMILES IDX 63 96 64 97 65 98 66 99
REMARK H PARENT 9 15 88 52 56 63
REMARK Flexibility Score: inf
ROOT
ATOM      1  O   UNL A   1      31.015  27.261  26.991  1.00  0.00    -0.377 OA
ENDROOT
BRANCH   1   2
ATOM      2  C   UNL A   1      31.406  26.002  26.492  1.00  0.00     0.188 C 
BRANCH   2   3
ATOM      3  C   UNL A   1      30.238  25.073  26.167  1.00  0.00     0.188 C 
BRANCH   3   4
ATOM      4  O   UNL A   1      30.404  23.692  26.445  1.00  0.00    -0.376 OA
BRANCH   4   5
ATOM      5  C   UNL A   1      31.739  23.185  26.516  1.00  0.00     0.202 C 
BRANCH   5   6
ATOM      6  C   UNL A   1      32.061  21.817  25.879  1.00  0.00     0.261 C 
BRANCH   6   7
ATOM      7  O   UNL A   1      32.235  21.795  24.437  1.00  0.00    -0.463 OA
BRANCH   7   8
ATOM      8  C   UNL A   1      33.494  22.009  23.998  1.00  0.00     0.308 C 
ATOM      9  O   UNL A   1      34.494  21.547  24.546  1.00  0.00    -0.252 OA
BRANCH   8  10
ATOM     10  C   UNL A   1      33.656  22.925  22.814  1.00  0.00     0.160 C 
BRANCH  10  11
ATOM     11  C   UNL A   1      32.831  24.161  22.452  1.00  0.00     0.184 C 
ATOM     12  N   UNL A   1      32.338  26.636  22.749  1.00  0.00    -0.327 N 
ATOM     13  C   UNL A   1      32.761  26.827  21.360  1.00  0.00     0.291 C 
ATOM     14  C   UNL A   1      32.964  25.425  23.328  1.00  0.00     0.295 C 
ATOM     15  H   UNL A   1      32.721  27.402  23.302  1.00  0.00     0.348 HD
ATOM     16  C   UNL A   1      32.684  25.561  20.497  1.00  0.00     0.222 C 
ATOM     17  O   UNL A   1      33.321  24.445  21.109  1.00  0.00    -0.366 OA
BRANCH  12  18
ATOM     18  C   UNL A   1      30.924  26.910  23.038  1.00  0.00     0.299 C 
BRANCH  18  19
ATOM     19  C   UNL A   1      30.497  28.358  23.204  1.00  0.00     0.007 A 
ATOM     20  C   UNL A   1      31.014  31.234  25.689  1.00  0.00     0.044 C 
ATOM     21  C   UNL A   1      30.510  30.411  24.541  1.00  0.00    -0.050 A 
ATOM     22  C   UNL A   1      29.464  30.910  23.767  1.00  0.00     0.006 A 
ATOM     23  C   UNL A   1      31.021  29.142  24.236  1.00  0.00     0.013 A 
ATOM     24  C   UNL A   1      28.962  30.175  22.690  1.00  0.00    -0.050 A 
ATOM     25  C   UNL A   1      27.755  30.678  21.958  1.00  0.00     0.044 C 
ATOM     26  C   UNL A   1      29.530  28.934  22.375  1.00  0.00     0.013 A 
ENDBRANCH  18  19
ENDBRANCH  12  18
ENDBRANCH  10  11
ENDBRANCH   8  10
ENDBRANCH   7   8
ENDBRANCH   6   7
ENDBRANCH   5   6
ENDBRANCH   4   5
ENDBRANCH   3   4
ENDBRANCH   2   3
ENDBRANCH   1   2
BRANCH   1  27
ATOM     27  C   UNL A   1      31.934  27.962  27.819  1.00  0.00     0.188 C 
BRANCH  27  28
ATOM     28  C   UNL A   1      33.313  28.250  27.206  1.00  0.00     0.188 C 
BRANCH  28  29
ATOM     29  O   UNL A   1      33.594  29.501  26.587  1.00  0.00    -0.376 OA
BRANCH  29  30
ATOM     30  C   UNL A   1      34.439  30.479  27.165  1.00  0.00     0.202 C 
BRANCH  30  31
ATOM     31  C   UNL A   1      33.929  31.730  27.895  1.00  0.00     0.261 C 
BRANCH  31  32
ATOM     32  O   UNL A   1      34.924  32.554  28.492  1.00  0.00    -0.460 OA
BRANCH  32  33
ATOM     33  C   UNL A   1      35.176  32.258  29.788  1.00  0.00     0.338 C 
ATOM     34  O   UNL A   1      34.490  32.523  30.755  1.00  0.00    -0.246 OA
BRANCH  33  35
ATOM     35  C   UNL A   1      36.365  31.393  29.835  1.00  0.00     0.060 A 
ATOM     36  C   UNL A   1      36.345  30.302  30.711  1.00  0.00     0.016 A 
ATOM     37  C   UNL A   1      37.495  31.687  29.071  1.00  0.00     0.016 A 
ATOM     38  C   UNL A   1      37.478  29.517  30.859  1.00  0.00     0.010 A 
ATOM     39  C   UNL A   1      38.642  30.913  29.239  1.00  0.00     0.010 A 
ATOM     40  C   UNL A   1      38.645  29.856  30.166  1.00  0.00    -0.014 A 
BRANCH  40  41
ATOM     41  C   UNL A   1      39.919  29.240  30.581  1.00  0.00     0.031 A 
ATOM     42  C   UNL A   1      40.697  29.902  31.683  1.00  0.00     0.074 A 
ATOM     43  C   UNL A   1      40.351  28.108  30.003  1.00  0.00     0.049 A 
ATOM     44  N   UNL A   1      41.848  29.566  32.198  1.00  0.00    -0.248 NA
ATOM     45  C   UNL A   1      40.097  31.107  32.282  1.00  0.00     0.031 C 
ATOM     46  C   UNL A   1      39.654  27.383  28.942  1.00  0.00     0.029 A 
ATOM     47  N   UNL A   1      41.495  27.387  30.215  1.00  0.00    -0.354 N 
ATOM     48  C   UNL A   1      42.125  30.532  33.157  1.00  0.00     0.074 A 
ATOM     49  C   UNL A   1      41.029  31.474  33.147  1.00  0.00     0.031 C 
ATOM     50  C   UNL A   1      40.405  26.332  28.570  1.00  0.00     0.029 A 
ATOM     51  C   UNL A   1      41.643  26.332  29.346  1.00  0.00     0.049 A 
ATOM     52  H   UNL A   1      42.148  27.602  30.920  1.00  0.00     0.167 HD
ATOM     53  C   UNL A   1      43.196  30.619  33.978  1.00  0.00     0.034 A 
ATOM     54  C   UNL A   1      42.680  25.486  29.185  1.00  0.00     0.034 A 
ATOM     55  C   UNL A   1      44.272  29.668  33.981  1.00  0.00     0.049 A 
ATOM     56  C   UNL A   1      43.877  25.627  30.088  1.00  0.00     0.074 A 
ATOM     57  C   UNL A   1      45.388  29.635  34.797  1.00  0.00     0.029 A 
ATOM     58  N   UNL A   1      44.376  28.592  33.111  1.00  0.00    -0.354 N 
ATOM     59  N   UNL A   1      44.082  26.482  31.063  1.00  0.00    -0.248 NA
ATOM     60  C   UNL A   1      44.973  24.667  29.893  1.00  0.00     0.031 C 
ATOM     61  C   UNL A   1      46.187  28.561  34.393  1.00  0.00     0.029 A 
ATOM     62  C   UNL A   1      45.545  27.897  33.358  1.00  0.00     0.049 A 
ATOM     63  H   UNL A   1      43.714  28.358  32.421  1.00  0.00     0.167 HD
ATOM     64  C   UNL A   1      45.308  26.138  31.622  1.00  0.00     0.074 A 
ATOM     65  C   UNL A   1      45.792  24.987  30.885  1.00  0.00     0.031 C 
ATOM     66  C   UNL A   1      45.978  26.723  32.645  1.00  0.00     0.034 A 
BRANCH  53  67
ATOM     67  C   UNL A   1      43.252  31.777  34.939  1.00  0.00     0.023 A 
ATOM     68  C   UNL A   1      43.796  33.010  34.525  1.00  0.00     0.012 A 
ATOM     69  C   UNL A   1      42.725  31.654  36.239  1.00  0.00     0.148 A 
ATOM     70  C   UNL A   1      43.843  34.094  35.401  1.00  0.00     0.002 A 
ATOM     71  C   UNL A   1      42.732  32.752  37.090  1.00  0.00     0.091 A 
ATOM     72  F   UNL A   1      42.238  30.465  36.621  1.00  0.00    -0.205 F 
ATOM     73  C   UNL A   1      43.302  33.967  36.679  1.00  0.00     0.022 A 
BRANCH  71  74
ATOM     74  S   UNL A   1      41.991  32.714  38.725  1.00  0.00     0.127 S 
ATOM     75  O   UNL A   1      42.415  34.003  39.272  1.00  0.00    -0.237 OA
ATOM     76  O   UNL A   1      40.565  32.625  38.412  1.00  0.00    -0.237 OA
ATOM     77  O   UNL A   1      42.543  31.544  39.393  1.00  0.00    -0.744 OA
ENDBRANCH  71  74
ENDBRANCH  53  67
BRANCH  54  78
ATOM     78  C   UNL A   1      42.621  24.427  28.140  1.00  0.00     0.023 A 
ATOM     79  C   UNL A   1      41.582  23.477  28.167  1.00  0.00     0.012 A 
ATOM     80  C   UNL A   1      43.584  24.363  27.114  1.00  0.00     0.148 A 
ATOM     81  C   UNL A   1      41.523  22.462  27.211  1.00  0.00     0.002 A 
ATOM     82  C   UNL A   1      43.488  23.384  26.133  1.00  0.00     0.091 A 
ATOM     83  F   UNL A   1      44.571  25.270  27.114  1.00  0.00    -0.205 F 
ATOM     84  C   UNL A   1      42.469  22.420  26.190  1.00  0.00     0.022 A 
BRANCH  82  85
ATOM     85  S   UNL A   1      44.587  23.328  24.715  1.00  0.00     0.127 S 
ATOM     86  O   UNL A   1      44.671  24.739  24.345  1.00  0.00    -0.237 OA
ATOM     87  O   UNL A   1      45.806  22.770  25.303  1.00  0.00    -0.237 OA
ATOM     88  O   UNL A   1      43.935  22.459  23.744  1.00  0.00    -0.744 OA
ENDBRANCH  82  85
ENDBRANCH  54  78
BRANCH  66  89
ATOM     89  C   UNL A   1      47.283  26.104  33.073  1.00  0.00     0.023 A 
ATOM     90  C   UNL A   1      48.500  26.611  32.583  1.00  0.00     0.012 A 
ATOM     91  C   UNL A   1      47.296  25.078  34.040  1.00  0.00     0.148 A 
ATOM     92  C   UNL A   1      49.714  26.087  33.026  1.00  0.00     0.002 A 
ATOM     93  C   UNL A   1      48.509  24.600  34.518  1.00  0.00     0.091 A 
ATOM     94  F   UNL A   1      46.123  24.602  34.483  1.00  0.00    -0.205 F 
ATOM     95  C   UNL A   1      49.719  25.092  34.003  1.00  0.00     0.022 A 
BRANCH  93  96
ATOM     96  S   UNL A   1      48.613  23.397  35.847  1.00  0.00     0.127 S 
ATOM     97  O   UNL A   1      47.554  23.854  36.747  1.00  0.00    -0.237 OA
ATOM     98  O   UNL A   1      48.324  22.143  35.152  1.00  0.00    -0.237 OA
ATOM     99  O   UNL A   1      49.966  23.497  36.380  1.00  0.00    -0.744 OA
ENDBRANCH  93  96
ENDBRANCH  66  89
ENDBRANCH  40  41
ENDBRANCH  33  35
ENDBRANCH  32  33
ENDBRANCH  31  32
ENDBRANCH  30  31
ENDBRANCH  29  30
ENDBRANCH  28  29
ENDBRANCH  27  28
ENDBRANCH   1  27
TORSDOF 26
ENDMDL
