MODEL 1
REMARK VINA RESULT:      -8.3      0.000      0.000
REMARK SMILES COc1ccc(C)cc1[C@@H](C)NC(=O)CC1(C(=O)OCCOCCOCCOCCOC(=O)c2ccc(-c3c4nc(c(-c5cccc(S(=O)(=O)[O-])c5F)c5ccc([nH]5)c(-c5cccc(S(=O)(=O)[O-])c5F)c5nc(c(-c6cccc(S(=O)(=O)[O-])c6F)c6ccc3[nH]6)C=C5)C=C4)cc2)CCCC1
REMARK SMILES IDX 24 1 23 2 22 3 21 4 20 5 19 6 17 7 18 8 16 9 97 10 100 11
REMARK SMILES IDX 98 12 99 13 15 14 13 15 12 16 14 18 10 19 11 20 9 21 3 22
REMARK SMILES IDX 4 23 5 24 8 25 6 26 7 27 2 28 1 29 25 30 26 31 27 32 28 33
REMARK SMILES IDX 29 34 30 35 31 36 32 37 33 38 34 39 35 40 96 41 36 42 95 43
REMARK SMILES IDX 37 44 38 45 39 46 89 47 40 48 94 49 88 50 90 51 41 52 93 53
REMARK SMILES IDX 87 54 86 55 42 57 74 58 54 59 73 60 55 61 58 62 72 63 91 64
REMARK SMILES IDX 56 65 57 66 71 68 92 69 59 70 43 71 44 72 52 73 45 74 47 75
REMARK SMILES IDX 53 76 46 77 48 78 49 79 50 80 51 81 75 82 76 83 84 84 77 85
REMARK SMILES IDX 79 86 85 87 78 88 80 89 81 90 82 91 83 92 60 93 61 94 69 95
REMARK SMILES IDX 62 96 64 97 70 98 63 99 65 100 66 101 67 102 68 103
REMARK H PARENT 12 17 90 56 58 67
REMARK Flexibility Score: inf
ROOT
ATOM      1  C   UNL A   1      37.595  33.450  36.560  1.00  0.00     0.188 C 
ENDROOT
BRANCH   1   2
ATOM      2  C   UNL A   1      38.959  33.174  37.136  1.00  0.00     0.188 C 
BRANCH   2   3
ATOM      3  O   UNL A   1      38.949  32.778  38.479  1.00  0.00    -0.376 OA
BRANCH   3   4
ATOM      4  C   UNL A   1      40.183  32.959  39.124  1.00  0.00     0.202 C 
BRANCH   4   5
ATOM      5  C   UNL A   1      40.176  32.795  40.617  1.00  0.00     0.261 C 
BRANCH   5   6
ATOM      6  O   UNL A   1      39.412  31.690  41.084  1.00  0.00    -0.463 OA
BRANCH   6   7
ATOM      7  C   UNL A   1      39.425  31.556  42.407  1.00  0.00     0.312 C 
ATOM      8  O   UNL A   1      40.428  31.529  43.112  1.00  0.00    -0.252 OA
BRANCH   7   9
ATOM      9  C   UNL A   1      38.018  31.472  42.977  1.00  0.00     0.077 C 
ATOM     10  C   UNL A   1      37.125  31.940  41.814  1.00  0.00     0.019 C 
ATOM     11  C   UNL A   1      37.628  32.429  44.102  1.00  0.00     0.019 C 
ATOM     12  C   UNL A   1      36.801  33.420  42.093  1.00  0.00     0.001 C 
ATOM     13  C   UNL A   1      36.733  33.537  43.591  1.00  0.00     0.001 C 
BRANCH   9  14
ATOM     14  C   UNL A   1      38.032  29.997  43.460  1.00  0.00     0.118 C 
BRANCH  14  15
ATOM     15  C   UNL A   1      38.323  29.625  44.904  1.00  0.00     0.221 C 
ATOM     16  N   UNL A   1      37.374  29.373  45.854  1.00  0.00    -0.349 N 
ATOM     17  H   UNL A   1      37.745  28.968  46.671  1.00  0.00     0.164 HD
ATOM     18  O   UNL A   1      39.501  29.589  45.280  1.00  0.00    -0.275 OA
BRANCH  16  19
ATOM     19  C   UNL A   1      35.902  29.578  45.925  1.00  0.00     0.113 C 
ATOM     20  C   UNL A   1      35.754  31.097  46.219  1.00  0.00     0.036 C 
BRANCH  19  21
ATOM     21  C   UNL A   1      35.221  28.565  46.879  1.00  0.00     0.016 A 
ATOM     22  C   UNL A   1      35.594  28.365  48.238  1.00  0.00     0.124 A 
ATOM     23  C   UNL A   1      34.746  27.740  49.160  1.00  0.00     0.047 A 
ATOM     24  C   UNL A   1      33.768  26.902  48.686  1.00  0.00     0.007 A 
ATOM     25  C   UNL A   1      34.184  27.739  46.435  1.00  0.00     0.013 A 
ATOM     26  C   UNL A   1      33.554  26.825  47.311  1.00  0.00    -0.051 A 
ATOM     27  C   UNL A   1      32.707  25.713  46.782  1.00  0.00     0.044 C 
BRANCH  22  28
ATOM     28  O   UNL A   1      36.892  28.570  48.654  1.00  0.00    -0.496 OA
ATOM     29  C   UNL A   1      37.002  29.678  49.582  1.00  0.00     0.278 C 
ENDBRANCH  22  28
ENDBRANCH  19  21
ENDBRANCH  16  19
ENDBRANCH  14  15
ENDBRANCH   9  14
ENDBRANCH   7   9
ENDBRANCH   6   7
ENDBRANCH   5   6
ENDBRANCH   4   5
ENDBRANCH   3   4
ENDBRANCH   2   3
ENDBRANCH   1   2
BRANCH   1  30
ATOM     30  O   UNL A   1      37.037  32.408  35.825  1.00  0.00    -0.377 OA
BRANCH  30  31
ATOM     31  C   UNL A   1      37.640  32.398  34.558  1.00  0.00     0.188 C 
BRANCH  31  32
ATOM     32  C   UNL A   1      36.474  32.478  33.541  1.00  0.00     0.188 C 
BRANCH  32  33
ATOM     33  O   UNL A   1      35.320  33.116  34.061  1.00  0.00    -0.376 OA
BRANCH  33  34
ATOM     34  C   UNL A   1      34.333  33.132  33.051  1.00  0.00     0.202 C 
BRANCH  34  35
ATOM     35  C   UNL A   1      34.808  33.709  31.640  1.00  0.00     0.261 C 
BRANCH  35  36
ATOM     36  O   UNL A   1      34.881  32.842  30.298  1.00  0.00    -0.460 OA
BRANCH  36  37
ATOM     37  C   UNL A   1      35.473  32.446  29.082  1.00  0.00     0.338 C 
ATOM     38  O   UNL A   1      35.006  32.815  28.043  1.00  0.00    -0.246 OA
BRANCH  37  39
ATOM     39  C   UNL A   1      36.260  31.063  28.994  1.00  0.00     0.060 A 
ATOM     40  C   UNL A   1      36.220  30.120  30.025  1.00  0.00     0.016 A 
ATOM     41  C   UNL A   1      37.004  30.563  27.954  1.00  0.00     0.016 A 
ATOM     42  C   UNL A   1      37.305  29.209  30.236  1.00  0.00     0.010 A 
ATOM     43  C   UNL A   1      38.190  29.877  28.249  1.00  0.00     0.010 A 
ATOM     44  C   UNL A   1      38.460  29.375  29.513  1.00  0.00    -0.014 A 
BRANCH  44  45
ATOM     45  C   UNL A   1      39.891  29.023  29.854  1.00  0.00     0.031 A 
ATOM     46  C   UNL A   1      40.256  27.519  29.545  1.00  0.00     0.074 A 
ATOM     47  C   UNL A   1      40.737  30.124  29.802  1.00  0.00     0.049 A 
ATOM     48  N   UNL A   1      41.404  26.905  29.595  1.00  0.00    -0.248 NA
ATOM     49  C   UNL A   1      39.219  26.570  29.080  1.00  0.00     0.031 C 
ATOM     50  C   UNL A   1      41.941  30.409  29.031  1.00  0.00     0.029 A 
ATOM     51  N   UNL A   1      40.752  31.267  30.605  1.00  0.00    -0.354 N 
ATOM     52  C   UNL A   1      41.320  25.668  28.865  1.00  0.00     0.074 A 
ATOM     53  C   UNL A   1      39.911  25.529  28.598  1.00  0.00     0.031 C 
ATOM     54  C   UNL A   1      42.763  31.305  29.573  1.00  0.00     0.029 A 
ATOM     55  C   UNL A   1      42.057  31.808  30.689  1.00  0.00     0.049 A 
ATOM     56  H   UNL A   1      39.961  31.645  31.053  1.00  0.00     0.167 HD
ATOM     57  C   UNL A   1      42.445  25.019  28.366  1.00  0.00     0.034 A 
ATOM     58  C   UNL A   1      42.714  32.117  31.823  1.00  0.00     0.034 A 
ATOM     59  C   UNL A   1      43.690  25.698  28.841  1.00  0.00     0.049 A 
ATOM     60  C   UNL A   1      43.645  30.925  32.175  1.00  0.00     0.074 A 
ATOM     61  C   UNL A   1      44.891  26.139  28.285  1.00  0.00     0.029 A 
ATOM     62  N   UNL A   1      43.713  26.204  30.137  1.00  0.00    -0.354 N 
ATOM     63  N   UNL A   1      43.712  29.789  31.485  1.00  0.00    -0.248 NA
ATOM     64  C   UNL A   1      44.680  30.965  33.208  1.00  0.00     0.031 C 
ATOM     65  C   UNL A   1      45.466  27.116  29.159  1.00  0.00     0.029 A 
ATOM     66  C   UNL A   1      44.694  27.161  30.308  1.00  0.00     0.049 A 
ATOM     67  H   UNL A   1      43.099  25.914  30.850  1.00  0.00     0.167 HD
ATOM     68  C   UNL A   1      44.673  28.951  32.009  1.00  0.00     0.074 A 
ATOM     69  C   UNL A   1      45.285  29.774  33.041  1.00  0.00     0.031 C 
ATOM     70  C   UNL A   1      44.961  27.655  31.639  1.00  0.00     0.034 A 
BRANCH  57  71
ATOM     71  C   UNL A   1      42.554  23.845  27.282  1.00  0.00     0.023 A 
ATOM     72  C   UNL A   1      43.271  24.147  26.087  1.00  0.00     0.012 A 
ATOM     73  C   UNL A   1      42.085  22.498  27.312  1.00  0.00     0.148 A 
ATOM     74  C   UNL A   1      43.505  23.268  25.018  1.00  0.00     0.002 A 
ATOM     75  C   UNL A   1      42.359  21.583  26.248  1.00  0.00     0.091 A 
ATOM     76  F   UNL A   1      41.397  22.058  28.369  1.00  0.00    -0.205 F 
ATOM     77  C   UNL A   1      43.063  21.972  25.105  1.00  0.00     0.022 A 
BRANCH  75  78
ATOM     78  S   UNL A   1      41.893  19.830  26.235  1.00  0.00     0.127 S 
ATOM     79  O   UNL A   1      40.445  19.886  26.017  1.00  0.00    -0.237 OA
ATOM     80  O   UNL A   1      42.644  19.314  25.089  1.00  0.00    -0.237 OA
ATOM     81  O   UNL A   1      42.285  19.295  27.531  1.00  0.00    -0.744 OA
ENDBRANCH  75  78
ENDBRANCH  57  71
BRANCH  58  82
ATOM     82  C   UNL A   1      41.931  33.241  32.477  1.00  0.00     0.023 A 
ATOM     83  C   UNL A   1      41.478  32.929  33.813  1.00  0.00     0.012 A 
ATOM     84  C   UNL A   1      42.440  34.534  32.278  1.00  0.00     0.148 A 
ATOM     85  C   UNL A   1      41.778  33.745  34.924  1.00  0.00     0.002 A 
ATOM     86  C   UNL A   1      42.845  35.274  33.403  1.00  0.00     0.091 A 
ATOM     87  F   UNL A   1      42.829  34.861  31.039  1.00  0.00    -0.205 F 
ATOM     88  C   UNL A   1      42.516  34.893  34.720  1.00  0.00     0.022 A 
BRANCH  86  89
ATOM     89  S   UNL A   1      44.421  36.139  33.333  1.00  0.00     0.127 S 
ATOM     90  O   UNL A   1      44.223  37.161  32.316  1.00  0.00    -0.237 OA
ATOM     91  O   UNL A   1      44.435  36.623  34.719  1.00  0.00    -0.237 OA
ATOM     92  O   UNL A   1      45.400  35.117  33.002  1.00  0.00    -0.744 OA
ENDBRANCH  86  89
ENDBRANCH  58  82
BRANCH  70  93
ATOM     93  C   UNL A   1      45.529  26.594  32.586  1.00  0.00     0.023 A 
ATOM     94  C   UNL A   1      46.906  26.519  32.825  1.00  0.00     0.012 A 
ATOM     95  C   UNL A   1      44.692  25.814  33.448  1.00  0.00     0.148 A 
ATOM     96  C   UNL A   1      47.439  25.663  33.786  1.00  0.00     0.002 A 
ATOM     97  C   UNL A   1      45.219  25.095  34.508  1.00  0.00     0.091 A 
ATOM     98  F   UNL A   1      43.369  25.740  33.253  1.00  0.00    -0.205 F 
ATOM     99  C   UNL A   1      46.597  24.974  34.647  1.00  0.00     0.022 A 
BRANCH  97 100
ATOM    100  S   UNL A   1      44.183  24.432  35.825  1.00  0.00     0.127 S 
ATOM    101  O   UNL A   1      43.511  23.329  35.141  1.00  0.00    -0.237 OA
ATOM    102  O   UNL A   1      45.183  24.020  36.812  1.00  0.00    -0.237 OA
ATOM    103  O   UNL A   1      43.329  25.526  36.259  1.00  0.00    -0.744 OA
ENDBRANCH  97 100
ENDBRANCH  70  93
ENDBRANCH  44  45
ENDBRANCH  37  39
ENDBRANCH  36  37
ENDBRANCH  35  36
ENDBRANCH  34  35
ENDBRANCH  33  34
ENDBRANCH  32  33
ENDBRANCH  31  32
ENDBRANCH  30  31
ENDBRANCH   1  30
TORSDOF 28
ENDMDL
MODEL 2
REMARK VINA RESULT:      -8.0      7.290     13.483
REMARK SMILES COc1ccc(C)cc1[C@@H](C)NC(=O)CC1(C(=O)OCCOCCOCCOCCOC(=O)c2ccc(-c3c4nc(c(-c5cccc(S(=O)(=O)[O-])c5F)c5ccc([nH]5)c(-c5cccc(S(=O)(=O)[O-])c5F)c5nc(c(-c6cccc(S(=O)(=O)[O-])c6F)c6ccc3[nH]6)C=C5)C=C4)cc2)CCCC1
REMARK SMILES IDX 24 1 23 2 22 3 21 4 20 5 19 6 17 7 18 8 16 9 97 10 100 11
REMARK SMILES IDX 98 12 99 13 15 14 13 15 12 16 14 18 10 19 11 20 9 21 3 22
REMARK SMILES IDX 4 23 5 24 8 25 6 26 7 27 2 28 1 29 25 30 26 31 27 32 28 33
REMARK SMILES IDX 29 34 30 35 31 36 32 37 33 38 34 39 35 40 96 41 36 42 95 43
REMARK SMILES IDX 37 44 38 45 39 46 89 47 40 48 94 49 88 50 90 51 41 52 93 53
REMARK SMILES IDX 87 54 86 55 42 57 74 58 54 59 73 60 55 61 58 62 72 63 91 64
REMARK SMILES IDX 56 65 57 66 71 68 92 69 59 70 43 71 44 72 52 73 45 74 47 75
REMARK SMILES IDX 53 76 46 77 48 78 49 79 50 80 51 81 75 82 76 83 84 84 77 85
REMARK SMILES IDX 79 86 85 87 78 88 80 89 81 90 82 91 83 92 60 93 61 94 69 95
REMARK SMILES IDX 62 96 64 97 70 98 63 99 65 100 66 101 67 102 68 103
REMARK H PARENT 12 17 90 56 58 67
REMARK Flexibility Score: inf
ROOT
ATOM      1  C   UNL A   1      34.936  31.280  28.555  1.00  0.00     0.188 C 
ENDROOT
BRANCH   1   2
ATOM      2  C   UNL A   1      34.271  30.852  27.273  1.00  0.00     0.188 C 
BRANCH   2   3
ATOM      3  O   UNL A   1      33.124  30.069  27.451  1.00  0.00    -0.376 OA
BRANCH   3   4
ATOM      4  C   UNL A   1      33.375  28.689  27.384  1.00  0.00     0.202 C 
BRANCH   4   5
ATOM      5  C   UNL A   1      32.569  27.921  26.376  1.00  0.00     0.261 C 
BRANCH   5   6
ATOM      6  O   UNL A   1      32.380  26.548  26.697  1.00  0.00    -0.463 OA
BRANCH   6   7
ATOM      7  C   UNL A   1      32.815  25.716  25.755  1.00  0.00     0.312 C 
ATOM      8  O   UNL A   1      33.991  25.509  25.474  1.00  0.00    -0.252 OA
BRANCH   7   9
ATOM      9  C   UNL A   1      31.667  24.998  25.065  1.00  0.00     0.077 C 
ATOM     10  C   UNL A   1      31.563  25.702  23.700  1.00  0.00     0.019 C 
ATOM     11  C   UNL A   1      30.258  25.160  25.632  1.00  0.00     0.019 C 
ATOM     12  C   UNL A   1      30.417  26.723  23.833  1.00  0.00     0.001 C 
ATOM     13  C   UNL A   1      29.429  26.091  24.774  1.00  0.00     0.001 C 
BRANCH   9  14
ATOM     14  C   UNL A   1      32.173  23.536  25.198  1.00  0.00     0.118 C 
BRANCH  14  15
ATOM     15  C   UNL A   1      31.865  22.480  24.150  1.00  0.00     0.221 C 
ATOM     16  N   UNL A   1      32.025  21.134  24.324  1.00  0.00    -0.349 N 
ATOM     17  H   UNL A   1      31.601  20.601  23.613  1.00  0.00     0.164 HD
ATOM     18  O   UNL A   1      31.486  22.849  23.031  1.00  0.00    -0.275 OA
BRANCH  16  19
ATOM     19  C   UNL A   1      32.701  20.297  25.352  1.00  0.00     0.113 C 
ATOM     20  C   UNL A   1      33.970  21.115  25.718  1.00  0.00     0.036 C 
BRANCH  19  21
ATOM     21  C   UNL A   1      32.869  18.830  24.886  1.00  0.00     0.016 A 
ATOM     22  C   UNL A   1      33.162  18.439  23.549  1.00  0.00     0.124 A 
ATOM     23  C   UNL A   1      33.671  17.173  23.236  1.00  0.00     0.047 A 
ATOM     24  C   UNL A   1      33.452  16.144  24.118  1.00  0.00     0.007 A 
ATOM     25  C   UNL A   1      32.706  17.765  25.778  1.00  0.00     0.013 A 
ATOM     26  C   UNL A   1      32.875  16.426  25.354  1.00  0.00    -0.051 A 
ATOM     27  C   UNL A   1      32.371  15.290  26.184  1.00  0.00     0.044 C 
BRANCH  22  28
ATOM     28  O   UNL A   1      32.747  19.204  22.480  1.00  0.00    -0.496 OA
ATOM     29  C   UNL A   1      32.009  18.428  21.505  1.00  0.00     0.278 C 
ENDBRANCH  22  28
ENDBRANCH  19  21
ENDBRANCH  16  19
ENDBRANCH  14  15
ENDBRANCH   9  14
ENDBRANCH   7   9
ENDBRANCH   6   7
ENDBRANCH   5   6
ENDBRANCH   4   5
ENDBRANCH   3   4
ENDBRANCH   2   3
ENDBRANCH   1   2
BRANCH   1  30
ATOM     30  O   UNL A   1      36.071  30.557  28.909  1.00  0.00    -0.377 OA
BRANCH  30  31
ATOM     31  C   UNL A   1      36.727  30.174  27.729  1.00  0.00     0.188 C 
BRANCH  31  32
ATOM     32  C   UNL A   1      37.773  29.115  28.161  1.00  0.00     0.188 C 
BRANCH  32  33
ATOM     33  O   UNL A   1      38.053  29.138  29.550  1.00  0.00    -0.376 OA
BRANCH  33  34
ATOM     34  C   UNL A   1      38.982  28.111  29.829  1.00  0.00     0.202 C 
BRANCH  34  35
ATOM     35  C   UNL A   1      40.311  28.578  30.582  1.00  0.00     0.261 C 
BRANCH  35  36
ATOM     36  O   UNL A   1      40.643  28.227  32.107  1.00  0.00    -0.460 OA
BRANCH  36  37
ATOM     37  C   UNL A   1      40.663  28.502  33.489  1.00  0.00     0.338 C 
ATOM     38  O   UNL A   1      39.775  29.135  33.984  1.00  0.00    -0.246 OA
BRANCH  37  39
ATOM     39  C   UNL A   1      42.054  28.608  34.259  1.00  0.00     0.060 A 
ATOM     40  C   UNL A   1      42.935  29.674  34.054  1.00  0.00     0.016 A 
ATOM     41  C   UNL A   1      42.566  27.779  35.225  1.00  0.00     0.016 A 
ATOM     42  C   UNL A   1      44.345  29.516  34.249  1.00  0.00     0.010 A 
ATOM     43  C   UNL A   1      43.938  27.489  35.200  1.00  0.00     0.010 A 
ATOM     44  C   UNL A   1      44.844  28.259  34.489  1.00  0.00    -0.014 A 
BRANCH  44  45
ATOM     45  C   UNL A   1      46.200  27.665  34.177  1.00  0.00     0.031 A 
ATOM     46  C   UNL A   1      46.224  26.831  32.837  1.00  0.00     0.074 A 
ATOM     47  C   UNL A   1      47.242  28.394  34.736  1.00  0.00     0.049 A 
ATOM     48  N   UNL A   1      47.224  26.289  32.202  1.00  0.00    -0.248 NA
ATOM     49  C   UNL A   1      44.978  26.595  32.071  1.00  0.00     0.031 C 
ATOM     50  C   UNL A   1      48.404  29.059  34.157  1.00  0.00     0.029 A 
ATOM     51  N   UNL A   1      47.561  28.594  36.080  1.00  0.00    -0.354 N 
ATOM     52  C   UNL A   1      46.826  25.977  30.855  1.00  0.00     0.074 A 
ATOM     53  C   UNL A   1      45.400  26.179  30.869  1.00  0.00     0.031 C 
ATOM     54  C   UNL A   1      49.435  29.219  34.983  1.00  0.00     0.029 A 
ATOM     55  C   UNL A   1      48.950  28.807  36.245  1.00  0.00     0.049 A 
ATOM     56  H   UNL A   1      46.907  28.587  36.816  1.00  0.00     0.167 HD
ATOM     57  C   UNL A   1      47.746  25.811  29.825  1.00  0.00     0.034 A 
ATOM     58  C   UNL A   1      49.757  28.148  37.098  1.00  0.00     0.034 A 
ATOM     59  C   UNL A   1      49.141  25.839  30.365  1.00  0.00     0.049 A 
ATOM     60  C   UNL A   1      50.456  27.008  36.310  1.00  0.00     0.074 A 
ATOM     61  C   UNL A   1      50.351  26.455  30.043  1.00  0.00     0.029 A 
ATOM     62  N   UNL A   1      49.383  25.246  31.600  1.00  0.00    -0.354 N 
ATOM     63  N   UNL A   1      50.229  26.725  35.030  1.00  0.00    -0.248 NA
ATOM     64  C   UNL A   1      51.568  26.210  36.828  1.00  0.00     0.031 C 
ATOM     65  C   UNL A   1      51.188  26.449  31.204  1.00  0.00     0.029 A 
ATOM     66  C   UNL A   1      50.549  25.704  32.182  1.00  0.00     0.049 A 
ATOM     67  H   UNL A   1      48.792  24.575  32.012  1.00  0.00     0.167 HD
ATOM     68  C   UNL A   1      51.045  25.700  34.601  1.00  0.00     0.074 A 
ATOM     69  C   UNL A   1      51.902  25.470  35.754  1.00  0.00     0.031 C 
ATOM     70  C   UNL A   1      51.030  25.058  33.381  1.00  0.00     0.034 A 
BRANCH  57  71
ATOM     71  C   UNL A   1      47.517  25.784  28.240  1.00  0.00     0.023 A 
ATOM     72  C   UNL A   1      46.906  24.611  27.706  1.00  0.00     0.012 A 
ATOM     73  C   UNL A   1      47.783  26.766  27.240  1.00  0.00     0.148 A 
ATOM     74  C   UNL A   1      46.596  24.382  26.356  1.00  0.00     0.002 A 
ATOM     75  C   UNL A   1      47.428  26.559  25.870  1.00  0.00     0.091 A 
ATOM     76  F   UNL A   1      48.352  27.925  27.582  1.00  0.00    -0.205 F 
ATOM     77  C   UNL A   1      46.841  25.367  25.434  1.00  0.00     0.022 A 
BRANCH  75  78
ATOM     78  S   UNL A   1      47.634  27.779  24.544  1.00  0.00     0.127 S 
ATOM     79  O   UNL A   1      46.746  28.865  24.968  1.00  0.00    -0.237 OA
ATOM     80  O   UNL A   1      49.058  28.107  24.638  1.00  0.00    -0.237 OA
ATOM     81  O   UNL A   1      47.226  27.115  23.314  1.00  0.00    -0.744 OA
ENDBRANCH  75  78
ENDBRANCH  57  71
BRANCH  58  82
ATOM     82  C   UNL A   1      49.280  28.503  38.495  1.00  0.00     0.023 A 
ATOM     83  C   UNL A   1      48.889  29.886  38.639  1.00  0.00     0.012 A 
ATOM     84  C   UNL A   1      48.453  27.554  39.116  1.00  0.00     0.148 A 
ATOM     85  C   UNL A   1      47.617  30.267  39.116  1.00  0.00     0.002 A 
ATOM     86  C   UNL A   1      47.146  27.934  39.469  1.00  0.00     0.091 A 
ATOM     87  F   UNL A   1      48.817  26.268  39.031  1.00  0.00    -0.205 F 
ATOM     88  C   UNL A   1      46.724  29.280  39.478  1.00  0.00     0.022 A 
BRANCH  86  89
ATOM     89  S   UNL A   1      45.795  26.814  39.072  1.00  0.00     0.127 S 
ATOM     90  O   UNL A   1      44.600  27.633  39.210  1.00  0.00    -0.237 OA
ATOM     91  O   UNL A   1      46.197  26.511  37.693  1.00  0.00    -0.237 OA
ATOM     92  O   UNL A   1      45.913  25.724  40.027  1.00  0.00    -0.744 OA
ENDBRANCH  86  89
ENDBRANCH  58  82
BRANCH  70  93
ATOM     93  C   UNL A   1      51.457  23.604  33.166  1.00  0.00     0.023 A 
ATOM     94  C   UNL A   1      52.744  23.301  32.708  1.00  0.00     0.012 A 
ATOM     95  C   UNL A   1      50.680  22.501  33.651  1.00  0.00     0.148 A 
ATOM     96  C   UNL A   1      53.209  21.989  32.640  1.00  0.00     0.002 A 
ATOM     97  C   UNL A   1      51.211  21.225  33.734  1.00  0.00     0.091 A 
ATOM     98  F   UNL A   1      49.405  22.662  34.028  1.00  0.00    -0.205 F 
ATOM     99  C   UNL A   1      52.457  20.955  33.179  1.00  0.00     0.022 A 
BRANCH  97 100
ATOM    100  S   UNL A   1      50.416  19.917  34.683  1.00  0.00     0.127 S 
ATOM    101  O   UNL A   1      49.259  19.609  33.845  1.00  0.00    -0.237 OA
ATOM    102  O   UNL A   1      51.454  18.884  34.695  1.00  0.00    -0.237 OA
ATOM    103  O   UNL A   1      50.123  20.485  35.990  1.00  0.00    -0.744 OA
ENDBRANCH  97 100
ENDBRANCH  70  93
ENDBRANCH  44  45
ENDBRANCH  37  39
ENDBRANCH  36  37
ENDBRANCH  35  36
ENDBRANCH  34  35
ENDBRANCH  33  34
ENDBRANCH  32  33
ENDBRANCH  31  32
ENDBRANCH  30  31
ENDBRANCH   1  30
TORSDOF 28
ENDMDL
MODEL 3
REMARK VINA RESULT:      -7.9      5.836     10.464
REMARK SMILES COc1ccc(C)cc1[C@@H](C)NC(=O)CC1(C(=O)OCCOCCOCCOCCOC(=O)c2ccc(-c3c4nc(c(-c5cccc(S(=O)(=O)[O-])c5F)c5ccc([nH]5)c(-c5cccc(S(=O)(=O)[O-])c5F)c5nc(c(-c6cccc(S(=O)(=O)[O-])c6F)c6ccc3[nH]6)C=C5)C=C4)cc2)CCCC1
REMARK SMILES IDX 24 1 23 2 22 3 21 4 20 5 19 6 17 7 18 8 16 9 97 10 100 11
REMARK SMILES IDX 98 12 99 13 15 14 13 15 12 16 14 18 10 19 11 20 9 21 3 22
REMARK SMILES IDX 4 23 5 24 8 25 6 26 7 27 2 28 1 29 25 30 26 31 27 32 28 33
REMARK SMILES IDX 29 34 30 35 31 36 32 37 33 38 34 39 35 40 96 41 36 42 95 43
REMARK SMILES IDX 37 44 38 45 39 46 89 47 40 48 94 49 88 50 90 51 41 52 93 53
REMARK SMILES IDX 87 54 86 55 42 57 74 58 54 59 73 60 55 61 58 62 72 63 91 64
REMARK SMILES IDX 56 65 57 66 71 68 92 69 59 70 43 71 44 72 52 73 45 74 47 75
REMARK SMILES IDX 53 76 46 77 48 78 49 79 50 80 51 81 75 82 76 83 84 84 77 85
REMARK SMILES IDX 79 86 85 87 78 88 80 89 81 90 82 91 83 92 60 93 61 94 69 95
REMARK SMILES IDX 62 96 64 97 70 98 63 99 65 100 66 101 67 102 68 103
REMARK H PARENT 12 17 90 56 58 67
REMARK Flexibility Score: inf
ROOT
ATOM      1  C   UNL A   1      33.293  34.959  28.481  1.00  0.00     0.188 C 
ENDROOT
BRANCH   1   2
ATOM      2  C   UNL A   1      33.193  34.695  29.960  1.00  0.00     0.188 C 
BRANCH   2   3
ATOM      3  O   UNL A   1      34.026  35.498  30.748  1.00  0.00    -0.376 OA
BRANCH   3   4
ATOM      4  C   UNL A   1      34.774  34.772  31.689  1.00  0.00     0.202 C 
BRANCH   4   5
ATOM      5  C   UNL A   1      34.862  35.370  33.064  1.00  0.00     0.261 C 
BRANCH   5   6
ATOM      6  O   UNL A   1      36.071  35.080  33.755  1.00  0.00    -0.463 OA
BRANCH   6   7
ATOM      7  C   UNL A   1      36.193  33.802  34.102  1.00  0.00     0.312 C 
ATOM      8  O   UNL A   1      35.288  33.086  34.517  1.00  0.00    -0.252 OA
BRANCH   7   9
ATOM      9  C   UNL A   1      37.609  33.294  33.888  1.00  0.00     0.077 C 
ATOM     10  C   UNL A   1      38.404  34.565  33.537  1.00  0.00     0.019 C 
ATOM     11  C   UNL A   1      37.887  32.387  32.690  1.00  0.00     0.019 C 
ATOM     12  C   UNL A   1      38.524  34.582  32.001  1.00  0.00     0.001 C 
ATOM     13  C   UNL A   1      38.607  33.138  31.593  1.00  0.00     0.001 C 
BRANCH   9  14
ATOM     14  C   UNL A   1      37.811  32.544  35.232  1.00  0.00     0.118 C 
BRANCH  14  15
ATOM     15  C   UNL A   1      38.178  33.275  36.513  1.00  0.00     0.221 C 
ATOM     16  N   UNL A   1      39.427  33.308  37.065  1.00  0.00    -0.349 N 
ATOM     17  H   UNL A   1      39.514  33.978  37.781  1.00  0.00     0.164 HD
ATOM     18  O   UNL A   1      37.282  33.849  37.145  1.00  0.00    -0.275 OA
BRANCH  16  19
ATOM     19  C   UNL A   1      40.685  32.552  36.822  1.00  0.00     0.113 C 
ATOM     20  C   UNL A   1      41.565  32.891  38.057  1.00  0.00     0.036 C 
BRANCH  19  21
ATOM     21  C   UNL A   1      41.256  32.816  35.407  1.00  0.00     0.016 A 
ATOM     22  C   UNL A   1      41.551  31.799  34.456  1.00  0.00     0.124 A 
ATOM     23  C   UNL A   1      41.700  32.073  33.091  1.00  0.00     0.047 A 
ATOM     24  C   UNL A   1      42.035  33.349  32.714  1.00  0.00     0.007 A 
ATOM     25  C   UNL A   1      41.553  34.113  34.977  1.00  0.00     0.013 A 
ATOM     26  C   UNL A   1      42.059  34.354  33.679  1.00  0.00    -0.051 A 
ATOM     27  C   UNL A   1      42.699  35.659  33.334  1.00  0.00     0.044 C 
BRANCH  22  28
ATOM     28  O   UNL A   1      41.927  30.536  34.863  1.00  0.00    -0.496 OA
ATOM     29  C   UNL A   1      40.818  29.786  35.416  1.00  0.00     0.278 C 
ENDBRANCH  22  28
ENDBRANCH  19  21
ENDBRANCH  16  19
ENDBRANCH  14  15
ENDBRANCH   9  14
ENDBRANCH   7   9
ENDBRANCH   6   7
ENDBRANCH   5   6
ENDBRANCH   4   5
ENDBRANCH   3   4
ENDBRANCH   2   3
ENDBRANCH   1   2
BRANCH   1  30
ATOM     30  O   UNL A   1      33.844  33.928  27.727  1.00  0.00    -0.377 OA
BRANCH  30  31
ATOM     31  C   UNL A   1      34.032  32.824  28.573  1.00  0.00     0.188 C 
BRANCH  31  32
ATOM     32  C   UNL A   1      34.363  31.634  27.636  1.00  0.00     0.188 C 
BRANCH  32  33
ATOM     33  O   UNL A   1      35.390  30.796  28.138  1.00  0.00    -0.376 OA
BRANCH  33  34
ATOM     34  C   UNL A   1      35.906  31.386  29.313  1.00  0.00     0.202 C 
BRANCH  34  35
ATOM     35  C   UNL A   1      36.048  30.404  30.565  1.00  0.00     0.261 C 
BRANCH  35  36
ATOM     36  O   UNL A   1      37.164  29.265  30.683  1.00  0.00    -0.460 OA
BRANCH  36  37
ATOM     37  C   UNL A   1      38.321  28.583  30.256  1.00  0.00     0.338 C 
ATOM     38  O   UNL A   1      38.267  27.412  30.008  1.00  0.00    -0.246 OA
BRANCH  37  39
ATOM     39  C   UNL A   1      39.760  29.090  30.718  1.00  0.00     0.060 A 
ATOM     40  C   UNL A   1      40.527  29.957  29.934  1.00  0.00     0.016 A 
ATOM     41  C   UNL A   1      40.422  28.840  31.894  1.00  0.00     0.016 A 
ATOM     42  C   UNL A   1      41.957  29.957  30.016  1.00  0.00     0.010 A 
ATOM     43  C   UNL A   1      41.805  28.618  31.850  1.00  0.00     0.010 A 
ATOM     44  C   UNL A   1      42.578  28.984  30.759  1.00  0.00    -0.014 A 
BRANCH  44  45
ATOM     45  C   UNL A   1      43.947  28.358  30.609  1.00  0.00     0.031 A 
ATOM     46  C   UNL A   1      45.085  29.157  31.356  1.00  0.00     0.074 A 
ATOM     47  C   UNL A   1      43.885  26.989  30.386  1.00  0.00     0.049 A 
ATOM     48  N   UNL A   1      46.339  28.857  31.544  1.00  0.00    -0.248 NA
ATOM     49  C   UNL A   1      44.792  30.449  32.019  1.00  0.00     0.031 C 
ATOM     50  C   UNL A   1      44.436  25.845  31.105  1.00  0.00     0.029 A 
ATOM     51  N   UNL A   1      43.370  26.292  29.291  1.00  0.00    -0.354 N 
ATOM     52  C   UNL A   1      46.878  29.680  32.594  1.00  0.00     0.074 A 
ATOM     53  C   UNL A   1      45.848  30.662  32.815  1.00  0.00     0.031 C 
ATOM     54  C   UNL A   1      44.618  24.749  30.372  1.00  0.00     0.029 A 
ATOM     55  C   UNL A   1      44.031  25.053  29.123  1.00  0.00     0.049 A 
ATOM     56  H   UNL A   1      42.644  26.621  28.712  1.00  0.00     0.167 HD
ATOM     57  C   UNL A   1      48.011  29.319  33.317  1.00  0.00     0.034 A 
ATOM     58  C   UNL A   1      44.590  24.601  27.985  1.00  0.00     0.034 A 
ATOM     59  C   UNL A   1      48.631  28.090  32.732  1.00  0.00     0.049 A 
ATOM     60  C   UNL A   1      46.108  24.920  28.039  1.00  0.00     0.074 A 
ATOM     61  C   UNL A   1      49.131  26.874  33.201  1.00  0.00     0.029 A 
ATOM     62  N   UNL A   1      48.628  27.943  31.349  1.00  0.00    -0.354 N 
ATOM     63  N   UNL A   1      46.707  25.577  29.029  1.00  0.00    -0.248 NA
ATOM     64  C   UNL A   1      47.094  24.396  27.094  1.00  0.00     0.031 C 
ATOM     65  C   UNL A   1      49.153  25.942  32.114  1.00  0.00     0.029 A 
ATOM     66  C   UNL A   1      48.808  26.629  30.961  1.00  0.00     0.049 A 
ATOM     67  H   UNL A   1      48.511  28.690  30.718  1.00  0.00     0.167 HD
ATOM     68  C   UNL A   1      48.067  25.650  28.819  1.00  0.00     0.074 A 
ATOM     69  C   UNL A   1      48.250  24.834  27.627  1.00  0.00     0.031 C 
ATOM     70  C   UNL A   1      49.004  26.337  29.560  1.00  0.00     0.034 A 
BRANCH  57  71
ATOM     71  C   UNL A   1      48.576  29.905  34.697  1.00  0.00     0.023 A 
ATOM     72  C   UNL A   1      49.953  30.272  34.715  1.00  0.00     0.012 A 
ATOM     73  C   UNL A   1      47.922  30.172  35.936  1.00  0.00     0.148 A 
ATOM     74  C   UNL A   1      50.649  30.820  35.805  1.00  0.00     0.002 A 
ATOM     75  C   UNL A   1      48.612  30.773  37.035  1.00  0.00     0.091 A 
ATOM     76  F   UNL A   1      46.625  29.886  36.077  1.00  0.00    -0.205 F 
ATOM     77  C   UNL A   1      49.972  31.089  36.967  1.00  0.00     0.022 A 
BRANCH  75  78
ATOM     78  S   UNL A   1      47.850  31.241  38.614  1.00  0.00     0.127 S 
ATOM     79  O   UNL A   1      49.001  31.684  39.404  1.00  0.00    -0.237 OA
ATOM     80  O   UNL A   1      46.950  32.325  38.219  1.00  0.00    -0.237 OA
ATOM     81  O   UNL A   1      47.199  30.041  39.122  1.00  0.00    -0.744 OA
ENDBRANCH  75  78
ENDBRANCH  57  71
BRANCH  58  82
ATOM     82  C   UNL A   1      43.453  24.418  26.995  1.00  0.00     0.023 A 
ATOM     83  C   UNL A   1      42.263  23.844  27.581  1.00  0.00     0.012 A 
ATOM     84  C   UNL A   1      43.256  25.472  26.091  1.00  0.00     0.148 A 
ATOM     85  C   UNL A   1      41.001  24.468  27.492  1.00  0.00     0.002 A 
ATOM     86  C   UNL A   1      42.025  26.153  26.113  1.00  0.00     0.091 A 
ATOM     87  F   UNL A   1      44.341  25.994  25.504  1.00  0.00    -0.205 F 
ATOM     88  C   UNL A   1      40.898  25.658  26.802  1.00  0.00     0.022 A 
BRANCH  86  89
ATOM     89  S   UNL A   1      42.044  27.951  26.070  1.00  0.00     0.127 S 
ATOM     90  O   UNL A   1      42.309  28.272  24.675  1.00  0.00    -0.237 OA
ATOM     91  O   UNL A   1      40.661  28.167  26.515  1.00  0.00    -0.237 OA
ATOM     92  O   UNL A   1      43.085  28.343  27.005  1.00  0.00    -0.744 OA
ENDBRANCH  86  89
ENDBRANCH  58  82
BRANCH  70  93
ATOM     93  C   UNL A   1      50.305  26.908  28.990  1.00  0.00     0.023 A 
ATOM     94  C   UNL A   1      50.278  27.977  28.088  1.00  0.00     0.012 A 
ATOM     95  C   UNL A   1      51.589  26.563  29.526  1.00  0.00     0.148 A 
ATOM     96  C   UNL A   1      51.444  28.610  27.664  1.00  0.00     0.002 A 
ATOM     97  C   UNL A   1      52.720  27.305  29.225  1.00  0.00     0.091 A 
ATOM     98  F   UNL A   1      51.746  25.501  30.326  1.00  0.00    -0.205 F 
ATOM     99  C   UNL A   1      52.660  28.296  28.253  1.00  0.00     0.022 A 
BRANCH  97 100
ATOM    100  S   UNL A   1      54.247  27.146  30.167  1.00  0.00     0.127 S 
ATOM    101  O   UNL A   1      54.699  25.814  29.768  1.00  0.00    -0.237 OA
ATOM    102  O   UNL A   1      55.046  28.248  29.628  1.00  0.00    -0.237 OA
ATOM    103  O   UNL A   1      53.879  27.301  31.566  1.00  0.00    -0.744 OA
ENDBRANCH  97 100
ENDBRANCH  70  93
ENDBRANCH  44  45
ENDBRANCH  37  39
ENDBRANCH  36  37
ENDBRANCH  35  36
ENDBRANCH  34  35
ENDBRANCH  33  34
ENDBRANCH  32  33
ENDBRANCH  31  32
ENDBRANCH  30  31
ENDBRANCH   1  30
TORSDOF 28
ENDMDL
