MODEL 1
REMARK VINA RESULT:      -9.3      0.000      0.000
REMARK SMILES [NH3+]CCOCC(=O)N1C[C@@H](C(=O)OCCOCCOCCOCCOC(=O)c2ccc(-c3c4nc(c(-c5cccc(S(=O)(=O)[O-])c5F)c5ccc([nH]5)c(-c5cccc(S(=O)(=O)[O-])c5F)c5nc(c(-c6cccc(S(=O)(=O)[O-])c6F)c6ccc3[nH]6)C=C5)C=C4)cc2)Oc2ccccc21
REMARK SMILES IDX 17 1 16 2 15 3 14 4 13 5 11 6 12 7 10 8 8 9 9 10 97 11 92 12
REMARK SMILES IDX 96 13 91 14 93 15 95 16 94 17 6 18 7 19 5 20 4 21 3 22 2 23
REMARK SMILES IDX 1 24 18 28 19 29 20 30 21 31 22 32 23 33 24 34 25 35 26 36
REMARK SMILES IDX 27 37 28 38 29 39 90 40 30 41 89 42 31 43 32 44 33 45 83 46
REMARK SMILES IDX 34 47 88 48 82 49 84 50 35 51 87 52 81 53 80 54 36 56 68 57
REMARK SMILES IDX 48 58 67 59 49 60 52 61 66 62 85 63 50 64 51 65 65 67 86 68
REMARK SMILES IDX 53 69 37 70 38 71 46 72 39 73 41 74 47 75 40 76 42 77 43 78
REMARK SMILES IDX 44 79 45 80 69 81 70 82 78 83 71 84 73 85 79 86 72 87 74 88
REMARK SMILES IDX 75 89 76 90 77 91 54 92 55 93 63 94 56 95 58 96 64 97 57 98
REMARK SMILES IDX 59 99 60 100 61 101 62 102
REMARK H PARENT 1 25 1 26 1 27 84 55 52 66
REMARK Flexibility Score: inf
ROOT
ATOM      1  C   UNL A   1      31.172  28.847  23.237  1.00  0.00     0.188 C 
ENDROOT
BRANCH   1   2
ATOM      2  O   UNL A   1      32.121  28.347  22.307  1.00  0.00    -0.376 OA
BRANCH   2   3
ATOM      3  C   UNL A   1      33.152  27.437  22.677  1.00  0.00     0.202 C 
BRANCH   3   4
ATOM      4  C   UNL A   1      33.117  25.916  22.393  1.00  0.00     0.261 C 
BRANCH   4   5
ATOM      5  O   UNL A   1      33.148  25.040  23.525  1.00  0.00    -0.460 OA
BRANCH   5   6
ATOM      6  C   UNL A   1      32.469  23.883  23.377  1.00  0.00     0.349 C 
ATOM      7  O   UNL A   1      31.358  23.689  23.858  1.00  0.00    -0.248 OA
BRANCH   6   8
ATOM      8  C   UNL A   1      33.203  22.943  22.391  1.00  0.00     0.302 C 
ATOM      9  N   UNL A   1      33.256  21.195  24.070  1.00  0.00    -0.303 N 
ATOM     10  C   UNL A   1      32.872  21.490  22.690  1.00  0.00     0.183 C 
ATOM     11  C   UNL A   1      34.519  21.809  24.443  1.00  0.00     0.086 A 
ATOM     12  C   UNL A   1      35.165  22.686  23.528  1.00  0.00     0.144 A 
ATOM     13  C   UNL A   1      35.141  21.614  25.673  1.00  0.00     0.030 A 
ATOM     14  O   UNL A   1      34.607  23.091  22.340  1.00  0.00    -0.475 OA
ATOM     15  C   UNL A   1      36.393  23.287  23.800  1.00  0.00     0.049 A 
ATOM     16  C   UNL A   1      36.360  22.250  25.964  1.00  0.00     0.002 A 
ATOM     17  C   UNL A   1      36.989  23.072  25.030  1.00  0.00     0.004 A 
BRANCH   9  18
ATOM     18  C   UNL A   1      32.339  20.650  24.979  1.00  0.00     0.253 C 
ATOM     19  O   UNL A   1      31.439  21.290  25.534  1.00  0.00    -0.272 OA
BRANCH  18  20
ATOM     20  C   UNL A   1      32.538  19.158  25.412  1.00  0.00     0.260 C 
BRANCH  20  21
ATOM     21  O   UNL A   1      32.564  18.014  24.587  1.00  0.00    -0.366 OA
BRANCH  21  22
ATOM     22  C   UNL A   1      32.459  16.738  25.216  1.00  0.00     0.222 C 
BRANCH  22  23
ATOM     23  C   UNL A   1      33.768  16.125  25.729  1.00  0.00     0.287 C 
BRANCH  23  24
ATOM     24  N   UNL A   1      34.959  16.569  25.005  1.00  0.00    -0.356 N 
ATOM     25  H   UNL A   1      34.742  17.420  24.484  1.00  0.00     0.344 HD
ATOM     26  H   UNL A   1      35.256  15.840  24.357  1.00  0.00     0.344 HD
ATOM     27  H   UNL A   1      35.710  16.760  25.669  1.00  0.00     0.344 HD
ENDBRANCH  23  24
ENDBRANCH  22  23
ENDBRANCH  21  22
ENDBRANCH  20  21
ENDBRANCH  18  20
ENDBRANCH   9  18
ENDBRANCH   6   8
ENDBRANCH   5   6
ENDBRANCH   4   5
ENDBRANCH   3   4
ENDBRANCH   2   3
ENDBRANCH   1   2
BRANCH   1  28
ATOM     28  C   UNL A   1      29.730  28.373  22.997  1.00  0.00     0.188 C 
BRANCH  28  29
ATOM     29  O   UNL A   1      29.325  27.406  23.942  1.00  0.00    -0.377 OA
BRANCH  29  30
ATOM     30  C   UNL A   1      30.344  26.636  24.567  1.00  0.00     0.188 C 
BRANCH  30  31
ATOM     31  C   UNL A   1      30.285  26.303  26.078  1.00  0.00     0.188 C 
BRANCH  31  32
ATOM     32  O   UNL A   1      31.118  27.110  26.905  1.00  0.00    -0.376 OA
BRANCH  32  33
ATOM     33  C   UNL A   1      32.377  27.520  26.399  1.00  0.00     0.202 C 
BRANCH  33  34
ATOM     34  C   UNL A   1      32.810  28.954  26.734  1.00  0.00     0.261 C 
BRANCH  34  35
ATOM     35  O   UNL A   1      33.898  29.079  27.657  1.00  0.00    -0.460 OA
BRANCH  35  36
ATOM     36  C   UNL A   1      34.648  30.201  27.597  1.00  0.00     0.338 C 
ATOM     37  O   UNL A   1      34.269  31.322  27.300  1.00  0.00    -0.246 OA
BRANCH  36  38
ATOM     38  C   UNL A   1      35.975  29.876  28.159  1.00  0.00     0.060 A 
ATOM     39  C   UNL A   1      37.118  30.044  27.363  1.00  0.00     0.016 A 
ATOM     40  C   UNL A   1      36.088  29.455  29.485  1.00  0.00     0.016 A 
ATOM     41  C   UNL A   1      38.380  29.759  27.886  1.00  0.00     0.010 A 
ATOM     42  C   UNL A   1      37.346  29.145  29.997  1.00  0.00     0.010 A 
ATOM     43  C   UNL A   1      38.492  29.262  29.189  1.00  0.00    -0.014 A 
BRANCH  43  44
ATOM     44  C   UNL A   1      39.749  28.629  29.650  1.00  0.00     0.031 A 
ATOM     45  C   UNL A   1      40.514  29.326  30.740  1.00  0.00     0.074 A 
ATOM     46  C   UNL A   1      40.235  27.515  29.076  1.00  0.00     0.049 A 
ATOM     47  N   UNL A   1      41.710  29.084  31.201  1.00  0.00    -0.248 NA
ATOM     48  C   UNL A   1      39.837  30.465  31.388  1.00  0.00     0.031 C 
ATOM     49  C   UNL A   1      39.571  26.741  28.030  1.00  0.00     0.029 A 
ATOM     50  N   UNL A   1      41.433  26.871  29.268  1.00  0.00    -0.354 N 
ATOM     51  C   UNL A   1      41.949  30.063  32.157  1.00  0.00     0.074 A 
ATOM     52  C   UNL A   1      40.774  30.902  32.213  1.00  0.00     0.031 C 
ATOM     53  C   UNL A   1      40.392  25.749  27.639  1.00  0.00     0.029 A 
ATOM     54  C   UNL A   1      41.652  25.847  28.376  1.00  0.00     0.049 A 
ATOM     55  H   UNL A   1      42.072  27.118  29.975  1.00  0.00     0.167 HD
ATOM     56  C   UNL A   1      43.049  30.247  32.921  1.00  0.00     0.034 A 
ATOM     57  C   UNL A   1      42.758  25.108  28.154  1.00  0.00     0.034 A 
ATOM     58  C   UNL A   1      44.211  29.405  32.864  1.00  0.00     0.049 A 
ATOM     59  C   UNL A   1      43.990  25.358  28.989  1.00  0.00     0.074 A 
ATOM     60  C   UNL A   1      45.364  29.480  33.623  1.00  0.00     0.029 A 
ATOM     61  N   UNL A   1      44.372  28.345  31.986  1.00  0.00    -0.354 N 
ATOM     62  N   UNL A   1      44.171  26.227  29.956  1.00  0.00    -0.248 NA
ATOM     63  C   UNL A   1      45.165  24.513  28.720  1.00  0.00     0.031 C 
ATOM     64  C   UNL A   1      46.240  28.488  33.177  1.00  0.00     0.029 A 
ATOM     65  C   UNL A   1      45.613  27.764  32.174  1.00  0.00     0.049 A 
ATOM     66  H   UNL A   1      43.704  28.049  31.327  1.00  0.00     0.167 HD
ATOM     67  C   UNL A   1      45.456  25.998  30.441  1.00  0.00     0.074 A 
ATOM     68  C   UNL A   1      46.009  24.910  29.664  1.00  0.00     0.031 C 
ATOM     69  C   UNL A   1      46.118  26.635  31.438  1.00  0.00     0.034 A 
BRANCH  56  70
ATOM     70  C   UNL A   1      43.048  31.403  33.883  1.00  0.00     0.023 A 
ATOM     71  C   UNL A   1      43.587  32.645  33.491  1.00  0.00     0.012 A 
ATOM     72  C   UNL A   1      42.470  31.270  35.161  1.00  0.00     0.148 A 
ATOM     73  C   UNL A   1      43.581  33.728  34.369  1.00  0.00     0.002 A 
ATOM     74  C   UNL A   1      42.422  32.367  36.011  1.00  0.00     0.091 A 
ATOM     75  F   UNL A   1      41.986  30.074  35.523  1.00  0.00    -0.205 F 
ATOM     76  C   UNL A   1      42.989  33.593  35.622  1.00  0.00     0.022 A 
BRANCH  74  77
ATOM     77  S   UNL A   1      41.612  32.317  37.611  1.00  0.00     0.127 S 
ATOM     78  O   UNL A   1      40.242  31.966  37.238  1.00  0.00    -0.237 OA
ATOM     79  O   UNL A   1      42.348  31.254  38.295  1.00  0.00    -0.237 OA
ATOM     80  O   UNL A   1      41.779  33.643  38.190  1.00  0.00    -0.744 OA
ENDBRANCH  74  77
ENDBRANCH  56  70
BRANCH  57  81
ATOM     81  C   UNL A   1      42.755  24.050  27.104  1.00  0.00     0.023 A 
ATOM     82  C   UNL A   1      43.388  24.294  25.870  1.00  0.00     0.012 A 
ATOM     83  C   UNL A   1      42.132  22.804  27.320  1.00  0.00     0.148 A 
ATOM     84  C   UNL A   1      43.374  23.331  24.859  1.00  0.00     0.002 A 
ATOM     85  C   UNL A   1      42.170  21.829  26.330  1.00  0.00     0.091 A 
ATOM     86  F   UNL A   1      41.520  22.596  28.495  1.00  0.00    -0.205 F 
ATOM     87  C   UNL A   1      42.774  22.097  25.092  1.00  0.00     0.022 A 
BRANCH  85  88
ATOM     88  S   UNL A   1      41.527  20.170  26.580  1.00  0.00     0.127 S 
ATOM     89  O   UNL A   1      41.979  19.487  25.371  1.00  0.00    -0.237 OA
ATOM     90  O   UNL A   1      42.211  19.766  27.810  1.00  0.00    -0.237 OA
ATOM     91  O   UNL A   1      40.084  20.320  26.716  1.00  0.00    -0.744 OA
ENDBRANCH  85  88
ENDBRANCH  57  81
BRANCH  69  92
ATOM     92  C   UNL A   1      47.489  26.138  31.819  1.00  0.00     0.023 A 
ATOM     93  C   UNL A   1      48.639  26.727  31.259  1.00  0.00     0.012 A 
ATOM     94  C   UNL A   1      47.628  25.178  32.842  1.00  0.00     0.148 A 
ATOM     95  C   UNL A   1      49.908  26.354  31.701  1.00  0.00     0.002 A 
ATOM     96  C   UNL A   1      48.893  24.851  33.314  1.00  0.00     0.091 A 
ATOM     97  F   UNL A   1      46.519  24.623  33.350  1.00  0.00    -0.205 F 
ATOM     98  C   UNL A   1      50.035  25.430  32.738  1.00  0.00     0.022 A 
BRANCH  96  99
ATOM     99  S   UNL A   1      49.148  23.755  34.715  1.00  0.00     0.127 S 
ATOM    100  O   UNL A   1      48.737  24.602  35.832  1.00  0.00    -0.237 OA
ATOM    101  O   UNL A   1      48.233  22.655  34.413  1.00  0.00    -0.237 OA
ATOM    102  O   UNL A   1      50.559  23.396  34.697  1.00  0.00    -0.744 OA
ENDBRANCH  96  99
ENDBRANCH  69  92
ENDBRANCH  43  44
ENDBRANCH  36  38
ENDBRANCH  35  36
ENDBRANCH  34  35
ENDBRANCH  33  34
ENDBRANCH  32  33
ENDBRANCH  31  32
ENDBRANCH  30  31
ENDBRANCH  29  30
ENDBRANCH  28  29
ENDBRANCH   1  28
TORSDOF 29
ENDMDL
MODEL 2
REMARK VINA RESULT:      -9.3      2.177      7.478
REMARK SMILES [NH3+]CCOCC(=O)N1C[C@@H](C(=O)OCCOCCOCCOCCOC(=O)c2ccc(-c3c4nc(c(-c5cccc(S(=O)(=O)[O-])c5F)c5ccc([nH]5)c(-c5cccc(S(=O)(=O)[O-])c5F)c5nc(c(-c6cccc(S(=O)(=O)[O-])c6F)c6ccc3[nH]6)C=C5)C=C4)cc2)Oc2ccccc21
REMARK SMILES IDX 17 1 16 2 15 3 14 4 13 5 11 6 12 7 10 8 8 9 9 10 97 11 92 12
REMARK SMILES IDX 96 13 91 14 93 15 95 16 94 17 6 18 7 19 5 20 4 21 3 22 2 23
REMARK SMILES IDX 1 24 18 28 19 29 20 30 21 31 22 32 23 33 24 34 25 35 26 36
REMARK SMILES IDX 27 37 28 38 29 39 90 40 30 41 89 42 31 43 32 44 33 45 83 46
REMARK SMILES IDX 34 47 88 48 82 49 84 50 35 51 87 52 81 53 80 54 36 56 68 57
REMARK SMILES IDX 48 58 67 59 49 60 52 61 66 62 85 63 50 64 51 65 65 67 86 68
REMARK SMILES IDX 53 69 37 70 38 71 46 72 39 73 41 74 47 75 40 76 42 77 43 78
REMARK SMILES IDX 44 79 45 80 69 81 70 82 78 83 71 84 73 85 79 86 72 87 74 88
REMARK SMILES IDX 75 89 76 90 77 91 54 92 55 93 63 94 56 95 58 96 64 97 57 98
REMARK SMILES IDX 59 99 60 100 61 101 62 102
REMARK H PARENT 1 25 1 26 1 27 84 55 52 66
REMARK Flexibility Score: inf
ROOT
ATOM      1  C   UNL A   1      31.175  29.193  23.183  1.00  0.00     0.188 C 
ENDROOT
BRANCH   1   2
ATOM      2  O   UNL A   1      32.170  28.795  22.252  1.00  0.00    -0.376 OA
BRANCH   2   3
ATOM      3  C   UNL A   1      33.317  28.040  22.631  1.00  0.00     0.202 C 
BRANCH   3   4
ATOM      4  C   UNL A   1      33.462  26.512  22.435  1.00  0.00     0.261 C 
BRANCH   4   5
ATOM      5  O   UNL A   1      33.702  25.724  23.606  1.00  0.00    -0.460 OA
BRANCH   5   6
ATOM      6  C   UNL A   1      33.015  24.565  23.670  1.00  0.00     0.349 C 
ATOM      7  O   UNL A   1      32.080  24.379  24.441  1.00  0.00    -0.248 OA
BRANCH   6   8
ATOM      8  C   UNL A   1      33.456  23.607  22.538  1.00  0.00     0.302 C 
ATOM      9  N   UNL A   1      33.324  21.722  24.057  1.00  0.00    -0.303 N 
ATOM     10  C   UNL A   1      32.877  22.218  22.755  1.00  0.00     0.183 C 
ATOM     11  C   UNL A   1      34.712  22.050  24.334  1.00  0.00     0.086 A 
ATOM     12  C   UNL A   1      35.427  22.878  23.426  1.00  0.00     0.144 A 
ATOM     13  C   UNL A   1      35.397  21.623  25.468  1.00  0.00     0.030 A 
ATOM     14  O   UNL A   1      34.850  23.496  22.343  1.00  0.00    -0.475 OA
ATOM     15  C   UNL A   1      36.769  23.211  23.606  1.00  0.00     0.049 A 
ATOM     16  C   UNL A   1      36.739  21.989  25.671  1.00  0.00     0.002 A 
ATOM     17  C   UNL A   1      37.425  22.768  24.740  1.00  0.00     0.004 A 
BRANCH   9  18
ATOM     18  C   UNL A   1      32.408  21.270  25.016  1.00  0.00     0.253 C 
ATOM     19  O   UNL A   1      31.860  21.992  25.856  1.00  0.00    -0.272 OA
BRANCH  18  20
ATOM     20  C   UNL A   1      32.148  19.727  25.109  1.00  0.00     0.260 C 
BRANCH  20  21
ATOM     21  O   UNL A   1      33.052  18.680  24.834  1.00  0.00    -0.366 OA
BRANCH  21  22
ATOM     22  C   UNL A   1      32.511  17.384  24.582  1.00  0.00     0.222 C 
BRANCH  22  23
ATOM     23  C   UNL A   1      32.627  16.366  25.724  1.00  0.00     0.287 C 
BRANCH  23  24
ATOM     24  N   UNL A   1      32.140  15.030  25.383  1.00  0.00    -0.356 N 
ATOM     25  H   UNL A   1      32.492  14.356  26.064  1.00  0.00     0.344 HD
ATOM     26  H   UNL A   1      32.467  14.775  24.451  1.00  0.00     0.344 HD
ATOM     27  H   UNL A   1      31.119  15.025  25.397  1.00  0.00     0.344 HD
ENDBRANCH  23  24
ENDBRANCH  22  23
ENDBRANCH  21  22
ENDBRANCH  20  21
ENDBRANCH  18  20
ENDBRANCH   9  18
ENDBRANCH   6   8
ENDBRANCH   5   6
ENDBRANCH   4   5
ENDBRANCH   3   4
ENDBRANCH   2   3
ENDBRANCH   1   2
BRANCH   1  28
ATOM     28  C   UNL A   1      29.759  28.692  22.861  1.00  0.00     0.188 C 
BRANCH  28  29
ATOM     29  O   UNL A   1      29.315  27.723  23.785  1.00  0.00    -0.377 OA
BRANCH  29  30
ATOM     30  C   UNL A   1      30.307  26.950  24.449  1.00  0.00     0.188 C 
BRANCH  30  31
ATOM     31  C   UNL A   1      29.981  26.174  25.749  1.00  0.00     0.188 C 
BRANCH  31  32
ATOM     32  O   UNL A   1      30.738  26.567  26.890  1.00  0.00    -0.376 OA
BRANCH  32  33
ATOM     33  C   UNL A   1      31.950  27.272  26.686  1.00  0.00     0.202 C 
BRANCH  33  34
ATOM     34  C   UNL A   1      31.835  28.798  26.561  1.00  0.00     0.261 C 
BRANCH  34  35
ATOM     35  O   UNL A   1      32.470  29.559  27.595  1.00  0.00    -0.460 OA
BRANCH  35  36
ATOM     36  C   UNL A   1      33.070  30.719  27.244  1.00  0.00     0.338 C 
ATOM     37  O   UNL A   1      32.531  31.717  26.795  1.00  0.00    -0.246 OA
BRANCH  36  38
ATOM     38  C   UNL A   1      34.474  30.643  27.697  1.00  0.00     0.060 A 
ATOM     39  C   UNL A   1      35.080  29.386  27.849  1.00  0.00     0.016 A 
ATOM     40  C   UNL A   1      35.201  31.814  27.920  1.00  0.00     0.016 A 
ATOM     41  C   UNL A   1      36.411  29.298  28.257  1.00  0.00     0.010 A 
ATOM     42  C   UNL A   1      36.522  31.724  28.355  1.00  0.00     0.010 A 
ATOM     43  C   UNL A   1      37.120  30.468  28.558  1.00  0.00    -0.014 A 
BRANCH  43  44
ATOM     44  C   UNL A   1      38.391  30.405  29.314  1.00  0.00     0.031 A 
ATOM     45  C   UNL A   1      39.483  29.533  28.760  1.00  0.00     0.074 A 
ATOM     46  C   UNL A   1      38.551  31.039  30.489  1.00  0.00     0.049 A 
ATOM     47  N   UNL A   1      40.613  29.171  29.302  1.00  0.00    -0.248 NA
ATOM     48  C   UNL A   1      39.258  28.984  27.410  1.00  0.00     0.031 C 
ATOM     49  C   UNL A   1      37.575  31.929  31.112  1.00  0.00     0.029 A 
ATOM     50  N   UNL A   1      39.588  30.989  31.388  1.00  0.00    -0.354 N 
ATOM     51  C   UNL A   1      41.212  28.316  28.384  1.00  0.00     0.074 A 
ATOM     52  C   UNL A   1      40.323  28.216  27.249  1.00  0.00     0.031 C 
ATOM     53  C   UNL A   1      38.040  32.306  32.317  1.00  0.00     0.029 A 
ATOM     54  C   UNL A   1      39.323  31.651  32.565  1.00  0.00     0.049 A 
ATOM     55  H   UNL A   1      40.437  30.524  31.209  1.00  0.00     0.167 HD
ATOM     56  C   UNL A   1      42.397  27.673  28.478  1.00  0.00     0.034 A 
ATOM     57  C   UNL A   1      40.019  31.684  33.720  1.00  0.00     0.034 A 
ATOM     58  C   UNL A   1      43.278  27.782  29.606  1.00  0.00     0.049 A 
ATOM     59  C   UNL A   1      41.320  30.924  33.818  1.00  0.00     0.074 A 
ATOM     60  C   UNL A   1      44.520  27.204  29.785  1.00  0.00     0.029 A 
ATOM     61  N   UNL A   1      42.999  28.506  30.755  1.00  0.00    -0.354 N 
ATOM     62  N   UNL A   1      41.922  30.195  32.908  1.00  0.00    -0.248 NA
ATOM     63  C   UNL A   1      42.049  31.007  35.094  1.00  0.00     0.031 C 
ATOM     64  C   UNL A   1      44.977  27.547  31.059  1.00  0.00     0.029 A 
ATOM     65  C   UNL A   1      44.042  28.379  31.654  1.00  0.00     0.049 A 
ATOM     66  H   UNL A   1      42.182  29.033  30.908  1.00  0.00     0.167 HD
ATOM     67  C   UNL A   1      43.119  29.777  33.482  1.00  0.00     0.074 A 
ATOM     68  C   UNL A   1      43.159  30.334  34.818  1.00  0.00     0.031 C 
ATOM     69  C   UNL A   1      44.095  29.000  32.952  1.00  0.00     0.034 A 
BRANCH  56  70
ATOM     70  C   UNL A   1      42.809  26.794  27.329  1.00  0.00     0.023 A 
ATOM     71  C   UNL A   1      43.636  27.310  26.310  1.00  0.00     0.012 A 
ATOM     72  C   UNL A   1      42.414  25.443  27.284  1.00  0.00     0.148 A 
ATOM     73  C   UNL A   1      44.035  26.503  25.246  1.00  0.00     0.002 A 
ATOM     74  C   UNL A   1      42.857  24.632  26.248  1.00  0.00     0.091 A 
ATOM     75  F   UNL A   1      41.608  24.980  28.249  1.00  0.00    -0.205 F 
ATOM     76  C   UNL A   1      43.656  25.163  25.221  1.00  0.00     0.022 A 
BRANCH  74  77
ATOM     77  S   UNL A   1      42.490  22.877  26.168  1.00  0.00     0.127 S 
ATOM     78  O   UNL A   1      43.021  22.405  27.446  1.00  0.00    -0.237 OA
ATOM     79  O   UNL A   1      41.030  22.872  26.076  1.00  0.00    -0.237 OA
ATOM     80  O   UNL A   1      43.177  22.374  24.986  1.00  0.00    -0.744 OA
ENDBRANCH  74  77
ENDBRANCH  56  70
BRANCH  57  81
ATOM     81  C   UNL A   1      39.512  32.473  34.878  1.00  0.00     0.023 A 
ATOM     82  C   UNL A   1      39.687  33.871  34.897  1.00  0.00     0.012 A 
ATOM     83  C   UNL A   1      38.857  31.850  35.959  1.00  0.00     0.148 A 
ATOM     84  C   UNL A   1      39.248  34.629  35.984  1.00  0.00     0.002 A 
ATOM     85  C   UNL A   1      38.372  32.618  37.012  1.00  0.00     0.091 A 
ATOM     86  F   UNL A   1      38.714  30.517  35.932  1.00  0.00    -0.205 F 
ATOM     87  C   UNL A   1      38.583  34.005  37.035  1.00  0.00     0.022 A 
BRANCH  85  88
ATOM     88  S   UNL A   1      37.403  31.919  38.354  1.00  0.00     0.127 S 
ATOM     89  O   UNL A   1      38.281  32.133  39.501  1.00  0.00    -0.237 OA
ATOM     90  O   UNL A   1      36.206  32.762  38.328  1.00  0.00    -0.237 OA
ATOM     91  O   UNL A   1      37.168  30.529  37.990  1.00  0.00    -0.744 OA
ENDBRANCH  85  88
ENDBRANCH  57  81
BRANCH  69  92
ATOM     92  C   UNL A   1      45.338  28.754  33.769  1.00  0.00     0.023 A 
ATOM     93  C   UNL A   1      46.436  29.630  33.670  1.00  0.00     0.012 A 
ATOM     94  C   UNL A   1      45.352  27.729  34.736  1.00  0.00     0.148 A 
ATOM     95  C   UNL A   1      47.537  29.478  34.514  1.00  0.00     0.002 A 
ATOM     96  C   UNL A   1      46.427  27.616  35.607  1.00  0.00     0.091 A 
ATOM     97  F   UNL A   1      44.300  26.900  34.801  1.00  0.00    -0.205 F 
ATOM     98  C   UNL A   1      47.525  28.483  35.491  1.00  0.00     0.022 A 
BRANCH  96  99
ATOM     99  S   UNL A   1      46.453  26.438  36.963  1.00  0.00     0.127 S 
ATOM    100  O   UNL A   1      46.656  25.175  36.255  1.00  0.00    -0.237 OA
ATOM    101  O   UNL A   1      47.604  26.893  37.742  1.00  0.00    -0.237 OA
ATOM    102  O   UNL A   1      45.170  26.568  37.639  1.00  0.00    -0.744 OA
ENDBRANCH  96  99
ENDBRANCH  69  92
ENDBRANCH  43  44
ENDBRANCH  36  38
ENDBRANCH  35  36
ENDBRANCH  34  35
ENDBRANCH  33  34
ENDBRANCH  32  33
ENDBRANCH  31  32
ENDBRANCH  30  31
ENDBRANCH  29  30
ENDBRANCH  28  29
ENDBRANCH   1  28
TORSDOF 29
ENDMDL
MODEL 3
REMARK VINA RESULT:      -8.4      1.999      2.745
REMARK SMILES [NH3+]CCOCC(=O)N1C[C@@H](C(=O)OCCOCCOCCOCCOC(=O)c2ccc(-c3c4nc(c(-c5cccc(S(=O)(=O)[O-])c5F)c5ccc([nH]5)c(-c5cccc(S(=O)(=O)[O-])c5F)c5nc(c(-c6cccc(S(=O)(=O)[O-])c6F)c6ccc3[nH]6)C=C5)C=C4)cc2)Oc2ccccc21
REMARK SMILES IDX 17 1 16 2 15 3 14 4 13 5 11 6 12 7 10 8 8 9 9 10 97 11 92 12
REMARK SMILES IDX 96 13 91 14 93 15 95 16 94 17 6 18 7 19 5 20 4 21 3 22 2 23
REMARK SMILES IDX 1 24 18 28 19 29 20 30 21 31 22 32 23 33 24 34 25 35 26 36
REMARK SMILES IDX 27 37 28 38 29 39 90 40 30 41 89 42 31 43 32 44 33 45 83 46
REMARK SMILES IDX 34 47 88 48 82 49 84 50 35 51 87 52 81 53 80 54 36 56 68 57
REMARK SMILES IDX 48 58 67 59 49 60 52 61 66 62 85 63 50 64 51 65 65 67 86 68
REMARK SMILES IDX 53 69 37 70 38 71 46 72 39 73 41 74 47 75 40 76 42 77 43 78
REMARK SMILES IDX 44 79 45 80 69 81 70 82 78 83 71 84 73 85 79 86 72 87 74 88
REMARK SMILES IDX 75 89 76 90 77 91 54 92 55 93 63 94 56 95 58 96 64 97 57 98
REMARK SMILES IDX 59 99 60 100 61 101 62 102
REMARK H PARENT 1 25 1 26 1 27 84 55 52 66
REMARK Flexibility Score: inf
ROOT
ATOM      1  C   UNL A   1      33.181  27.214  23.735  1.00  0.00     0.188 C 
ENDROOT
BRANCH   1   2
ATOM      2  O   UNL A   1      32.093  26.311  23.864  1.00  0.00    -0.376 OA
BRANCH   2   3
ATOM      3  C   UNL A   1      31.296  26.235  25.042  1.00  0.00     0.202 C 
BRANCH   3   4
ATOM      4  C   UNL A   1      31.198  24.987  25.952  1.00  0.00     0.261 C 
BRANCH   4   5
ATOM      5  O   UNL A   1      32.101  23.909  25.682  1.00  0.00    -0.460 OA
BRANCH   5   6
ATOM      6  C   UNL A   1      31.597  22.912  24.926  1.00  0.00     0.349 C 
ATOM      7  O   UNL A   1      30.708  22.160  25.310  1.00  0.00    -0.248 OA
BRANCH   6   8
ATOM      8  C   UNL A   1      32.168  22.976  23.489  1.00  0.00     0.302 C 
ATOM      9  N   UNL A   1      33.205  20.804  23.785  1.00  0.00    -0.303 N 
ATOM     10  C   UNL A   1      32.322  21.578  22.911  1.00  0.00     0.183 C 
ATOM     11  C   UNL A   1      34.328  21.583  24.277  1.00  0.00     0.086 A 
ATOM     12  C   UNL A   1      34.396  22.973  23.983  1.00  0.00     0.144 A 
ATOM     13  C   UNL A   1      35.353  21.057  25.059  1.00  0.00     0.030 A 
ATOM     14  O   UNL A   1      33.392  23.666  23.350  1.00  0.00    -0.475 OA
ATOM     15  C   UNL A   1      35.456  23.780  24.392  1.00  0.00     0.049 A 
ATOM     16  C   UNL A   1      36.404  21.876  25.505  1.00  0.00     0.002 A 
ATOM     17  C   UNL A   1      36.462  23.227  25.164  1.00  0.00     0.004 A 
BRANCH   9  18
ATOM     18  C   UNL A   1      32.807  19.566  24.308  1.00  0.00     0.253 C 
ATOM     19  O   UNL A   1      32.226  19.417  25.388  1.00  0.00    -0.272 OA
BRANCH  18  20
ATOM     20  C   UNL A   1      33.231  18.274  23.530  1.00  0.00     0.260 C 
BRANCH  20  21
ATOM     21  O   UNL A   1      32.759  16.958  23.717  1.00  0.00    -0.366 OA
BRANCH  21  22
ATOM     22  C   UNL A   1      33.273  16.219  24.824  1.00  0.00     0.222 C 
BRANCH  22  23
ATOM     23  C   UNL A   1      32.260  15.370  25.602  1.00  0.00     0.287 C 
BRANCH  23  24
ATOM     24  N   UNL A   1      32.716  14.009  25.885  1.00  0.00    -0.356 N 
ATOM     25  H   UNL A   1      33.460  14.038  26.582  1.00  0.00     0.344 HD
ATOM     26  H   UNL A   1      33.069  13.583  25.028  1.00  0.00     0.344 HD
ATOM     27  H   UNL A   1      31.937  13.456  26.242  1.00  0.00     0.344 HD
ENDBRANCH  23  24
ENDBRANCH  22  23
ENDBRANCH  21  22
ENDBRANCH  20  21
ENDBRANCH  18  20
ENDBRANCH   9  18
ENDBRANCH   6   8
ENDBRANCH   5   6
ENDBRANCH   4   5
ENDBRANCH   3   4
ENDBRANCH   2   3
ENDBRANCH   1   2
BRANCH   1  28
ATOM     28  C   UNL A   1      32.774  28.686  23.563  1.00  0.00     0.188 C 
BRANCH  28  29
ATOM     29  O   UNL A   1      32.952  29.428  24.749  1.00  0.00    -0.377 OA
BRANCH  29  30
ATOM     30  C   UNL A   1      31.783  29.822  25.455  1.00  0.00     0.188 C 
BRANCH  30  31
ATOM     31  C   UNL A   1      31.840  30.907  26.559  1.00  0.00     0.188 C 
BRANCH  31  32
ATOM     32  O   UNL A   1      32.960  30.815  27.435  1.00  0.00    -0.376 OA
BRANCH  32  33
ATOM     33  C   UNL A   1      33.703  31.992  27.706  1.00  0.00     0.202 C 
BRANCH  33  34
ATOM     34  C   UNL A   1      35.230  31.840  27.732  1.00  0.00     0.261 C 
BRANCH  34  35
ATOM     35  O   UNL A   1      35.970  33.022  28.058  1.00  0.00    -0.460 OA
BRANCH  35  36
ATOM     36  C   UNL A   1      36.052  33.373  29.360  1.00  0.00     0.338 C 
ATOM     37  O   UNL A   1      35.252  34.044  29.991  1.00  0.00    -0.246 OA
BRANCH  36  38
ATOM     38  C   UNL A   1      37.182  32.625  29.949  1.00  0.00     0.060 A 
ATOM     39  C   UNL A   1      38.494  32.967  29.588  1.00  0.00     0.016 A 
ATOM     40  C   UNL A   1      36.942  31.624  30.892  1.00  0.00     0.016 A 
ATOM     41  C   UNL A   1      39.573  32.283  30.149  1.00  0.00     0.010 A 
ATOM     42  C   UNL A   1      38.019  30.923  31.431  1.00  0.00     0.010 A 
ATOM     43  C   UNL A   1      39.335  31.226  31.036  1.00  0.00    -0.014 A 
BRANCH  43  44
ATOM     44  C   UNL A   1      40.411  30.267  31.373  1.00  0.00     0.031 A 
ATOM     45  C   UNL A   1      41.223  30.546  32.607  1.00  0.00     0.074 A 
ATOM     46  C   UNL A   1      40.710  29.225  30.578  1.00  0.00     0.049 A 
ATOM     47  N   UNL A   1      42.316  29.973  33.030  1.00  0.00    -0.248 NA
ATOM     48  C   UNL A   1      40.738  31.635  33.476  1.00  0.00     0.031 C 
ATOM     49  C   UNL A   1      39.980  28.842  29.372  1.00  0.00     0.029 A 
ATOM     50  N   UNL A   1      41.745  28.325  30.650  1.00  0.00    -0.354 N 
ATOM     51  C   UNL A   1      42.676  30.658  34.184  1.00  0.00     0.074 A 
ATOM     52  C   UNL A   1      41.684  31.687  34.398  1.00  0.00     0.031 C 
ATOM     53  C   UNL A   1      40.618  27.810  28.790  1.00  0.00     0.029 A 
ATOM     54  C   UNL A   1      41.820  27.491  29.558  1.00  0.00     0.049 A 
ATOM     55  H   UNL A   1      42.371  28.281  31.408  1.00  0.00     0.167 HD
ATOM     56  C   UNL A   1      43.737  30.447  34.995  1.00  0.00     0.034 A 
ATOM     57  C   UNL A   1      42.774  26.606  29.204  1.00  0.00     0.034 A 
ATOM     58  C   UNL A   1      44.715  29.419  34.780  1.00  0.00     0.049 A 
ATOM     59  C   UNL A   1      43.974  26.417  30.102  1.00  0.00     0.074 A 
ATOM     60  C   UNL A   1      45.807  29.095  35.562  1.00  0.00     0.029 A 
ATOM     61  N   UNL A   1      44.726  28.559  33.692  1.00  0.00    -0.354 N 
ATOM     62  N   UNL A   1      44.254  27.006  31.240  1.00  0.00    -0.248 NA
ATOM     63  C   UNL A   1      44.977  25.427  29.679  1.00  0.00     0.031 C 
ATOM     64  C   UNL A   1      46.502  28.062  34.928  1.00  0.00     0.029 A 
ATOM     65  C   UNL A   1      45.815  27.711  33.776  1.00  0.00     0.049 A 
ATOM     66  H   UNL A   1      44.058  28.552  32.969  1.00  0.00     0.167 HD
ATOM     67  C   UNL A   1      45.435  26.423  31.692  1.00  0.00     0.074 A 
ATOM     68  C   UNL A   1      45.818  25.435  30.706  1.00  0.00     0.031 C 
ATOM     69  C   UNL A   1      46.140  26.685  32.820  1.00  0.00     0.034 A 
BRANCH  56  70
ATOM     70  C   UNL A   1      43.895  31.348  36.189  1.00  0.00     0.023 A 
ATOM     71  C   UNL A   1      43.329  30.981  37.427  1.00  0.00     0.012 A 
ATOM     72  C   UNL A   1      44.644  32.538  36.095  1.00  0.00     0.148 A 
ATOM     73  C   UNL A   1      43.479  31.800  38.545  1.00  0.00     0.002 A 
ATOM     74  C   UNL A   1      44.830  33.323  37.224  1.00  0.00     0.091 A 
ATOM     75  F   UNL A   1      45.151  32.880  34.903  1.00  0.00    -0.205 F 
ATOM     76  C   UNL A   1      44.238  32.964  38.447  1.00  0.00     0.022 A 
BRANCH  74  77
ATOM     77  S   UNL A   1      45.857  34.796  37.220  1.00  0.00     0.127 S 
ATOM     78  O   UNL A   1      47.128  34.269  36.725  1.00  0.00    -0.237 OA
ATOM     79  O   UNL A   1      45.148  35.661  36.277  1.00  0.00    -0.237 OA
ATOM     80  O   UNL A   1      45.875  35.279  38.594  1.00  0.00    -0.744 OA
ENDBRANCH  74  77
ENDBRANCH  56  70
BRANCH  57  81
ATOM     81  C   UNL A   1      42.637  25.818  27.946  1.00  0.00     0.023 A 
ATOM     82  C   UNL A   1      42.988  26.407  26.715  1.00  0.00     0.012 A 
ATOM     83  C   UNL A   1      42.164  24.491  27.961  1.00  0.00     0.148 A 
ATOM     84  C   UNL A   1      42.840  25.701  25.520  1.00  0.00     0.002 A 
ATOM     85  C   UNL A   1      42.072  23.775  26.772  1.00  0.00     0.091 A 
ATOM     86  F   UNL A   1      41.818  23.953  29.139  1.00  0.00    -0.205 F 
ATOM     87  C   UNL A   1      42.392  24.383  25.550  1.00  0.00     0.022 A 
BRANCH  85  88
ATOM     88  S   UNL A   1      41.615  22.038  26.723  1.00  0.00     0.127 S 
ATOM     89  O   UNL A   1      41.828  21.712  25.315  1.00  0.00    -0.237 OA
ATOM     90  O   UNL A   1      42.586  21.447  27.645  1.00  0.00    -0.237 OA
ATOM     91  O   UNL A   1      40.235  21.977  27.182  1.00  0.00    -0.744 OA
ENDBRANCH  85  88
ENDBRANCH  57  81
BRANCH  69  92
ATOM     92  C   UNL A   1      47.360  25.850  33.112  1.00  0.00     0.023 A 
ATOM     93  C   UNL A   1      48.639  26.307  32.739  1.00  0.00     0.012 A 
ATOM     94  C   UNL A   1      47.239  24.677  33.884  1.00  0.00     0.148 A 
ATOM     95  C   UNL A   1      49.779  25.597  33.118  1.00  0.00     0.002 A 
ATOM     96  C   UNL A   1      48.381  24.005  34.302  1.00  0.00     0.091 A 
ATOM     97  F   UNL A   1      46.011  24.256  34.216  1.00  0.00    -0.205 F 
ATOM     98  C   UNL A   1      49.651  24.458  33.912  1.00  0.00     0.022 A 
BRANCH  96  99
ATOM     99  S   UNL A   1      48.320  22.594  35.413  1.00  0.00     0.127 S 
ATOM    100  O   UNL A   1      49.669  22.049  35.274  1.00  0.00    -0.237 OA
ATOM    101  O   UNL A   1      48.047  23.230  36.701  1.00  0.00    -0.237 OA
ATOM    102  O   UNL A   1      47.252  21.735  34.920  1.00  0.00    -0.744 OA
ENDBRANCH  96  99
ENDBRANCH  69  92
ENDBRANCH  43  44
ENDBRANCH  36  38
ENDBRANCH  35  36
ENDBRANCH  34  35
ENDBRANCH  33  34
ENDBRANCH  32  33
ENDBRANCH  31  32
ENDBRANCH  30  31
ENDBRANCH  29  30
ENDBRANCH  28  29
ENDBRANCH   1  28
TORSDOF 29
ENDMDL
