MODEL 1
REMARK VINA RESULT:      -7.7      0.000      0.000
REMARK SMILES CC[C@@H](C)N1C(=O)c2ccc(C(=O)OCCOCCOCCOCCOC(=O)c3ccc(-c4c5nc(c(-c6cccc(S(=O)(=O)[O-])c6F)c6ccc([nH]6)c(-c6cccc(S(=O)(=O)[O-])c6F)c6nc(c(-c7cccc(S(=O)(=O)[O-])c7F)c7ccc4[nH]7)C=C6)C=C5)cc3)cc2S1(=O)=O
REMARK SMILES IDX 21 1 20 2 19 3 18 4 17 5 16 6 15 7 14 8 12 9 13 10 11 11
REMARK SMILES IDX 5 12 6 13 94 14 7 15 8 16 93 17 95 18 96 19 9 20 92 21 10 22
REMARK SMILES IDX 3 23 4 24 2 25 1 26 22 27 23 28 24 29 25 30 26 31 27 32
REMARK SMILES IDX 28 33 29 34 30 35 91 36 31 37 90 38 32 39 33 40 34 41 84 42
REMARK SMILES IDX 35 43 89 44 83 45 85 46 36 47 88 48 82 49 81 50 37 52 69 53
REMARK SMILES IDX 49 54 68 55 50 56 53 57 67 58 86 59 51 60 52 61 66 63 87 64
REMARK SMILES IDX 54 65 38 66 39 67 47 68 40 69 42 70 48 71 41 72 43 73 44 74
REMARK SMILES IDX 45 75 46 76 70 77 71 78 79 79 72 80 74 81 80 82 73 83 75 84
REMARK SMILES IDX 76 85 77 86 78 87 55 88 56 89 64 90 57 91 59 92 65 93 58 94
REMARK SMILES IDX 60 95 61 96 62 97 63 98
REMARK H PARENT 85 51 53 62
REMARK Flexibility Score: inf
ROOT
ATOM      1  C   UNL A   1      33.080  36.463  29.383  1.00  0.00     0.188 C 
ENDROOT
BRANCH   1   2
ATOM      2  O   UNL A   1      33.443  36.722  30.740  1.00  0.00    -0.377 OA
BRANCH   2   3
ATOM      3  C   UNL A   1      32.675  36.149  31.782  1.00  0.00     0.188 C 
BRANCH   3   4
ATOM      4  C   UNL A   1      33.497  35.541  32.933  1.00  0.00     0.188 C 
BRANCH   4   5
ATOM      5  O   UNL A   1      34.334  34.475  32.517  1.00  0.00    -0.376 OA
BRANCH   5   6
ATOM      6  C   UNL A   1      35.713  34.723  32.300  1.00  0.00     0.202 C 
BRANCH   6   7
ATOM      7  C   UNL A   1      36.768  34.236  33.309  1.00  0.00     0.261 C 
BRANCH   7   8
ATOM      8  O   UNL A   1      37.677  33.228  32.854  1.00  0.00    -0.460 OA
BRANCH   8   9
ATOM      9  C   UNL A   1      37.348  31.941  33.070  1.00  0.00     0.338 C 
ATOM     10  O   UNL A   1      36.422  31.323  32.576  1.00  0.00    -0.246 OA
BRANCH   9  11
ATOM     11  C   UNL A   1      38.457  31.320  33.835  1.00  0.00     0.061 A 
ATOM     12  N   UNL A   1      41.764  28.086  35.065  1.00  0.00    -0.229 N 
ATOM     13  C   UNL A   1      41.552  29.254  35.860  1.00  0.00     0.269 C 
ATOM     14  S   UNL A   1      41.058  28.256  33.526  1.00  0.00     0.267 S 
ATOM     15  O   UNL A   1      42.062  29.510  36.936  1.00  0.00    -0.268 OA
ATOM     16  C   UNL A   1      40.549  30.125  35.216  1.00  0.00     0.061 A 
ATOM     17  C   UNL A   1      40.148  29.659  33.975  1.00  0.00     0.101 A 
ATOM     18  O   UNL A   1      42.071  28.645  32.583  1.00  0.00    -0.201 OA
ATOM     19  O   UNL A   1      40.111  27.184  33.286  1.00  0.00    -0.201 OA
ATOM     20  C   UNL A   1      39.957  31.252  35.766  1.00  0.00     0.016 A 
ATOM     21  C   UNL A   1      39.090  30.205  33.273  1.00  0.00     0.038 A 
ATOM     22  C   UNL A   1      38.910  31.862  35.059  1.00  0.00     0.016 A 
BRANCH  12  23
ATOM     23  C   UNL A   1      42.747  26.981  35.281  1.00  0.00     0.100 C 
ATOM     24  C   UNL A   1      43.953  27.147  34.346  1.00  0.00     0.032 C 
BRANCH  23  25
ATOM     25  C   UNL A   1      42.093  25.598  35.078  1.00  0.00     0.023 C 
ATOM     26  C   UNL A   1      41.173  25.143  36.204  1.00  0.00     0.006 C 
ENDBRANCH  23  25
ENDBRANCH  12  23
ENDBRANCH   9  11
ENDBRANCH   8   9
ENDBRANCH   7   8
ENDBRANCH   6   7
ENDBRANCH   5   6
ENDBRANCH   4   5
ENDBRANCH   3   4
ENDBRANCH   2   3
ENDBRANCH   1   2
BRANCH   1  27
ATOM     27  C   UNL A   1      33.818  35.429  28.495  1.00  0.00     0.188 C 
BRANCH  27  28
ATOM     28  O   UNL A   1      35.063  34.970  29.007  1.00  0.00    -0.376 OA
BRANCH  28  29
ATOM     29  C   UNL A   1      35.639  33.833  28.387  1.00  0.00     0.202 C 
BRANCH  29  30
ATOM     30  C   UNL A   1      35.035  32.489  28.812  1.00  0.00     0.261 C 
BRANCH  30  31
ATOM     31  O   UNL A   1      34.450  31.719  27.753  1.00  0.00    -0.460 OA
BRANCH  31  32
ATOM     32  C   UNL A   1      34.499  30.373  27.871  1.00  0.00     0.338 C 
ATOM     33  O   UNL A   1      33.611  29.579  27.620  1.00  0.00    -0.246 OA
BRANCH  32  34
ATOM     34  C   UNL A   1      35.894  30.003  28.182  1.00  0.00     0.060 A 
ATOM     35  C   UNL A   1      36.221  29.626  29.491  1.00  0.00     0.016 A 
ATOM     36  C   UNL A   1      36.868  30.025  27.183  1.00  0.00     0.016 A 
ATOM     37  C   UNL A   1      37.540  29.308  29.813  1.00  0.00     0.010 A 
ATOM     38  C   UNL A   1      38.191  29.722  27.510  1.00  0.00     0.010 A 
ATOM     39  C   UNL A   1      38.538  29.398  28.834  1.00  0.00    -0.014 A 
BRANCH  39  40
ATOM     40  C   UNL A   1      39.967  29.349  29.227  1.00  0.00     0.031 A 
ATOM     41  C   UNL A   1      40.724  28.070  28.995  1.00  0.00     0.074 A 
ATOM     42  C   UNL A   1      40.576  30.407  29.789  1.00  0.00     0.049 A 
ATOM     43  N   UNL A   1      41.962  27.775  29.290  1.00  0.00    -0.248 NA
ATOM     44  C   UNL A   1      39.982  26.976  28.345  1.00  0.00     0.031 C 
ATOM     45  C   UNL A   1      39.950  31.699  30.062  1.00  0.00     0.029 A 
ATOM     46  N   UNL A   1      41.859  30.547  30.256  1.00  0.00    -0.354 N 
ATOM     47  C   UNL A   1      42.140  26.456  28.892  1.00  0.00     0.074 A 
ATOM     48  C   UNL A   1      40.880  26.003  28.344  1.00  0.00     0.031 C 
ATOM     49  C   UNL A   1      40.843  32.492  30.679  1.00  0.00     0.029 A 
ATOM     50  C   UNL A   1      42.093  31.757  30.866  1.00  0.00     0.049 A 
ATOM     51  H   UNL A   1      42.546  29.848  30.164  1.00  0.00     0.167 HD
ATOM     52  C   UNL A   1      43.255  25.691  28.961  1.00  0.00     0.034 A 
ATOM     53  C   UNL A   1      43.184  32.206  31.520  1.00  0.00     0.034 A 
ATOM     54  C   UNL A   1      44.509  26.145  29.495  1.00  0.00     0.049 A 
ATOM     55  C   UNL A   1      44.405  31.325  31.609  1.00  0.00     0.074 A 
ATOM     56  C   UNL A   1      45.710  25.462  29.568  1.00  0.00     0.029 A 
ATOM     57  N   UNL A   1      44.720  27.391  30.065  1.00  0.00    -0.354 N 
ATOM     58  N   UNL A   1      44.597  30.124  31.120  1.00  0.00    -0.248 NA
ATOM     59  C   UNL A   1      45.572  31.876  32.315  1.00  0.00     0.031 C 
ATOM     60  C   UNL A   1      46.639  26.284  30.213  1.00  0.00     0.029 A 
ATOM     61  C   UNL A   1      46.029  27.493  30.506  1.00  0.00     0.049 A 
ATOM     62  H   UNL A   1      44.041  28.099  30.145  1.00  0.00     0.167 HD
ATOM     63  C   UNL A   1      45.915  29.793  31.421  1.00  0.00     0.074 A 
ATOM     64  C   UNL A   1      46.479  30.928  32.121  1.00  0.00     0.031 C 
ATOM     65  C   UNL A   1      46.593  28.649  31.153  1.00  0.00     0.034 A 
BRANCH  52  66
ATOM     66  C   UNL A   1      43.169  24.285  28.431  1.00  0.00     0.023 A 
ATOM     67  C   UNL A   1      42.502  23.293  29.180  1.00  0.00     0.012 A 
ATOM     68  C   UNL A   1      43.709  23.955  27.173  1.00  0.00     0.148 A 
ATOM     69  C   UNL A   1      42.402  21.989  28.699  1.00  0.00     0.002 A 
ATOM     70  C   UNL A   1      43.564  22.664  26.680  1.00  0.00     0.091 A 
ATOM     71  F   UNL A   1      44.361  24.906  26.489  1.00  0.00    -0.205 F 
ATOM     72  C   UNL A   1      42.923  21.678  27.446  1.00  0.00     0.022 A 
BRANCH  70  73
ATOM     73  S   UNL A   1      44.130  22.185  25.044  1.00  0.00     0.127 S 
ATOM     74  O   UNL A   1      43.776  20.766  25.014  1.00  0.00    -0.237 OA
ATOM     75  O   UNL A   1      43.314  23.036  24.176  1.00  0.00    -0.237 OA
ATOM     76  O   UNL A   1      45.557  22.472  25.011  1.00  0.00    -0.744 OA
ENDBRANCH  70  73
ENDBRANCH  52  66
BRANCH  53  77
ATOM     77  C   UNL A   1      43.186  33.571  32.121  1.00  0.00     0.023 A 
ATOM     78  C   UNL A   1      43.551  34.679  31.332  1.00  0.00     0.012 A 
ATOM     79  C   UNL A   1      42.826  33.775  33.468  1.00  0.00     0.148 A 
ATOM     80  C   UNL A   1      43.590  35.962  31.883  1.00  0.00     0.002 A 
ATOM     81  C   UNL A   1      42.811  35.062  33.994  1.00  0.00     0.091 A 
ATOM     82  F   UNL A   1      42.499  32.705  34.206  1.00  0.00    -0.205 F 
ATOM     83  C   UNL A   1      43.211  36.154  33.209  1.00  0.00     0.022 A 
BRANCH  81  84
ATOM     84  S   UNL A   1      42.216  35.420  35.649  1.00  0.00     0.127 S 
ATOM     85  O   UNL A   1      40.999  34.615  35.711  1.00  0.00    -0.237 OA
ATOM     86  O   UNL A   1      43.320  34.934  36.477  1.00  0.00    -0.237 OA
ATOM     87  O   UNL A   1      42.022  36.863  35.696  1.00  0.00    -0.744 OA
ENDBRANCH  81  84
ENDBRANCH  53  77
BRANCH  65  88
ATOM     88  C   UNL A   1      48.041  28.574  31.571  1.00  0.00     0.023 A 
ATOM     89  C   UNL A   1      48.383  28.104  32.853  1.00  0.00     0.012 A 
ATOM     90  C   UNL A   1      49.065  28.895  30.657  1.00  0.00     0.148 A 
ATOM     91  C   UNL A   1      49.720  27.988  33.232  1.00  0.00     0.002 A 
ATOM     92  C   UNL A   1      50.395  28.727  31.023  1.00  0.00     0.091 A 
ATOM     93  F   UNL A   1      48.720  29.356  29.446  1.00  0.00    -0.205 F 
ATOM     94  C   UNL A   1      50.725  28.287  32.315  1.00  0.00     0.022 A 
BRANCH  92  95
ATOM     95  S   UNL A   1      51.752  28.993  29.876  1.00  0.00     0.127 S 
ATOM     96  O   UNL A   1      51.862  30.450  29.876  1.00  0.00    -0.237 OA
ATOM     97  O   UNL A   1      52.857  28.297  30.537  1.00  0.00    -0.237 OA
ATOM     98  O   UNL A   1      51.333  28.398  28.613  1.00  0.00    -0.744 OA
ENDBRANCH  92  95
ENDBRANCH  65  88
ENDBRANCH  39  40
ENDBRANCH  32  34
ENDBRANCH  31  32
ENDBRANCH  30  31
ENDBRANCH  29  30
ENDBRANCH  28  29
ENDBRANCH  27  28
ENDBRANCH   1  27
TORSDOF 25
ENDMDL
MODEL 2
REMARK VINA RESULT:      -7.2      3.089      8.484
REMARK SMILES CC[C@@H](C)N1C(=O)c2ccc(C(=O)OCCOCCOCCOCCOC(=O)c3ccc(-c4c5nc(c(-c6cccc(S(=O)(=O)[O-])c6F)c6ccc([nH]6)c(-c6cccc(S(=O)(=O)[O-])c6F)c6nc(c(-c7cccc(S(=O)(=O)[O-])c7F)c7ccc4[nH]7)C=C6)C=C5)cc3)cc2S1(=O)=O
REMARK SMILES IDX 21 1 20 2 19 3 18 4 17 5 16 6 15 7 14 8 12 9 13 10 11 11
REMARK SMILES IDX 5 12 6 13 94 14 7 15 8 16 93 17 95 18 96 19 9 20 92 21 10 22
REMARK SMILES IDX 3 23 4 24 2 25 1 26 22 27 23 28 24 29 25 30 26 31 27 32
REMARK SMILES IDX 28 33 29 34 30 35 91 36 31 37 90 38 32 39 33 40 34 41 84 42
REMARK SMILES IDX 35 43 89 44 83 45 85 46 36 47 88 48 82 49 81 50 37 52 69 53
REMARK SMILES IDX 49 54 68 55 50 56 53 57 67 58 86 59 51 60 52 61 66 63 87 64
REMARK SMILES IDX 54 65 38 66 39 67 47 68 40 69 42 70 48 71 41 72 43 73 44 74
REMARK SMILES IDX 45 75 46 76 70 77 71 78 79 79 72 80 74 81 80 82 73 83 75 84
REMARK SMILES IDX 76 85 77 86 78 87 55 88 56 89 64 90 57 91 59 92 65 93 58 94
REMARK SMILES IDX 60 95 61 96 62 97 63 98
REMARK H PARENT 85 51 53 62
REMARK Flexibility Score: inf
ROOT
ATOM      1  C   UNL A   1      32.826  36.849  30.240  1.00  0.00     0.188 C 
ENDROOT
BRANCH   1   2
ATOM      2  O   UNL A   1      33.216  37.484  31.459  1.00  0.00    -0.377 OA
BRANCH   2   3
ATOM      3  C   UNL A   1      32.853  36.892  32.693  1.00  0.00     0.188 C 
BRANCH   3   4
ATOM      4  C   UNL A   1      34.032  36.575  33.631  1.00  0.00     0.188 C 
BRANCH   4   5
ATOM      5  O   UNL A   1      34.281  35.184  33.762  1.00  0.00    -0.376 OA
BRANCH   5   6
ATOM      6  C   UNL A   1      35.610  34.736  33.969  1.00  0.00     0.202 C 
BRANCH   6   7
ATOM      7  C   UNL A   1      35.950  33.236  33.923  1.00  0.00     0.261 C 
BRANCH   7   8
ATOM      8  O   UNL A   1      36.652  32.700  35.049  1.00  0.00    -0.460 OA
BRANCH   8   9
ATOM      9  C   UNL A   1      37.956  33.007  35.182  1.00  0.00     0.338 C 
ATOM     10  O   UNL A   1      38.767  33.188  34.292  1.00  0.00    -0.246 OA
BRANCH   9  11
ATOM     11  C   UNL A   1      38.194  33.330  36.611  1.00  0.00     0.061 A 
ATOM     12  N   UNL A   1      39.972  35.590  40.436  1.00  0.00    -0.229 N 
ATOM     13  C   UNL A   1      39.139  34.440  40.588  1.00  0.00     0.269 C 
ATOM     14  S   UNL A   1      39.849  36.233  38.866  1.00  0.00     0.267 S 
ATOM     15  O   UNL A   1      38.882  33.853  41.625  1.00  0.00    -0.268 OA
ATOM     16  C   UNL A   1      38.654  33.992  39.268  1.00  0.00     0.061 A 
ATOM     17  C   UNL A   1      39.028  34.841  38.240  1.00  0.00     0.101 A 
ATOM     18  O   UNL A   1      38.933  37.340  38.879  1.00  0.00    -0.201 OA
ATOM     19  O   UNL A   1      41.156  36.282  38.238  1.00  0.00    -0.201 OA
ATOM     20  C   UNL A   1      37.970  32.818  38.992  1.00  0.00     0.016 A 
ATOM     21  C   UNL A   1      38.848  34.532  36.906  1.00  0.00     0.038 A 
ATOM     22  C   UNL A   1      37.727  32.493  37.649  1.00  0.00     0.016 A 
BRANCH  12  23
ATOM     23  C   UNL A   1      40.605  36.426  41.502  1.00  0.00     0.100 C 
ATOM     24  C   UNL A   1      40.476  35.739  42.868  1.00  0.00     0.032 C 
BRANCH  23  25
ATOM     25  C   UNL A   1      39.987  37.839  41.548  1.00  0.00     0.023 C 
ATOM     26  C   UNL A   1      40.987  38.981  41.689  1.00  0.00     0.006 C 
ENDBRANCH  23  25
ENDBRANCH  12  23
ENDBRANCH   9  11
ENDBRANCH   8   9
ENDBRANCH   7   8
ENDBRANCH   6   7
ENDBRANCH   5   6
ENDBRANCH   4   5
ENDBRANCH   3   4
ENDBRANCH   2   3
ENDBRANCH   1   2
BRANCH   1  27
ATOM     27  C   UNL A   1      33.386  35.478  29.786  1.00  0.00     0.188 C 
BRANCH  27  28
ATOM     28  O   UNL A   1      34.460  34.973  30.568  1.00  0.00    -0.376 OA
BRANCH  28  29
ATOM     29  C   UNL A   1      35.140  33.831  30.076  1.00  0.00     0.202 C 
BRANCH  29  30
ATOM     30  C   UNL A   1      34.334  32.974  29.091  1.00  0.00     0.261 C 
BRANCH  30  31
ATOM     31  O   UNL A   1      35.084  32.436  27.993  1.00  0.00    -0.460 OA
BRANCH  31  32
ATOM     32  C   UNL A   1      34.817  31.161  27.631  1.00  0.00     0.338 C 
ATOM     33  O   UNL A   1      33.885  30.769  26.953  1.00  0.00    -0.246 OA
BRANCH  32  34
ATOM     34  C   UNL A   1      35.964  30.330  28.044  1.00  0.00     0.060 A 
ATOM     35  C   UNL A   1      35.938  29.712  29.301  1.00  0.00     0.016 A 
ATOM     36  C   UNL A   1      37.055  30.160  27.190  1.00  0.00     0.016 A 
ATOM     37  C   UNL A   1      37.028  28.951  29.724  1.00  0.00     0.010 A 
ATOM     38  C   UNL A   1      38.152  29.412  27.620  1.00  0.00     0.010 A 
ATOM     39  C   UNL A   1      38.158  28.836  28.904  1.00  0.00    -0.014 A 
BRANCH  39  40
ATOM     40  C   UNL A   1      39.419  28.285  29.455  1.00  0.00     0.031 A 
ATOM     41  C   UNL A   1      40.037  28.974  30.640  1.00  0.00     0.074 A 
ATOM     42  C   UNL A   1      40.011  27.208  28.910  1.00  0.00     0.049 A 
ATOM     43  N   UNL A   1      41.151  28.705  31.267  1.00  0.00    -0.248 NA
ATOM     44  C   UNL A   1      39.301  30.127  31.187  1.00  0.00     0.031 C 
ATOM     45  C   UNL A   1      39.508  26.454  27.764  1.00  0.00     0.029 A 
ATOM     46  N   UNL A   1      41.186  26.580  29.241  1.00  0.00    -0.354 N 
ATOM     47  C   UNL A   1      41.266  29.668  32.263  1.00  0.00     0.074 A 
ATOM     48  C   UNL A   1      40.114  30.537  32.149  1.00  0.00     0.031 C 
ATOM     49  C   UNL A   1      40.387  25.481  27.465  1.00  0.00     0.029 A 
ATOM     50  C   UNL A   1      41.523  25.559  28.382  1.00  0.00     0.049 A 
ATOM     51  H   UNL A   1      41.735  26.835  30.016  1.00  0.00     0.167 HD
ATOM     52  C   UNL A   1      42.233  29.811  33.199  1.00  0.00     0.034 A 
ATOM     53  C   UNL A   1      42.634  24.795  28.331  1.00  0.00     0.034 A 
ATOM     54  C   UNL A   1      43.371  28.941  33.317  1.00  0.00     0.049 A 
ATOM     55  C   UNL A   1      43.712  24.993  29.368  1.00  0.00     0.074 A 
ATOM     56  C   UNL A   1      44.382  28.974  34.260  1.00  0.00     0.029 A 
ATOM     57  N   UNL A   1      43.658  27.893  32.457  1.00  0.00    -0.354 N 
ATOM     58  N   UNL A   1      43.749  25.829  30.377  1.00  0.00    -0.248 NA
ATOM     59  C   UNL A   1      44.890  24.116  29.276  1.00  0.00     0.031 C 
ATOM     60  C   UNL A   1      45.300  27.966  33.949  1.00  0.00     0.029 A 
ATOM     61  C   UNL A   1      44.839  27.279  32.838  1.00  0.00     0.049 A 
ATOM     62  H   UNL A   1      43.103  27.624  31.690  1.00  0.00     0.167 HD
ATOM     63  C   UNL A   1      44.928  25.553  31.062  1.00  0.00     0.074 A 
ATOM     64  C   UNL A   1      45.570  24.460  30.362  1.00  0.00     0.031 C 
ATOM     65  C   UNL A   1      45.439  26.157  32.164  1.00  0.00     0.034 A 
BRANCH  52  66
ATOM     66  C   UNL A   1      42.094  30.946  34.177  1.00  0.00     0.023 A 
ATOM     67  C   UNL A   1      41.500  30.718  35.435  1.00  0.00     0.012 A 
ATOM     68  C   UNL A   1      42.593  32.226  33.870  1.00  0.00     0.148 A 
ATOM     69  C   UNL A   1      41.374  31.754  36.360  1.00  0.00     0.002 A 
ATOM     70  C   UNL A   1      42.506  33.242  34.814  1.00  0.00     0.091 A 
ATOM     71  F   UNL A   1      43.131  32.429  32.659  1.00  0.00    -0.205 F 
ATOM     72  C   UNL A   1      41.887  33.011  36.052  1.00  0.00     0.022 A 
BRANCH  70  73
ATOM     73  S   UNL A   1      43.206  34.874  34.546  1.00  0.00     0.127 S 
ATOM     74  O   UNL A   1      42.890  35.542  35.808  1.00  0.00    -0.237 OA
ATOM     75  O   UNL A   1      44.626  34.571  34.356  1.00  0.00    -0.237 OA
ATOM     76  O   UNL A   1      42.537  35.412  33.370  1.00  0.00    -0.744 OA
ENDBRANCH  70  73
ENDBRANCH  52  66
BRANCH  53  77
ATOM     77  C   UNL A   1      42.775  23.751  27.277  1.00  0.00     0.023 A 
ATOM     78  C   UNL A   1      43.541  24.021  26.127  1.00  0.00     0.012 A 
ATOM     79  C   UNL A   1      42.157  22.491  27.410  1.00  0.00     0.148 A 
ATOM     80  C   UNL A   1      43.661  23.069  25.112  1.00  0.00     0.002 A 
ATOM     81  C   UNL A   1      42.329  21.528  26.424  1.00  0.00     0.091 A 
ATOM     82  F   UNL A   1      41.418  22.260  28.505  1.00  0.00    -0.205 F 
ATOM     83  C   UNL A   1      43.065  21.820  25.266  1.00  0.00     0.022 A 
BRANCH  81  84
ATOM     84  S   UNL A   1      41.705  19.852  26.593  1.00  0.00     0.127 S 
ATOM     85  O   UNL A   1      40.264  20.075  26.673  1.00  0.00    -0.237 OA
ATOM     86  O   UNL A   1      42.166  19.233  25.350  1.00  0.00    -0.237 OA
ATOM     87  O   UNL A   1      42.329  19.318  27.796  1.00  0.00    -0.744 OA
ENDBRANCH  81  84
ENDBRANCH  53  77
BRANCH  65  88
ATOM     88  C   UNL A   1      46.736  25.625  32.721  1.00  0.00     0.023 A 
ATOM     89  C   UNL A   1      46.722  24.684  33.769  1.00  0.00     0.012 A 
ATOM     90  C   UNL A   1      47.968  26.000  32.146  1.00  0.00     0.148 A 
ATOM     91  C   UNL A   1      47.914  24.153  34.260  1.00  0.00     0.002 A 
ATOM     92  C   UNL A   1      49.148  25.427  32.605  1.00  0.00     0.091 A 
ATOM     93  F   UNL A   1      47.963  26.908  31.160  1.00  0.00    -0.205 F 
ATOM     94  C   UNL A   1      49.124  24.513  33.671  1.00  0.00     0.022 A 
BRANCH  92  95
ATOM     95  S   UNL A   1      50.740  25.756  31.842  1.00  0.00     0.127 S 
ATOM     96  O   UNL A   1      51.666  25.266  32.861  1.00  0.00    -0.237 OA
ATOM     97  O   UNL A   1      50.677  24.938  30.630  1.00  0.00    -0.237 OA
ATOM     98  O   UNL A   1      50.781  27.192  31.600  1.00  0.00    -0.744 OA
ENDBRANCH  92  95
ENDBRANCH  65  88
ENDBRANCH  39  40
ENDBRANCH  32  34
ENDBRANCH  31  32
ENDBRANCH  30  31
ENDBRANCH  29  30
ENDBRANCH  28  29
ENDBRANCH  27  28
ENDBRANCH   1  27
TORSDOF 25
ENDMDL
MODEL 3
REMARK VINA RESULT:      -7.1      2.779      4.187
REMARK SMILES CC[C@@H](C)N1C(=O)c2ccc(C(=O)OCCOCCOCCOCCOC(=O)c3ccc(-c4c5nc(c(-c6cccc(S(=O)(=O)[O-])c6F)c6ccc([nH]6)c(-c6cccc(S(=O)(=O)[O-])c6F)c6nc(c(-c7cccc(S(=O)(=O)[O-])c7F)c7ccc4[nH]7)C=C6)C=C5)cc3)cc2S1(=O)=O
REMARK SMILES IDX 21 1 20 2 19 3 18 4 17 5 16 6 15 7 14 8 12 9 13 10 11 11
REMARK SMILES IDX 5 12 6 13 94 14 7 15 8 16 93 17 95 18 96 19 9 20 92 21 10 22
REMARK SMILES IDX 3 23 4 24 2 25 1 26 22 27 23 28 24 29 25 30 26 31 27 32
REMARK SMILES IDX 28 33 29 34 30 35 91 36 31 37 90 38 32 39 33 40 34 41 84 42
REMARK SMILES IDX 35 43 89 44 83 45 85 46 36 47 88 48 82 49 81 50 37 52 69 53
REMARK SMILES IDX 49 54 68 55 50 56 53 57 67 58 86 59 51 60 52 61 66 63 87 64
REMARK SMILES IDX 54 65 38 66 39 67 47 68 40 69 42 70 48 71 41 72 43 73 44 74
REMARK SMILES IDX 45 75 46 76 70 77 71 78 79 79 72 80 74 81 80 82 73 83 75 84
REMARK SMILES IDX 76 85 77 86 78 87 55 88 56 89 64 90 57 91 59 92 65 93 58 94
REMARK SMILES IDX 60 95 61 96 62 97 63 98
REMARK H PARENT 85 51 53 62
REMARK Flexibility Score: inf
ROOT
ATOM      1  C   UNL A   1      32.910  36.735  30.066  1.00  0.00     0.188 C 
ENDROOT
BRANCH   1   2
ATOM      2  O   UNL A   1      33.393  37.369  31.252  1.00  0.00    -0.377 OA
BRANCH   2   3
ATOM      3  C   UNL A   1      32.914  36.934  32.511  1.00  0.00     0.188 C 
BRANCH   3   4
ATOM      4  C   UNL A   1      34.008  36.534  33.517  1.00  0.00     0.188 C 
BRANCH   4   5
ATOM      5  O   UNL A   1      34.583  35.267  33.239  1.00  0.00    -0.376 OA
BRANCH   5   6
ATOM      6  C   UNL A   1      35.864  34.959  33.765  1.00  0.00     0.202 C 
BRANCH   6   7
ATOM      7  C   UNL A   1      37.019  34.550  32.834  1.00  0.00     0.261 C 
BRANCH   7   8
ATOM      8  O   UNL A   1      37.957  33.601  33.351  1.00  0.00    -0.460 OA
BRANCH   8   9
ATOM      9  C   UNL A   1      39.102  34.070  33.880  1.00  0.00     0.338 C 
ATOM     10  O   UNL A   1      40.015  34.621  33.292  1.00  0.00    -0.246 OA
BRANCH   9  11
ATOM     11  C   UNL A   1      38.965  34.021  35.356  1.00  0.00     0.061 A 
ATOM     12  N   UNL A   1      39.666  35.195  39.942  1.00  0.00    -0.229 N 
ATOM     13  C   UNL A   1      38.850  34.077  39.590  1.00  0.00     0.269 C 
ATOM     14  S   UNL A   1      39.927  36.210  38.602  1.00  0.00     0.267 S 
ATOM     15  O   UNL A   1      38.354  33.264  40.350  1.00  0.00    -0.268 OA
ATOM     16  C   UNL A   1      38.724  33.989  38.123  1.00  0.00     0.061 A 
ATOM     17  C   UNL A   1      39.324  35.049  37.465  1.00  0.00     0.101 A 
ATOM     18  O   UNL A   1      39.010  37.316  38.661  1.00  0.00    -0.201 OA
ATOM     19  O   UNL A   1      41.348  36.361  38.353  1.00  0.00    -0.201 OA
ATOM     20  C   UNL A   1      38.160  32.947  37.401  1.00  0.00     0.016 A 
ATOM     21  C   UNL A   1      39.493  35.086  36.094  1.00  0.00     0.038 A 
ATOM     22  C   UNL A   1      38.271  32.973  36.003  1.00  0.00     0.016 A 
BRANCH  12  23
ATOM     23  C   UNL A   1      39.989  35.717  41.305  1.00  0.00     0.100 C 
ATOM     24  C   UNL A   1      39.807  37.240  41.353  1.00  0.00     0.032 C 
BRANCH  23  25
ATOM     25  C   UNL A   1      41.422  35.332  41.729  1.00  0.00     0.023 C 
ATOM     26  C   UNL A   1      41.978  36.107  42.918  1.00  0.00     0.006 C 
ENDBRANCH  23  25
ENDBRANCH  12  23
ENDBRANCH   9  11
ENDBRANCH   8   9
ENDBRANCH   7   8
ENDBRANCH   6   7
ENDBRANCH   5   6
ENDBRANCH   4   5
ENDBRANCH   3   4
ENDBRANCH   2   3
ENDBRANCH   1   2
BRANCH   1  27
ATOM     27  C   UNL A   1      33.439  35.368  29.565  1.00  0.00     0.188 C 
BRANCH  27  28
ATOM     28  O   UNL A   1      34.540  34.841  30.293  1.00  0.00    -0.376 OA
BRANCH  28  29
ATOM     29  C   UNL A   1      35.301  33.819  29.670  1.00  0.00     0.202 C 
BRANCH  29  30
ATOM     30  C   UNL A   1      34.498  32.581  29.250  1.00  0.00     0.261 C 
BRANCH  30  31
ATOM     31  O   UNL A   1      34.787  32.081  27.937  1.00  0.00    -0.460 OA
BRANCH  31  32
ATOM     32  C   UNL A   1      34.680  30.746  27.750  1.00  0.00     0.338 C 
ATOM     33  O   UNL A   1      33.759  30.148  27.224  1.00  0.00    -0.246 OA
BRANCH  32  34
ATOM     34  C   UNL A   1      35.971  30.138  28.127  1.00  0.00     0.060 A 
ATOM     35  C   UNL A   1      36.074  29.467  29.353  1.00  0.00     0.016 A 
ATOM     36  C   UNL A   1      37.069  30.227  27.270  1.00  0.00     0.016 A 
ATOM     37  C   UNL A   1      37.294  28.916  29.743  1.00  0.00     0.010 A 
ATOM     38  C   UNL A   1      38.294  29.690  27.668  1.00  0.00     0.010 A 
ATOM     39  C   UNL A   1      38.421  29.065  28.922  1.00  0.00    -0.014 A 
BRANCH  39  40
ATOM     40  C   UNL A   1      39.768  28.747  29.451  1.00  0.00     0.031 A 
ATOM     41  C   UNL A   1      40.534  27.620  28.814  1.00  0.00     0.074 A 
ATOM     42  C   UNL A   1      40.297  29.431  30.481  1.00  0.00     0.049 A 
ATOM     43  N   UNL A   1      41.705  27.133  29.127  1.00  0.00    -0.248 NA
ATOM     44  C   UNL A   1      39.888  26.950  27.673  1.00  0.00     0.031 C 
ATOM     45  C   UNL A   1      39.655  30.543  31.178  1.00  0.00     0.029 A 
ATOM     46  N   UNL A   1      41.493  29.266  31.134  1.00  0.00    -0.354 N 
ATOM     47  C   UNL A   1      41.925  26.082  28.243  1.00  0.00     0.074 A 
ATOM     48  C   UNL A   1      40.760  25.994  27.390  1.00  0.00     0.031 C 
ATOM     49  C   UNL A   1      40.451  30.941  32.185  1.00  0.00     0.029 A 
ATOM     50  C   UNL A   1      41.645  30.098  32.219  1.00  0.00     0.049 A 
ATOM     51  H   UNL A   1      42.175  28.614  30.856  1.00  0.00     0.167 HD
ATOM     52  C   UNL A   1      43.003  25.271  28.140  1.00  0.00     0.034 A 
ATOM     53  C   UNL A   1      42.626  30.153  33.143  1.00  0.00     0.034 A 
ATOM     54  C   UNL A   1      44.164  25.367  28.982  1.00  0.00     0.049 A 
ATOM     55  C   UNL A   1      43.805  29.219  33.024  1.00  0.00     0.074 A 
ATOM     56  C   UNL A   1      45.328  24.621  28.928  1.00  0.00     0.029 A 
ATOM     57  N   UNL A   1      44.301  26.249  30.042  1.00  0.00    -0.354 N 
ATOM     58  N   UNL A   1      44.054  28.312  32.111  1.00  0.00    -0.248 NA
ATOM     59  C   UNL A   1      44.854  29.339  34.048  1.00  0.00     0.031 C 
ATOM     60  C   UNL A   1      46.156  25.031  29.978  1.00  0.00     0.029 A 
ATOM     61  C   UNL A   1      45.525  26.059  30.660  1.00  0.00     0.049 A 
ATOM     62  H   UNL A   1      43.628  26.914  30.315  1.00  0.00     0.167 HD
ATOM     63  C   UNL A   1      45.302  27.784  32.424  1.00  0.00     0.074 A 
ATOM     64  C   UNL A   1      45.766  28.485  33.604  1.00  0.00     0.031 C 
ATOM     65  C   UNL A   1      45.998  26.800  31.800  1.00  0.00     0.034 A 
BRANCH  52  66
ATOM     66  C   UNL A   1      42.982  24.216  27.067  1.00  0.00     0.023 A 
ATOM     67  C   UNL A   1      43.656  24.440  25.850  1.00  0.00     0.012 A 
ATOM     68  C   UNL A   1      42.333  22.985  27.282  1.00  0.00     0.148 A 
ATOM     69  C   UNL A   1      43.659  23.469  24.850  1.00  0.00     0.002 A 
ATOM     70  C   UNL A   1      42.379  22.003  26.299  1.00  0.00     0.091 A 
ATOM     71  F   UNL A   1      41.676  22.801  28.436  1.00  0.00    -0.205 F 
ATOM     72  C   UNL A   1      43.029  22.248  25.079  1.00  0.00     0.022 A 
BRANCH  70  73
ATOM     73  S   UNL A   1      41.667  20.371  26.529  1.00  0.00     0.127 S 
ATOM     74  O   UNL A   1      42.286  19.953  27.786  1.00  0.00    -0.237 OA
ATOM     75  O   UNL A   1      40.237  20.670  26.623  1.00  0.00    -0.237 OA
ATOM     76  O   UNL A   1      42.050  19.595  25.357  1.00  0.00    -0.744 OA
ENDBRANCH  70  73
ENDBRANCH  52  66
BRANCH  53  77
ATOM     77  C   UNL A   1      42.553  31.147  34.252  1.00  0.00     0.023 A 
ATOM     78  C   UNL A   1      41.934  30.793  35.466  1.00  0.00     0.012 A 
ATOM     79  C   UNL A   1      43.097  32.440  34.110  1.00  0.00     0.148 A 
ATOM     80  C   UNL A   1      41.827  31.718  36.506  1.00  0.00     0.002 A 
ATOM     81  C   UNL A   1      43.038  33.336  35.170  1.00  0.00     0.091 A 
ATOM     82  F   UNL A   1      43.667  32.763  32.940  1.00  0.00    -0.205 F 
ATOM     83  C   UNL A   1      42.388  32.984  36.362  1.00  0.00     0.022 A 
BRANCH  81  84
ATOM     84  S   UNL A   1      43.843  34.941  35.122  1.00  0.00     0.127 S 
ATOM     85  O   UNL A   1      43.773  35.353  36.521  1.00  0.00    -0.237 OA
ATOM     86  O   UNL A   1      45.183  34.591  34.648  1.00  0.00    -0.237 OA
ATOM     87  O   UNL A   1      43.067  35.745  34.187  1.00  0.00    -0.744 OA
ENDBRANCH  81  84
ENDBRANCH  53  77
BRANCH  65  88
ATOM     88  C   UNL A   1      47.360  26.447  32.343  1.00  0.00     0.023 A 
ATOM     89  C   UNL A   1      47.487  25.478  33.357  1.00  0.00     0.012 A 
ATOM     90  C   UNL A   1      48.521  27.021  31.787  1.00  0.00     0.148 A 
ATOM     91  C   UNL A   1      48.746  25.112  33.833  1.00  0.00     0.002 A 
ATOM     92  C   UNL A   1      49.774  26.614  32.230  1.00  0.00     0.091 A 
ATOM     93  F   UNL A   1      48.380  27.954  30.834  1.00  0.00    -0.205 F 
ATOM     94  C   UNL A   1      49.888  25.669  33.262  1.00  0.00     0.022 A 
BRANCH  92  95
ATOM     95  S   UNL A   1      51.299  27.203  31.485  1.00  0.00     0.127 S 
ATOM     96  O   UNL A   1      51.411  26.338  30.312  1.00  0.00    -0.237 OA
ATOM     97  O   UNL A   1      50.977  28.599  31.185  1.00  0.00    -0.237 OA
ATOM     98  O   UNL A   1      52.334  27.026  32.494  1.00  0.00    -0.744 OA
ENDBRANCH  92  95
ENDBRANCH  65  88
ENDBRANCH  39  40
ENDBRANCH  32  34
ENDBRANCH  31  32
ENDBRANCH  30  31
ENDBRANCH  29  30
ENDBRANCH  28  29
ENDBRANCH  27  28
ENDBRANCH   1  27
TORSDOF 25
ENDMDL
