MODEL 1
REMARK VINA RESULT:      -9.5      0.000      0.000
REMARK SMILES COc1ccc(NC(=O)N[C@@H]2C=C[C@H](C(=O)OCCOCCOCCOCCOC(=O)c3ccc(-c4c5nc(c(-c6cccc(S(=O)(=O)[O-])c6F)c6ccc([nH]6)c(-c6cccc(S(=O)(=O)[O-])c6F)c6nc(c(-c7cccc(S(=O)(=O)[O-])c7F)c7ccc4[nH]7)C=C6)C=C5)cc3)C2)c(C)c1
REMARK SMILES IDX 23 1 22 2 21 3 20 4 19 5 18 6 17 7 15 8 16 9 14 10 11 11
REMARK SMILES IDX 12 12 95 13 13 14 10 15 7 16 8 17 9 19 6 21 3 22 4 23 98 24
REMARK SMILES IDX 5 25 96 26 97 27 2 28 1 29 24 30 25 31 26 32 27 33 28 34
REMARK SMILES IDX 29 35 30 36 31 37 32 38 33 39 94 40 34 41 93 42 35 43 36 44
REMARK SMILES IDX 37 45 87 46 38 47 92 48 86 49 88 50 39 51 91 52 85 53 84 54
REMARK SMILES IDX 40 56 72 57 52 58 71 59 53 60 56 61 70 62 89 63 54 64 55 65
REMARK SMILES IDX 69 67 90 68 57 69 41 70 42 71 50 72 43 73 45 74 51 75 44 76
REMARK SMILES IDX 46 77 47 78 48 79 49 80 73 81 74 82 82 83 75 84 77 85 83 86
REMARK SMILES IDX 76 87 78 88 79 89 80 90 81 91 58 92 59 93 67 94 60 95 62 96
REMARK SMILES IDX 68 97 61 98 63 99 64 100 65 101 66 102
REMARK H PARENT 7 18 10 20 88 55 56 66
REMARK Flexibility Score: inf
ROOT
ATOM      1  O   UNL A   1      38.818  30.658  32.123  1.00  0.00    -0.377 OA
ENDROOT
BRANCH   1   2
ATOM      2  C   UNL A   1      38.358  30.873  33.445  1.00  0.00     0.188 C 
BRANCH   2   3
ATOM      3  C   UNL A   1      37.182  31.905  33.752  1.00  0.00     0.188 C 
BRANCH   3   4
ATOM      4  O   UNL A   1      36.599  32.904  32.756  1.00  0.00    -0.376 OA
BRANCH   4   5
ATOM      5  C   UNL A   1      35.761  32.725  31.393  1.00  0.00     0.202 C 
BRANCH   5   6
ATOM      6  C   UNL A   1      36.045  32.227  29.646  1.00  0.00     0.261 C 
BRANCH   6   7
ATOM      7  O   UNL A   1      35.099  31.184  28.471  1.00  0.00    -0.463 OA
BRANCH   7   8
ATOM      8  C   UNL A   1      33.940  30.962  27.538  1.00  0.00     0.312 C 
ATOM      9  O   UNL A   1      33.066  31.846  27.474  1.00  0.00    -0.252 OA
BRANCH   8  10
ATOM     10  C   UNL A   1      33.591  29.585  26.454  1.00  0.00     0.124 C 
ATOM     11  C   UNL A   1      32.363  27.771  25.054  1.00  0.00     0.107 C 
ATOM     12  C   UNL A   1      32.814  27.307  26.411  1.00  0.00    -0.006 C 
ATOM     13  C   UNL A   1      32.640  29.262  25.198  1.00  0.00     0.048 C 
ATOM     14  C   UNL A   1      33.459  28.241  27.138  1.00  0.00    -0.014 C 
BRANCH  11  15
ATOM     15  N   UNL A   1      30.927  27.393  24.846  1.00  0.00    -0.332 N 
ATOM     16  N   UNL A   1      30.744  25.242  23.777  1.00  0.00    -0.308 N 
ATOM     17  C   UNL A   1      30.217  26.402  24.235  1.00  0.00     0.319 C 
ATOM     18  H   UNL A   1      30.320  24.873  22.969  1.00  0.00     0.171 HD
ATOM     19  O   UNL A   1      29.008  26.574  24.052  1.00  0.00    -0.248 OA
ATOM     20  H   UNL A   1      30.326  28.045  25.272  1.00  0.00     0.165 HD
BRANCH  16  21
ATOM     21  C   UNL A   1      31.803  24.500  24.294  1.00  0.00     0.046 A 
ATOM     22  C   UNL A   1      33.707  22.544  24.587  1.00  0.00     0.119 A 
ATOM     23  C   UNL A   1      34.004  23.673  23.839  1.00  0.00     0.048 A 
ATOM     24  C   UNL A   1      32.590  22.549  25.427  1.00  0.00     0.052 A 
ATOM     25  C   UNL A   1      33.053  24.663  23.713  1.00  0.00     0.030 A 
ATOM     26  C   UNL A   1      31.633  23.574  25.331  1.00  0.00    -0.024 A 
ATOM     27  C   UNL A   1      30.552  23.661  26.374  1.00  0.00     0.047 C 
BRANCH  22  28
ATOM     28  O   UNL A   1      34.471  21.410  24.546  1.00  0.00    -0.497 OA
ATOM     29  C   UNL A   1      35.633  21.504  25.382  1.00  0.00     0.278 C 
ENDBRANCH  22  28
ENDBRANCH  16  21
ENDBRANCH  11  15
ENDBRANCH   8  10
ENDBRANCH   7   8
ENDBRANCH   6   7
ENDBRANCH   5   6
ENDBRANCH   4   5
ENDBRANCH   3   4
ENDBRANCH   2   3
ENDBRANCH   1   2
BRANCH   1  30
ATOM     30  C   UNL A   1      40.180  30.990  31.957  1.00  0.00     0.188 C 
BRANCH  30  31
ATOM     31  C   UNL A   1      40.659  32.021  32.982  1.00  0.00     0.188 C 
BRANCH  31  32
ATOM     32  O   UNL A   1      40.422  33.347  32.515  1.00  0.00    -0.376 OA
BRANCH  32  33
ATOM     33  C   UNL A   1      41.183  34.394  33.077  1.00  0.00     0.202 C 
BRANCH  33  34
ATOM     34  C   UNL A   1      42.205  34.908  32.067  1.00  0.00     0.261 C 
BRANCH  34  35
ATOM     35  O   UNL A   1      43.443  34.169  32.178  1.00  0.00    -0.460 OA
BRANCH  35  36
ATOM     36  C   UNL A   1      44.486  34.659  31.448  1.00  0.00     0.338 C 
ATOM     37  O   UNL A   1      44.876  35.820  31.509  1.00  0.00    -0.246 OA
BRANCH  36  38
ATOM     38  C   UNL A   1      44.932  33.618  30.465  1.00  0.00     0.060 A 
ATOM     39  C   UNL A   1      44.057  32.631  30.033  1.00  0.00     0.016 A 
ATOM     40  C   UNL A   1      46.295  33.451  30.187  1.00  0.00     0.016 A 
ATOM     41  C   UNL A   1      44.583  31.423  29.525  1.00  0.00     0.010 A 
ATOM     42  C   UNL A   1      46.808  32.186  29.860  1.00  0.00     0.010 A 
ATOM     43  C   UNL A   1      45.961  31.089  29.663  1.00  0.00    -0.014 A 
BRANCH  43  44
ATOM     44  C   UNL A   1      46.658  29.577  29.620  1.00  0.00     0.031 A 
ATOM     45  C   UNL A   1      46.587  29.558  27.830  1.00  0.00     0.074 A 
ATOM     46  C   UNL A   1      46.946  28.357  30.731  1.00  0.00     0.049 A 
ATOM     47  N   UNL A   1      46.041  28.624  27.083  1.00  0.00    -0.248 NA
ATOM     48  C   UNL A   1      46.966  30.673  26.930  1.00  0.00     0.031 C 
ATOM     49  C   UNL A   1      47.537  26.754  30.633  1.00  0.00     0.029 A 
ATOM     50  N   UNL A   1      46.419  27.949  32.092  1.00  0.00    -0.354 N 
ATOM     51  C   UNL A   1      46.594  28.697  25.838  1.00  0.00     0.074 A 
ATOM     52  C   UNL A   1      46.879  30.107  25.711  1.00  0.00     0.031 C 
ATOM     53  C   UNL A   1      47.287  25.939  31.654  1.00  0.00     0.029 A 
ATOM     54  C   UNL A   1      46.243  26.560  32.344  1.00  0.00     0.049 A 
ATOM     55  H   UNL A   1      46.208  28.621  32.779  1.00  0.00     0.167 HD
ATOM     56  C   UNL A   1      47.050  27.582  25.172  1.00  0.00     0.034 A 
ATOM     57  C   UNL A   1      45.095  25.862  32.612  1.00  0.00     0.034 A 
ATOM     58  C   UNL A   1      47.066  26.320  26.004  1.00  0.00     0.049 A 
ATOM     59  C   UNL A   1      44.845  24.786  31.508  1.00  0.00     0.074 A 
ATOM     60  C   UNL A   1      48.120  25.620  26.592  1.00  0.00     0.029 A 
ATOM     61  N   UNL A   1      45.915  25.715  26.545  1.00  0.00    -0.354 N 
ATOM     62  N   UNL A   1      45.501  24.742  30.367  1.00  0.00    -0.248 NA
ATOM     63  C   UNL A   1      43.910  23.671  31.587  1.00  0.00     0.031 C 
ATOM     64  C   UNL A   1      47.612  24.675  27.532  1.00  0.00     0.029 A 
ATOM     65  C   UNL A   1      46.227  24.732  27.519  1.00  0.00     0.049 A 
ATOM     66  H   UNL A   1      44.997  25.949  26.278  1.00  0.00     0.167 HD
ATOM     67  C   UNL A   1      44.962  23.846  29.493  1.00  0.00     0.074 A 
ATOM     68  C   UNL A   1      44.082  23.087  30.380  1.00  0.00     0.031 C 
ATOM     69  C   UNL A   1      45.200  23.846  28.129  1.00  0.00     0.034 A 
BRANCH  56  70
ATOM     70  C   UNL A   1      47.927  27.787  23.920  1.00  0.00     0.023 A 
ATOM     71  C   UNL A   1      47.325  27.981  22.659  1.00  0.00     0.012 A 
ATOM     72  C   UNL A   1      49.346  27.744  23.919  1.00  0.00     0.148 A 
ATOM     73  C   UNL A   1      48.056  27.990  21.461  1.00  0.00     0.002 A 
ATOM     74  C   UNL A   1      50.075  27.686  22.720  1.00  0.00     0.091 A 
ATOM     75  F   UNL A   1      50.001  27.803  25.089  1.00  0.00    -0.205 F 
ATOM     76  C   UNL A   1      49.428  27.798  21.488  1.00  0.00     0.022 A 
BRANCH  74  77
ATOM     77  S   UNL A   1      51.843  27.326  22.682  1.00  0.00     0.127 S 
ATOM     78  O   UNL A   1      52.444  28.655  22.823  1.00  0.00    -0.237 OA
ATOM     79  O   UNL A   1      52.019  26.460  23.845  1.00  0.00    -0.237 OA
ATOM     80  O   UNL A   1      52.086  26.709  21.382  1.00  0.00    -0.744 OA
ENDBRANCH  74  77
ENDBRANCH  56  70
BRANCH  57  81
ATOM     81  C   UNL A   1      44.093  26.568  33.473  1.00  0.00     0.023 A 
ATOM     82  C   UNL A   1      43.198  27.448  32.810  1.00  0.00     0.012 A 
ATOM     83  C   UNL A   1      43.773  26.175  34.783  1.00  0.00     0.148 A 
ATOM     84  C   UNL A   1      41.981  27.827  33.382  1.00  0.00     0.002 A 
ATOM     85  C   UNL A   1      42.503  26.455  35.297  1.00  0.00     0.091 A 
ATOM     86  F   UNL A   1      44.667  25.449  35.468  1.00  0.00    -0.205 F 
ATOM     87  C   UNL A   1      41.614  27.295  34.610  1.00  0.00     0.022 A 
BRANCH  85  88
ATOM     88  S   UNL A   1      41.809  25.536  36.686  1.00  0.00     0.127 S 
ATOM     89  O   UNL A   1      40.653  26.358  37.033  1.00  0.00    -0.237 OA
ATOM     90  O   UNL A   1      41.478  24.247  36.074  1.00  0.00    -0.237 OA
ATOM     91  O   UNL A   1      42.869  25.483  37.683  1.00  0.00    -0.744 OA
ENDBRANCH  85  88
ENDBRANCH  57  81
BRANCH  69  92
ATOM     92  C   UNL A   1      44.462  22.920  27.183  1.00  0.00     0.023 A 
ATOM     93  C   UNL A   1      45.149  22.061  26.309  1.00  0.00     0.012 A 
ATOM     94  C   UNL A   1      43.049  22.789  27.237  1.00  0.00     0.148 A 
ATOM     95  C   UNL A   1      44.477  21.182  25.460  1.00  0.00     0.002 A 
ATOM     96  C   UNL A   1      42.396  21.818  26.488  1.00  0.00     0.091 A 
ATOM     97  F   UNL A   1      42.323  23.624  27.994  1.00  0.00    -0.205 F 
ATOM     98  C   UNL A   1      43.102  21.041  25.567  1.00  0.00     0.022 A 
BRANCH  96  99
ATOM     99  S   UNL A   1      40.672  21.408  26.789  1.00  0.00     0.127 S 
ATOM    100  O   UNL A   1      39.993  22.632  26.371  1.00  0.00    -0.237 OA
ATOM    101  O   UNL A   1      40.466  20.263  25.900  1.00  0.00    -0.237 OA
ATOM    102  O   UNL A   1      40.597  21.083  28.207  1.00  0.00    -0.744 OA
ENDBRANCH  96  99
ENDBRANCH  69  92
ENDBRANCH  43  44
ENDBRANCH  36  38
ENDBRANCH  35  36
ENDBRANCH  34  35
ENDBRANCH  33  34
ENDBRANCH  32  33
ENDBRANCH  31  32
ENDBRANCH  30  31
ENDBRANCH   1  30
TORSDOF 26
ENDMDL
MODEL 2
REMARK VINA RESULT:      -9.2      9.488     15.445
REMARK SMILES COc1ccc(NC(=O)N[C@@H]2C=C[C@H](C(=O)OCCOCCOCCOCCOC(=O)c3ccc(-c4c5nc(c(-c6cccc(S(=O)(=O)[O-])c6F)c6ccc([nH]6)c(-c6cccc(S(=O)(=O)[O-])c6F)c6nc(c(-c7cccc(S(=O)(=O)[O-])c7F)c7ccc4[nH]7)C=C6)C=C5)cc3)C2)c(C)c1
REMARK SMILES IDX 23 1 22 2 21 3 20 4 19 5 18 6 17 7 15 8 16 9 14 10 11 11
REMARK SMILES IDX 12 12 95 13 13 14 10 15 7 16 8 17 9 19 6 21 3 22 4 23 98 24
REMARK SMILES IDX 5 25 96 26 97 27 2 28 1 29 24 30 25 31 26 32 27 33 28 34
REMARK SMILES IDX 29 35 30 36 31 37 32 38 33 39 94 40 34 41 93 42 35 43 36 44
REMARK SMILES IDX 37 45 87 46 38 47 92 48 86 49 88 50 39 51 91 52 85 53 84 54
REMARK SMILES IDX 40 56 72 57 52 58 71 59 53 60 56 61 70 62 89 63 54 64 55 65
REMARK SMILES IDX 69 67 90 68 57 69 41 70 42 71 50 72 43 73 45 74 51 75 44 76
REMARK SMILES IDX 46 77 47 78 48 79 49 80 73 81 74 82 82 83 75 84 77 85 83 86
REMARK SMILES IDX 76 87 78 88 79 89 80 90 81 91 58 92 59 93 67 94 60 95 62 96
REMARK SMILES IDX 68 97 61 98 63 99 64 100 65 101 66 102
REMARK H PARENT 7 18 10 20 88 55 56 66
REMARK Flexibility Score: inf
ROOT
ATOM      1  O   UNL A   1      44.387  43.837  29.626  1.00  0.00    -0.377 OA
ENDROOT
BRANCH   1   2
ATOM      2  C   UNL A   1      45.108  43.896  28.409  1.00  0.00     0.188 C 
BRANCH   2   3
ATOM      3  C   UNL A   1      45.585  42.568  27.667  1.00  0.00     0.188 C 
BRANCH   3   4
ATOM      4  O   UNL A   1      45.191  42.156  26.251  1.00  0.00    -0.376 OA
BRANCH   4   5
ATOM      5  C   UNL A   1      43.842  42.346  25.392  1.00  0.00     0.202 C 
BRANCH   5   6
ATOM      6  C   UNL A   1      43.142  43.505  24.148  1.00  0.00     0.261 C 
BRANCH   6   7
ATOM      7  O   UNL A   1      43.366  43.684  22.338  1.00  0.00    -0.463 OA
BRANCH   7   8
ATOM      8  C   UNL A   1      43.638  43.105  20.976  1.00  0.00     0.312 C 
ATOM      9  O   UNL A   1      43.808  41.875  20.889  1.00  0.00    -0.252 OA
BRANCH   8  10
ATOM     10  C   UNL A   1      43.763  43.920  19.390  1.00  0.00     0.124 C 
ATOM     11  C   UNL A   1      43.360  45.509  17.372  1.00  0.00     0.107 C 
ATOM     12  C   UNL A   1      42.678  44.175  17.257  1.00  0.00    -0.006 C 
ATOM     13  C   UNL A   1      43.829  45.422  18.820  1.00  0.00     0.048 C 
ATOM     14  C   UNL A   1      42.890  43.343  18.296  1.00  0.00    -0.014 C 
BRANCH  11  15
ATOM     15  N   UNL A   1      42.379  46.602  17.071  1.00  0.00    -0.332 N 
ATOM     16  N   UNL A   1      43.113  48.703  17.992  1.00  0.00    -0.308 N 
ATOM     17  C   UNL A   1      42.192  47.914  17.392  1.00  0.00     0.319 C 
ATOM     18  H   UNL A   1      42.754  49.387  18.602  1.00  0.00     0.171 HD
ATOM     19  O   UNL A   1      41.094  48.426  17.149  1.00  0.00    -0.248 OA
ATOM     20  H   UNL A   1      41.669  46.282  16.470  1.00  0.00     0.165 HD
BRANCH  16  21
ATOM     21  C   UNL A   1      44.499  48.680  17.865  1.00  0.00     0.046 A 
ATOM     22  C   UNL A   1      47.052  47.784  17.399  1.00  0.00     0.119 A 
ATOM     23  C   UNL A   1      46.308  48.289  16.343  1.00  0.00     0.048 A 
ATOM     24  C   UNL A   1      46.634  48.018  18.711  1.00  0.00     0.052 A 
ATOM     25  C   UNL A   1      45.035  48.759  16.586  1.00  0.00     0.030 A 
ATOM     26  C   UNL A   1      45.351  48.531  18.967  1.00  0.00    -0.024 A 
ATOM     27  C   UNL A   1      45.002  48.956  20.368  1.00  0.00     0.047 C 
BRANCH  22  28
ATOM     28  O   UNL A   1      48.198  47.060  17.212  1.00  0.00    -0.497 OA
ATOM     29  C   UNL A   1      49.358  47.733  17.720  1.00  0.00     0.278 C 
ENDBRANCH  22  28
ENDBRANCH  16  21
ENDBRANCH  11  15
ENDBRANCH   8  10
ENDBRANCH   7   8
ENDBRANCH   6   7
ENDBRANCH   5   6
ENDBRANCH   4   5
ENDBRANCH   3   4
ENDBRANCH   2   3
ENDBRANCH   1   2
BRANCH   1  30
ATOM     30  C   UNL A   1      45.096  43.174  30.651  1.00  0.00     0.188 C 
BRANCH  30  31
ATOM     31  C   UNL A   1      44.391  43.272  32.007  1.00  0.00     0.188 C 
BRANCH  31  32
ATOM     32  O   UNL A   1      43.023  42.887  31.895  1.00  0.00    -0.376 OA
BRANCH  32  33
ATOM     33  C   UNL A   1      42.724  41.510  31.827  1.00  0.00     0.202 C 
BRANCH  33  34
ATOM     34  C   UNL A   1      42.060  41.177  30.494  1.00  0.00     0.261 C 
BRANCH  34  35
ATOM     35  O   UNL A   1      42.961  40.420  29.654  1.00  0.00    -0.460 OA
BRANCH  35  36
ATOM     36  C   UNL A   1      42.428  39.964  28.483  1.00  0.00     0.338 C 
ATOM     37  O   UNL A   1      41.447  40.461  27.941  1.00  0.00    -0.246 OA
BRANCH  36  38
ATOM     38  C   UNL A   1      43.115  38.689  28.092  1.00  0.00     0.060 A 
ATOM     39  C   UNL A   1      42.771  38.030  26.920  1.00  0.00     0.016 A 
ATOM     40  C   UNL A   1      43.901  38.000  29.025  1.00  0.00     0.016 A 
ATOM     41  C   UNL A   1      43.043  36.649  26.806  1.00  0.00     0.010 A 
ATOM     42  C   UNL A   1      43.998  36.600  28.982  1.00  0.00     0.010 A 
ATOM     43  C   UNL A   1      43.435  35.867  27.930  1.00  0.00    -0.014 A 
BRANCH  43  44
ATOM     44  C   UNL A   1      43.296  34.219  28.129  1.00  0.00     0.031 A 
ATOM     45  C   UNL A   1      41.829  34.430  29.135  1.00  0.00     0.074 A 
ATOM     46  C   UNL A   1      44.289  32.892  27.882  1.00  0.00     0.049 A 
ATOM     47  N   UNL A   1      41.637  33.947  30.343  1.00  0.00    -0.248 NA
ATOM     48  C   UNL A   1      40.688  35.330  28.838  1.00  0.00     0.031 C 
ATOM     49  C   UNL A   1      44.174  31.221  28.228  1.00  0.00     0.029 A 
ATOM     50  N   UNL A   1      45.773  32.632  27.725  1.00  0.00    -0.354 N 
ATOM     51  C   UNL A   1      40.293  33.888  30.571  1.00  0.00     0.074 A 
ATOM     52  C   UNL A   1      39.803  35.006  29.799  1.00  0.00     0.031 C 
ATOM     53  C   UNL A   1      45.299  30.511  28.234  1.00  0.00     0.029 A 
ATOM     54  C   UNL A   1      46.310  31.469  28.343  1.00  0.00     0.049 A 
ATOM     55  H   UNL A   1      46.347  33.247  27.212  1.00  0.00     0.167 HD
ATOM     56  C   UNL A   1      39.687  32.770  31.094  1.00  0.00     0.034 A 
ATOM     57  C   UNL A   1      47.242  31.363  29.341  1.00  0.00     0.034 A 
ATOM     58  C   UNL A   1      40.592  31.564  31.209  1.00  0.00     0.049 A 
ATOM     59  C   UNL A   1      46.622  30.656  30.588  1.00  0.00     0.074 A 
ATOM     60  C   UNL A   1      40.664  30.394  30.453  1.00  0.00     0.029 A 
ATOM     61  N   UNL A   1      41.739  31.512  32.024  1.00  0.00    -0.354 N 
ATOM     62  N   UNL A   1      45.333  30.435  30.739  1.00  0.00    -0.248 NA
ATOM     63  C   UNL A   1      47.356  30.107  31.721  1.00  0.00     0.031 C 
ATOM     64  C   UNL A   1      41.875  29.699  30.747  1.00  0.00     0.029 A 
ATOM     65  C   UNL A   1      42.564  30.398  31.726  1.00  0.00     0.049 A 
ATOM     66  H   UNL A   1      41.946  32.175  32.722  1.00  0.00     0.167 HD
ATOM     67  C   UNL A   1      45.025  29.996  31.991  1.00  0.00     0.074 A 
ATOM     68  C   UNL A   1      46.351  29.645  32.497  1.00  0.00     0.031 C 
ATOM     69  C   UNL A   1      43.754  30.033  32.541  1.00  0.00     0.034 A 
BRANCH  56  70
ATOM     70  C   UNL A   1      38.149  32.676  31.032  1.00  0.00     0.023 A 
ATOM     71  C   UNL A   1      37.519  32.144  29.887  1.00  0.00     0.012 A 
ATOM     72  C   UNL A   1      37.275  33.143  32.049  1.00  0.00     0.148 A 
ATOM     73  C   UNL A   1      36.130  32.199  29.689  1.00  0.00     0.002 A 
ATOM     74  C   UNL A   1      35.893  33.260  31.827  1.00  0.00     0.091 A 
ATOM     75  F   UNL A   1      37.778  33.439  33.256  1.00  0.00    -0.205 F 
ATOM     76  C   UNL A   1      35.320  32.797  30.641  1.00  0.00     0.022 A 
BRANCH  74  77
ATOM     77  S   UNL A   1      34.802  34.127  32.974  1.00  0.00     0.127 S 
ATOM     78  O   UNL A   1      34.755  33.219  34.123  1.00  0.00    -0.237 OA
ATOM     79  O   UNL A   1      35.523  35.373  33.221  1.00  0.00    -0.237 OA
ATOM     80  O   UNL A   1      33.527  34.254  32.277  1.00  0.00    -0.744 OA
ENDBRANCH  74  77
ENDBRANCH  56  70
BRANCH  57  81
ATOM     81  C   UNL A   1      48.362  32.357  29.290  1.00  0.00     0.023 A 
ATOM     82  C   UNL A   1      49.287  32.214  28.224  1.00  0.00     0.012 A 
ATOM     83  C   UNL A   1      48.361  33.571  29.997  1.00  0.00     0.148 A 
ATOM     84  C   UNL A   1      50.096  33.273  27.804  1.00  0.00     0.002 A 
ATOM     85  C   UNL A   1      49.079  34.662  29.495  1.00  0.00     0.091 A 
ATOM     86  F   UNL A   1      47.584  33.678  31.083  1.00  0.00    -0.205 F 
ATOM     87  C   UNL A   1      49.960  34.512  28.414  1.00  0.00     0.022 A 
BRANCH  85  88
ATOM     88  S   UNL A   1      48.703  36.360  29.979  1.00  0.00     0.127 S 
ATOM     89  O   UNL A   1      49.544  37.119  29.058  1.00  0.00    -0.237 OA
ATOM     90  O   UNL A   1      47.267  36.451  29.709  1.00  0.00    -0.237 OA
ATOM     91  O   UNL A   1      49.066  36.449  31.387  1.00  0.00    -0.744 OA
ENDBRANCH  85  88
ENDBRANCH  57  81
BRANCH  69  92
ATOM     92  C   UNL A   1      43.493  29.669  33.989  1.00  0.00     0.023 A 
ATOM     93  C   UNL A   1      43.458  30.647  34.998  1.00  0.00     0.012 A 
ATOM     94  C   UNL A   1      43.142  28.346  34.362  1.00  0.00     0.148 A 
ATOM     95  C   UNL A   1      43.185  30.325  36.327  1.00  0.00     0.002 A 
ATOM     96  C   UNL A   1      42.739  28.056  35.660  1.00  0.00     0.091 A 
ATOM     97  F   UNL A   1      43.224  27.349  33.469  1.00  0.00    -0.205 F 
ATOM     98  C   UNL A   1      42.800  29.034  36.655  1.00  0.00     0.022 A 
BRANCH  96  99
ATOM     99  S   UNL A   1      41.973  26.483  36.072  1.00  0.00     0.127 S 
ATOM    100  O   UNL A   1      43.107  25.565  35.995  1.00  0.00    -0.237 OA
ATOM    101  O   UNL A   1      41.477  26.725  37.428  1.00  0.00    -0.237 OA
ATOM    102  O   UNL A   1      40.925  26.294  35.078  1.00  0.00    -0.744 OA
ENDBRANCH  96  99
ENDBRANCH  69  92
ENDBRANCH  43  44
ENDBRANCH  36  38
ENDBRANCH  35  36
ENDBRANCH  34  35
ENDBRANCH  33  34
ENDBRANCH  32  33
ENDBRANCH  31  32
ENDBRANCH  30  31
ENDBRANCH   1  30
TORSDOF 26
ENDMDL
MODEL 3
REMARK VINA RESULT:      -8.8      6.309     13.302
REMARK SMILES COc1ccc(NC(=O)N[C@@H]2C=C[C@H](C(=O)OCCOCCOCCOCCOC(=O)c3ccc(-c4c5nc(c(-c6cccc(S(=O)(=O)[O-])c6F)c6ccc([nH]6)c(-c6cccc(S(=O)(=O)[O-])c6F)c6nc(c(-c7cccc(S(=O)(=O)[O-])c7F)c7ccc4[nH]7)C=C6)C=C5)cc3)C2)c(C)c1
REMARK SMILES IDX 23 1 22 2 21 3 20 4 19 5 18 6 17 7 15 8 16 9 14 10 11 11
REMARK SMILES IDX 12 12 95 13 13 14 10 15 7 16 8 17 9 19 6 21 3 22 4 23 98 24
REMARK SMILES IDX 5 25 96 26 97 27 2 28 1 29 24 30 25 31 26 32 27 33 28 34
REMARK SMILES IDX 29 35 30 36 31 37 32 38 33 39 94 40 34 41 93 42 35 43 36 44
REMARK SMILES IDX 37 45 87 46 38 47 92 48 86 49 88 50 39 51 91 52 85 53 84 54
REMARK SMILES IDX 40 56 72 57 52 58 71 59 53 60 56 61 70 62 89 63 54 64 55 65
REMARK SMILES IDX 69 67 90 68 57 69 41 70 42 71 50 72 43 73 45 74 51 75 44 76
REMARK SMILES IDX 46 77 47 78 48 79 49 80 73 81 74 82 82 83 75 84 77 85 83 86
REMARK SMILES IDX 76 87 78 88 79 89 80 90 81 91 58 92 59 93 67 94 60 95 62 96
REMARK SMILES IDX 68 97 61 98 63 99 64 100 65 101 66 102
REMARK H PARENT 7 18 10 20 88 55 56 66
REMARK Flexibility Score: inf
ROOT
ATOM      1  O   UNL A   1      52.750  24.742  40.757  1.00  0.00    -0.377 OA
ENDROOT
BRANCH   1   2
ATOM      2  C   UNL A   1      54.064  25.006  40.301  1.00  0.00     0.188 C 
BRANCH   2   3
ATOM      3  C   UNL A   1      54.766  24.069  39.219  1.00  0.00     0.188 C 
BRANCH   3   4
ATOM      4  O   UNL A   1      54.567  24.161  37.708  1.00  0.00    -0.376 OA
BRANCH   4   5
ATOM      5  C   UNL A   1      55.374  23.540  36.460  1.00  0.00     0.202 C 
BRANCH   5   6
ATOM      6  C   UNL A   1      55.416  21.993  35.467  1.00  0.00     0.261 C 
BRANCH   6   7
ATOM      7  O   UNL A   1      54.490  20.413  35.570  1.00  0.00    -0.463 OA
BRANCH   7   8
ATOM      8  C   UNL A   1      53.391  19.494  35.113  1.00  0.00     0.312 C 
ATOM      9  O   UNL A   1      53.715  18.452  34.513  1.00  0.00    -0.252 OA
BRANCH   8  10
ATOM     10  C   UNL A   1      51.620  19.648  35.296  1.00  0.00     0.124 C 
ATOM     11  C   UNL A   1      49.192  20.577  35.301  1.00  0.00     0.107 C 
ATOM     12  C   UNL A   1      49.896  20.672  36.626  1.00  0.00    -0.006 C 
ATOM     13  C   UNL A   1      50.368  20.162  34.426  1.00  0.00     0.048 C 
ATOM     14  C   UNL A   1      51.152  20.184  36.631  1.00  0.00    -0.014 C 
BRANCH  11  15
ATOM     15  N   UNL A   1      48.568  21.899  34.968  1.00  0.00    -0.332 N 
ATOM     16  N   UNL A   1      46.212  21.896  35.465  1.00  0.00    -0.308 N 
ATOM     17  C   UNL A   1      47.323  22.453  34.929  1.00  0.00     0.319 C 
ATOM     18  H   UNL A   1      45.373  22.071  34.980  1.00  0.00     0.171 HD
ATOM     19  O   UNL A   1      47.177  23.528  34.340  1.00  0.00    -0.248 OA
ATOM     20  H   UNL A   1      49.253  22.554  34.702  1.00  0.00     0.165 HD
BRANCH  16  21
ATOM     21  C   UNL A   1      46.093  21.109  36.607  1.00  0.00     0.046 A 
ATOM     22  C   UNL A   1      46.745  19.680  38.859  1.00  0.00     0.119 A 
ATOM     23  C   UNL A   1      46.481  21.036  38.970  1.00  0.00     0.048 A 
ATOM     24  C   UNL A   1      46.381  19.000  37.694  1.00  0.00     0.052 A 
ATOM     25  C   UNL A   1      46.131  21.745  37.841  1.00  0.00     0.030 A 
ATOM     26  C   UNL A   1      45.988  19.713  36.549  1.00  0.00    -0.024 A 
ATOM     27  C   UNL A   1      45.415  18.957  35.380  1.00  0.00     0.047 C 
BRANCH  22  28
ATOM     28  O   UNL A   1      47.351  18.963  39.855  1.00  0.00    -0.497 OA
ATOM     29  C   UNL A   1      46.877  17.612  39.921  1.00  0.00     0.278 C 
ENDBRANCH  22  28
ENDBRANCH  16  21
ENDBRANCH  11  15
ENDBRANCH   8  10
ENDBRANCH   7   8
ENDBRANCH   6   7
ENDBRANCH   5   6
ENDBRANCH   4   5
ENDBRANCH   3   4
ENDBRANCH   2   3
ENDBRANCH   1   2
BRANCH   1  30
ATOM     30  C   UNL A   1      51.795  24.765  39.718  1.00  0.00     0.188 C 
BRANCH  30  31
ATOM     31  C   UNL A   1      50.395  24.378  40.203  1.00  0.00     0.188 C 
BRANCH  31  32
ATOM     32  O   UNL A   1      49.466  24.377  39.122  1.00  0.00    -0.376 OA
BRANCH  32  33
ATOM     33  C   UNL A   1      48.152  24.825  39.375  1.00  0.00     0.202 C 
BRANCH  33  34
ATOM     34  C   UNL A   1      47.380  24.969  38.067  1.00  0.00     0.261 C 
BRANCH  34  35
ATOM     35  O   UNL A   1      46.450  26.073  38.146  1.00  0.00    -0.460 OA
BRANCH  35  36
ATOM     36  C   UNL A   1      45.188  25.809  37.701  1.00  0.00     0.338 C 
ATOM     37  O   UNL A   1      44.260  25.480  38.432  1.00  0.00    -0.246 OA
BRANCH  36  38
ATOM     38  C   UNL A   1      45.184  25.814  36.201  1.00  0.00     0.060 A 
ATOM     39  C   UNL A   1      45.893  26.775  35.494  1.00  0.00     0.016 A 
ATOM     40  C   UNL A   1      44.252  25.039  35.498  1.00  0.00     0.016 A 
ATOM     41  C   UNL A   1      45.509  27.073  34.168  1.00  0.00     0.010 A 
ATOM     42  C   UNL A   1      43.758  25.468  34.255  1.00  0.00     0.010 A 
ATOM     43  C   UNL A   1      44.283  26.599  33.618  1.00  0.00    -0.014 A 
BRANCH  43  44
ATOM     44  C   UNL A   1      43.424  27.228  32.338  1.00  0.00     0.031 A 
ATOM     45  C   UNL A   1      44.737  26.793  31.199  1.00  0.00     0.074 A 
ATOM     46  C   UNL A   1      42.091  28.227  32.162  1.00  0.00     0.049 A 
ATOM     47  N   UNL A   1      45.343  27.605  30.361  1.00  0.00    -0.248 NA
ATOM     48  C   UNL A   1      45.464  25.501  31.158  1.00  0.00     0.031 C 
ATOM     49  C   UNL A   1      41.312  28.974  30.834  1.00  0.00     0.029 A 
ATOM     50  N   UNL A   1      41.339  29.232  33.010  1.00  0.00    -0.354 N 
ATOM     51  C   UNL A   1      45.897  26.856  29.365  1.00  0.00     0.074 A 
ATOM     52  C   UNL A   1      46.220  25.626  30.050  1.00  0.00     0.031 C 
ATOM     53  C   UNL A   1      40.506  30.001  31.086  1.00  0.00     0.029 A 
ATOM     54  C   UNL A   1      40.864  30.412  32.372  1.00  0.00     0.049 A 
ATOM     55  H   UNL A   1      41.183  29.074  33.969  1.00  0.00     0.167 HD
ATOM     56  C   UNL A   1      45.752  27.181  28.036  1.00  0.00     0.034 A 
ATOM     57  C   UNL A   1      41.201  31.721  32.598  1.00  0.00     0.034 A 
ATOM     58  C   UNL A   1      44.779  28.307  27.771  1.00  0.00     0.049 A 
ATOM     59  C   UNL A   1      41.830  32.348  31.314  1.00  0.00     0.074 A 
ATOM     60  C   UNL A   1      43.482  28.299  27.257  1.00  0.00     0.029 A 
ATOM     61  N   UNL A   1      44.951  29.626  28.234  1.00  0.00    -0.354 N 
ATOM     62  N   UNL A   1      42.210  31.645  30.267  1.00  0.00    -0.248 NA
ATOM     63  C   UNL A   1      42.043  33.768  31.064  1.00  0.00     0.031 C 
ATOM     64  C   UNL A   1      42.860  29.561  27.486  1.00  0.00     0.029 A 
ATOM     65  C   UNL A   1      43.770  30.402  28.109  1.00  0.00     0.049 A 
ATOM     66  H   UNL A   1      45.795  29.971  28.603  1.00  0.00     0.167 HD
ATOM     67  C   UNL A   1      42.912  32.392  29.369  1.00  0.00     0.074 A 
ATOM     68  C   UNL A   1      42.620  33.744  29.842  1.00  0.00     0.031 C 
ATOM     69  C   UNL A   1      43.730  31.863  28.385  1.00  0.00     0.034 A 
BRANCH  56  70
ATOM     70  C   UNL A   1      46.143  26.128  26.980  1.00  0.00     0.023 A 
ATOM     71  C   UNL A   1      47.387  26.216  26.321  1.00  0.00     0.012 A 
ATOM     72  C   UNL A   1      45.303  25.063  26.559  1.00  0.00     0.148 A 
ATOM     73  C   UNL A   1      47.727  25.405  25.226  1.00  0.00     0.002 A 
ATOM     74  C   UNL A   1      45.610  24.295  25.425  1.00  0.00     0.091 A 
ATOM     75  F   UNL A   1      44.218  24.762  27.288  1.00  0.00    -0.205 F 
ATOM     76  C   UNL A   1      46.819  24.473  24.750  1.00  0.00     0.022 A 
BRANCH  74  77
ATOM     77  S   UNL A   1      44.428  23.147  24.689  1.00  0.00     0.127 S 
ATOM     78  O   UNL A   1      44.443  22.023  25.629  1.00  0.00    -0.237 OA
ATOM     79  O   UNL A   1      43.188  23.917  24.692  1.00  0.00    -0.237 OA
ATOM     80  O   UNL A   1      44.973  22.817  23.376  1.00  0.00    -0.744 OA
ENDBRANCH  74  77
ENDBRANCH  56  70
BRANCH  57  81
ATOM     81  C   UNL A   1      41.436  32.091  34.031  1.00  0.00     0.023 A 
ATOM     82  C   UNL A   1      40.280  32.274  34.835  1.00  0.00     0.012 A 
ATOM     83  C   UNL A   1      42.670  31.941  34.685  1.00  0.00     0.148 A 
ATOM     84  C   UNL A   1      40.334  32.194  36.229  1.00  0.00     0.002 A 
ATOM     85  C   UNL A   1      42.698  31.738  36.068  1.00  0.00     0.091 A 
ATOM     86  F   UNL A   1      43.784  31.895  33.942  1.00  0.00    -0.205 F 
ATOM     87  C   UNL A   1      41.537  31.883  36.843  1.00  0.00     0.022 A 
BRANCH  85  88
ATOM     88  S   UNL A   1      44.114  30.988  36.898  1.00  0.00     0.127 S 
ATOM     89  O   UNL A   1      45.115  32.046  36.781  1.00  0.00    -0.237 OA
ATOM     90  O   UNL A   1      43.606  30.777  38.255  1.00  0.00    -0.237 OA
ATOM     91  O   UNL A   1      44.396  29.768  36.155  1.00  0.00    -0.744 OA
ENDBRANCH  85  88
ENDBRANCH  57  81
BRANCH  69  92
ATOM     92  C   UNL A   1      44.603  32.738  27.508  1.00  0.00     0.023 A 
ATOM     93  C   UNL A   1      44.146  33.227  26.271  1.00  0.00     0.012 A 
ATOM     94  C   UNL A   1      45.864  33.207  27.960  1.00  0.00     0.148 A 
ATOM     95  C   UNL A   1      44.930  34.060  25.474  1.00  0.00     0.002 A 
ATOM     96  C   UNL A   1      46.580  34.144  27.224  1.00  0.00     0.091 A 
ATOM     97  F   UNL A   1      46.394  32.728  29.094  1.00  0.00    -0.205 F 
ATOM     98  C   UNL A   1      46.137  34.540  25.961  1.00  0.00     0.022 A 
BRANCH  96  99
ATOM     99  S   UNL A   1      47.997  34.999  27.926  1.00  0.00     0.127 S 
ATOM    100  O   UNL A   1      47.476  35.437  29.219  1.00  0.00    -0.237 OA
ATOM    101  O   UNL A   1      48.996  33.931  28.002  1.00  0.00    -0.237 OA
ATOM    102  O   UNL A   1      48.320  36.051  26.973  1.00  0.00    -0.744 OA
ENDBRANCH  96  99
ENDBRANCH  69  92
ENDBRANCH  43  44
ENDBRANCH  36  38
ENDBRANCH  35  36
ENDBRANCH  34  35
ENDBRANCH  33  34
ENDBRANCH  32  33
ENDBRANCH  31  32
ENDBRANCH  30  31
ENDBRANCH   1  30
TORSDOF 26
ENDMDL
