MODEL 1
REMARK VINA RESULT:      -8.5      0.000      0.000
REMARK SMILES CCc1ccc(C[N@H+]2CC[C@@H](C(=O)OCCOCCOCCOCCOC(=O)c3ccc(-c4c5nc(c(-c6cccc(S(=O)(=O)[O-])c6F)c6ccc([nH]6)c(-c6cccc(S(=O)(=O)[O-])c6F)c6nc(c(-c7cccc(S(=O)(=O)[O-])c7F)c7ccc4[nH]7)C=C6)C=C5)cc3)[C@@H]2C)s1
REMARK SMILES IDX 20 1 19 2 18 3 17 4 16 5 15 6 14 7 12 8 13 9 11 10 8 11 9 12
REMARK SMILES IDX 92 13 10 15 93 16 7 17 6 18 3 19 4 20 94 21 5 22 2 23 1 24
REMARK SMILES IDX 21 25 22 26 23 27 24 28 25 29 26 30 27 31 28 32 29 33 30 34
REMARK SMILES IDX 91 35 31 36 90 37 32 38 33 39 34 40 84 41 35 42 89 43 83 44
REMARK SMILES IDX 85 45 36 46 88 47 82 48 81 49 37 51 69 52 49 53 68 54 50 55
REMARK SMILES IDX 53 56 67 57 86 58 51 59 52 60 66 62 87 63 54 64 38 65 39 66
REMARK SMILES IDX 47 67 40 68 42 69 48 70 41 71 43 72 44 73 45 74 46 75 70 76
REMARK SMILES IDX 71 77 79 78 72 79 74 80 80 81 73 82 75 83 76 84 77 85 78 86
REMARK SMILES IDX 55 87 56 88 64 89 57 90 59 91 65 92 58 93 60 94 61 95 62 96
REMARK SMILES IDX 63 97
REMARK H PARENT 8 14 85 50 53 61
REMARK Flexibility Score: inf
ROOT
ATOM      1  O   UNL A   1      38.397  21.026  25.499  1.00  0.00    -0.377 OA
ENDROOT
BRANCH   1   2
ATOM      2  C   UNL A   1      37.422  21.902  25.003  1.00  0.00     0.188 C 
BRANCH   2   3
ATOM      3  C   UNL A   1      36.009  21.394  24.713  1.00  0.00     0.188 C 
BRANCH   3   4
ATOM      4  O   UNL A   1      34.972  22.298  24.376  1.00  0.00    -0.376 OA
BRANCH   4   5
ATOM      5  C   UNL A   1      34.897  22.958  23.127  1.00  0.00     0.202 C 
BRANCH   5   6
ATOM      6  C   UNL A   1      33.740  23.885  22.711  1.00  0.00     0.261 C 
BRANCH   6   7
ATOM      7  O   UNL A   1      34.013  25.294  22.601  1.00  0.00    -0.463 OA
BRANCH   7   8
ATOM      8  C   UNL A   1      33.271  25.988  21.706  1.00  0.00     0.315 C 
ATOM      9  O   UNL A   1      33.054  25.595  20.563  1.00  0.00    -0.252 OA
BRANCH   8  10
ATOM     10  C   UNL A   1      32.759  27.341  22.183  1.00  0.00     0.162 C 
ATOM     11  N   UNL A   1      31.876  28.514  24.116  1.00  0.00    -0.328 N 
ATOM     12  C   UNL A   1      33.126  29.141  23.703  1.00  0.00     0.263 C 
ATOM     13  C   UNL A   1      31.550  27.471  23.128  1.00  0.00     0.195 C 
ATOM     14  H   UNL A   1      31.140  29.220  24.117  1.00  0.00     0.348 HD
ATOM     15  C   UNL A   1      33.869  28.098  22.890  1.00  0.00     0.083 C 
ATOM     16  C   UNL A   1      30.300  27.960  22.378  1.00  0.00     0.076 C 
BRANCH  11  17
ATOM     17  C   UNL A   1      31.817  28.079  25.529  1.00  0.00     0.310 C 
BRANCH  17  18
ATOM     18  C   UNL A   1      32.207  26.652  25.809  1.00  0.00     0.059 A 
ATOM     19  C   UNL A   1      32.179  24.194  26.143  1.00  0.00     0.005 A 
ATOM     20  C   UNL A   1      33.460  24.708  26.127  1.00  0.00     0.016 A 
ATOM     21  S   UNL A   1      31.019  25.454  26.115  1.00  0.00    -0.139 S 
ATOM     22  C   UNL A   1      33.475  26.122  25.947  1.00  0.00     0.021 A 
BRANCH  19  23
ATOM     23  C   UNL A   1      31.710  22.768  26.158  1.00  0.00     0.043 C 
ATOM     24  C   UNL A   1      30.252  22.585  26.540  1.00  0.00     0.010 C 
ENDBRANCH  19  23
ENDBRANCH  17  18
ENDBRANCH  11  17
ENDBRANCH   8  10
ENDBRANCH   7   8
ENDBRANCH   6   7
ENDBRANCH   5   6
ENDBRANCH   4   5
ENDBRANCH   3   4
ENDBRANCH   2   3
ENDBRANCH   1   2
BRANCH   1  25
ATOM     25  C   UNL A   1      39.456  21.654  26.177  1.00  0.00     0.188 C 
BRANCH  25  26
ATOM     26  C   UNL A   1      40.634  20.701  26.370  1.00  0.00     0.188 C 
BRANCH  26  27
ATOM     27  O   UNL A   1      41.926  21.184  26.715  1.00  0.00    -0.376 OA
BRANCH  27  28
ATOM     28  C   UNL A   1      42.215  22.566  26.857  1.00  0.00     0.202 C 
BRANCH  28  29
ATOM     29  C   UNL A   1      42.519  23.508  25.670  1.00  0.00     0.261 C 
BRANCH  29  30
ATOM     30  O   UNL A   1      42.891  24.860  25.942  1.00  0.00    -0.460 OA
BRANCH  30  31
ATOM     31  C   UNL A   1      41.892  25.765  25.929  1.00  0.00     0.338 C 
ATOM     32  O   UNL A   1      40.706  25.553  25.734  1.00  0.00    -0.246 OA
BRANCH  31  33
ATOM     33  C   UNL A   1      42.446  27.069  26.347  1.00  0.00     0.060 A 
ATOM     34  C   UNL A   1      43.502  27.084  27.268  1.00  0.00     0.016 A 
ATOM     35  C   UNL A   1      41.927  28.265  25.845  1.00  0.00     0.016 A 
ATOM     36  C   UNL A   1      44.021  28.295  27.717  1.00  0.00     0.010 A 
ATOM     37  C   UNL A   1      42.423  29.480  26.325  1.00  0.00     0.010 A 
ATOM     38  C   UNL A   1      43.445  29.497  27.291  1.00  0.00    -0.014 A 
BRANCH  38  39
ATOM     39  C   UNL A   1      43.747  30.743  28.034  1.00  0.00     0.031 A 
ATOM     40  C   UNL A   1      42.821  31.133  29.156  1.00  0.00     0.074 A 
ATOM     41  C   UNL A   1      44.825  31.493  27.745  1.00  0.00     0.049 A 
ATOM     42  N   UNL A   1      42.838  32.195  29.915  1.00  0.00    -0.248 NA
ATOM     43  C   UNL A   1      41.727  30.193  29.463  1.00  0.00     0.031 C 
ATOM     44  C   UNL A   1      45.809  31.200  26.703  1.00  0.00     0.029 A 
ATOM     45  N   UNL A   1      45.256  32.675  28.293  1.00  0.00    -0.354 N 
ATOM     46  C   UNL A   1      41.754  32.062  30.773  1.00  0.00     0.074 A 
ATOM     47  C   UNL A   1      41.086  30.828  30.432  1.00  0.00     0.031 C 
ATOM     48  C   UNL A   1      46.709  32.199  26.663  1.00  0.00     0.029 A 
ATOM     49  C   UNL A   1      46.349  33.211  27.655  1.00  0.00     0.049 A 
ATOM     50  H   UNL A   1      44.823  33.098  29.070  1.00  0.00     0.167 HD
ATOM     51  C   UNL A   1      41.358  32.886  31.771  1.00  0.00     0.034 A 
ATOM     52  C   UNL A   1      46.962  34.399  27.833  1.00  0.00     0.034 A 
ATOM     53  C   UNL A   1      42.026  34.111  32.112  1.00  0.00     0.049 A 
ATOM     54  C   UNL A   1      46.459  35.329  28.911  1.00  0.00     0.074 A 
ATOM     55  C   UNL A   1      41.705  35.018  33.105  1.00  0.00     0.029 A 
ATOM     56  N   UNL A   1      43.148  34.603  31.465  1.00  0.00    -0.354 N 
ATOM     57  N   UNL A   1      45.484  35.152  29.770  1.00  0.00    -0.248 NA
ATOM     58  C   UNL A   1      47.162  36.612  29.065  1.00  0.00     0.031 C 
ATOM     59  C   UNL A   1      42.620  36.072  33.045  1.00  0.00     0.029 A 
ATOM     60  C   UNL A   1      43.533  35.802  32.038  1.00  0.00     0.049 A 
ATOM     61  H   UNL A   1      43.602  34.166  30.709  1.00  0.00     0.167 HD
ATOM     62  C   UNL A   1      45.492  36.273  30.596  1.00  0.00     0.074 A 
ATOM     63  C   UNL A   1      46.579  37.114  30.146  1.00  0.00     0.031 C 
ATOM     64  C   UNL A   1      44.666  36.587  31.624  1.00  0.00     0.034 A 
BRANCH  51  65
ATOM     65  C   UNL A   1      40.166  32.473  32.591  1.00  0.00     0.023 A 
ATOM     66  C   UNL A   1      40.324  31.513  33.611  1.00  0.00     0.012 A 
ATOM     67  C   UNL A   1      38.911  33.085  32.404  1.00  0.00     0.148 A 
ATOM     68  C   UNL A   1      39.246  31.151  34.418  1.00  0.00     0.002 A 
ATOM     69  C   UNL A   1      37.854  32.753  33.242  1.00  0.00     0.091 A 
ATOM     70  F   UNL A   1      38.780  33.982  31.416  1.00  0.00    -0.205 F 
ATOM     71  C   UNL A   1      38.017  31.780  34.241  1.00  0.00     0.022 A 
BRANCH  69  72
ATOM     72  S   UNL A   1      36.251  33.558  33.151  1.00  0.00     0.127 S 
ATOM     73  O   UNL A   1      36.566  34.900  33.641  1.00  0.00    -0.237 OA
ATOM     74  O   UNL A   1      35.955  33.486  31.719  1.00  0.00    -0.237 OA
ATOM     75  O   UNL A   1      35.358  32.782  34.000  1.00  0.00    -0.744 OA
ENDBRANCH  69  72
ENDBRANCH  51  65
BRANCH  52  76
ATOM     76  C   UNL A   1      48.126  34.793  26.985  1.00  0.00     0.023 A 
ATOM     77  C   UNL A   1      47.905  35.455  25.760  1.00  0.00     0.012 A 
ATOM     78  C   UNL A   1      49.446  34.475  27.361  1.00  0.00     0.148 A 
ATOM     79  C   UNL A   1      48.967  35.737  24.900  1.00  0.00     0.002 A 
ATOM     80  C   UNL A   1      50.505  34.816  26.529  1.00  0.00     0.091 A 
ATOM     81  F   UNL A   1      49.640  33.832  28.521  1.00  0.00    -0.205 F 
ATOM     82  C   UNL A   1      50.267  35.424  25.286  1.00  0.00     0.022 A 
BRANCH  80  83
ATOM     83  S   UNL A   1      52.220  34.568  27.002  1.00  0.00     0.127 S 
ATOM     84  O   UNL A   1      52.286  33.115  27.137  1.00  0.00    -0.237 OA
ATOM     85  O   UNL A   1      52.935  35.114  25.847  1.00  0.00    -0.237 OA
ATOM     86  O   UNL A   1      52.402  35.328  28.231  1.00  0.00    -0.744 OA
ENDBRANCH  80  83
ENDBRANCH  52  76
BRANCH  64  87
ATOM     87  C   UNL A   1      44.946  37.855  32.391  1.00  0.00     0.023 A 
ATOM     88  C   UNL A   1      45.906  37.863  33.421  1.00  0.00     0.012 A 
ATOM     89  C   UNL A   1      44.309  39.059  32.028  1.00  0.00     0.148 A 
ATOM     90  C   UNL A   1      46.200  39.043  34.104  1.00  0.00     0.002 A 
ATOM     91  C   UNL A   1      44.647  40.240  32.676  1.00  0.00     0.091 A 
ATOM     92  F   UNL A   1      43.389  39.027  31.053  1.00  0.00    -0.205 F 
ATOM     93  C   UNL A   1      45.580  40.232  33.724  1.00  0.00     0.022 A 
BRANCH  91  94
ATOM     94  S   UNL A   1      43.977  41.834  32.189  1.00  0.00     0.127 S 
ATOM     95  O   UNL A   1      42.561  41.674  32.514  1.00  0.00    -0.237 OA
ATOM     96  O   UNL A   1      44.704  42.754  33.065  1.00  0.00    -0.237 OA
ATOM     97  O   UNL A   1      44.278  41.983  30.771  1.00  0.00    -0.744 OA
ENDBRANCH  91  94
ENDBRANCH  64  87
ENDBRANCH  38  39
ENDBRANCH  31  33
ENDBRANCH  30  31
ENDBRANCH  29  30
ENDBRANCH  28  29
ENDBRANCH  27  28
ENDBRANCH  26  27
ENDBRANCH  25  26
ENDBRANCH   1  25
TORSDOF 26
ENDMDL
MODEL 2
REMARK VINA RESULT:      -8.0      7.688     11.918
REMARK SMILES CCc1ccc(C[N@H+]2CC[C@@H](C(=O)OCCOCCOCCOCCOC(=O)c3ccc(-c4c5nc(c(-c6cccc(S(=O)(=O)[O-])c6F)c6ccc([nH]6)c(-c6cccc(S(=O)(=O)[O-])c6F)c6nc(c(-c7cccc(S(=O)(=O)[O-])c7F)c7ccc4[nH]7)C=C6)C=C5)cc3)[C@@H]2C)s1
REMARK SMILES IDX 20 1 19 2 18 3 17 4 16 5 15 6 14 7 12 8 13 9 11 10 8 11 9 12
REMARK SMILES IDX 92 13 10 15 93 16 7 17 6 18 3 19 4 20 94 21 5 22 2 23 1 24
REMARK SMILES IDX 21 25 22 26 23 27 24 28 25 29 26 30 27 31 28 32 29 33 30 34
REMARK SMILES IDX 91 35 31 36 90 37 32 38 33 39 34 40 84 41 35 42 89 43 83 44
REMARK SMILES IDX 85 45 36 46 88 47 82 48 81 49 37 51 69 52 49 53 68 54 50 55
REMARK SMILES IDX 53 56 67 57 86 58 51 59 52 60 66 62 87 63 54 64 38 65 39 66
REMARK SMILES IDX 47 67 40 68 42 69 48 70 41 71 43 72 44 73 45 74 46 75 70 76
REMARK SMILES IDX 71 77 79 78 72 79 74 80 80 81 73 82 75 83 76 84 77 85 78 86
REMARK SMILES IDX 55 87 56 88 64 89 57 90 59 91 65 92 58 93 60 94 61 95 62 96
REMARK SMILES IDX 63 97
REMARK H PARENT 8 14 85 50 53 61
REMARK Flexibility Score: inf
ROOT
ATOM      1  O   UNL A   1      38.955  20.460  25.535  1.00  0.00    -0.377 OA
ENDROOT
BRANCH   1   2
ATOM      2  C   UNL A   1      38.137  21.584  25.355  1.00  0.00     0.188 C 
BRANCH   2   3
ATOM      3  C   UNL A   1      36.960  21.529  24.381  1.00  0.00     0.188 C 
BRANCH   3   4
ATOM      4  O   UNL A   1      35.990  22.561  24.362  1.00  0.00    -0.376 OA
BRANCH   4   5
ATOM      5  C   UNL A   1      35.505  23.145  23.169  1.00  0.00     0.202 C 
BRANCH   5   6
ATOM      6  C   UNL A   1      34.203  23.962  23.077  1.00  0.00     0.261 C 
BRANCH   6   7
ATOM      7  O   UNL A   1      34.313  25.390  22.934  1.00  0.00    -0.463 OA
BRANCH   7   8
ATOM      8  C   UNL A   1      33.478  25.977  22.045  1.00  0.00     0.315 C 
ATOM      9  O   UNL A   1      33.241  25.511  20.934  1.00  0.00    -0.252 OA
BRANCH   8  10
ATOM     10  C   UNL A   1      32.882  27.310  22.482  1.00  0.00     0.162 C 
ATOM     11  N   UNL A   1      31.685  28.404  24.288  1.00  0.00    -0.328 N 
ATOM     12  C   UNL A   1      32.980  29.051  24.107  1.00  0.00     0.263 C 
ATOM     13  C   UNL A   1      31.534  27.399  23.222  1.00  0.00     0.195 C 
ATOM     14  H   UNL A   1      30.952  29.107  24.196  1.00  0.00     0.348 HD
ATOM     15  C   UNL A   1      33.855  28.043  23.388  1.00  0.00     0.083 C 
ATOM     16  C   UNL A   1      30.418  27.911  22.297  1.00  0.00     0.076 C 
BRANCH  11  17
ATOM     17  C   UNL A   1      31.402  27.916  25.655  1.00  0.00     0.310 C 
BRANCH  17  18
ATOM     18  C   UNL A   1      31.658  26.454  25.912  1.00  0.00     0.059 A 
ATOM     19  C   UNL A   1      31.433  23.991  26.098  1.00  0.00     0.005 A 
ATOM     20  C   UNL A   1      32.726  24.418  26.315  1.00  0.00     0.016 A 
ATOM     21  S   UNL A   1      30.368  25.326  25.958  1.00  0.00    -0.139 S 
ATOM     22  C   UNL A   1      32.853  25.835  26.220  1.00  0.00     0.021 A 
BRANCH  19  23
ATOM     23  C   UNL A   1      30.884  22.601  25.958  1.00  0.00     0.043 C 
ATOM     24  C   UNL A   1      31.830  21.608  25.307  1.00  0.00     0.010 C 
ENDBRANCH  19  23
ENDBRANCH  17  18
ENDBRANCH  11  17
ENDBRANCH   8  10
ENDBRANCH   7   8
ENDBRANCH   6   7
ENDBRANCH   5   6
ENDBRANCH   4   5
ENDBRANCH   3   4
ENDBRANCH   2   3
ENDBRANCH   1   2
BRANCH   1  25
ATOM     25  C   UNL A   1      39.995  20.637  26.464  1.00  0.00     0.188 C 
BRANCH  25  26
ATOM     26  C   UNL A   1      40.961  21.731  26.013  1.00  0.00     0.188 C 
BRANCH  26  27
ATOM     27  O   UNL A   1      41.256  22.845  26.847  1.00  0.00    -0.376 OA
BRANCH  27  28
ATOM     28  C   UNL A   1      40.265  23.514  27.610  1.00  0.00     0.202 C 
BRANCH  28  29
ATOM     29  C   UNL A   1      39.882  24.999  27.411  1.00  0.00     0.261 C 
BRANCH  29  30
ATOM     30  O   UNL A   1      40.921  25.978  27.381  1.00  0.00    -0.460 OA
BRANCH  30  31
ATOM     31  C   UNL A   1      41.715  25.971  26.292  1.00  0.00     0.338 C 
ATOM     32  O   UNL A   1      41.364  26.001  25.123  1.00  0.00    -0.246 OA
BRANCH  31  33
ATOM     33  C   UNL A   1      43.118  26.074  26.742  1.00  0.00     0.060 A 
ATOM     34  C   UNL A   1      43.856  24.895  26.911  1.00  0.00     0.016 A 
ATOM     35  C   UNL A   1      43.700  27.317  27.004  1.00  0.00     0.016 A 
ATOM     36  C   UNL A   1      45.167  24.950  27.374  1.00  0.00     0.010 A 
ATOM     37  C   UNL A   1      45.003  27.370  27.504  1.00  0.00     0.010 A 
ATOM     38  C   UNL A   1      45.726  26.184  27.727  1.00  0.00    -0.014 A 
BRANCH  38  39
ATOM     39  C   UNL A   1      46.960  26.206  28.548  1.00  0.00     0.031 A 
ATOM     40  C   UNL A   1      48.275  26.360  27.833  1.00  0.00     0.074 A 
ATOM     41  C   UNL A   1      46.915  26.121  29.889  1.00  0.00     0.049 A 
ATOM     42  N   UNL A   1      49.489  26.353  28.317  1.00  0.00    -0.248 NA
ATOM     43  C   UNL A   1      48.212  26.549  26.372  1.00  0.00     0.031 C 
ATOM     44  C   UNL A   1      45.700  26.000  30.693  1.00  0.00     0.029 A 
ATOM     45  N   UNL A   1      47.933  26.099  30.810  1.00  0.00    -0.354 N 
ATOM     46  C   UNL A   1      50.331  26.518  27.224  1.00  0.00     0.074 A 
ATOM     47  C   UNL A   1      49.495  26.603  26.049  1.00  0.00     0.031 C 
ATOM     48  C   UNL A   1      46.045  25.879  31.988  1.00  0.00     0.029 A 
ATOM     49  C   UNL A   1      47.503  25.885  32.099  1.00  0.00     0.049 A 
ATOM     50  H   UNL A   1      48.879  26.224  30.571  1.00  0.00     0.167 HD
ATOM     51  C   UNL A   1      51.680  26.611  27.201  1.00  0.00     0.034 A 
ATOM     52  C   UNL A   1      48.212  25.683  33.228  1.00  0.00     0.034 A 
ATOM     53  C   UNL A   1      52.509  26.531  28.372  1.00  0.00     0.049 A 
ATOM     54  C   UNL A   1      49.721  25.725  33.163  1.00  0.00     0.074 A 
ATOM     55  C   UNL A   1      53.887  26.611  28.457  1.00  0.00     0.029 A 
ATOM     56  N   UNL A   1      52.036  26.347  29.661  1.00  0.00    -0.354 N 
ATOM     57  N   UNL A   1      50.500  25.966  32.136  1.00  0.00    -0.248 NA
ATOM     58  C   UNL A   1      50.448  25.500  34.422  1.00  0.00     0.031 C 
ATOM     59  C   UNL A   1      54.250  26.453  29.797  1.00  0.00     0.029 A 
ATOM     60  C   UNL A   1      53.095  26.312  30.550  1.00  0.00     0.049 A 
ATOM     61  H   UNL A   1      51.088  26.254  29.908  1.00  0.00     0.167 HD
ATOM     62  C   UNL A   1      51.800  25.971  32.634  1.00  0.00     0.074 A 
ATOM     63  C   UNL A   1      51.702  25.729  34.057  1.00  0.00     0.031 C 
ATOM     64  C   UNL A   1      52.972  26.146  31.974  1.00  0.00     0.034 A 
BRANCH  51  65
ATOM     65  C   UNL A   1      52.346  26.842  25.873  1.00  0.00     0.023 A 
ATOM     66  C   UNL A   1      52.740  25.736  25.092  1.00  0.00     0.012 A 
ATOM     67  C   UNL A   1      52.516  28.144  25.364  1.00  0.00     0.148 A 
ATOM     68  C   UNL A   1      53.312  25.923  23.834  1.00  0.00     0.002 A 
ATOM     69  C   UNL A   1      53.044  28.321  24.091  1.00  0.00     0.091 A 
ATOM     70  F   UNL A   1      52.151  29.182  26.131  1.00  0.00    -0.205 F 
ATOM     71  C   UNL A   1      53.452  27.213  23.330  1.00  0.00     0.022 A 
BRANCH  69  72
ATOM     72  S   UNL A   1      53.196  29.934  23.316  1.00  0.00     0.127 S 
ATOM     73  O   UNL A   1      51.803  30.378  23.282  1.00  0.00    -0.237 OA
ATOM     74  O   UNL A   1      54.042  30.651  24.270  1.00  0.00    -0.237 OA
ATOM     75  O   UNL A   1      53.803  29.702  22.013  1.00  0.00    -0.744 OA
ENDBRANCH  69  72
ENDBRANCH  51  65
BRANCH  52  76
ATOM     76  C   UNL A   1      47.524  25.428  34.528  1.00  0.00     0.023 A 
ATOM     77  C   UNL A   1      47.151  26.513  35.345  1.00  0.00     0.012 A 
ATOM     78  C   UNL A   1      47.280  24.116  34.981  1.00  0.00     0.148 A 
ATOM     79  C   UNL A   1      46.606  26.298  36.612  1.00  0.00     0.002 A 
ATOM     80  C   UNL A   1      46.678  23.909  36.216  1.00  0.00     0.091 A 
ATOM     81  F   UNL A   1      47.655  23.093  34.200  1.00  0.00    -0.205 F 
ATOM     82  C   UNL A   1      46.364  24.997  37.045  1.00  0.00     0.022 A 
BRANCH  80  83
ATOM     83  S   UNL A   1      46.212  22.276  36.799  1.00  0.00     0.127 S 
ATOM     84  O   UNL A   1      47.499  21.588  36.825  1.00  0.00    -0.237 OA
ATOM     85  O   UNL A   1      45.644  22.575  38.115  1.00  0.00    -0.237 OA
ATOM     86  O   UNL A   1      45.244  21.776  35.832  1.00  0.00    -0.744 OA
ENDBRANCH  80  83
ENDBRANCH  52  76
BRANCH  64  87
ATOM     87  C   UNL A   1      54.243  26.162  32.786  1.00  0.00     0.023 A 
ATOM     88  C   UNL A   1      54.652  27.342  33.437  1.00  0.00     0.012 A 
ATOM     89  C   UNL A   1      54.986  24.978  32.965  1.00  0.00     0.148 A 
ATOM     90  C   UNL A   1      55.803  27.352  34.225  1.00  0.00     0.002 A 
ATOM     91  C   UNL A   1      56.100  24.982  33.794  1.00  0.00     0.091 A 
ATOM     92  F   UNL A   1      54.585  23.870  32.325  1.00  0.00    -0.205 F 
ATOM     93  C   UNL A   1      56.519  26.171  34.412  1.00  0.00     0.022 A 
BRANCH  91  94
ATOM     94  S   UNL A   1      57.025  23.491  34.176  1.00  0.00     0.127 S 
ATOM     95  O   UNL A   1      55.978  22.620  34.710  1.00  0.00    -0.237 OA
ATOM     96  O   UNL A   1      57.533  23.098  32.861  1.00  0.00    -0.237 OA
ATOM     97  O   UNL A   1      58.052  23.886  35.130  1.00  0.00    -0.744 OA
ENDBRANCH  91  94
ENDBRANCH  64  87
ENDBRANCH  38  39
ENDBRANCH  31  33
ENDBRANCH  30  31
ENDBRANCH  29  30
ENDBRANCH  28  29
ENDBRANCH  27  28
ENDBRANCH  26  27
ENDBRANCH  25  26
ENDBRANCH   1  25
TORSDOF 26
ENDMDL
MODEL 3
REMARK VINA RESULT:      -8.0      4.412      8.052
REMARK SMILES CCc1ccc(C[N@H+]2CC[C@@H](C(=O)OCCOCCOCCOCCOC(=O)c3ccc(-c4c5nc(c(-c6cccc(S(=O)(=O)[O-])c6F)c6ccc([nH]6)c(-c6cccc(S(=O)(=O)[O-])c6F)c6nc(c(-c7cccc(S(=O)(=O)[O-])c7F)c7ccc4[nH]7)C=C6)C=C5)cc3)[C@@H]2C)s1
REMARK SMILES IDX 20 1 19 2 18 3 17 4 16 5 15 6 14 7 12 8 13 9 11 10 8 11 9 12
REMARK SMILES IDX 92 13 10 15 93 16 7 17 6 18 3 19 4 20 94 21 5 22 2 23 1 24
REMARK SMILES IDX 21 25 22 26 23 27 24 28 25 29 26 30 27 31 28 32 29 33 30 34
REMARK SMILES IDX 91 35 31 36 90 37 32 38 33 39 34 40 84 41 35 42 89 43 83 44
REMARK SMILES IDX 85 45 36 46 88 47 82 48 81 49 37 51 69 52 49 53 68 54 50 55
REMARK SMILES IDX 53 56 67 57 86 58 51 59 52 60 66 62 87 63 54 64 38 65 39 66
REMARK SMILES IDX 47 67 40 68 42 69 48 70 41 71 43 72 44 73 45 74 46 75 70 76
REMARK SMILES IDX 71 77 79 78 72 79 74 80 80 81 73 82 75 83 76 84 77 85 78 86
REMARK SMILES IDX 55 87 56 88 64 89 57 90 59 91 65 92 58 93 60 94 61 95 62 96
REMARK SMILES IDX 63 97
REMARK H PARENT 8 14 85 50 53 61
REMARK Flexibility Score: inf
ROOT
ATOM      1  O   UNL A   1      40.762  19.297  25.528  1.00  0.00    -0.377 OA
ENDROOT
BRANCH   1   2
ATOM      2  C   UNL A   1      39.573  19.930  25.913  1.00  0.00     0.188 C 
BRANCH   2   3
ATOM      3  C   UNL A   1      39.504  21.456  25.984  1.00  0.00     0.188 C 
BRANCH   3   4
ATOM      4  O   UNL A   1      38.268  22.131  25.833  1.00  0.00    -0.376 OA
BRANCH   4   5
ATOM      5  C   UNL A   1      37.269  21.719  24.920  1.00  0.00     0.202 C 
BRANCH   5   6
ATOM      6  C   UNL A   1      36.148  20.721  25.262  1.00  0.00     0.261 C 
BRANCH   6   7
ATOM      7  O   UNL A   1      34.883  20.874  24.593  1.00  0.00    -0.463 OA
BRANCH   7   8
ATOM      8  C   UNL A   1      33.839  21.279  25.354  1.00  0.00     0.315 C 
ATOM      9  O   UNL A   1      33.057  20.500  25.893  1.00  0.00    -0.252 OA
BRANCH   8  10
ATOM     10  C   UNL A   1      33.643  22.786  25.457  1.00  0.00     0.162 C 
ATOM     11  N   UNL A   1      32.383  24.648  24.541  1.00  0.00    -0.328 N 
ATOM     12  C   UNL A   1      32.088  24.521  25.964  1.00  0.00     0.263 C 
ATOM     13  C   UNL A   1      33.434  23.669  24.213  1.00  0.00     0.195 C 
ATOM     14  H   UNL A   1      32.731  25.590  24.362  1.00  0.00     0.348 HD
ATOM     15  C   UNL A   1      32.448  23.097  26.340  1.00  0.00     0.083 C 
ATOM     16  C   UNL A   1      34.696  24.482  23.882  1.00  0.00     0.076 C 
BRANCH  11  17
ATOM     17  C   UNL A   1      31.209  24.633  23.643  1.00  0.00     0.310 C 
BRANCH  17  18
ATOM     18  C   UNL A   1      30.446  25.926  23.514  1.00  0.00     0.059 A 
ATOM     19  C   UNL A   1      29.732  28.222  22.906  1.00  0.00     0.005 A 
ATOM     20  C   UNL A   1      28.737  27.515  23.549  1.00  0.00     0.016 A 
ATOM     21  S   UNL A   1      31.201  27.341  22.907  1.00  0.00    -0.139 S 
ATOM     22  C   UNL A   1      29.152  26.200  23.909  1.00  0.00     0.021 A 
BRANCH  19  23
ATOM     23  C   UNL A   1      29.685  29.564  22.233  1.00  0.00     0.043 C 
ATOM     24  C   UNL A   1      29.067  30.670  23.068  1.00  0.00     0.010 C 
ENDBRANCH  19  23
ENDBRANCH  17  18
ENDBRANCH  11  17
ENDBRANCH   8  10
ENDBRANCH   7   8
ENDBRANCH   6   7
ENDBRANCH   5   6
ENDBRANCH   4   5
ENDBRANCH   3   4
ENDBRANCH   2   3
ENDBRANCH   1   2
BRANCH   1  25
ATOM     25  C   UNL A   1      41.797  19.370  26.477  1.00  0.00     0.188 C 
BRANCH  25  26
ATOM     26  C   UNL A   1      42.901  20.321  26.021  1.00  0.00     0.188 C 
BRANCH  26  27
ATOM     27  O   UNL A   1      43.935  19.887  25.146  1.00  0.00    -0.376 OA
BRANCH  27  28
ATOM     28  C   UNL A   1      44.808  20.789  24.485  1.00  0.00     0.202 C 
BRANCH  28  29
ATOM     29  C   UNL A   1      46.089  21.371  25.125  1.00  0.00     0.261 C 
BRANCH  29  30
ATOM     30  O   UNL A   1      46.002  22.608  25.834  1.00  0.00    -0.460 OA
BRANCH  30  31
ATOM     31  C   UNL A   1      46.228  23.724  25.113  1.00  0.00     0.338 C 
ATOM     32  O   UNL A   1      46.546  23.792  23.937  1.00  0.00    -0.246 OA
BRANCH  31  33
ATOM     33  C   UNL A   1      45.875  24.891  25.948  1.00  0.00     0.060 A 
ATOM     34  C   UNL A   1      46.877  25.487  26.725  1.00  0.00     0.016 A 
ATOM     35  C   UNL A   1      44.570  25.390  25.971  1.00  0.00     0.016 A 
ATOM     36  C   UNL A   1      46.572  26.562  27.556  1.00  0.00     0.010 A 
ATOM     37  C   UNL A   1      44.257  26.445  26.833  1.00  0.00     0.010 A 
ATOM     38  C   UNL A   1      45.249  27.007  27.656  1.00  0.00    -0.014 A 
BRANCH  38  39
ATOM     39  C   UNL A   1      44.870  27.885  28.787  1.00  0.00     0.031 A 
ATOM     40  C   UNL A   1      44.848  29.371  28.546  1.00  0.00     0.074 A 
ATOM     41  C   UNL A   1      44.527  27.382  29.986  1.00  0.00     0.049 A 
ATOM     42  N   UNL A   1      44.605  30.344  29.382  1.00  0.00    -0.248 NA
ATOM     43  C   UNL A   1      45.140  29.819  27.171  1.00  0.00     0.031 C 
ATOM     44  C   UNL A   1      44.481  25.961  30.329  1.00  0.00     0.029 A 
ATOM     45  N   UNL A   1      44.175  28.021  31.148  1.00  0.00    -0.354 N 
ATOM     46  C   UNL A   1      44.731  31.515  28.644  1.00  0.00     0.074 A 
ATOM     47  C   UNL A   1      45.091  31.136  27.297  1.00  0.00     0.031 C 
ATOM     48  C   UNL A   1      44.157  25.838  31.629  1.00  0.00     0.029 A 
ATOM     49  C   UNL A   1      44.001  27.169  32.213  1.00  0.00     0.049 A 
ATOM     50  H   UNL A   1      44.058  28.997  31.213  1.00  0.00     0.167 HD
ATOM     51  C   UNL A   1      44.544  32.793  29.046  1.00  0.00     0.034 A 
ATOM     52  C   UNL A   1      43.776  27.441  33.515  1.00  0.00     0.034 A 
ATOM     53  C   UNL A   1      44.182  33.168  30.384  1.00  0.00     0.049 A 
ATOM     54  C   UNL A   1      43.638  28.881  33.949  1.00  0.00     0.074 A 
ATOM     55  C   UNL A   1      43.970  34.435  30.895  1.00  0.00     0.029 A 
ATOM     56  N   UNL A   1      43.983  32.276  31.426  1.00  0.00    -0.354 N 
ATOM     57  N   UNL A   1      43.676  29.974  33.224  1.00  0.00    -0.248 NA
ATOM     58  C   UNL A   1      43.393  29.125  35.379  1.00  0.00     0.031 C 
ATOM     59  C   UNL A   1      43.665  34.313  32.253  1.00  0.00     0.029 A 
ATOM     60  C   UNL A   1      43.650  32.966  32.578  1.00  0.00     0.049 A 
ATOM     61  H   UNL A   1      44.067  31.298  31.356  1.00  0.00     0.167 HD
ATOM     62  C   UNL A   1      43.410  31.024  34.098  1.00  0.00     0.074 A 
ATOM     63  C   UNL A   1      43.194  30.436  35.402  1.00  0.00     0.031 C 
ATOM     64  C   UNL A   1      43.363  32.356  33.850  1.00  0.00     0.034 A 
BRANCH  51  65
ATOM     65  C   UNL A   1      44.696  33.882  28.019  1.00  0.00     0.023 A 
ATOM     66  C   UNL A   1      43.589  34.248  27.226  1.00  0.00     0.012 A 
ATOM     67  C   UNL A   1      45.907  34.590  27.887  1.00  0.00     0.148 A 
ATOM     68  C   UNL A   1      43.689  35.288  26.304  1.00  0.00     0.002 A 
ATOM     69  C   UNL A   1      45.985  35.655  26.998  1.00  0.00     0.091 A 
ATOM     70  F   UNL A   1      46.952  34.213  28.636  1.00  0.00    -0.205 F 
ATOM     71  C   UNL A   1      44.882  35.998  26.199  1.00  0.00     0.022 A 
BRANCH  69  72
ATOM     72  S   UNL A   1      47.449  36.684  26.840  1.00  0.00     0.127 S 
ATOM     73  O   UNL A   1      47.446  37.399  28.116  1.00  0.00    -0.237 OA
ATOM     74  O   UNL A   1      48.509  35.686  26.703  1.00  0.00    -0.237 OA
ATOM     75  O   UNL A   1      47.235  37.516  25.664  1.00  0.00    -0.744 OA
ENDBRANCH  69  72
ENDBRANCH  51  65
BRANCH  52  76
ATOM     76  C   UNL A   1      43.658  26.341  34.517  1.00  0.00     0.023 A 
ATOM     77  C   UNL A   1      42.390  25.806  34.820  1.00  0.00     0.012 A 
ATOM     78  C   UNL A   1      44.787  25.855  35.205  1.00  0.00     0.148 A 
ATOM     79  C   UNL A   1      42.240  24.854  35.830  1.00  0.00     0.002 A 
ATOM     80  C   UNL A   1      44.639  24.861  36.166  1.00  0.00     0.091 A 
ATOM     81  F   UNL A   1      45.984  26.384  34.919  1.00  0.00    -0.205 F 
ATOM     82  C   UNL A   1      43.364  24.377  36.498  1.00  0.00     0.022 A 
BRANCH  80  83
ATOM     83  S   UNL A   1      46.043  24.097  36.984  1.00  0.00     0.127 S 
ATOM     84  O   UNL A   1      45.480  22.820  37.415  1.00  0.00    -0.237 OA
ATOM     85  O   UNL A   1      47.016  24.007  35.894  1.00  0.00    -0.237 OA
ATOM     86  O   UNL A   1      46.423  25.014  38.050  1.00  0.00    -0.744 OA
ENDBRANCH  80  83
ENDBRANCH  52  76
BRANCH  64  87
ATOM     87  C   UNL A   1      42.989  33.272  34.987  1.00  0.00     0.023 A 
ATOM     88  C   UNL A   1      43.983  33.775  35.849  1.00  0.00     0.012 A 
ATOM     89  C   UNL A   1      41.655  33.697  35.148  1.00  0.00     0.148 A 
ATOM     90  C   UNL A   1      43.650  34.657  36.876  1.00  0.00     0.002 A 
ATOM     91  C   UNL A   1      41.338  34.618  36.138  1.00  0.00     0.091 A 
ATOM     92  F   UNL A   1      40.721  33.197  34.325  1.00  0.00    -0.205 F 
ATOM     93  C   UNL A   1      42.331  35.087  37.013  1.00  0.00     0.022 A 
BRANCH  91  94
ATOM     94  S   UNL A   1      39.690  35.306  36.327  1.00  0.00     0.127 S 
ATOM     95  O   UNL A   1      39.955  36.496  37.133  1.00  0.00    -0.237 OA
ATOM     96  O   UNL A   1      39.310  35.580  34.940  1.00  0.00    -0.237 OA
ATOM     97  O   UNL A   1      38.895  34.276  36.981  1.00  0.00    -0.744 OA
ENDBRANCH  91  94
ENDBRANCH  64  87
ENDBRANCH  38  39
ENDBRANCH  31  33
ENDBRANCH  30  31
ENDBRANCH  29  30
ENDBRANCH  28  29
ENDBRANCH  27  28
ENDBRANCH  26  27
ENDBRANCH  25  26
ENDBRANCH   1  25
TORSDOF 26
ENDMDL
