MODEL 1
REMARK VINA RESULT:      -6.3      0.000      0.000
REMARK SMILES CC(C)[NH2+][C@@]1(C(=O)OCCOCCOCCOCCOC(=O)c2ccc(-c3c4nc(c(-c5cccc(S(=O)(=O)[O-])c5F)c5ccc([nH]5)c(-c5cccc(S(=O)(=O)[O-])c5F)c5nc(c(-c6cccc(S(=O)(=O)[O-])c6F)c6ccc3[nH]6)C=C5)C=C4)cc2)CCC[C@@H]1CCOC1CCOCC1
REMARK SMILES IDX 13 1 12 2 11 3 10 4 9 5 8 6 6 7 7 8 5 9 86 10 89 11 87 12
REMARK SMILES IDX 88 13 4 14 2 17 1 18 3 19 90 20 91 21 92 22 93 23 94 24
REMARK SMILES IDX 98 25 95 26 97 27 96 28 14 29 15 30 16 31 17 32 18 33 19 34
REMARK SMILES IDX 20 35 21 36 22 37 23 38 24 39 85 40 25 41 84 42 26 43 27 44
REMARK SMILES IDX 28 45 78 46 29 47 83 48 77 49 79 50 30 51 82 52 76 53 75 54
REMARK SMILES IDX 31 56 63 57 43 58 62 59 44 60 47 61 61 62 80 63 45 64 46 65
REMARK SMILES IDX 60 67 81 68 48 69 32 70 33 71 41 72 34 73 36 74 42 75 35 76
REMARK SMILES IDX 37 77 38 78 39 79 40 80 64 81 65 82 73 83 66 84 68 85 74 86
REMARK SMILES IDX 67 87 69 88 70 89 71 90 72 91 49 92 50 93 58 94 51 95 53 96
REMARK SMILES IDX 59 97 52 98 54 99 55 100 56 101 57 102
REMARK H PARENT 4 15 4 16 79 55 47 66
REMARK Flexibility Score: inf
ROOT
ATOM      1  C   UNL A   1      41.707  21.071  26.433  1.00  0.00     0.188 C 
ENDROOT
BRANCH   1   2
ATOM      2  C   UNL A   1      42.477  22.366  26.166  1.00  0.00     0.188 C 
BRANCH   2   3
ATOM      3  O   UNL A   1      42.731  22.794  24.827  1.00  0.00    -0.376 OA
BRANCH   3   4
ATOM      4  C   UNL A   1      43.193  24.115  24.597  1.00  0.00     0.202 C 
BRANCH   4   5
ATOM      5  C   UNL A   1      42.816  25.137  25.691  1.00  0.00     0.261 C 
BRANCH   5   6
ATOM      6  O   UNL A   1      41.458  25.634  25.722  1.00  0.00    -0.459 OA
BRANCH   6   7
ATOM      7  C   UNL A   1      41.244  26.833  26.327  1.00  0.00     0.368 C 
ATOM      8  O   UNL A   1      41.715  27.889  25.912  1.00  0.00    -0.245 OA
BRANCH   7   9
ATOM      9  C   UNL A   1      40.405  26.745  27.669  1.00  0.00     0.197 C 
ATOM     10  C   UNL A   1      41.506  26.786  28.755  1.00  0.00     0.081 C 
ATOM     11  C   UNL A   1      39.689  25.401  28.117  1.00  0.00     0.065 C 
ATOM     12  C   UNL A   1      41.963  25.318  28.918  1.00  0.00     0.008 C 
ATOM     13  C   UNL A   1      40.827  24.425  28.404  1.00  0.00     0.011 C 
BRANCH   9  14
ATOM     14  N   UNL A   1      39.357  27.826  27.646  1.00  0.00    -0.330 N 
ATOM     15  H   UNL A   1      39.667  28.504  26.949  1.00  0.00     0.347 HD
ATOM     16  H   UNL A   1      38.508  27.284  27.484  1.00  0.00     0.347 HD
BRANCH  14  17
ATOM     17  C   UNL A   1      38.987  28.607  28.834  1.00  0.00     0.176 C 
ATOM     18  C   UNL A   1      39.884  29.839  29.014  1.00  0.00     0.075 C 
ATOM     19  C   UNL A   1      37.573  29.212  28.656  1.00  0.00     0.075 C 
ENDBRANCH  14  17
ENDBRANCH   9  14
BRANCH  11  20
ATOM     20  C   UNL A   1      38.507  24.822  27.314  1.00  0.00     0.039 C 
BRANCH  20  21
ATOM     21  C   UNL A   1      38.747  23.604  26.404  1.00  0.00     0.161 C 
BRANCH  21  22
ATOM     22  O   UNL A   1      37.690  23.270  25.500  1.00  0.00    -0.378 OA
BRANCH  22  23
ATOM     23  C   UNL A   1      36.332  23.257  25.962  1.00  0.00     0.122 C 
ATOM     24  C   UNL A   1      35.807  21.835  26.094  1.00  0.00     0.060 C 
ATOM     25  C   UNL A   1      35.412  24.273  25.290  1.00  0.00     0.060 C 
ATOM     26  C   UNL A   1      34.385  21.578  25.597  1.00  0.00     0.163 C 
ATOM     27  C   UNL A   1      33.961  23.863  25.380  1.00  0.00     0.163 C 
ATOM     28  O   UNL A   1      33.836  22.590  24.774  1.00  0.00    -0.381 OA
ENDBRANCH  22  23
ENDBRANCH  21  22
ENDBRANCH  20  21
ENDBRANCH  11  20
ENDBRANCH   7   9
ENDBRANCH   6   7
ENDBRANCH   5   6
ENDBRANCH   4   5
ENDBRANCH   3   4
ENDBRANCH   2   3
ENDBRANCH   1   2
BRANCH   1  29
ATOM     29  O   UNL A   1      42.237  20.242  27.451  1.00  0.00    -0.377 OA
BRANCH  29  30
ATOM     30  C   UNL A   1      42.628  18.932  27.083  1.00  0.00     0.188 C 
BRANCH  30  31
ATOM     31  C   UNL A   1      42.732  18.696  25.572  1.00  0.00     0.188 C 
BRANCH  31  32
ATOM     32  O   UNL A   1      44.052  18.356  25.171  1.00  0.00    -0.376 OA
BRANCH  32  33
ATOM     33  C   UNL A   1      44.589  18.891  23.974  1.00  0.00     0.202 C 
BRANCH  33  34
ATOM     34  C   UNL A   1      44.451  20.388  23.638  1.00  0.00     0.261 C 
BRANCH  34  35
ATOM     35  O   UNL A   1      45.569  21.243  23.891  1.00  0.00    -0.460 OA
BRANCH  35  36
ATOM     36  C   UNL A   1      46.050  21.308  25.154  1.00  0.00     0.338 C 
ATOM     37  O   UNL A   1      46.403  20.382  25.847  1.00  0.00    -0.246 OA
BRANCH  36  38
ATOM     38  C   UNL A   1      46.251  22.743  25.464  1.00  0.00     0.060 A 
ATOM     39  C   UNL A   1      46.558  23.630  24.423  1.00  0.00     0.016 A 
ATOM     40  C   UNL A   1      46.127  23.206  26.775  1.00  0.00     0.016 A 
ATOM     41  C   UNL A   1      46.774  24.982  24.694  1.00  0.00     0.010 A 
ATOM     42  C   UNL A   1      46.377  24.553  27.051  1.00  0.00     0.010 A 
ATOM     43  C   UNL A   1      46.737  25.436  26.017  1.00  0.00    -0.014 A 
BRANCH  43  44
ATOM     44  C   UNL A   1      47.309  26.757  26.369  1.00  0.00     0.031 A 
ATOM     45  C   UNL A   1      48.780  26.959  26.141  1.00  0.00     0.074 A 
ATOM     46  C   UNL A   1      46.564  27.726  26.927  1.00  0.00     0.049 A 
ATOM     47  N   UNL A   1      49.550  27.947  26.510  1.00  0.00    -0.248 NA
ATOM     48  C   UNL A   1      49.478  25.891  25.405  1.00  0.00     0.031 C 
ATOM     49  C   UNL A   1      45.124  27.656  27.164  1.00  0.00     0.029 A 
ATOM     50  N   UNL A   1      46.935  28.945  27.437  1.00  0.00    -0.354 N 
ATOM     51  C   UNL A   1      50.830  27.595  26.098  1.00  0.00     0.074 A 
ATOM     52  C   UNL A   1      50.733  26.310  25.444  1.00  0.00     0.031 C 
ATOM     53  C   UNL A   1      44.740  28.763  27.823  1.00  0.00     0.029 A 
ATOM     54  C   UNL A   1      45.913  29.595  28.090  1.00  0.00     0.049 A 
ATOM     55  H   UNL A   1      47.842  29.317  27.346  1.00  0.00     0.167 HD
ATOM     56  C   UNL A   1      51.985  28.281  26.256  1.00  0.00     0.034 A 
ATOM     57  C   UNL A   1      45.937  30.706  28.854  1.00  0.00     0.034 A 
ATOM     58  C   UNL A   1      52.072  29.557  26.909  1.00  0.00     0.049 A 
ATOM     59  C   UNL A   1      47.241  31.434  29.056  1.00  0.00     0.074 A 
ATOM     60  C   UNL A   1      53.185  30.357  27.088  1.00  0.00     0.029 A 
ATOM     61  N   UNL A   1      51.007  30.207  27.513  1.00  0.00    -0.354 N 
ATOM     62  N   UNL A   1      48.431  31.140  28.591  1.00  0.00    -0.248 NA
ATOM     63  C   UNL A   1      47.204  32.662  29.865  1.00  0.00     0.031 C 
ATOM     64  C   UNL A   1      52.802  31.469  27.841  1.00  0.00     0.029 A 
ATOM     65  C   UNL A   1      51.438  31.392  28.080  1.00  0.00     0.049 A 
ATOM     66  H   UNL A   1      50.080  29.875  27.535  1.00  0.00     0.167 HD
ATOM     67  C   UNL A   1      49.272  32.167  29.006  1.00  0.00     0.074 A 
ATOM     68  C   UNL A   1      48.455  33.093  29.764  1.00  0.00     0.031 C 
ATOM     69  C   UNL A   1      50.599  32.331  28.779  1.00  0.00     0.034 A 
BRANCH  56  70
ATOM     70  C   UNL A   1      53.248  27.650  25.734  1.00  0.00     0.023 A 
ATOM     71  C   UNL A   1      54.020  26.815  26.566  1.00  0.00     0.012 A 
ATOM     72  C   UNL A   1      53.656  27.868  24.404  1.00  0.00     0.148 A 
ATOM     73  C   UNL A   1      55.201  26.240  26.096  1.00  0.00     0.002 A 
ATOM     74  C   UNL A   1      54.804  27.250  23.926  1.00  0.00     0.091 A 
ATOM     75  F   UNL A   1      52.924  28.686  23.635  1.00  0.00    -0.205 F 
ATOM     76  C   UNL A   1      55.586  26.450  24.774  1.00  0.00     0.022 A 
BRANCH  74  77
ATOM     77  S   UNL A   1      55.337  27.392  22.217  1.00  0.00     0.127 S 
ATOM     78  O   UNL A   1      55.243  28.834  21.997  1.00  0.00    -0.237 OA
ATOM     79  O   UNL A   1      56.703  26.872  22.278  1.00  0.00    -0.237 OA
ATOM     80  O   UNL A   1      54.411  26.580  21.439  1.00  0.00    -0.744 OA
ENDBRANCH  74  77
ENDBRANCH  56  70
BRANCH  57  81
ATOM     81  C   UNL A   1      44.680  31.198  29.486  1.00  0.00     0.023 A 
ATOM     82  C   UNL A   1      43.940  32.221  28.864  1.00  0.00     0.012 A 
ATOM     83  C   UNL A   1      44.202  30.637  30.687  1.00  0.00     0.148 A 
ATOM     84  C   UNL A   1      42.761  32.696  29.439  1.00  0.00     0.002 A 
ATOM     85  C   UNL A   1      42.998  31.075  31.225  1.00  0.00     0.091 A 
ATOM     86  F   UNL A   1      44.928  29.672  31.269  1.00  0.00    -0.205 F 
ATOM     87  C   UNL A   1      42.284  32.117  30.613  1.00  0.00     0.022 A 
BRANCH  85  88
ATOM     88  S   UNL A   1      42.244  30.309  32.663  1.00  0.00     0.127 S 
ATOM     89  O   UNL A   1      43.397  30.109  33.536  1.00  0.00    -0.237 OA
ATOM     90  O   UNL A   1      41.312  31.350  33.100  1.00  0.00    -0.237 OA
ATOM     91  O   UNL A   1      41.607  29.092  32.176  1.00  0.00    -0.744 OA
ENDBRANCH  85  88
ENDBRANCH  57  81
BRANCH  69  92
ATOM     92  C   UNL A   1      51.259  33.591  29.276  1.00  0.00     0.023 A 
ATOM     93  C   UNL A   1      51.916  33.612  30.519  1.00  0.00     0.012 A 
ATOM     94  C   UNL A   1      51.330  34.720  28.432  1.00  0.00     0.148 A 
ATOM     95  C   UNL A   1      52.621  34.746  30.925  1.00  0.00     0.002 A 
ATOM     96  C   UNL A   1      52.078  35.823  28.819  1.00  0.00     0.091 A 
ATOM     97  F   UNL A   1      50.682  34.681  27.259  1.00  0.00    -0.205 F 
ATOM     98  C   UNL A   1      52.716  35.843  30.070  1.00  0.00     0.022 A 
BRANCH  96  99
ATOM     99  S   UNL A   1      52.346  37.233  27.738  1.00  0.00     0.127 S 
ATOM    100  O   UNL A   1      53.035  38.164  28.631  1.00  0.00    -0.237 OA
ATOM    101  O   UNL A   1      53.187  36.660  26.688  1.00  0.00    -0.237 OA
ATOM    102  O   UNL A   1      51.027  37.661  27.295  1.00  0.00    -0.744 OA
ENDBRANCH  96  99
ENDBRANCH  69  92
ENDBRANCH  43  44
ENDBRANCH  36  38
ENDBRANCH  35  36
ENDBRANCH  34  35
ENDBRANCH  33  34
ENDBRANCH  32  33
ENDBRANCH  31  32
ENDBRANCH  30  31
ENDBRANCH  29  30
ENDBRANCH   1  29
TORSDOF 29
ENDMDL
MODEL 2
REMARK VINA RESULT:      -6.3      6.954     14.358
REMARK SMILES CC(C)[NH2+][C@@]1(C(=O)OCCOCCOCCOCCOC(=O)c2ccc(-c3c4nc(c(-c5cccc(S(=O)(=O)[O-])c5F)c5ccc([nH]5)c(-c5cccc(S(=O)(=O)[O-])c5F)c5nc(c(-c6cccc(S(=O)(=O)[O-])c6F)c6ccc3[nH]6)C=C5)C=C4)cc2)CCC[C@@H]1CCOC1CCOCC1
REMARK SMILES IDX 13 1 12 2 11 3 10 4 9 5 8 6 6 7 7 8 5 9 86 10 89 11 87 12
REMARK SMILES IDX 88 13 4 14 2 17 1 18 3 19 90 20 91 21 92 22 93 23 94 24
REMARK SMILES IDX 98 25 95 26 97 27 96 28 14 29 15 30 16 31 17 32 18 33 19 34
REMARK SMILES IDX 20 35 21 36 22 37 23 38 24 39 85 40 25 41 84 42 26 43 27 44
REMARK SMILES IDX 28 45 78 46 29 47 83 48 77 49 79 50 30 51 82 52 76 53 75 54
REMARK SMILES IDX 31 56 63 57 43 58 62 59 44 60 47 61 61 62 80 63 45 64 46 65
REMARK SMILES IDX 60 67 81 68 48 69 32 70 33 71 41 72 34 73 36 74 42 75 35 76
REMARK SMILES IDX 37 77 38 78 39 79 40 80 64 81 65 82 73 83 66 84 68 85 74 86
REMARK SMILES IDX 67 87 69 88 70 89 71 90 72 91 49 92 50 93 58 94 51 95 53 96
REMARK SMILES IDX 59 97 52 98 54 99 55 100 56 101 57 102
REMARK H PARENT 4 15 4 16 79 55 47 66
REMARK Flexibility Score: inf
ROOT
ATOM      1  C   UNL A   1      51.603  28.283  40.070  1.00  0.00     0.188 C 
ENDROOT
BRANCH   1   2
ATOM      2  C   UNL A   1      51.037  29.245  39.024  1.00  0.00     0.188 C 
BRANCH   2   3
ATOM      3  O   UNL A   1      51.145  30.658  39.207  1.00  0.00    -0.376 OA
BRANCH   3   4
ATOM      4  C   UNL A   1      50.799  31.524  38.138  1.00  0.00     0.202 C 
BRANCH   4   5
ATOM      5  C   UNL A   1      49.331  31.428  37.670  1.00  0.00     0.261 C 
BRANCH   5   6
ATOM      6  O   UNL A   1      48.744  32.582  37.023  1.00  0.00    -0.459 OA
BRANCH   6   7
ATOM      7  C   UNL A   1      47.661  32.370  36.229  1.00  0.00     0.368 C 
ATOM      8  O   UNL A   1      47.541  31.385  35.504  1.00  0.00    -0.245 OA
BRANCH   7   9
ATOM      9  C   UNL A   1      46.597  33.544  36.250  1.00  0.00     0.197 C 
ATOM     10  C   UNL A   1      46.320  33.718  37.762  1.00  0.00     0.081 C 
ATOM     11  C   UNL A   1      45.101  33.321  35.767  1.00  0.00     0.065 C 
ATOM     12  C   UNL A   1      45.219  32.684  38.091  1.00  0.00     0.008 C 
ATOM     13  C   UNL A   1      44.501  32.347  36.778  1.00  0.00     0.011 C 
BRANCH   9  14
ATOM     14  N   UNL A   1      47.153  34.704  35.468  1.00  0.00    -0.330 N 
ATOM     15  H   UNL A   1      46.346  35.207  35.100  1.00  0.00     0.347 HD
ATOM     16  H   UNL A   1      47.755  35.149  36.161  1.00  0.00     0.347 HD
BRANCH  14  17
ATOM     17  C   UNL A   1      48.077  34.537  34.338  1.00  0.00     0.176 C 
ATOM     18  C   UNL A   1      47.530  35.168  33.050  1.00  0.00     0.075 C 
ATOM     19  C   UNL A   1      49.385  35.323  34.597  1.00  0.00     0.075 C 
ENDBRANCH  14  17
ENDBRANCH   9  14
BRANCH  11  20
ATOM     20  C   UNL A   1      44.778  33.024  34.289  1.00  0.00     0.039 C 
BRANCH  20  21
ATOM     21  C   UNL A   1      43.325  33.167  33.800  1.00  0.00     0.161 C 
BRANCH  21  22
ATOM     22  O   UNL A   1      43.007  34.374  33.101  1.00  0.00    -0.378 OA
BRANCH  22  23
ATOM     23  C   UNL A   1      42.311  34.312  31.848  1.00  0.00     0.122 C 
ATOM     24  C   UNL A   1      41.529  33.014  31.715  1.00  0.00     0.060 C 
ATOM     25  C   UNL A   1      43.125  34.755  30.634  1.00  0.00     0.060 C 
ATOM     26  C   UNL A   1      41.585  32.313  30.358  1.00  0.00     0.163 C 
ATOM     27  C   UNL A   1      42.588  34.165  29.352  1.00  0.00     0.163 C 
ATOM     28  O   UNL A   1      42.608  32.756  29.486  1.00  0.00    -0.381 OA
ENDBRANCH  22  23
ENDBRANCH  21  22
ENDBRANCH  20  21
ENDBRANCH  11  20
ENDBRANCH   7   9
ENDBRANCH   6   7
ENDBRANCH   5   6
ENDBRANCH   4   5
ENDBRANCH   3   4
ENDBRANCH   2   3
ENDBRANCH   1   2
BRANCH   1  29
ATOM     29  O   UNL A   1      50.646  27.609  40.866  1.00  0.00    -0.377 OA
BRANCH  29  30
ATOM     30  C   UNL A   1      49.548  28.366  41.341  1.00  0.00     0.188 C 
BRANCH  30  31
ATOM     31  C   UNL A   1      48.175  27.738  41.076  1.00  0.00     0.188 C 
BRANCH  31  32
ATOM     32  O   UNL A   1      47.972  27.450  39.700  1.00  0.00    -0.376 OA
BRANCH  32  33
ATOM     33  C   UNL A   1      47.069  26.429  39.316  1.00  0.00     0.202 C 
BRANCH  33  34
ATOM     34  C   UNL A   1      47.124  25.804  37.910  1.00  0.00     0.261 C 
BRANCH  34  35
ATOM     35  O   UNL A   1      47.974  26.411  36.933  1.00  0.00    -0.460 OA
BRANCH  35  36
ATOM     36  C   UNL A   1      47.849  26.017  35.645  1.00  0.00     0.338 C 
ATOM     37  O   UNL A   1      48.489  25.160  35.081  1.00  0.00    -0.246 OA
BRANCH  36  38
ATOM     38  C   UNL A   1      46.648  26.695  35.102  1.00  0.00     0.060 A 
ATOM     39  C   UNL A   1      45.424  26.013  35.096  1.00  0.00     0.016 A 
ATOM     40  C   UNL A   1      46.735  27.999  34.611  1.00  0.00     0.016 A 
ATOM     41  C   UNL A   1      44.284  26.622  34.568  1.00  0.00     0.010 A 
ATOM     42  C   UNL A   1      45.602  28.595  34.051  1.00  0.00     0.010 A 
ATOM     43  C   UNL A   1      44.383  27.894  33.996  1.00  0.00    -0.014 A 
BRANCH  43  44
ATOM     44  C   UNL A   1      43.302  28.405  33.121  1.00  0.00     0.031 A 
ATOM     45  C   UNL A   1      42.283  29.321  33.739  1.00  0.00     0.074 A 
ATOM     46  C   UNL A   1      43.191  28.026  31.837  1.00  0.00     0.049 A 
ATOM     47  N   UNL A   1      41.162  29.771  33.245  1.00  0.00    -0.248 NA
ATOM     48  C   UNL A   1      42.568  29.781  35.109  1.00  0.00     0.031 C 
ATOM     49  C   UNL A   1      44.136  27.172  31.122  1.00  0.00     0.029 A 
ATOM     50  N   UNL A   1      42.200  28.280  30.921  1.00  0.00    -0.354 N 
ATOM     51  C   UNL A   1      40.582  30.522  34.259  1.00  0.00     0.074 A 
ATOM     52  C   UNL A   1      41.477  30.476  35.393  1.00  0.00     0.031 C 
ATOM     53  C   UNL A   1      43.652  26.927  29.891  1.00  0.00     0.029 A 
ATOM     54  C   UNL A   1      42.347  27.573  29.751  1.00  0.00     0.049 A 
ATOM     55  H   UNL A   1      41.459  28.907  31.086  1.00  0.00     0.167 HD
ATOM     56  C   UNL A   1      39.404  31.186  34.249  1.00  0.00     0.034 A 
ATOM     57  C   UNL A   1      41.501  27.426  28.711  1.00  0.00     0.034 A 
ATOM     58  C   UNL A   1      38.520  31.225  33.119  1.00  0.00     0.049 A 
ATOM     59  C   UNL A   1      40.173  28.140  28.735  1.00  0.00     0.074 A 
ATOM     60  C   UNL A   1      37.321  31.901  32.988  1.00  0.00     0.029 A 
ATOM     61  N   UNL A   1      38.726  30.537  31.933  1.00  0.00    -0.354 N 
ATOM     62  N   UNL A   1      39.671  28.918  29.663  1.00  0.00    -0.248 NA
ATOM     63  C   UNL A   1      39.306  27.979  27.558  1.00  0.00     0.031 C 
ATOM     64  C   UNL A   1      36.780  31.584  31.739  1.00  0.00     0.029 A 
ATOM     65  C   UNL A   1      37.670  30.759  31.069  1.00  0.00     0.049 A 
ATOM     66  H   UNL A   1      39.510  29.974  31.735  1.00  0.00     0.167 HD
ATOM     67  C   UNL A   1      38.456  29.378  29.165  1.00  0.00     0.074 A 
ATOM     68  C   UNL A   1      38.296  28.789  27.851  1.00  0.00     0.031 C 
ATOM     69  C   UNL A   1      37.556  30.212  29.741  1.00  0.00     0.034 A 
BRANCH  56  70
ATOM     70  C   UNL A   1      38.997  31.904  35.509  1.00  0.00     0.023 A 
ATOM     71  C   UNL A   1      38.153  31.273  36.444  1.00  0.00     0.012 A 
ATOM     72  C   UNL A   1      39.475  33.202  35.775  1.00  0.00     0.148 A 
ATOM     73  C   UNL A   1      37.757  31.938  37.604  1.00  0.00     0.002 A 
ATOM     74  C   UNL A   1      39.120  33.838  36.957  1.00  0.00     0.091 A 
ATOM     75  F   UNL A   1      40.256  33.797  34.862  1.00  0.00    -0.205 F 
ATOM     76  C   UNL A   1      38.249  33.214  37.865  1.00  0.00     0.022 A 
BRANCH  74  77
ATOM     77  S   UNL A   1      39.768  35.446  37.421  1.00  0.00     0.127 S 
ATOM     78  O   UNL A   1      38.980  35.749  38.616  1.00  0.00    -0.237 OA
ATOM     79  O   UNL A   1      41.176  35.146  37.680  1.00  0.00    -0.237 OA
ATOM     80  O   UNL A   1      39.533  36.320  36.280  1.00  0.00    -0.744 OA
ENDBRANCH  74  77
ENDBRANCH  56  70
BRANCH  57  81
ATOM     81  C   UNL A   1      41.887  26.567  27.556  1.00  0.00     0.023 A 
ATOM     82  C   UNL A   1      42.573  27.132  26.464  1.00  0.00     0.012 A 
ATOM     83  C   UNL A   1      41.600  25.187  27.549  1.00  0.00     0.148 A 
ATOM     84  C   UNL A   1      42.943  26.344  25.373  1.00  0.00     0.002 A 
ATOM     85  C   UNL A   1      42.021  24.398  26.485  1.00  0.00     0.091 A 
ATOM     86  F   UNL A   1      40.936  24.673  28.593  1.00  0.00    -0.205 F 
ATOM     87  C   UNL A   1      42.678  24.978  25.388  1.00  0.00     0.022 A 
BRANCH  85  88
ATOM     88  S   UNL A   1      41.833  22.613  26.470  1.00  0.00     0.127 S 
ATOM     89  O   UNL A   1      42.444  22.257  25.192  1.00  0.00    -0.237 OA
ATOM     90  O   UNL A   1      42.603  22.223  27.652  1.00  0.00    -0.237 OA
ATOM     91  O   UNL A   1      40.401  22.364  26.572  1.00  0.00    -0.744 OA
ENDBRANCH  85  88
ENDBRANCH  57  81
BRANCH  69  92
ATOM     92  C   UNL A   1      36.347  30.623  28.941  1.00  0.00     0.023 A 
ATOM     93  C   UNL A   1      35.493  29.651  28.388  1.00  0.00     0.012 A 
ATOM     94  C   UNL A   1      35.998  31.986  28.854  1.00  0.00     0.148 A 
ATOM     95  C   UNL A   1      34.315  30.033  27.745  1.00  0.00     0.002 A 
ATOM     96  C   UNL A   1      34.798  32.354  28.260  1.00  0.00     0.091 A 
ATOM     97  F   UNL A   1      36.836  32.894  29.375  1.00  0.00    -0.205 F 
ATOM     98  C   UNL A   1      33.960  31.380  27.694  1.00  0.00     0.022 A 
BRANCH  96  99
ATOM     99  S   UNL A   1      34.209  34.051  28.248  1.00  0.00     0.127 S 
ATOM    100  O   UNL A   1      32.797  33.872  27.914  1.00  0.00    -0.237 OA
ATOM    101  O   UNL A   1      34.462  34.474  29.626  1.00  0.00    -0.237 OA
ATOM    102  O   UNL A   1      34.999  34.749  27.244  1.00  0.00    -0.744 OA
ENDBRANCH  96  99
ENDBRANCH  69  92
ENDBRANCH  43  44
ENDBRANCH  36  38
ENDBRANCH  35  36
ENDBRANCH  34  35
ENDBRANCH  33  34
ENDBRANCH  32  33
ENDBRANCH  31  32
ENDBRANCH  30  31
ENDBRANCH  29  30
ENDBRANCH   1  29
TORSDOF 29
ENDMDL
MODEL 3
REMARK VINA RESULT:      -5.9      4.647     10.526
REMARK SMILES CC(C)[NH2+][C@@]1(C(=O)OCCOCCOCCOCCOC(=O)c2ccc(-c3c4nc(c(-c5cccc(S(=O)(=O)[O-])c5F)c5ccc([nH]5)c(-c5cccc(S(=O)(=O)[O-])c5F)c5nc(c(-c6cccc(S(=O)(=O)[O-])c6F)c6ccc3[nH]6)C=C5)C=C4)cc2)CCC[C@@H]1CCOC1CCOCC1
REMARK SMILES IDX 13 1 12 2 11 3 10 4 9 5 8 6 6 7 7 8 5 9 86 10 89 11 87 12
REMARK SMILES IDX 88 13 4 14 2 17 1 18 3 19 90 20 91 21 92 22 93 23 94 24
REMARK SMILES IDX 98 25 95 26 97 27 96 28 14 29 15 30 16 31 17 32 18 33 19 34
REMARK SMILES IDX 20 35 21 36 22 37 23 38 24 39 85 40 25 41 84 42 26 43 27 44
REMARK SMILES IDX 28 45 78 46 29 47 83 48 77 49 79 50 30 51 82 52 76 53 75 54
REMARK SMILES IDX 31 56 63 57 43 58 62 59 44 60 47 61 61 62 80 63 45 64 46 65
REMARK SMILES IDX 60 67 81 68 48 69 32 70 33 71 41 72 34 73 36 74 42 75 35 76
REMARK SMILES IDX 37 77 38 78 39 79 40 80 64 81 65 82 73 83 66 84 68 85 74 86
REMARK SMILES IDX 67 87 69 88 70 89 71 90 72 91 49 92 50 93 58 94 51 95 53 96
REMARK SMILES IDX 59 97 52 98 54 99 55 100 56 101 57 102
REMARK H PARENT 4 15 4 16 79 55 47 66
REMARK Flexibility Score: inf
ROOT
ATOM      1  C   UNL A   1      45.423  27.794  33.526  1.00  0.00     0.188 C 
ENDROOT
BRANCH   1   2
ATOM      2  C   UNL A   1      45.007  26.829  32.414  1.00  0.00     0.188 C 
BRANCH   2   3
ATOM      3  O   UNL A   1      43.638  26.728  32.019  1.00  0.00    -0.376 OA
BRANCH   3   4
ATOM      4  C   UNL A   1      42.863  27.910  31.897  1.00  0.00     0.202 C 
BRANCH   4   5
ATOM      5  C   UNL A   1      42.927  28.592  30.513  1.00  0.00     0.261 C 
BRANCH   5   6
ATOM      6  O   UNL A   1      43.547  27.868  29.424  1.00  0.00    -0.459 OA
BRANCH   6   7
ATOM      7  C   UNL A   1      42.747  27.065  28.673  1.00  0.00     0.368 C 
ATOM      8  O   UNL A   1      41.642  26.677  29.046  1.00  0.00    -0.245 OA
BRANCH   7   9
ATOM      9  C   UNL A   1      43.395  26.596  27.305  1.00  0.00     0.197 C 
ATOM     10  C   UNL A   1      43.689  27.939  26.595  1.00  0.00     0.081 C 
ATOM     11  C   UNL A   1      42.526  25.919  26.161  1.00  0.00     0.065 C 
ATOM     12  C   UNL A   1      42.373  28.309  25.873  1.00  0.00     0.008 C 
ATOM     13  C   UNL A   1      41.573  27.014  25.689  1.00  0.00     0.011 C 
BRANCH   9  14
ATOM     14  N   UNL A   1      44.537  25.664  27.613  1.00  0.00    -0.330 N 
ATOM     15  H   UNL A   1      45.143  26.167  28.260  1.00  0.00     0.347 HD
ATOM     16  H   UNL A   1      44.040  24.830  27.927  1.00  0.00     0.347 HD
BRANCH  14  17
ATOM     17  C   UNL A   1      45.419  25.110  26.577  1.00  0.00     0.176 C 
ATOM     18  C   UNL A   1      46.588  26.052  26.255  1.00  0.00     0.075 C 
ATOM     19  C   UNL A   1      46.119  23.832  27.099  1.00  0.00     0.075 C 
ENDBRANCH  14  17
ENDBRANCH   9  14
BRANCH  11  20
ATOM     20  C   UNL A   1      41.890  24.528  26.363  1.00  0.00     0.039 C 
BRANCH  20  21
ATOM     21  C   UNL A   1      42.545  23.305  25.696  1.00  0.00     0.161 C 
BRANCH  21  22
ATOM     22  O   UNL A   1      41.852  22.061  25.834  1.00  0.00    -0.378 OA
BRANCH  22  23
ATOM     23  C   UNL A   1      42.560  20.893  26.269  1.00  0.00     0.122 C 
ATOM     24  C   UNL A   1      43.959  20.840  25.670  1.00  0.00     0.060 C 
ATOM     25  C   UNL A   1      41.749  19.599  26.243  1.00  0.00     0.060 C 
ATOM     26  C   UNL A   1      44.437  19.482  25.158  1.00  0.00     0.163 C 
ATOM     27  C   UNL A   1      42.638  18.380  26.157  1.00  0.00     0.163 C 
ATOM     28  O   UNL A   1      43.428  18.505  24.989  1.00  0.00    -0.381 OA
ENDBRANCH  22  23
ENDBRANCH  21  22
ENDBRANCH  20  21
ENDBRANCH  11  20
ENDBRANCH   7   9
ENDBRANCH   6   7
ENDBRANCH   5   6
ENDBRANCH   4   5
ENDBRANCH   3   4
ENDBRANCH   2   3
ENDBRANCH   1   2
BRANCH   1  29
ATOM     29  O   UNL A   1      46.071  27.205  34.639  1.00  0.00    -0.377 OA
BRANCH  29  30
ATOM     30  C   UNL A   1      45.768  25.852  34.925  1.00  0.00     0.188 C 
BRANCH  30  31
ATOM     31  C   UNL A   1      46.982  24.916  34.949  1.00  0.00     0.188 C 
BRANCH  31  32
ATOM     32  O   UNL A   1      47.383  24.522  33.645  1.00  0.00    -0.376 OA
BRANCH  32  33
ATOM     33  C   UNL A   1      48.742  24.629  33.259  1.00  0.00     0.202 C 
BRANCH  33  34
ATOM     34  C   UNL A   1      49.195  25.672  32.221  1.00  0.00     0.261 C 
BRANCH  34  35
ATOM     35  O   UNL A   1      48.197  26.481  31.594  1.00  0.00    -0.460 OA
BRANCH  35  36
ATOM     36  C   UNL A   1      48.374  26.824  30.297  1.00  0.00     0.338 C 
ATOM     37  O   UNL A   1      48.725  26.100  29.394  1.00  0.00    -0.246 OA
BRANCH  36  38
ATOM     38  C   UNL A   1      47.871  28.210  30.146  1.00  0.00     0.060 A 
ATOM     39  C   UNL A   1      47.313  28.604  28.922  1.00  0.00     0.016 A 
ATOM     40  C   UNL A   1      47.944  29.108  31.213  1.00  0.00     0.016 A 
ATOM     41  C   UNL A   1      46.854  29.910  28.749  1.00  0.00     0.010 A 
ATOM     42  C   UNL A   1      47.516  30.425  31.028  1.00  0.00     0.010 A 
ATOM     43  C   UNL A   1      47.003  30.838  29.784  1.00  0.00    -0.014 A 
BRANCH  43  44
ATOM     44  C   UNL A   1      46.866  32.288  29.512  1.00  0.00     0.031 A 
ATOM     45  C   UNL A   1      45.504  32.900  29.682  1.00  0.00     0.074 A 
ATOM     46  C   UNL A   1      47.898  33.028  29.073  1.00  0.00     0.049 A 
ATOM     47  N   UNL A   1      45.082  34.092  29.357  1.00  0.00    -0.248 NA
ATOM     48  C   UNL A   1      44.476  32.040  30.293  1.00  0.00     0.031 C 
ATOM     49  C   UNL A   1      49.268  32.552  28.903  1.00  0.00     0.029 A 
ATOM     50  N   UNL A   1      47.934  34.332  28.645  1.00  0.00    -0.354 N 
ATOM     51  C   UNL A   1      43.729  34.107  29.674  1.00  0.00     0.074 A 
ATOM     52  C   UNL A   1      43.402  32.812  30.225  1.00  0.00     0.031 C 
ATOM     53  C   UNL A   1      50.003  33.537  28.356  1.00  0.00     0.029 A 
ATOM     54  C   UNL A   1      49.144  34.692  28.100  1.00  0.00     0.049 A 
ATOM     55  H   UNL A   1      47.169  34.948  28.722  1.00  0.00     0.167 HD
ATOM     56  C   UNL A   1      42.837  35.112  29.515  1.00  0.00     0.034 A 
ATOM     57  C   UNL A   1      49.498  35.807  27.428  1.00  0.00     0.034 A 
ATOM     58  C   UNL A   1      43.171  36.395  28.964  1.00  0.00     0.049 A 
ATOM     59  C   UNL A   1      48.478  36.898  27.221  1.00  0.00     0.074 A 
ATOM     60  C   UNL A   1      42.353  37.497  28.796  1.00  0.00     0.029 A 
ATOM     61  N   UNL A   1      44.418  36.740  28.469  1.00  0.00    -0.354 N 
ATOM     62  N   UNL A   1      47.224  36.938  27.601  1.00  0.00    -0.248 NA
ATOM     63  C   UNL A   1      48.928  38.109  26.517  1.00  0.00     0.031 C 
ATOM     64  C   UNL A   1      43.095  38.492  28.156  1.00  0.00     0.029 A 
ATOM     65  C   UNL A   1      44.391  38.032  27.980  1.00  0.00     0.049 A 
ATOM     66  H   UNL A   1      45.208  36.151  28.467  1.00  0.00     0.167 HD
ATOM     67  C   UNL A   1      46.750  38.192  27.230  1.00  0.00     0.074 A 
ATOM     68  C   UNL A   1      47.852  38.882  26.590  1.00  0.00     0.031 C 
ATOM     69  C   UNL A   1      45.514  38.724  27.402  1.00  0.00     0.034 A 
BRANCH  56  70
ATOM     70  C   UNL A   1      41.411  34.849  29.920  1.00  0.00     0.023 A 
ATOM     71  C   UNL A   1      40.394  34.802  28.946  1.00  0.00     0.012 A 
ATOM     72  C   UNL A   1      41.084  34.623  31.272  1.00  0.00     0.148 A 
ATOM     73  C   UNL A   1      39.068  34.576  29.315  1.00  0.00     0.002 A 
ATOM     74  C   UNL A   1      39.771  34.346  31.626  1.00  0.00     0.091 A 
ATOM     75  F   UNL A   1      42.061  34.697  32.187  1.00  0.00    -0.205 F 
ATOM     76  C   UNL A   1      38.759  34.338  30.652  1.00  0.00     0.022 A 
BRANCH  74  77
ATOM     77  S   UNL A   1      39.288  33.944  33.307  1.00  0.00     0.127 S 
ATOM     78  O   UNL A   1      39.548  35.207  33.999  1.00  0.00    -0.237 OA
ATOM     79  O   UNL A   1      37.871  33.616  33.150  1.00  0.00    -0.237 OA
ATOM     80  O   UNL A   1      40.129  32.826  33.712  1.00  0.00    -0.744 OA
ENDBRANCH  74  77
ENDBRANCH  56  70
BRANCH  57  81
ATOM     81  C   UNL A   1      50.885  35.946  26.902  1.00  0.00     0.023 A 
ATOM     82  C   UNL A   1      51.863  36.598  27.676  1.00  0.00     0.012 A 
ATOM     83  C   UNL A   1      51.245  35.411  25.648  1.00  0.00     0.148 A 
ATOM     84  C   UNL A   1      53.168  36.739  27.202  1.00  0.00     0.002 A 
ATOM     85  C   UNL A   1      52.559  35.505  25.206  1.00  0.00     0.091 A 
ATOM     86  F   UNL A   1      50.295  34.804  24.923  1.00  0.00    -0.205 F 
ATOM     87  C   UNL A   1      53.519  36.184  25.973  1.00  0.00     0.022 A 
BRANCH  85  88
ATOM     88  S   UNL A   1      53.132  34.718  23.698  1.00  0.00     0.127 S 
ATOM     89  O   UNL A   1      52.519  35.555  22.671  1.00  0.00    -0.237 OA
ATOM     90  O   UNL A   1      54.583  34.858  23.823  1.00  0.00    -0.237 OA
ATOM     91  O   UNL A   1      52.649  33.345  23.759  1.00  0.00    -0.744 OA
ENDBRANCH  85  88
ENDBRANCH  57  81
BRANCH  69  92
ATOM     92  C   UNL A   1      45.286  40.152  26.977  1.00  0.00     0.023 A 
ATOM     93  C   UNL A   1      44.687  40.442  25.738  1.00  0.00     0.012 A 
ATOM     94  C   UNL A   1      45.554  41.200  27.882  1.00  0.00     0.148 A 
ATOM     95  C   UNL A   1      44.374  41.759  25.397  1.00  0.00     0.002 A 
ATOM     96  C   UNL A   1      45.191  42.500  27.558  1.00  0.00     0.091 A 
ATOM     97  F   UNL A   1      46.140  40.900  29.050  1.00  0.00    -0.205 F 
ATOM     98  C   UNL A   1      44.611  42.784  26.311  1.00  0.00     0.022 A 
BRANCH  96  99
ATOM     99  S   UNL A   1      45.357  43.864  28.716  1.00  0.00     0.127 S 
ATOM    100  O   UNL A   1      44.260  43.598  29.645  1.00  0.00    -0.237 OA
ATOM    101  O   UNL A   1      46.693  43.639  29.267  1.00  0.00    -0.237 OA
ATOM    102  O   UNL A   1      45.221  45.083  27.930  1.00  0.00    -0.744 OA
ENDBRANCH  96  99
ENDBRANCH  69  92
ENDBRANCH  43  44
ENDBRANCH  36  38
ENDBRANCH  35  36
ENDBRANCH  34  35
ENDBRANCH  33  34
ENDBRANCH  32  33
ENDBRANCH  31  32
ENDBRANCH  30  31
ENDBRANCH  29  30
ENDBRANCH   1  29
TORSDOF 29
ENDMDL
