MODEL 1
REMARK VINA RESULT:      -5.8      0.000      0.000
REMARK SMILES CC(C)C(=O)Nc1ccc2c([C@H](C(=O)OCCOCCOCCOCCOC(=O)c3ccc(-c4c5nc(c(-c6cccc(S(=O)(=O)[O-])c6F)c6ccc([nH]6)c(-c6cccc(S(=O)(=O)[O-])c6F)c6nc(c(-c7cccc(S(=O)(=O)[O-])c7F)c7ccc4[nH]7)C=C6)C=C5)cc3)[NH+]3CC[NH+](CC(=O)N(C)C)CC3)c[nH]c2c1
REMARK SMILES IDX 21 1 20 2 19 3 18 4 17 5 16 6 15 7 13 8 14 9 12 10 11 11
REMARK SMILES IDX 7 12 8 13 108 14 9 15 107 16 10 17 106 18 105 19 6 21 4 22
REMARK SMILES IDX 5 23 2 25 1 26 3 27 93 28 94 29 104 30 95 32 103 33 96 34
REMARK SMILES IDX 97 36 98 37 99 38 100 39 101 40 102 41 22 42 23 43 24 44
REMARK SMILES IDX 25 45 26 46 27 47 28 48 29 49 30 50 31 51 92 52 32 53 91 54
REMARK SMILES IDX 33 55 34 56 35 57 85 58 36 59 90 60 84 61 86 62 37 63 89 64
REMARK SMILES IDX 83 65 82 66 38 68 70 69 50 70 69 71 51 72 54 73 68 74 87 75
REMARK SMILES IDX 52 76 53 77 67 79 88 80 55 81 39 82 40 83 48 84 41 85 43 86
REMARK SMILES IDX 49 87 42 88 44 89 45 90 46 91 47 92 71 93 72 94 80 95 73 96
REMARK SMILES IDX 75 97 81 98 74 99 76 100 77 101 78 102 79 103 56 104 57 105
REMARK SMILES IDX 65 106 58 107 60 108 66 109 59 110 61 111 62 112 63 113
REMARK SMILES IDX 64 114
REMARK H PARENT 106 20 6 24 93 31 96 35 86 67 54 78
REMARK Flexibility Score: inf
ROOT
ATOM      1  O   UNL A   1      40.810  26.299  26.040  1.00  0.00    -0.377 OA
ENDROOT
BRANCH   1   2
ATOM      2  C   UNL A   1      40.372  25.331  26.963  1.00  0.00     0.188 C 
BRANCH   2   3
ATOM      3  C   UNL A   1      41.181  25.171  28.253  1.00  0.00     0.188 C 
BRANCH   3   4
ATOM      4  O   UNL A   1      42.526  24.738  28.151  1.00  0.00    -0.376 OA
BRANCH   4   5
ATOM      5  C   UNL A   1      43.483  25.415  28.971  1.00  0.00     0.202 C 
BRANCH   5   6
ATOM      6  C   UNL A   1      43.013  26.630  29.793  1.00  0.00     0.261 C 
BRANCH   6   7
ATOM      7  O   UNL A   1      43.689  26.703  31.061  1.00  0.00    -0.459 OA
BRANCH   7   8
ATOM      8  C   UNL A   1      44.486  27.759  31.425  1.00  0.00     0.370 C 
ATOM      9  O   UNL A   1      45.692  27.662  31.624  1.00  0.00    -0.245 OA
BRANCH   8  10
ATOM     10  C   UNL A   1      43.638  29.109  31.557  1.00  0.00     0.328 C 
BRANCH  10  11
ATOM     11  C   UNL A   1      43.359  29.450  33.025  1.00  0.00     0.046 A 
ATOM     12  C   UNL A   1      39.987  30.463  35.323  1.00  0.00     0.043 A 
ATOM     13  C   UNL A   1      39.771  30.405  33.950  1.00  0.00     0.027 A 
ATOM     14  C   UNL A   1      41.280  30.468  35.844  1.00  0.00     0.052 A 
ATOM     15  C   UNL A   1      40.824  30.141  33.069  1.00  0.00     0.013 A 
ATOM     16  C   UNL A   1      42.301  30.109  34.960  1.00  0.00     0.048 A 
ATOM     17  C   UNL A   1      42.110  29.905  33.591  1.00  0.00     0.009 A 
ATOM     18  N   UNL A   1      43.614  29.830  35.226  1.00  0.00    -0.361 N 
ATOM     19  C   UNL A   1      44.186  29.262  34.124  1.00  0.00     0.094 A 
ATOM     20  H   UNL A   1      44.075  30.009  36.079  1.00  0.00     0.166 HD
BRANCH  12  21
ATOM     21  N   UNL A   1      38.926  30.456  36.228  1.00  0.00    -0.326 N 
ATOM     22  C   UNL A   1      38.195  31.520  36.685  1.00  0.00     0.226 C 
ATOM     23  O   UNL A   1      37.283  31.274  37.485  1.00  0.00    -0.274 OA
ATOM     24  H   UNL A   1      38.670  29.575  36.584  1.00  0.00     0.169 HD
BRANCH  22  25
ATOM     25  C   UNL A   1      38.372  32.958  36.170  1.00  0.00     0.072 C 
ATOM     26  C   UNL A   1      37.091  33.768  36.032  1.00  0.00     0.018 C 
ATOM     27  C   UNL A   1      39.478  33.734  36.886  1.00  0.00     0.018 C 
ENDBRANCH  22  25
ENDBRANCH  12  21
ENDBRANCH  10  11
BRANCH  10  28
ATOM     28  N   UNL A   1      44.373  30.169  30.827  1.00  0.00    -0.310 N 
ATOM     29  C   UNL A   1      44.200  31.596  31.104  1.00  0.00     0.325 C 
ATOM     30  C   UNL A   1      44.271  29.974  29.369  1.00  0.00     0.325 C 
ATOM     31  H   UNL A   1      45.290  29.998  31.238  1.00  0.00     0.349 HD
ATOM     32  C   UNL A   1      45.230  32.470  30.301  1.00  0.00     0.325 C 
ATOM     33  C   UNL A   1      45.448  30.670  28.674  1.00  0.00     0.325 C 
ATOM     34  N   UNL A   1      45.503  32.114  28.893  1.00  0.00    -0.318 N 
ATOM     35  H   UNL A   1      46.469  32.403  28.740  1.00  0.00     0.348 HD
BRANCH  34  36
ATOM     36  C   UNL A   1      44.787  32.905  27.874  1.00  0.00     0.364 C 
BRANCH  36  37
ATOM     37  C   UNL A   1      45.612  34.065  27.308  1.00  0.00     0.277 C 
ATOM     38  O   UNL A   1      46.746  34.276  27.759  1.00  0.00    -0.268 OA
ATOM     39  N   UNL A   1      45.050  34.928  26.374  1.00  0.00    -0.344 N 
ATOM     40  C   UNL A   1      43.838  34.695  25.594  1.00  0.00     0.146 C 
ATOM     41  C   UNL A   1      45.752  36.170  26.113  1.00  0.00     0.146 C 
ENDBRANCH  36  37
ENDBRANCH  34  36
ENDBRANCH  10  28
ENDBRANCH   8  10
ENDBRANCH   7   8
ENDBRANCH   6   7
ENDBRANCH   5   6
ENDBRANCH   4   5
ENDBRANCH   3   4
ENDBRANCH   2   3
ENDBRANCH   1   2
BRANCH   1  42
ATOM     42  C   UNL A   1      41.438  27.470  26.522  1.00  0.00     0.188 C 
BRANCH  42  43
ATOM     43  C   UNL A   1      40.540  28.655  26.881  1.00  0.00     0.188 C 
BRANCH  43  44
ATOM     44  O   UNL A   1      40.016  28.758  28.213  1.00  0.00    -0.376 OA
BRANCH  44  45
ATOM     45  C   UNL A   1      38.834  28.039  28.566  1.00  0.00     0.202 C 
BRANCH  45  46
ATOM     46  C   UNL A   1      37.623  28.922  28.843  1.00  0.00     0.261 C 
BRANCH  46  47
ATOM     47  O   UNL A   1      37.990  30.305  28.811  1.00  0.00    -0.460 OA
BRANCH  47  48
ATOM     48  C   UNL A   1      37.847  30.966  29.979  1.00  0.00     0.338 C 
ATOM     49  O   UNL A   1      37.097  30.690  30.906  1.00  0.00    -0.246 OA
BRANCH  48  50
ATOM     50  C   UNL A   1      38.875  32.012  30.053  1.00  0.00     0.060 A 
ATOM     51  C   UNL A   1      40.216  31.624  30.166  1.00  0.00     0.016 A 
ATOM     52  C   UNL A   1      38.511  33.360  30.060  1.00  0.00     0.016 A 
ATOM     53  C   UNL A   1      41.200  32.587  30.344  1.00  0.00     0.010 A 
ATOM     54  C   UNL A   1      39.496  34.323  30.257  1.00  0.00     0.010 A 
ATOM     55  C   UNL A   1      40.833  33.932  30.445  1.00  0.00    -0.014 A 
BRANCH  55  56
ATOM     56  C   UNL A   1      41.816  34.914  30.938  1.00  0.00     0.031 A 
ATOM     57  C   UNL A   1      42.211  34.858  32.385  1.00  0.00     0.074 A 
ATOM     58  C   UNL A   1      42.328  35.837  30.110  1.00  0.00     0.049 A 
ATOM     59  N   UNL A   1      43.000  35.650  33.056  1.00  0.00    -0.248 NA
ATOM     60  C   UNL A   1      41.629  33.764  33.185  1.00  0.00     0.031 C 
ATOM     61  C   UNL A   1      42.010  35.962  28.689  1.00  0.00     0.029 A 
ATOM     62  N   UNL A   1      43.197  36.866  30.359  1.00  0.00    -0.354 N 
ATOM     63  C   UNL A   1      42.979  35.182  34.363  1.00  0.00     0.074 A 
ATOM     64  C   UNL A   1      42.097  34.037  34.394  1.00  0.00     0.031 C 
ATOM     65  C   UNL A   1      42.646  37.038  28.197  1.00  0.00     0.029 A 
ATOM     66  C   UNL A   1      43.382  37.691  29.278  1.00  0.00     0.049 A 
ATOM     67  H   UNL A   1      43.644  37.000  31.226  1.00  0.00     0.167 HD
ATOM     68  C   UNL A   1      43.641  35.664  35.441  1.00  0.00     0.034 A 
ATOM     69  C   UNL A   1      44.040  38.862  29.187  1.00  0.00     0.034 A 
ATOM     70  C   UNL A   1      44.520  36.799  35.390  1.00  0.00     0.049 A 
ATOM     71  C   UNL A   1      44.752  39.391  30.405  1.00  0.00     0.074 A 
ATOM     72  C   UNL A   1      45.290  37.337  36.404  1.00  0.00     0.029 A 
ATOM     73  N   UNL A   1      44.725  37.588  34.268  1.00  0.00    -0.354 N 
ATOM     74  N   UNL A   1      44.825  38.873  31.608  1.00  0.00    -0.248 NA
ATOM     75  C   UNL A   1      45.498  40.646  30.246  1.00  0.00     0.031 C 
ATOM     76  C   UNL A   1      45.922  38.482  35.908  1.00  0.00     0.029 A 
ATOM     77  C   UNL A   1      45.588  38.627  34.570  1.00  0.00     0.049 A 
ATOM     78  H   UNL A   1      44.317  37.432  33.386  1.00  0.00     0.167 HD
ATOM     79  C   UNL A   1      45.647  39.721  32.342  1.00  0.00     0.074 A 
ATOM     80  C   UNL A   1      46.065  40.774  31.437  1.00  0.00     0.031 C 
ATOM     81  C   UNL A   1      46.017  39.645  33.645  1.00  0.00     0.034 A 
BRANCH  68  82
ATOM     82  C   UNL A   1      43.427  34.972  36.762  1.00  0.00     0.023 A 
ATOM     83  C   UNL A   1      44.092  33.762  37.046  1.00  0.00     0.012 A 
ATOM     84  C   UNL A   1      42.588  35.546  37.737  1.00  0.00     0.148 A 
ATOM     85  C   UNL A   1      43.898  33.115  38.266  1.00  0.00     0.002 A 
ATOM     86  C   UNL A   1      42.440  34.921  38.970  1.00  0.00     0.091 A 
ATOM     87  F   UNL A   1      41.943  36.681  37.439  1.00  0.00    -0.205 F 
ATOM     88  C   UNL A   1      43.082  33.700  39.231  1.00  0.00     0.022 A 
BRANCH  86  89
ATOM     89  S   UNL A   1      41.475  35.636  40.306  1.00  0.00     0.127 S 
ATOM     90  O   UNL A   1      41.359  34.504  41.224  1.00  0.00    -0.237 OA
ATOM     91  O   UNL A   1      42.351  36.712  40.772  1.00  0.00    -0.237 OA
ATOM     92  O   UNL A   1      40.227  36.085  39.706  1.00  0.00    -0.744 OA
ENDBRANCH  86  89
ENDBRANCH  68  82
BRANCH  69  93
ATOM     93  C   UNL A   1      44.059  39.599  27.893  1.00  0.00     0.023 A 
ATOM     94  C   UNL A   1      42.887  40.223  27.428  1.00  0.00     0.012 A 
ATOM     95  C   UNL A   1      45.247  39.720  27.146  1.00  0.00     0.148 A 
ATOM     96  C   UNL A   1      42.890  40.930  26.225  1.00  0.00     0.002 A 
ATOM     97  C   UNL A   1      45.260  40.477  25.982  1.00  0.00     0.091 A 
ATOM     98  F   UNL A   1      46.350  39.109  27.602  1.00  0.00    -0.205 F 
ATOM     99  C   UNL A   1      44.077  41.067  25.509  1.00  0.00     0.022 A 
BRANCH  97 100
ATOM    100  S   UNL A   1      46.770  40.829  25.074  1.00  0.00     0.127 S 
ATOM    101  O   UNL A   1      47.795  40.360  26.003  1.00  0.00    -0.237 OA
ATOM    102  O   UNL A   1      46.600  40.007  23.875  1.00  0.00    -0.237 OA
ATOM    103  O   UNL A   1      46.759  42.263  24.819  1.00  0.00    -0.744 OA
ENDBRANCH  97 100
ENDBRANCH  69  93
BRANCH  81 104
ATOM    104  C   UNL A   1      46.949  40.708  34.168  1.00  0.00     0.023 A 
ATOM    105  C   UNL A   1      48.343  40.503  34.137  1.00  0.00     0.012 A 
ATOM    106  C   UNL A   1      46.441  41.941  34.621  1.00  0.00     0.148 A 
ATOM    107  C   UNL A   1      49.214  41.494  34.586  1.00  0.00     0.002 A 
ATOM    108  C   UNL A   1      47.317  42.946  35.014  1.00  0.00     0.091 A 
ATOM    109  F   UNL A   1      45.112  42.112  34.656  1.00  0.00    -0.205 F 
ATOM    110  C   UNL A   1      48.703  42.719  35.012  1.00  0.00     0.022 A 
BRANCH 108 111
ATOM    111  S   UNL A   1      46.756  44.586  35.482  1.00  0.00     0.127 S 
ATOM    112  O   UNL A   1      46.027  44.309  36.719  1.00  0.00    -0.237 OA
ATOM    113  O   UNL A   1      48.018  45.303  35.665  1.00  0.00    -0.237 OA
ATOM    114  O   UNL A   1      45.941  45.066  34.375  1.00  0.00    -0.744 OA
ENDBRANCH 108 111
ENDBRANCH  81 104
ENDBRANCH  55  56
ENDBRANCH  48  50
ENDBRANCH  47  48
ENDBRANCH  46  47
ENDBRANCH  45  46
ENDBRANCH  44  45
ENDBRANCH  43  44
ENDBRANCH  42  43
ENDBRANCH   1  42
TORSDOF 29
ENDMDL
MODEL 2
REMARK VINA RESULT:      -5.7      5.441     10.127
REMARK SMILES CC(C)C(=O)Nc1ccc2c([C@H](C(=O)OCCOCCOCCOCCOC(=O)c3ccc(-c4c5nc(c(-c6cccc(S(=O)(=O)[O-])c6F)c6ccc([nH]6)c(-c6cccc(S(=O)(=O)[O-])c6F)c6nc(c(-c7cccc(S(=O)(=O)[O-])c7F)c7ccc4[nH]7)C=C6)C=C5)cc3)[NH+]3CC[NH+](CC(=O)N(C)C)CC3)c[nH]c2c1
REMARK SMILES IDX 21 1 20 2 19 3 18 4 17 5 16 6 15 7 13 8 14 9 12 10 11 11
REMARK SMILES IDX 7 12 8 13 108 14 9 15 107 16 10 17 106 18 105 19 6 21 4 22
REMARK SMILES IDX 5 23 2 25 1 26 3 27 93 28 94 29 104 30 95 32 103 33 96 34
REMARK SMILES IDX 97 36 98 37 99 38 100 39 101 40 102 41 22 42 23 43 24 44
REMARK SMILES IDX 25 45 26 46 27 47 28 48 29 49 30 50 31 51 92 52 32 53 91 54
REMARK SMILES IDX 33 55 34 56 35 57 85 58 36 59 90 60 84 61 86 62 37 63 89 64
REMARK SMILES IDX 83 65 82 66 38 68 70 69 50 70 69 71 51 72 54 73 68 74 87 75
REMARK SMILES IDX 52 76 53 77 67 79 88 80 55 81 39 82 40 83 48 84 41 85 43 86
REMARK SMILES IDX 49 87 42 88 44 89 45 90 46 91 47 92 71 93 72 94 80 95 73 96
REMARK SMILES IDX 75 97 81 98 74 99 76 100 77 101 78 102 79 103 56 104 57 105
REMARK SMILES IDX 65 106 58 107 60 108 66 109 59 110 61 111 62 112 63 113
REMARK SMILES IDX 64 114
REMARK H PARENT 106 20 6 24 93 31 96 35 86 67 54 78
REMARK Flexibility Score: inf
ROOT
ATOM      1  O   UNL A   1      45.714  20.434  24.354  1.00  0.00    -0.377 OA
ENDROOT
BRANCH   1   2
ATOM      2  C   UNL A   1      45.034  21.570  23.878  1.00  0.00     0.188 C 
BRANCH   2   3
ATOM      3  C   UNL A   1      45.735  22.923  24.025  1.00  0.00     0.188 C 
BRANCH   3   4
ATOM      4  O   UNL A   1      45.466  23.696  25.182  1.00  0.00    -0.376 OA
BRANCH   4   5
ATOM      5  C   UNL A   1      46.045  23.240  26.408  1.00  0.00     0.202 C 
BRANCH   5   6
ATOM      6  C   UNL A   1      46.964  24.201  27.185  1.00  0.00     0.261 C 
BRANCH   6   7
ATOM      7  O   UNL A   1      48.182  24.463  26.466  1.00  0.00    -0.459 OA
BRANCH   7   8
ATOM      8  C   UNL A   1      48.994  25.537  26.734  1.00  0.00     0.370 C 
ATOM      9  O   UNL A   1      49.683  25.632  27.744  1.00  0.00    -0.245 OA
BRANCH   8  10
ATOM     10  C   UNL A   1      48.917  26.629  25.568  1.00  0.00     0.328 C 
BRANCH  10  11
ATOM     11  C   UNL A   1      47.500  27.198  25.430  1.00  0.00     0.046 A 
ATOM     12  C   UNL A   1      44.844  29.367  27.862  1.00  0.00     0.043 A 
ATOM     13  C   UNL A   1      45.992  28.913  28.500  1.00  0.00     0.027 A 
ATOM     14  C   UNL A   1      44.486  28.884  26.604  1.00  0.00     0.052 A 
ATOM     15  C   UNL A   1      46.927  28.126  27.820  1.00  0.00     0.013 A 
ATOM     16  C   UNL A   1      45.475  28.180  25.911  1.00  0.00     0.048 A 
ATOM     17  C   UNL A   1      46.705  27.817  26.465  1.00  0.00     0.009 A 
ATOM     18  N   UNL A   1      45.490  27.773  24.604  1.00  0.00    -0.361 N 
ATOM     19  C   UNL A   1      46.750  27.366  24.274  1.00  0.00     0.094 A 
ATOM     20  H   UNL A   1      44.714  27.775  23.997  1.00  0.00     0.166 HD
BRANCH  12  21
ATOM     21  N   UNL A   1      44.042  30.360  28.424  1.00  0.00    -0.326 N 
ATOM     22  C   UNL A   1      44.056  31.705  28.170  1.00  0.00     0.226 C 
ATOM     23  O   UNL A   1      43.238  32.403  28.784  1.00  0.00    -0.274 OA
ATOM     24  H   UNL A   1      43.382  30.056  29.088  1.00  0.00     0.169 HD
BRANCH  22  25
ATOM     25  C   UNL A   1      44.939  32.359  27.093  1.00  0.00     0.072 C 
ATOM     26  C   UNL A   1      44.200  32.891  25.873  1.00  0.00     0.018 C 
ATOM     27  C   UNL A   1      45.943  33.367  27.652  1.00  0.00     0.018 C 
ENDBRANCH  22  25
ENDBRANCH  12  21
ENDBRANCH  10  11
BRANCH  10  28
ATOM     28  N   UNL A   1      49.948  27.656  25.851  1.00  0.00    -0.310 N 
ATOM     29  C   UNL A   1      49.632  28.972  26.408  1.00  0.00     0.325 C 
ATOM     30  C   UNL A   1      50.828  27.855  24.685  1.00  0.00     0.325 C 
ATOM     31  H   UNL A   1      50.370  27.196  26.657  1.00  0.00     0.349 HD
ATOM     32  C   UNL A   1      50.934  29.778  26.761  1.00  0.00     0.325 C 
ATOM     33  C   UNL A   1      52.171  28.435  25.148  1.00  0.00     0.325 C 
ATOM     34  N   UNL A   1      52.064  29.733  25.811  1.00  0.00    -0.318 N 
ATOM     35  H   UNL A   1      52.893  29.838  26.396  1.00  0.00     0.348 HD
BRANCH  34  36
ATOM     36  C   UNL A   1      52.191  30.887  24.899  1.00  0.00     0.364 C 
BRANCH  36  37
ATOM     37  C   UNL A   1      53.204  31.933  25.373  1.00  0.00     0.277 C 
ATOM     38  O   UNL A   1      54.102  31.595  26.157  1.00  0.00    -0.268 OA
ATOM     39  N   UNL A   1      53.051  33.266  25.006  1.00  0.00    -0.344 N 
ATOM     40  C   UNL A   1      52.200  33.780  23.937  1.00  0.00     0.146 C 
ATOM     41  C   UNL A   1      53.841  34.245  25.727  1.00  0.00     0.146 C 
ENDBRANCH  36  37
ENDBRANCH  34  36
ENDBRANCH  10  28
ENDBRANCH   8  10
ENDBRANCH   7   8
ENDBRANCH   6   7
ENDBRANCH   5   6
ENDBRANCH   4   5
ENDBRANCH   3   4
ENDBRANCH   2   3
ENDBRANCH   1   2
BRANCH   1  42
ATOM     42  C   UNL A   1      45.291  19.841  25.566  1.00  0.00     0.188 C 
BRANCH  42  43
ATOM     43  C   UNL A   1      44.623  18.467  25.482  1.00  0.00     0.188 C 
BRANCH  43  44
ATOM     44  O   UNL A   1      43.298  18.300  26.007  1.00  0.00    -0.376 OA
BRANCH  44  45
ATOM     45  C   UNL A   1      42.249  19.165  25.570  1.00  0.00     0.202 C 
BRANCH  45  46
ATOM     46  C   UNL A   1      41.481  19.841  26.699  1.00  0.00     0.261 C 
BRANCH  46  47
ATOM     47  O   UNL A   1      42.266  20.882  27.290  1.00  0.00    -0.460 OA
BRANCH  47  48
ATOM     48  C   UNL A   1      42.365  22.013  26.561  1.00  0.00     0.338 C 
ATOM     49  O   UNL A   1      42.264  22.130  25.348  1.00  0.00    -0.246 OA
BRANCH  48  50
ATOM     50  C   UNL A   1      42.453  23.155  27.480  1.00  0.00     0.060 A 
ATOM     51  C   UNL A   1      42.549  24.443  26.938  1.00  0.00     0.016 A 
ATOM     52  C   UNL A   1      42.489  22.949  28.861  1.00  0.00     0.016 A 
ATOM     53  C   UNL A   1      42.740  25.532  27.777  1.00  0.00     0.010 A 
ATOM     54  C   UNL A   1      42.698  24.040  29.699  1.00  0.00     0.010 A 
ATOM     55  C   UNL A   1      42.870  25.323  29.153  1.00  0.00    -0.014 A 
BRANCH  55  56
ATOM     56  C   UNL A   1      43.376  26.415  30.005  1.00  0.00     0.031 A 
ATOM     57  C   UNL A   1      44.819  26.383  30.418  1.00  0.00     0.074 A 
ATOM     58  C   UNL A   1      42.557  27.399  30.405  1.00  0.00     0.049 A 
ATOM     59  N   UNL A   1      45.469  27.191  31.210  1.00  0.00    -0.248 NA
ATOM     60  C   UNL A   1      45.637  25.286  29.869  1.00  0.00     0.031 C 
ATOM     61  C   UNL A   1      41.145  27.517  30.047  1.00  0.00     0.029 A 
ATOM     62  N   UNL A   1      42.792  28.466  31.231  1.00  0.00    -0.354 N 
ATOM     63  C   UNL A   1      46.757  26.680  31.291  1.00  0.00     0.074 A 
ATOM     64  C   UNL A   1      46.799  25.490  30.471  1.00  0.00     0.031 C 
ATOM     65  C   UNL A   1      40.625  28.579  30.685  1.00  0.00     0.029 A 
ATOM     66  C   UNL A   1      41.660  29.187  31.519  1.00  0.00     0.049 A 
ATOM     67  H   UNL A   1      43.683  28.693  31.583  1.00  0.00     0.167 HD
ATOM     68  C   UNL A   1      47.812  27.164  31.988  1.00  0.00     0.034 A 
ATOM     69  C   UNL A   1      41.477  30.197  32.391  1.00  0.00     0.034 A 
ATOM     70  C   UNL A   1      47.753  28.352  32.794  1.00  0.00     0.049 A 
ATOM     71  C   UNL A   1      42.660  30.705  33.171  1.00  0.00     0.074 A 
ATOM     72  C   UNL A   1      48.774  28.969  33.492  1.00  0.00     0.029 A 
ATOM     73  N   UNL A   1      46.602  29.089  33.029  1.00  0.00    -0.354 N 
ATOM     74  N   UNL A   1      43.904  30.290  33.148  1.00  0.00    -0.248 NA
ATOM     75  C   UNL A   1      42.423  31.841  34.072  1.00  0.00     0.031 C 
ATOM     76  C   UNL A   1      48.229  30.051  34.191  1.00  0.00     0.029 A 
ATOM     77  C   UNL A   1      46.880  30.140  33.885  1.00  0.00     0.049 A 
ATOM     78  H   UNL A   1      45.718  28.893  32.644  1.00  0.00     0.167 HD
ATOM     79  C   UNL A   1      44.605  31.130  34.007  1.00  0.00     0.074 A 
ATOM     80  C   UNL A   1      43.647  32.093  34.515  1.00  0.00     0.031 C 
ATOM     81  C   UNL A   1      45.917  31.106  34.352  1.00  0.00     0.034 A 
BRANCH  68  82
ATOM     82  C   UNL A   1      49.108  26.400  31.917  1.00  0.00     0.023 A 
ATOM     83  C   UNL A   1      50.154  26.851  31.086  1.00  0.00     0.012 A 
ATOM     84  C   UNL A   1      49.300  25.250  32.707  1.00  0.00     0.148 A 
ATOM     85  C   UNL A   1      51.356  26.148  31.014  1.00  0.00     0.002 A 
ATOM     86  C   UNL A   1      50.520  24.584  32.669  1.00  0.00     0.091 A 
ATOM     87  F   UNL A   1      48.286  24.821  33.470  1.00  0.00    -0.205 F 
ATOM     88  C   UNL A   1      51.543  25.023  31.813  1.00  0.00     0.022 A 
BRANCH  86  89
ATOM     89  S   UNL A   1      50.885  23.174  33.719  1.00  0.00     0.127 S 
ATOM     90  O   UNL A   1      52.318  22.997  33.488  1.00  0.00    -0.237 OA
ATOM     91  O   UNL A   1      50.541  23.685  35.046  1.00  0.00    -0.237 OA
ATOM     92  O   UNL A   1      50.038  22.089  33.247  1.00  0.00    -0.744 OA
ENDBRANCH  86  89
ENDBRANCH  68  82
BRANCH  69  93
ATOM     93  C   UNL A   1      40.122  30.792  32.555  1.00  0.00     0.023 A 
ATOM     94  C   UNL A   1      39.285  30.344  33.594  1.00  0.00     0.012 A 
ATOM     95  C   UNL A   1      39.679  31.830  31.712  1.00  0.00     0.148 A 
ATOM     96  C   UNL A   1      38.017  30.901  33.772  1.00  0.00     0.002 A 
ATOM     97  C   UNL A   1      38.443  32.424  31.934  1.00  0.00     0.091 A 
ATOM     98  F   UNL A   1      40.489  32.235  30.723  1.00  0.00    -0.205 F 
ATOM     99  C   UNL A   1      37.601  31.946  32.950  1.00  0.00     0.022 A 
BRANCH  97 100
ATOM    100  S   UNL A   1      37.888  33.869  31.023  1.00  0.00     0.127 S 
ATOM    101  O   UNL A   1      38.972  34.815  31.271  1.00  0.00    -0.237 OA
ATOM    102  O   UNL A   1      37.818  33.355  29.654  1.00  0.00    -0.237 OA
ATOM    103  O   UNL A   1      36.595  34.229  31.590  1.00  0.00    -0.744 OA
ENDBRANCH  97 100
ENDBRANCH  69  93
BRANCH  81 104
ATOM    104  C   UNL A   1      46.408  32.171  35.300  1.00  0.00     0.023 A 
ATOM    105  C   UNL A   1      46.424  31.928  36.688  1.00  0.00     0.012 A 
ATOM    106  C   UNL A   1      46.924  33.384  34.803  1.00  0.00     0.148 A 
ATOM    107  C   UNL A   1      46.909  32.892  37.569  1.00  0.00     0.002 A 
ATOM    108  C   UNL A   1      47.458  34.318  35.683  1.00  0.00     0.091 A 
ATOM    109  F   UNL A   1      46.888  33.601  33.481  1.00  0.00    -0.205 F 
ATOM    110  C   UNL A   1      47.437  34.080  37.067  1.00  0.00     0.022 A 
BRANCH 108 111
ATOM    111  S   UNL A   1      48.249  35.829  35.122  1.00  0.00     0.127 S 
ATOM    112  O   UNL A   1      47.128  36.542  34.512  1.00  0.00    -0.237 OA
ATOM    113  O   UNL A   1      48.729  36.409  36.377  1.00  0.00    -0.237 OA
ATOM    114  O   UNL A   1      49.300  35.418  34.202  1.00  0.00    -0.744 OA
ENDBRANCH 108 111
ENDBRANCH  81 104
ENDBRANCH  55  56
ENDBRANCH  48  50
ENDBRANCH  47  48
ENDBRANCH  46  47
ENDBRANCH  45  46
ENDBRANCH  44  45
ENDBRANCH  43  44
ENDBRANCH  42  43
ENDBRANCH   1  42
TORSDOF 29
ENDMDL
MODEL 3
REMARK VINA RESULT:      -5.6      5.405     10.233
REMARK SMILES CC(C)C(=O)Nc1ccc2c([C@H](C(=O)OCCOCCOCCOCCOC(=O)c3ccc(-c4c5nc(c(-c6cccc(S(=O)(=O)[O-])c6F)c6ccc([nH]6)c(-c6cccc(S(=O)(=O)[O-])c6F)c6nc(c(-c7cccc(S(=O)(=O)[O-])c7F)c7ccc4[nH]7)C=C6)C=C5)cc3)[NH+]3CC[NH+](CC(=O)N(C)C)CC3)c[nH]c2c1
REMARK SMILES IDX 21 1 20 2 19 3 18 4 17 5 16 6 15 7 13 8 14 9 12 10 11 11
REMARK SMILES IDX 7 12 8 13 108 14 9 15 107 16 10 17 106 18 105 19 6 21 4 22
REMARK SMILES IDX 5 23 2 25 1 26 3 27 93 28 94 29 104 30 95 32 103 33 96 34
REMARK SMILES IDX 97 36 98 37 99 38 100 39 101 40 102 41 22 42 23 43 24 44
REMARK SMILES IDX 25 45 26 46 27 47 28 48 29 49 30 50 31 51 92 52 32 53 91 54
REMARK SMILES IDX 33 55 34 56 35 57 85 58 36 59 90 60 84 61 86 62 37 63 89 64
REMARK SMILES IDX 83 65 82 66 38 68 70 69 50 70 69 71 51 72 54 73 68 74 87 75
REMARK SMILES IDX 52 76 53 77 67 79 88 80 55 81 39 82 40 83 48 84 41 85 43 86
REMARK SMILES IDX 49 87 42 88 44 89 45 90 46 91 47 92 71 93 72 94 80 95 73 96
REMARK SMILES IDX 75 97 81 98 74 99 76 100 77 101 78 102 79 103 56 104 57 105
REMARK SMILES IDX 65 106 58 107 60 108 66 109 59 110 61 111 62 112 63 113
REMARK SMILES IDX 64 114
REMARK H PARENT 106 20 6 24 93 31 96 35 86 67 54 78
REMARK Flexibility Score: inf
ROOT
ATOM      1  O   UNL A   1      45.314  20.502  24.310  1.00  0.00    -0.377 OA
ENDROOT
BRANCH   1   2
ATOM      2  C   UNL A   1      44.837  21.724  23.800  1.00  0.00     0.188 C 
BRANCH   2   3
ATOM      3  C   UNL A   1      45.600  22.994  24.189  1.00  0.00     0.188 C 
BRANCH   3   4
ATOM      4  O   UNL A   1      45.131  23.744  25.295  1.00  0.00    -0.376 OA
BRANCH   4   5
ATOM      5  C   UNL A   1      45.410  23.215  26.595  1.00  0.00     0.202 C 
BRANCH   5   6
ATOM      6  C   UNL A   1      46.388  23.983  27.504  1.00  0.00     0.261 C 
BRANCH   6   7
ATOM      7  O   UNL A   1      47.673  24.145  26.878  1.00  0.00    -0.459 OA
BRANCH   7   8
ATOM      8  C   UNL A   1      48.558  25.133  27.228  1.00  0.00     0.370 C 
ATOM      9  O   UNL A   1      48.917  25.346  28.381  1.00  0.00    -0.245 OA
BRANCH   8  10
ATOM     10  C   UNL A   1      49.045  25.958  25.948  1.00  0.00     0.328 C 
BRANCH  10  11
ATOM     11  C   UNL A   1      48.021  27.026  25.550  1.00  0.00     0.046 A 
ATOM     12  C   UNL A   1      46.598  30.632  27.178  1.00  0.00     0.043 A 
ATOM     13  C   UNL A   1      47.435  29.897  28.011  1.00  0.00     0.027 A 
ATOM     14  C   UNL A   1      46.058  30.064  26.026  1.00  0.00     0.052 A 
ATOM     15  C   UNL A   1      47.927  28.649  27.614  1.00  0.00     0.013 A 
ATOM     16  C   UNL A   1      46.633  28.862  25.603  1.00  0.00     0.048 A 
ATOM     17  C   UNL A   1      47.584  28.152  26.342  1.00  0.00     0.009 A 
ATOM     18  N   UNL A   1      46.461  28.190  24.423  1.00  0.00    -0.361 N 
ATOM     19  C   UNL A   1      47.413  27.218  24.316  1.00  0.00     0.094 A 
ATOM     20  H   UNL A   1      45.761  28.378  23.757  1.00  0.00     0.166 HD
BRANCH  12  21
ATOM     21  N   UNL A   1      46.316  31.975  27.430  1.00  0.00    -0.326 N 
ATOM     22  C   UNL A   1      47.141  32.928  27.963  1.00  0.00     0.226 C 
ATOM     23  O   UNL A   1      46.677  34.069  28.087  1.00  0.00    -0.274 OA
ATOM     24  H   UNL A   1      45.409  32.275  27.194  1.00  0.00     0.169 HD
BRANCH  22  25
ATOM     25  C   UNL A   1      48.622  32.682  28.298  1.00  0.00     0.072 C 
ATOM     26  C   UNL A   1      49.604  32.953  27.167  1.00  0.00     0.018 C 
ATOM     27  C   UNL A   1      49.066  33.311  29.618  1.00  0.00     0.018 C 
ENDBRANCH  22  25
ENDBRANCH  12  21
ENDBRANCH  10  11
BRANCH  10  28
ATOM     28  N   UNL A   1      50.389  26.504  26.253  1.00  0.00    -0.310 N 
ATOM     29  C   UNL A   1      50.946  27.678  25.580  1.00  0.00     0.325 C 
ATOM     30  C   UNL A   1      51.409  25.440  26.229  1.00  0.00     0.325 C 
ATOM     31  H   UNL A   1      50.166  26.889  27.170  1.00  0.00     0.349 HD
ATOM     32  C   UNL A   1      52.306  28.126  26.228  1.00  0.00     0.325 C 
ATOM     33  C   UNL A   1      52.614  25.864  27.078  1.00  0.00     0.325 C 
ATOM     34  N   UNL A   1      53.276  27.080  26.611  1.00  0.00    -0.318 N 
ATOM     35  H   UNL A   1      53.774  27.474  27.409  1.00  0.00     0.348 HD
BRANCH  34  36
ATOM     36  C   UNL A   1      54.378  26.838  25.660  1.00  0.00     0.364 C 
BRANCH  36  37
ATOM     37  C   UNL A   1      55.726  27.395  26.129  1.00  0.00     0.277 C 
ATOM     38  O   UNL A   1      55.935  28.613  26.055  1.00  0.00    -0.268 OA
ATOM     39  N   UNL A   1      56.734  26.527  26.534  1.00  0.00    -0.344 N 
ATOM     40  C   UNL A   1      56.579  25.117  26.881  1.00  0.00     0.146 C 
ATOM     41  C   UNL A   1      58.069  27.078  26.664  1.00  0.00     0.146 C 
ENDBRANCH  36  37
ENDBRANCH  34  36
ENDBRANCH  10  28
ENDBRANCH   8  10
ENDBRANCH   7   8
ENDBRANCH   6   7
ENDBRANCH   5   6
ENDBRANCH   4   5
ENDBRANCH   3   4
ENDBRANCH   2   3
ENDBRANCH   1   2
BRANCH   1  42
ATOM     42  C   UNL A   1      44.663  19.925  25.425  1.00  0.00     0.188 C 
BRANCH  42  43
ATOM     43  C   UNL A   1      43.782  18.700  25.171  1.00  0.00     0.188 C 
BRANCH  43  44
ATOM     44  O   UNL A   1      42.685  18.431  26.056  1.00  0.00    -0.376 OA
BRANCH  44  45
ATOM     45  C   UNL A   1      41.586  19.341  26.118  1.00  0.00     0.202 C 
BRANCH  45  46
ATOM     46  C   UNL A   1      41.381  19.984  27.483  1.00  0.00     0.261 C 
BRANCH  46  47
ATOM     47  O   UNL A   1      42.084  21.229  27.566  1.00  0.00    -0.460 OA
BRANCH  47  48
ATOM     48  C   UNL A   1      41.440  22.290  27.035  1.00  0.00     0.338 C 
ATOM     49  O   UNL A   1      40.462  22.278  26.301  1.00  0.00    -0.246 OA
BRANCH  48  50
ATOM     50  C   UNL A   1      42.001  23.516  27.618  1.00  0.00     0.060 A 
ATOM     51  C   UNL A   1      42.465  23.476  28.939  1.00  0.00     0.016 A 
ATOM     52  C   UNL A   1      42.024  24.702  26.881  1.00  0.00     0.016 A 
ATOM     53  C   UNL A   1      42.902  24.642  29.551  1.00  0.00     0.010 A 
ATOM     54  C   UNL A   1      42.446  25.873  27.502  1.00  0.00     0.010 A 
ATOM     55  C   UNL A   1      42.840  25.850  28.850  1.00  0.00    -0.014 A 
BRANCH  55  56
ATOM     56  C   UNL A   1      43.004  27.119  29.582  1.00  0.00     0.031 A 
ATOM     57  C   UNL A   1      44.373  27.481  30.080  1.00  0.00     0.074 A 
ATOM     58  C   UNL A   1      41.948  27.916  29.804  1.00  0.00     0.049 A 
ATOM     59  N   UNL A   1      44.747  28.504  30.798  1.00  0.00    -0.248 NA
ATOM     60  C   UNL A   1      45.467  26.559  29.726  1.00  0.00     0.031 C 
ATOM     61  C   UNL A   1      40.584  27.651  29.351  1.00  0.00     0.029 A 
ATOM     62  N   UNL A   1      41.857  29.094  30.498  1.00  0.00    -0.354 N 
ATOM     63  C   UNL A   1      46.107  28.330  31.020  1.00  0.00     0.074 A 
ATOM     64  C   UNL A   1      46.494  27.102  30.363  1.00  0.00     0.031 C 
ATOM     65  C   UNL A   1      39.778  28.621  29.816  1.00  0.00     0.029 A 
ATOM     66  C   UNL A   1      40.568  29.548  30.624  1.00  0.00     0.049 A 
ATOM     67  H   UNL A   1      42.637  29.566  30.869  1.00  0.00     0.167 HD
ATOM     68  C   UNL A   1      46.955  29.127  31.710  1.00  0.00     0.034 A 
ATOM     69  C   UNL A   1      40.080  30.575  31.346  1.00  0.00     0.034 A 
ATOM     70  C   UNL A   1      46.553  30.348  32.351  1.00  0.00     0.049 A 
ATOM     71  C   UNL A   1      41.041  31.436  32.123  1.00  0.00     0.074 A 
ATOM     72  C   UNL A   1      47.339  31.267  33.023  1.00  0.00     0.029 A 
ATOM     73  N   UNL A   1      45.247  30.809  32.422  1.00  0.00    -0.354 N 
ATOM     74  N   UNL A   1      42.345  31.333  32.227  1.00  0.00    -0.248 NA
ATOM     75  C   UNL A   1      40.470  32.575  32.855  1.00  0.00     0.031 C 
ATOM     76  C   UNL A   1      46.500  32.256  33.543  1.00  0.00     0.029 A 
ATOM     77  C   UNL A   1      45.198  31.984  33.151  1.00  0.00     0.049 A 
ATOM     78  H   UNL A   1      44.469  30.365  32.014  1.00  0.00     0.167 HD
ATOM     79  C   UNL A   1      42.754  32.406  33.010  1.00  0.00     0.074 A 
ATOM     80  C   UNL A   1      41.559  33.161  33.333  1.00  0.00     0.031 C 
ATOM     81  C   UNL A   1      44.001  32.736  33.432  1.00  0.00     0.034 A 
BRANCH  68  82
ATOM     82  C   UNL A   1      48.394  28.694  31.814  1.00  0.00     0.023 A 
ATOM     83  C   UNL A   1      49.357  29.206  30.920  1.00  0.00     0.012 A 
ATOM     84  C   UNL A   1      48.797  27.802  32.827  1.00  0.00     0.148 A 
ATOM     85  C   UNL A   1      50.691  28.809  31.009  1.00  0.00     0.002 A 
ATOM     86  C   UNL A   1      50.137  27.451  32.941  1.00  0.00     0.091 A 
ATOM     87  F   UNL A   1      47.864  27.304  33.650  1.00  0.00    -0.205 F 
ATOM     88  C   UNL A   1      51.082  27.941  32.026  1.00  0.00     0.022 A 
BRANCH  86  89
ATOM     89  S   UNL A   1      50.752  26.404  34.265  1.00  0.00     0.127 S 
ATOM     90  O   UNL A   1      49.705  26.557  35.273  1.00  0.00    -0.237 OA
ATOM     91  O   UNL A   1      50.792  25.091  33.621  1.00  0.00    -0.237 OA
ATOM     92  O   UNL A   1      52.055  26.941  34.631  1.00  0.00    -0.744 OA
ENDBRANCH  86  89
ENDBRANCH  68  82
BRANCH  69  93
ATOM     93  C   UNL A   1      38.615  30.842  31.353  1.00  0.00     0.023 A 
ATOM     94  C   UNL A   1      37.828  30.386  32.426  1.00  0.00     0.012 A 
ATOM     95  C   UNL A   1      38.009  31.584  30.320  1.00  0.00     0.148 A 
ATOM     96  C   UNL A   1      36.456  30.639  32.456  1.00  0.00     0.002 A 
ATOM     97  C   UNL A   1      36.655  31.888  30.387  1.00  0.00     0.091 A 
ATOM     98  F   UNL A   1      38.776  32.001  29.303  1.00  0.00    -0.205 F 
ATOM     99  C   UNL A   1      35.873  31.399  31.445  1.00  0.00     0.022 A 
BRANCH  97 100
ATOM    100  S   UNL A   1      35.851  32.980  29.210  1.00  0.00     0.127 S 
ATOM    101  O   UNL A   1      34.468  32.963  29.681  1.00  0.00    -0.237 OA
ATOM    102  O   UNL A   1      36.563  34.239  29.431  1.00  0.00    -0.237 OA
ATOM    103  O   UNL A   1      36.077  32.391  27.897  1.00  0.00    -0.744 OA
ENDBRANCH  97 100
ENDBRANCH  69  93
BRANCH  81 104
ATOM    104  C   UNL A   1      44.148  33.986  34.262  1.00  0.00     0.023 A 
ATOM    105  C   UNL A   1      44.409  35.222  33.637  1.00  0.00     0.012 A 
ATOM    106  C   UNL A   1      43.950  33.944  35.656  1.00  0.00     0.148 A 
ATOM    107  C   UNL A   1      44.511  36.389  34.392  1.00  0.00     0.002 A 
ATOM    108  C   UNL A   1      43.998  35.119  36.395  1.00  0.00     0.091 A 
ATOM    109  F   UNL A   1      43.716  32.757  36.233  1.00  0.00    -0.205 F 
ATOM    110  C   UNL A   1      44.293  36.340  35.768  1.00  0.00     0.022 A 
BRANCH 108 111
ATOM    111  S   UNL A   1      43.632  35.168  38.152  1.00  0.00     0.127 S 
ATOM    112  O   UNL A   1      44.379  34.011  38.644  1.00  0.00    -0.237 OA
ATOM    113  O   UNL A   1      44.187  36.464  38.546  1.00  0.00    -0.237 OA
ATOM    114  O   UNL A   1      42.184  35.068  38.267  1.00  0.00    -0.744 OA
ENDBRANCH 108 111
ENDBRANCH  81 104
ENDBRANCH  55  56
ENDBRANCH  48  50
ENDBRANCH  47  48
ENDBRANCH  46  47
ENDBRANCH  45  46
ENDBRANCH  44  45
ENDBRANCH  43  44
ENDBRANCH  42  43
ENDBRANCH   1  42
TORSDOF 29
ENDMDL
