MODEL 1
REMARK VINA RESULT:      -9.7      0.000      0.000
REMARK SMILES C[C@@H](C(=O)OCCOCCOCCOCCOC(=O)c1ccc(-c2c3nc(c(-c4cccc(S(=O)(=O)[O-])c4F)c4ccc([nH]4)c(-c4cccc(S(=O)(=O)[O-])c4F)c4nc(c(-c5cccc(S(=O)(=O)[O-])c5F)c5ccc2[nH]5)C=C4)C=C3)cc1)c1cc(/C=C/S(C)(=O)=O)cc(C(=O)c2ccccc2)c1
REMARK SMILES IDX 11 1 10 2 9 3 8 4 7 5 6 6 5 7 3 8 4 9 2 10 1 11 83 12 84 13
REMARK SMILES IDX 102 14 85 15 93 16 92 17 86 18 87 19 88 20 89 21 90 22 91 23
REMARK SMILES IDX 94 24 95 25 96 26 97 27 101 28 98 29 100 30 99 31 12 32
REMARK SMILES IDX 13 33 14 34 15 35 16 36 17 37 18 38 19 39 20 40 21 41 82 42
REMARK SMILES IDX 22 43 81 44 23 45 24 46 25 47 75 48 26 49 80 50 74 51 76 52
REMARK SMILES IDX 27 53 79 54 73 55 72 56 28 58 60 59 40 60 59 61 41 62 44 63
REMARK SMILES IDX 58 64 77 65 42 66 43 67 57 69 78 70 45 71 29 72 30 73 38 74
REMARK SMILES IDX 31 75 33 76 39 77 32 78 34 79 35 80 36 81 37 82 61 83 62 84
REMARK SMILES IDX 70 85 63 86 65 87 71 88 64 89 66 90 67 91 68 92 69 93 46 94
REMARK SMILES IDX 47 95 55 96 48 97 50 98 56 99 49 100 51 101 52 102 53 103
REMARK SMILES IDX 54 104
REMARK H PARENT 76 57 44 68
REMARK Flexibility Score: inf
ROOT
ATOM      1  O   UNL A   1      32.378  27.701  26.817  1.00  0.00    -0.377 OA
ENDROOT
BRANCH   1   2
ATOM      2  C   UNL A   1      31.185  27.304  26.178  1.00  0.00     0.188 C 
BRANCH   2   3
ATOM      3  C   UNL A   1      31.210  25.860  25.673  1.00  0.00     0.188 C 
BRANCH   3   4
ATOM      4  O   UNL A   1      30.635  25.543  24.421  1.00  0.00    -0.376 OA
BRANCH   4   5
ATOM      5  C   UNL A   1      31.323  25.811  23.204  1.00  0.00     0.202 C 
BRANCH   5   6
ATOM      6  C   UNL A   1      32.459  26.841  23.019  1.00  0.00     0.261 C 
BRANCH   6   7
ATOM      7  O   UNL A   1      33.789  26.374  23.257  1.00  0.00    -0.463 OA
BRANCH   7   8
ATOM      8  C   UNL A   1      34.002  25.038  23.317  1.00  0.00     0.313 C 
ATOM      9  O   UNL A   1      34.108  24.308  22.338  1.00  0.00    -0.252 OA
BRANCH   8  10
ATOM     10  C   UNL A   1      34.248  24.551  24.754  1.00  0.00     0.126 C 
ATOM     11  C   UNL A   1      35.141  25.527  25.552  1.00  0.00     0.025 C 
BRANCH  10  12
ATOM     12  C   UNL A   1      34.659  23.067  24.842  1.00  0.00    -0.033 A 
ATOM     13  C   UNL A   1      36.013  22.692  24.949  1.00  0.00     0.012 A 
ATOM     14  C   UNL A   1      33.696  22.037  24.883  1.00  0.00     0.016 A 
ATOM     15  C   UNL A   1      36.410  21.343  25.032  1.00  0.00    -0.024 A 
ATOM     16  C   UNL A   1      34.066  20.686  24.930  1.00  0.00     0.023 A 
ATOM     17  C   UNL A   1      35.421  20.349  25.018  1.00  0.00     0.020 A 
BRANCH  15  18
ATOM     18  C   UNL A   1      37.817  20.919  25.171  1.00  0.00     0.020 C 
ATOM     19  C   UNL A   1      38.721  21.461  26.002  1.00  0.00     0.106 C 
BRANCH  19  20
ATOM     20  S   UNL A   1      40.342  20.832  26.054  1.00  0.00     0.168 S 
ATOM     21  C   UNL A   1      40.723  20.971  27.783  1.00  0.00     0.163 C 
ATOM     22  O   UNL A   1      40.291  19.417  25.739  1.00  0.00    -0.225 OA
ATOM     23  O   UNL A   1      41.254  21.712  25.346  1.00  0.00    -0.225 OA
ENDBRANCH  19  20
ENDBRANCH  15  18
BRANCH  16  24
ATOM     24  C   UNL A   1      33.051  19.588  24.927  1.00  0.00     0.193 C 
ATOM     25  O   UNL A   1      31.854  19.851  24.842  1.00  0.00    -0.289 OA
BRANCH  24  26
ATOM     26  C   UNL A   1      33.462  18.169  25.017  1.00  0.00     0.022 A 
ATOM     27  C   UNL A   1      32.553  17.222  25.488  1.00  0.00     0.012 A 
ATOM     28  C   UNL A   1      34.749  17.779  24.642  1.00  0.00     0.012 A 
ATOM     29  C   UNL A   1      32.914  15.872  25.516  1.00  0.00     0.001 A 
ATOM     30  C   UNL A   1      35.102  16.429  24.657  1.00  0.00     0.001 A 
ATOM     31  C   UNL A   1      34.181  15.476  25.085  1.00  0.00     0.000 A 
ENDBRANCH  24  26
ENDBRANCH  16  24
ENDBRANCH  10  12
ENDBRANCH   8  10
ENDBRANCH   7   8
ENDBRANCH   6   7
ENDBRANCH   5   6
ENDBRANCH   4   5
ENDBRANCH   3   4
ENDBRANCH   2   3
ENDBRANCH   1   2
BRANCH   1  32
ATOM     32  C   UNL A   1      33.024  28.869  26.322  1.00  0.00     0.188 C 
BRANCH  32  33
ATOM     33  C   UNL A   1      32.755  30.248  26.968  1.00  0.00     0.188 C 
BRANCH  33  34
ATOM     34  O   UNL A   1      31.504  30.840  26.636  1.00  0.00    -0.376 OA
BRANCH  34  35
ATOM     35  C   UNL A   1      31.406  32.257  26.633  1.00  0.00     0.202 C 
BRANCH  35  36
ATOM     36  C   UNL A   1      32.608  33.039  27.189  1.00  0.00     0.261 C 
BRANCH  36  37
ATOM     37  O   UNL A   1      32.467  33.548  28.523  1.00  0.00    -0.460 OA
BRANCH  37  38
ATOM     38  C   UNL A   1      33.104  34.699  28.825  1.00  0.00     0.338 C 
ATOM     39  O   UNL A   1      32.696  35.833  28.634  1.00  0.00    -0.246 OA
BRANCH  38  40
ATOM     40  C   UNL A   1      34.294  34.360  29.633  1.00  0.00     0.060 A 
ATOM     41  C   UNL A   1      35.566  34.540  29.072  1.00  0.00     0.016 A 
ATOM     42  C   UNL A   1      34.158  33.882  30.938  1.00  0.00     0.016 A 
ATOM     43  C   UNL A   1      36.705  34.201  29.800  1.00  0.00     0.010 A 
ATOM     44  C   UNL A   1      35.299  33.522  31.659  1.00  0.00     0.010 A 
ATOM     45  C   UNL A   1      36.574  33.643  31.078  1.00  0.00    -0.014 A 
BRANCH  45  46
ATOM     46  C   UNL A   1      37.743  32.990  31.715  1.00  0.00     0.031 A 
ATOM     47  C   UNL A   1      38.479  31.936  30.935  1.00  0.00     0.074 A 
ATOM     48  C   UNL A   1      38.150  33.325  32.952  1.00  0.00     0.049 A 
ATOM     49  N   UNL A   1      39.495  31.195  31.293  1.00  0.00    -0.248 NA
ATOM     50  C   UNL A   1      37.999  31.678  29.566  1.00  0.00     0.031 C 
ATOM     51  C   UNL A   1      37.531  34.341  33.801  1.00  0.00     0.029 A 
ATOM     52  N   UNL A   1      39.171  32.819  33.718  1.00  0.00    -0.354 N 
ATOM     53  C   UNL A   1      39.757  30.365  30.209  1.00  0.00     0.074 A 
ATOM     54  C   UNL A   1      38.785  30.681  29.186  1.00  0.00     0.031 C 
ATOM     55  C   UNL A   1      38.164  34.359  34.987  1.00  0.00     0.029 A 
ATOM     56  C   UNL A   1      39.212  33.338  34.990  1.00  0.00     0.049 A 
ATOM     57  H   UNL A   1      39.812  32.148  33.388  1.00  0.00     0.167 HD
ATOM     58  C   UNL A   1      40.726  29.430  30.071  1.00  0.00     0.034 A 
ATOM     59  C   UNL A   1      39.985  33.004  36.042  1.00  0.00     0.034 A 
ATOM     60  C   UNL A   1      41.695  29.121  31.087  1.00  0.00     0.049 A 
ATOM     61  C   UNL A   1      41.032  31.931  35.880  1.00  0.00     0.074 A 
ATOM     62  C   UNL A   1      42.740  28.217  31.029  1.00  0.00     0.029 A 
ATOM     63  N   UNL A   1      41.725  29.690  32.350  1.00  0.00    -0.354 N 
ATOM     64  N   UNL A   1      41.336  31.227  34.817  1.00  0.00    -0.248 NA
ATOM     65  C   UNL A   1      41.864  31.629  37.054  1.00  0.00     0.031 C 
ATOM     66  C   UNL A   1      43.379  28.211  32.274  1.00  0.00     0.029 A 
ATOM     67  C   UNL A   1      42.762  29.147  33.089  1.00  0.00     0.049 A 
ATOM     68  H   UNL A   1      41.102  30.380  32.674  1.00  0.00     0.167 HD
ATOM     69  C   UNL A   1      42.416  30.429  35.180  1.00  0.00     0.074 A 
ATOM     70  C   UNL A   1      42.725  30.750  36.558  1.00  0.00     0.031 C 
ATOM     71  C   UNL A   1      43.088  29.509  34.445  1.00  0.00     0.034 A 
BRANCH  58  72
ATOM     72  C   UNL A   1      40.787  28.678  28.768  1.00  0.00     0.023 A 
ATOM     73  C   UNL A   1      41.305  29.306  27.616  1.00  0.00     0.012 A 
ATOM     74  C   UNL A   1      40.366  27.336  28.693  1.00  0.00     0.148 A 
ATOM     75  C   UNL A   1      41.368  28.622  26.403  1.00  0.00     0.002 A 
ATOM     76  C   UNL A   1      40.477  26.646  27.493  1.00  0.00     0.091 A 
ATOM     77  F   UNL A   1      39.854  26.765  29.792  1.00  0.00    -0.205 F 
ATOM     78  C   UNL A   1      40.964  27.291  26.343  1.00  0.00     0.022 A 
BRANCH  76  79
ATOM     79  S   UNL A   1      40.060  24.907  27.333  1.00  0.00     0.127 S 
ATOM     80  O   UNL A   1      40.231  24.695  25.896  1.00  0.00    -0.237 OA
ATOM     81  O   UNL A   1      41.078  24.270  28.168  1.00  0.00    -0.237 OA
ATOM     82  O   UNL A   1      38.697  24.773  27.825  1.00  0.00    -0.744 OA
ENDBRANCH  76  79
ENDBRANCH  58  72
BRANCH  59  83
ATOM     83  C   UNL A   1      39.808  33.702  37.349  1.00  0.00     0.023 A 
ATOM     84  C   UNL A   1      40.430  34.946  37.570  1.00  0.00     0.012 A 
ATOM     85  C   UNL A   1      39.019  33.138  38.370  1.00  0.00     0.148 A 
ATOM     86  C   UNL A   1      40.296  35.600  38.794  1.00  0.00     0.002 A 
ATOM     87  C   UNL A   1      38.840  33.823  39.565  1.00  0.00     0.091 A 
ATOM     88  F   UNL A   1      38.448  31.945  38.145  1.00  0.00    -0.205 F 
ATOM     89  C   UNL A   1      39.493  35.045  39.787  1.00  0.00     0.022 A 
BRANCH  87  90
ATOM     90  S   UNL A   1      37.723  33.248  40.849  1.00  0.00     0.127 S 
ATOM     91  O   UNL A   1      38.262  31.922  41.142  1.00  0.00    -0.237 OA
ATOM     92  O   UNL A   1      37.936  34.246  41.897  1.00  0.00    -0.237 OA
ATOM     93  O   UNL A   1      36.393  33.270  40.257  1.00  0.00    -0.744 OA
ENDBRANCH  87  90
ENDBRANCH  59  83
BRANCH  71  94
ATOM     94  C   UNL A   1      44.260  28.811  35.087  1.00  0.00     0.023 A 
ATOM     95  C   UNL A   1      45.534  29.416  35.088  1.00  0.00     0.012 A 
ATOM     96  C   UNL A   1      44.080  27.585  35.760  1.00  0.00     0.148 A 
ATOM     97  C   UNL A   1      46.613  28.795  35.715  1.00  0.00     0.002 A 
ATOM     98  C   UNL A   1      45.147  27.000  36.429  1.00  0.00     0.091 A 
ATOM     99  F   UNL A   1      42.864  27.018  35.737  1.00  0.00    -0.205 F 
ATOM    100  C   UNL A   1      46.418  27.595  36.396  1.00  0.00     0.022 A 
BRANCH  98 101
ATOM    101  S   UNL A   1      44.967  25.508  37.414  1.00  0.00     0.127 S 
ATOM    102  O   UNL A   1      44.791  24.489  36.382  1.00  0.00    -0.237 OA
ATOM    103  O   UNL A   1      46.248  25.448  38.119  1.00  0.00    -0.237 OA
ATOM    104  O   UNL A   1      43.813  25.729  38.275  1.00  0.00    -0.744 OA
ENDBRANCH  98 101
ENDBRANCH  71  94
ENDBRANCH  45  46
ENDBRANCH  38  40
ENDBRANCH  37  38
ENDBRANCH  36  37
ENDBRANCH  35  36
ENDBRANCH  34  35
ENDBRANCH  33  34
ENDBRANCH  32  33
ENDBRANCH   1  32
TORSDOF 28
ENDMDL
MODEL 2
REMARK VINA RESULT:      -8.8      2.092      2.417
REMARK SMILES C[C@@H](C(=O)OCCOCCOCCOCCOC(=O)c1ccc(-c2c3nc(c(-c4cccc(S(=O)(=O)[O-])c4F)c4ccc([nH]4)c(-c4cccc(S(=O)(=O)[O-])c4F)c4nc(c(-c5cccc(S(=O)(=O)[O-])c5F)c5ccc2[nH]5)C=C4)C=C3)cc1)c1cc(/C=C/S(C)(=O)=O)cc(C(=O)c2ccccc2)c1
REMARK SMILES IDX 11 1 10 2 9 3 8 4 7 5 6 6 5 7 3 8 4 9 2 10 1 11 83 12 84 13
REMARK SMILES IDX 102 14 85 15 93 16 92 17 86 18 87 19 88 20 89 21 90 22 91 23
REMARK SMILES IDX 94 24 95 25 96 26 97 27 101 28 98 29 100 30 99 31 12 32
REMARK SMILES IDX 13 33 14 34 15 35 16 36 17 37 18 38 19 39 20 40 21 41 82 42
REMARK SMILES IDX 22 43 81 44 23 45 24 46 25 47 75 48 26 49 80 50 74 51 76 52
REMARK SMILES IDX 27 53 79 54 73 55 72 56 28 58 60 59 40 60 59 61 41 62 44 63
REMARK SMILES IDX 58 64 77 65 42 66 43 67 57 69 78 70 45 71 29 72 30 73 38 74
REMARK SMILES IDX 31 75 33 76 39 77 32 78 34 79 35 80 36 81 37 82 61 83 62 84
REMARK SMILES IDX 70 85 63 86 65 87 71 88 64 89 66 90 67 91 68 92 69 93 46 94
REMARK SMILES IDX 47 95 55 96 48 97 50 98 56 99 49 100 51 101 52 102 53 103
REMARK SMILES IDX 54 104
REMARK H PARENT 76 57 44 68
REMARK Flexibility Score: inf
ROOT
ATOM      1  O   UNL A   1      32.861  27.876  26.848  1.00  0.00    -0.377 OA
ENDROOT
BRANCH   1   2
ATOM      2  C   UNL A   1      31.591  27.831  26.236  1.00  0.00     0.188 C 
BRANCH   2   3
ATOM      3  C   UNL A   1      31.186  26.433  25.764  1.00  0.00     0.188 C 
BRANCH   3   4
ATOM      4  O   UNL A   1      30.649  26.259  24.467  1.00  0.00    -0.376 OA
BRANCH   4   5
ATOM      5  C   UNL A   1      31.398  26.602  23.306  1.00  0.00     0.202 C 
BRANCH   5   6
ATOM      6  C   UNL A   1      32.836  27.167  23.296  1.00  0.00     0.261 C 
BRANCH   6   7
ATOM      7  O   UNL A   1      33.875  26.262  22.915  1.00  0.00    -0.463 OA
BRANCH   7   8
ATOM      8  C   UNL A   1      33.671  24.936  23.094  1.00  0.00     0.313 C 
ATOM      9  O   UNL A   1      33.398  24.149  22.194  1.00  0.00    -0.252 OA
BRANCH   8  10
ATOM     10  C   UNL A   1      33.968  24.489  24.534  1.00  0.00     0.126 C 
ATOM     11  C   UNL A   1      34.810  25.532  25.303  1.00  0.00     0.025 C 
BRANCH  10  12
ATOM     12  C   UNL A   1      34.471  23.035  24.640  1.00  0.00    -0.033 A 
ATOM     13  C   UNL A   1      35.781  22.748  25.072  1.00  0.00     0.012 A 
ATOM     14  C   UNL A   1      33.624  21.941  24.370  1.00  0.00     0.016 A 
ATOM     15  C   UNL A   1      36.261  21.428  25.178  1.00  0.00    -0.024 A 
ATOM     16  C   UNL A   1      34.087  20.619  24.432  1.00  0.00     0.023 A 
ATOM     17  C   UNL A   1      35.398  20.372  24.850  1.00  0.00     0.020 A 
BRANCH  15  18
ATOM     18  C   UNL A   1      37.618  21.093  25.652  1.00  0.00     0.020 C 
ATOM     19  C   UNL A   1      38.649  21.947  25.746  1.00  0.00     0.106 C 
BRANCH  19  20
ATOM     20  S   UNL A   1      40.187  21.393  26.341  1.00  0.00     0.168 S 
ATOM     21  C   UNL A   1      40.445  22.476  27.724  1.00  0.00     0.163 C 
ATOM     22  O   UNL A   1      40.013  20.055  26.872  1.00  0.00    -0.225 OA
ATOM     23  O   UNL A   1      41.238  21.673  25.379  1.00  0.00    -0.225 OA
ENDBRANCH  19  20
ENDBRANCH  15  18
BRANCH  16  24
ATOM     24  C   UNL A   1      33.205  19.457  24.103  1.00  0.00     0.193 C 
ATOM     25  O   UNL A   1      32.205  19.614  23.407  1.00  0.00    -0.289 OA
BRANCH  24  26
ATOM     26  C   UNL A   1      33.522  18.097  24.595  1.00  0.00     0.022 A 
ATOM     27  C   UNL A   1      32.567  17.397  25.333  1.00  0.00     0.012 A 
ATOM     28  C   UNL A   1      34.765  17.519  24.333  1.00  0.00     0.012 A 
ATOM     29  C   UNL A   1      32.835  16.090  25.747  1.00  0.00     0.001 A 
ATOM     30  C   UNL A   1      35.025  16.209  24.734  1.00  0.00     0.001 A 
ATOM     31  C   UNL A   1      34.056  15.492  25.433  1.00  0.00     0.000 A 
ENDBRANCH  24  26
ENDBRANCH  16  24
ENDBRANCH  10  12
ENDBRANCH   8  10
ENDBRANCH   7   8
ENDBRANCH   6   7
ENDBRANCH   5   6
ENDBRANCH   4   5
ENDBRANCH   3   4
ENDBRANCH   2   3
ENDBRANCH   1   2
BRANCH   1  32
ATOM     32  C   UNL A   1      33.765  28.879  26.400  1.00  0.00     0.188 C 
BRANCH  32  33
ATOM     33  C   UNL A   1      33.772  30.280  27.056  1.00  0.00     0.188 C 
BRANCH  33  34
ATOM     34  O   UNL A   1      32.533  30.980  27.004  1.00  0.00    -0.376 OA
BRANCH  34  35
ATOM     35  C   UNL A   1      32.560  32.400  26.976  1.00  0.00     0.202 C 
BRANCH  35  36
ATOM     36  C   UNL A   1      33.487  33.099  27.984  1.00  0.00     0.261 C 
BRANCH  36  37
ATOM     37  O   UNL A   1      32.849  33.687  29.125  1.00  0.00    -0.460 OA
BRANCH  37  38
ATOM     38  C   UNL A   1      33.431  34.772  29.679  1.00  0.00     0.338 C 
ATOM     39  O   UNL A   1      33.021  35.921  29.645  1.00  0.00    -0.246 OA
BRANCH  38  40
ATOM     40  C   UNL A   1      34.547  34.305  30.528  1.00  0.00     0.060 A 
ATOM     41  C   UNL A   1      35.803  34.910  30.388  1.00  0.00     0.016 A 
ATOM     42  C   UNL A   1      34.352  33.288  31.465  1.00  0.00     0.016 A 
ATOM     43  C   UNL A   1      36.880  34.470  31.156  1.00  0.00     0.010 A 
ATOM     44  C   UNL A   1      35.437  32.833  32.218  1.00  0.00     0.010 A 
ATOM     45  C   UNL A   1      36.713  33.395  32.037  1.00  0.00    -0.014 A 
BRANCH  45  46
ATOM     46  C   UNL A   1      37.907  32.722  32.604  1.00  0.00     0.031 A 
ATOM     47  C   UNL A   1      38.524  31.594  31.823  1.00  0.00     0.074 A 
ATOM     48  C   UNL A   1      38.437  33.101  33.780  1.00  0.00     0.049 A 
ATOM     49  N   UNL A   1      39.535  30.826  32.131  1.00  0.00    -0.248 NA
ATOM     50  C   UNL A   1      37.911  31.288  30.518  1.00  0.00     0.031 C 
ATOM     51  C   UNL A   1      37.941  34.188  34.622  1.00  0.00     0.029 A 
ATOM     52  N   UNL A   1      39.501  32.587  34.480  1.00  0.00    -0.354 N 
ATOM     53  C   UNL A   1      39.663  29.929  31.077  1.00  0.00     0.074 A 
ATOM     54  C   UNL A   1      38.617  30.237  30.127  1.00  0.00     0.031 C 
ATOM     55  C   UNL A   1      38.680  34.238  35.744  1.00  0.00     0.029 A 
ATOM     56  C   UNL A   1      39.679  33.170  35.713  1.00  0.00     0.049 A 
ATOM     57  H   UNL A   1      40.081  31.871  34.133  1.00  0.00     0.167 HD
ATOM     58  C   UNL A   1      40.575  28.944  30.907  1.00  0.00     0.034 A 
ATOM     59  C   UNL A   1      40.530  32.856  36.710  1.00  0.00     0.034 A 
ATOM     60  C   UNL A   1      41.617  28.642  31.849  1.00  0.00     0.049 A 
ATOM     61  C   UNL A   1      41.510  31.727  36.517  1.00  0.00     0.074 A 
ATOM     62  C   UNL A   1      42.614  27.688  31.751  1.00  0.00     0.029 A 
ATOM     63  N   UNL A   1      41.786  29.274  33.071  1.00  0.00    -0.354 N 
ATOM     64  N   UNL A   1      41.687  30.955  35.472  1.00  0.00    -0.248 NA
ATOM     65  C   UNL A   1      42.432  31.447  37.628  1.00  0.00     0.031 C 
ATOM     66  C   UNL A   1      43.362  27.717  32.933  1.00  0.00     0.029 A 
ATOM     67  C   UNL A   1      42.861  28.722  33.745  1.00  0.00     0.049 A 
ATOM     68  H   UNL A   1      41.225  30.009  33.409  1.00  0.00     0.167 HD
ATOM     69  C   UNL A   1      42.761  30.127  35.783  1.00  0.00     0.074 A 
ATOM     70  C   UNL A   1      43.206  30.504  37.108  1.00  0.00     0.031 C 
ATOM     71  C   UNL A   1      43.324  29.138  35.045  1.00  0.00     0.034 A 
BRANCH  58  72
ATOM     72  C   UNL A   1      40.485  28.123  29.648  1.00  0.00     0.023 A 
ATOM     73  C   UNL A   1      39.463  27.161  29.505  1.00  0.00     0.012 A 
ATOM     74  C   UNL A   1      41.390  28.331  28.588  1.00  0.00     0.148 A 
ATOM     75  C   UNL A   1      39.367  26.394  28.345  1.00  0.00     0.002 A 
ATOM     76  C   UNL A   1      41.258  27.598  27.417  1.00  0.00     0.091 A 
ATOM     77  F   UNL A   1      42.368  29.232  28.752  1.00  0.00    -0.205 F 
ATOM     78  C   UNL A   1      40.257  26.619  27.298  1.00  0.00     0.022 A 
BRANCH  76  79
ATOM     79  S   UNL A   1      42.303  27.869  25.981  1.00  0.00     0.127 S 
ATOM     80  O   UNL A   1      41.694  26.970  25.001  1.00  0.00    -0.237 OA
ATOM     81  O   UNL A   1      42.094  29.292  25.715  1.00  0.00    -0.237 OA
ATOM     82  O   UNL A   1      43.653  27.518  26.395  1.00  0.00    -0.744 OA
ENDBRANCH  76  79
ENDBRANCH  58  72
BRANCH  59  83
ATOM     83  C   UNL A   1      40.501  33.628  37.985  1.00  0.00     0.023 A 
ATOM     84  C   UNL A   1      39.617  33.249  39.015  1.00  0.00     0.012 A 
ATOM     85  C   UNL A   1      41.351  34.733  38.183  1.00  0.00     0.148 A 
ATOM     86  C   UNL A   1      39.559  33.976  40.204  1.00  0.00     0.002 A 
ATOM     87  C   UNL A   1      41.331  35.415  39.393  1.00  0.00     0.091 A 
ATOM     88  F   UNL A   1      42.174  35.086  37.185  1.00  0.00    -0.205 F 
ATOM     89  C   UNL A   1      40.422  35.051  40.398  1.00  0.00     0.022 A 
BRANCH  87  90
ATOM     90  S   UNL A   1      42.493  36.729  39.779  1.00  0.00     0.127 S 
ATOM     91  O   UNL A   1      43.674  35.972  40.190  1.00  0.00    -0.237 OA
ATOM     92  O   UNL A   1      42.613  37.408  38.489  1.00  0.00    -0.237 OA
ATOM     93  O   UNL A   1      41.861  37.524  40.822  1.00  0.00    -0.744 OA
ENDBRANCH  87  90
ENDBRANCH  59  83
BRANCH  71  94
ATOM     94  C   UNL A   1      44.519  28.421  35.619  1.00  0.00     0.023 A 
ATOM     95  C   UNL A   1      44.339  27.329  36.493  1.00  0.00     0.012 A 
ATOM     96  C   UNL A   1      45.825  28.783  35.228  1.00  0.00     0.148 A 
ATOM     97  C   UNL A   1      45.440  26.636  36.996  1.00  0.00     0.002 A 
ATOM     98  C   UNL A   1      46.912  28.053  35.690  1.00  0.00     0.091 A 
ATOM     99  F   UNL A   1      45.976  29.833  34.407  1.00  0.00    -0.205 F 
ATOM    100  C   UNL A   1      46.724  26.988  36.585  1.00  0.00     0.022 A 
BRANCH  98 101
ATOM    101  S   UNL A   1      48.592  28.371  35.139  1.00  0.00     0.127 S 
ATOM    102  O   UNL A   1      49.053  29.342  36.130  1.00  0.00    -0.237 OA
ATOM    103  O   UNL A   1      49.208  27.048  35.247  1.00  0.00    -0.237 OA
ATOM    104  O   UNL A   1      48.481  28.877  33.776  1.00  0.00    -0.744 OA
ENDBRANCH  98 101
ENDBRANCH  71  94
ENDBRANCH  45  46
ENDBRANCH  38  40
ENDBRANCH  37  38
ENDBRANCH  36  37
ENDBRANCH  35  36
ENDBRANCH  34  35
ENDBRANCH  33  34
ENDBRANCH  32  33
ENDBRANCH   1  32
TORSDOF 28
ENDMDL
MODEL 3
REMARK VINA RESULT:      -8.3      7.000     11.657
REMARK SMILES C[C@@H](C(=O)OCCOCCOCCOCCOC(=O)c1ccc(-c2c3nc(c(-c4cccc(S(=O)(=O)[O-])c4F)c4ccc([nH]4)c(-c4cccc(S(=O)(=O)[O-])c4F)c4nc(c(-c5cccc(S(=O)(=O)[O-])c5F)c5ccc2[nH]5)C=C4)C=C3)cc1)c1cc(/C=C/S(C)(=O)=O)cc(C(=O)c2ccccc2)c1
REMARK SMILES IDX 11 1 10 2 9 3 8 4 7 5 6 6 5 7 3 8 4 9 2 10 1 11 83 12 84 13
REMARK SMILES IDX 102 14 85 15 93 16 92 17 86 18 87 19 88 20 89 21 90 22 91 23
REMARK SMILES IDX 94 24 95 25 96 26 97 27 101 28 98 29 100 30 99 31 12 32
REMARK SMILES IDX 13 33 14 34 15 35 16 36 17 37 18 38 19 39 20 40 21 41 82 42
REMARK SMILES IDX 22 43 81 44 23 45 24 46 25 47 75 48 26 49 80 50 74 51 76 52
REMARK SMILES IDX 27 53 79 54 73 55 72 56 28 58 60 59 40 60 59 61 41 62 44 63
REMARK SMILES IDX 58 64 77 65 42 66 43 67 57 69 78 70 45 71 29 72 30 73 38 74
REMARK SMILES IDX 31 75 33 76 39 77 32 78 34 79 35 80 36 81 37 82 61 83 62 84
REMARK SMILES IDX 70 85 63 86 65 87 71 88 64 89 66 90 67 91 68 92 69 93 46 94
REMARK SMILES IDX 47 95 55 96 48 97 50 98 56 99 49 100 51 101 52 102 53 103
REMARK SMILES IDX 54 104
REMARK H PARENT 76 57 44 68
REMARK Flexibility Score: inf
ROOT
ATOM      1  O   UNL A   1      39.747  29.731  29.056  1.00  0.00    -0.377 OA
ENDROOT
BRANCH   1   2
ATOM      2  C   UNL A   1      38.614  28.972  28.696  1.00  0.00     0.188 C 
BRANCH   2   3
ATOM      3  C   UNL A   1      38.921  27.836  27.719  1.00  0.00     0.188 C 
BRANCH   3   4
ATOM      4  O   UNL A   1      39.040  26.511  28.198  1.00  0.00    -0.376 OA
BRANCH   4   5
ATOM      5  C   UNL A   1      40.018  25.621  27.672  1.00  0.00     0.202 C 
BRANCH   5   6
ATOM      6  C   UNL A   1      39.750  24.479  26.666  1.00  0.00     0.261 C 
BRANCH   6   7
ATOM      7  O   UNL A   1      38.571  23.700  26.884  1.00  0.00    -0.463 OA
BRANCH   7   8
ATOM      8  C   UNL A   1      37.776  23.425  25.824  1.00  0.00     0.313 C 
ATOM      9  O   UNL A   1      37.736  24.091  24.795  1.00  0.00    -0.252 OA
BRANCH   8  10
ATOM     10  C   UNL A   1      37.029  22.091  25.986  1.00  0.00     0.126 C 
ATOM     11  C   UNL A   1      37.781  20.920  25.316  1.00  0.00     0.025 C 
BRANCH  10  12
ATOM     12  C   UNL A   1      35.526  22.180  25.651  1.00  0.00    -0.033 A 
ATOM     13  C   UNL A   1      34.757  23.294  26.043  1.00  0.00     0.012 A 
ATOM     14  C   UNL A   1      34.880  21.183  24.890  1.00  0.00     0.016 A 
ATOM     15  C   UNL A   1      33.383  23.396  25.747  1.00  0.00    -0.024 A 
ATOM     16  C   UNL A   1      33.507  21.243  24.613  1.00  0.00     0.023 A 
ATOM     17  C   UNL A   1      32.772  22.356  25.031  1.00  0.00     0.020 A 
BRANCH  15  18
ATOM     18  C   UNL A   1      32.558  24.561  26.119  1.00  0.00     0.020 C 
ATOM     19  C   UNL A   1      32.465  25.710  25.430  1.00  0.00     0.106 C 
BRANCH  19  20
ATOM     20  S   UNL A   1      31.431  26.986  26.002  1.00  0.00     0.168 S 
ATOM     21  C   UNL A   1      32.545  27.916  27.025  1.00  0.00     0.163 C 
ATOM     22  O   UNL A   1      31.081  27.827  24.874  1.00  0.00    -0.225 OA
ATOM     23  O   UNL A   1      30.398  26.454  26.873  1.00  0.00    -0.225 OA
ENDBRANCH  19  20
ENDBRANCH  15  18
BRANCH  16  24
ATOM     24  C   UNL A   1      32.809  20.166  23.846  1.00  0.00     0.193 C 
ATOM     25  O   UNL A   1      32.060  20.453  22.915  1.00  0.00    -0.289 OA
BRANCH  24  26
ATOM     26  C   UNL A   1      33.011  18.739  24.180  1.00  0.00     0.022 A 
ATOM     27  C   UNL A   1      33.477  17.865  23.198  1.00  0.00     0.012 A 
ATOM     28  C   UNL A   1      32.731  18.264  25.463  1.00  0.00     0.012 A 
ATOM     29  C   UNL A   1      33.728  16.529  23.524  1.00  0.00     0.001 A 
ATOM     30  C   UNL A   1      32.997  16.934  25.790  1.00  0.00     0.001 A 
ATOM     31  C   UNL A   1      33.505  16.070  24.822  1.00  0.00     0.000 A 
ENDBRANCH  24  26
ENDBRANCH  16  24
ENDBRANCH  10  12
ENDBRANCH   8  10
ENDBRANCH   7   8
ENDBRANCH   6   7
ENDBRANCH   5   6
ENDBRANCH   4   5
ENDBRANCH   3   4
ENDBRANCH   2   3
ENDBRANCH   1   2
BRANCH   1  32
ATOM     32  C   UNL A   1      39.708  30.405  30.309  1.00  0.00     0.188 C 
BRANCH  32  33
ATOM     33  C   UNL A   1      40.229  31.856  30.436  1.00  0.00     0.188 C 
BRANCH  33  34
ATOM     34  O   UNL A   1      41.543  31.984  30.968  1.00  0.00    -0.376 OA
BRANCH  34  35
ATOM     35  C   UNL A   1      42.539  32.603  30.167  1.00  0.00     0.202 C 
BRANCH  35  36
ATOM     36  C   UNL A   1      43.071  31.796  28.971  1.00  0.00     0.261 C 
BRANCH  36  37
ATOM     37  O   UNL A   1      43.593  32.561  27.876  1.00  0.00    -0.460 OA
BRANCH  37  38
ATOM     38  C   UNL A   1      44.130  31.885  26.838  1.00  0.00     0.338 C 
ATOM     39  O   UNL A   1      43.892  32.053  25.653  1.00  0.00    -0.246 OA
BRANCH  38  40
ATOM     40  C   UNL A   1      45.227  31.047  27.363  1.00  0.00     0.060 A 
ATOM     41  C   UNL A   1      45.271  29.691  27.010  1.00  0.00     0.016 A 
ATOM     42  C   UNL A   1      46.215  31.596  28.184  1.00  0.00     0.016 A 
ATOM     43  C   UNL A   1      46.279  28.869  27.513  1.00  0.00     0.010 A 
ATOM     44  C   UNL A   1      47.211  30.767  28.705  1.00  0.00     0.010 A 
ATOM     45  C   UNL A   1      47.223  29.393  28.404  1.00  0.00    -0.014 A 
BRANCH  45  46
ATOM     46  C   UNL A   1      48.084  28.471  29.184  1.00  0.00     0.031 A 
ATOM     47  C   UNL A   1      47.455  27.690  30.304  1.00  0.00     0.074 A 
ATOM     48  C   UNL A   1      49.391  28.323  28.905  1.00  0.00     0.049 A 
ATOM     49  N   UNL A   1      48.007  26.862  31.152  1.00  0.00    -0.248 NA
ATOM     50  C   UNL A   1      46.005  27.871  30.497  1.00  0.00     0.031 C 
ATOM     51  C   UNL A   1      50.113  29.012  27.837  1.00  0.00     0.029 A 
ATOM     52  N   UNL A   1      50.350  27.559  29.524  1.00  0.00    -0.354 N 
ATOM     53  C   UNL A   1      46.983  26.448  31.995  1.00  0.00     0.074 A 
ATOM     54  C   UNL A   1      45.779  27.126  31.568  1.00  0.00     0.031 C 
ATOM     55  C   UNL A   1      51.410  28.664  27.896  1.00  0.00     0.029 A 
ATOM     56  C   UNL A   1      51.615  27.754  29.023  1.00  0.00     0.049 A 
ATOM     57  H   UNL A   1      50.150  26.932  30.256  1.00  0.00     0.167 HD
ATOM     58  C   UNL A   1      47.035  25.573  33.027  1.00  0.00     0.034 A 
ATOM     59  C   UNL A   1      52.802  27.277  29.447  1.00  0.00     0.034 A 
ATOM     60  C   UNL A   1      48.231  24.896  33.447  1.00  0.00     0.049 A 
ATOM     61  C   UNL A   1      52.844  26.336  30.624  1.00  0.00     0.074 A 
ATOM     62  C   UNL A   1      48.380  23.963  34.456  1.00  0.00     0.029 A 
ATOM     63  N   UNL A   1      49.487  25.094  32.896  1.00  0.00    -0.354 N 
ATOM     64  N   UNL A   1      51.853  25.872  31.347  1.00  0.00    -0.248 NA
ATOM     65  C   UNL A   1      54.164  25.826  31.024  1.00  0.00     0.031 C 
ATOM     66  C   UNL A   1      49.735  23.626  34.542  1.00  0.00     0.029 A 
ATOM     67  C   UNL A   1      50.421  24.313  33.553  1.00  0.00     0.049 A 
ATOM     68  H   UNL A   1      49.686  25.701  32.146  1.00  0.00     0.167 HD
ATOM     69  C   UNL A   1      52.423  24.990  32.259  1.00  0.00     0.074 A 
ATOM     70  C   UNL A   1      53.844  24.970  31.985  1.00  0.00     0.031 C 
ATOM     71  C   UNL A   1      51.827  24.266  33.240  1.00  0.00     0.034 A 
BRANCH  58  72
ATOM     72  C   UNL A   1      45.755  25.296  33.770  1.00  0.00     0.023 A 
ATOM     73  C   UNL A   1      44.960  24.186  33.415  1.00  0.00     0.012 A 
ATOM     74  C   UNL A   1      45.357  26.115  34.846  1.00  0.00     0.148 A 
ATOM     75  C   UNL A   1      43.773  23.917  34.094  1.00  0.00     0.002 A 
ATOM     76  C   UNL A   1      44.198  25.812  35.548  1.00  0.00     0.091 A 
ATOM     77  F   UNL A   1      46.112  27.178  35.152  1.00  0.00    -0.205 F 
ATOM     78  C   UNL A   1      43.397  24.722  35.166  1.00  0.00     0.022 A 
BRANCH  76  79
ATOM     79  S   UNL A   1      43.672  26.739  36.993  1.00  0.00     0.127 S 
ATOM     80  O   UNL A   1      44.725  26.411  37.953  1.00  0.00    -0.237 OA
ATOM     81  O   UNL A   1      43.701  28.116  36.502  1.00  0.00    -0.237 OA
ATOM     82  O   UNL A   1      42.346  26.240  37.329  1.00  0.00    -0.744 OA
ENDBRANCH  76  79
ENDBRANCH  58  72
BRANCH  59  83
ATOM     83  C   UNL A   1      54.057  27.673  28.746  1.00  0.00     0.023 A 
ATOM     84  C   UNL A   1      54.796  28.782  29.203  1.00  0.00     0.012 A 
ATOM     85  C   UNL A   1      54.524  26.950  27.631  1.00  0.00     0.148 A 
ATOM     86  C   UNL A   1      55.959  29.182  28.544  1.00  0.00     0.002 A 
ATOM     87  C   UNL A   1      55.715  27.317  27.016  1.00  0.00     0.091 A 
ATOM     88  F   UNL A   1      53.798  25.907  27.202  1.00  0.00    -0.205 F 
ATOM     89  C   UNL A   1      56.424  28.444  27.459  1.00  0.00     0.022 A 
BRANCH  87  90
ATOM     90  S   UNL A   1      56.455  26.352  25.695  1.00  0.00     0.127 S 
ATOM     91  O   UNL A   1      56.164  24.986  26.123  1.00  0.00    -0.237 OA
ATOM     92  O   UNL A   1      55.696  26.809  24.531  1.00  0.00    -0.237 OA
ATOM     93  O   UNL A   1      57.864  26.720  25.677  1.00  0.00    -0.744 OA
ENDBRANCH  87  90
ENDBRANCH  59  83
BRANCH  71  94
ATOM     94  C   UNL A   1      52.692  23.347  34.064  1.00  0.00     0.023 A 
ATOM     95  C   UNL A   1      53.368  23.837  35.200  1.00  0.00     0.012 A 
ATOM     96  C   UNL A   1      52.772  21.974  33.753  1.00  0.00     0.148 A 
ATOM     97  C   UNL A   1      54.138  22.983  35.989  1.00  0.00     0.002 A 
ATOM     98  C   UNL A   1      53.495  21.120  34.576  1.00  0.00     0.091 A 
ATOM     99  F   UNL A   1      52.133  21.529  32.661  1.00  0.00    -0.205 F 
ATOM    100  C   UNL A   1      54.191  21.624  35.686  1.00  0.00     0.022 A 
BRANCH  98 101
ATOM    101  S   UNL A   1      53.540  19.342  34.321  1.00  0.00     0.127 S 
ATOM    102  O   UNL A   1      53.778  19.253  32.882  1.00  0.00    -0.237 OA
ATOM    103  O   UNL A   1      54.673  18.940  35.154  1.00  0.00    -0.237 OA
ATOM    104  O   UNL A   1      52.249  18.837  34.770  1.00  0.00    -0.744 OA
ENDBRANCH  98 101
ENDBRANCH  71  94
ENDBRANCH  45  46
ENDBRANCH  38  40
ENDBRANCH  37  38
ENDBRANCH  36  37
ENDBRANCH  35  36
ENDBRANCH  34  35
ENDBRANCH  33  34
ENDBRANCH  32  33
ENDBRANCH   1  32
TORSDOF 28
ENDMDL
