MODEL 1
REMARK VINA RESULT:      -5.5      0.000      0.000
REMARK SMILES CCCCCCNC(=O)Oc1cccc(-c2ccc([C@@H](C)C(=O)OCCOCCOCCOCCOC(=O)c3ccc(-c4c5nc(c(-c6cccc(S(=O)(=O)[O-])c6F)c6ccc([nH]6)c(-c6cccc(S(=O)(=O)[O-])c6F)c6nc(c(-c7cccc(S(=O)(=O)[O-])c7F)c7ccc4[nH]7)C=C6)C=C5)cc3)cc2O)c1
REMARK SMILES IDX 27 1 26 2 25 3 24 4 22 5 23 6 20 7 21 8 19 9 16 10 17 11
REMARK SMILES IDX 103 12 18 13 102 14 15 15 11 16 12 17 105 18 13 19 14 20
REMARK SMILES IDX 10 21 8 22 7 23 9 25 6 26 5 27 4 28 3 29 2 30 1 31 104 32
REMARK SMILES IDX 28 34 29 35 30 36 31 37 32 38 33 39 34 40 35 41 36 42 37 43
REMARK SMILES IDX 38 44 39 45 40 46 101 47 41 48 100 49 42 50 43 51 44 52
REMARK SMILES IDX 94 53 45 54 99 55 93 56 95 57 46 58 98 59 92 60 91 61 47 63
REMARK SMILES IDX 79 64 59 65 78 66 60 67 63 68 77 69 96 70 61 71 62 72 76 74
REMARK SMILES IDX 97 75 64 76 48 77 49 78 57 79 50 80 52 81 58 82 51 83 53 84
REMARK SMILES IDX 54 85 55 86 56 87 80 88 81 89 89 90 82 91 84 92 90 93 83 94
REMARK SMILES IDX 85 95 86 96 87 97 88 98 65 99 66 100 74 101 67 102 69 103
REMARK SMILES IDX 75 104 68 105 70 106 71 107 72 108 73 109
REMARK H PARENT 7 24 104 33 95 62 63 73
REMARK Flexibility Score: inf
ROOT
ATOM      1  O   UNL A   1      44.108  25.543  34.512  1.00  0.00    -0.376 OA
ENDROOT
BRANCH   1   2
ATOM      2  C   UNL A   1      43.623  26.705  35.171  1.00  0.00     0.202 C 
BRANCH   2   3
ATOM      3  C   UNL A   1      43.277  26.682  36.673  1.00  0.00     0.261 C 
BRANCH   3   4
ATOM      4  O   UNL A   1      43.355  27.935  37.383  1.00  0.00    -0.463 OA
BRANCH   4   5
ATOM      5  C   UNL A   1      44.178  28.873  36.862  1.00  0.00     0.313 C 
ATOM      6  O   UNL A   1      45.390  28.904  37.075  1.00  0.00    -0.252 OA
BRANCH   5   7
ATOM      7  C   UNL A   1      43.515  29.941  35.994  1.00  0.00     0.126 C 
ATOM      8  C   UNL A   1      44.528  30.432  34.967  1.00  0.00     0.025 C 
BRANCH   7   9
ATOM      9  C   UNL A   1      42.739  31.103  36.613  1.00  0.00    -0.030 A 
ATOM     10  C   UNL A   1      41.398  33.335  37.844  1.00  0.00     0.024 A 
ATOM     11  C   UNL A   1      40.727  32.443  36.984  1.00  0.00     0.013 A 
ATOM     12  C   UNL A   1      42.757  33.076  38.074  1.00  0.00     0.123 A 
ATOM     13  C   UNL A   1      41.380  31.346  36.382  1.00  0.00     0.005 A 
ATOM     14  C   UNL A   1      43.411  31.987  37.482  1.00  0.00     0.051 A 
BRANCH  10  15
ATOM     15  C   UNL A   1      40.668  34.446  38.498  1.00  0.00    -0.011 A 
ATOM     16  C   UNL A   1      39.688  35.509  40.462  1.00  0.00     0.133 A 
ATOM     17  C   UNL A   1      39.131  36.515  39.675  1.00  0.00     0.047 A 
ATOM     18  C   UNL A   1      40.448  34.481  39.889  1.00  0.00     0.056 A 
ATOM     19  C   UNL A   1      39.357  36.505  38.302  1.00  0.00     0.004 A 
ATOM     20  C   UNL A   1      40.114  35.481  37.721  1.00  0.00     0.009 A 
BRANCH  16  21
ATOM     21  O   UNL A   1      39.332  35.500  41.823  1.00  0.00    -0.410 OA
BRANCH  21  22
ATOM     22  C   UNL A   1      38.259  34.710  42.202  1.00  0.00     0.412 C 
ATOM     23  N   UNL A   1      38.559  33.812  43.190  1.00  0.00    -0.321 N 
ATOM     24  H   UNL A   1      37.810  33.269  43.528  1.00  0.00     0.167 HD
ATOM     25  O   UNL A   1      37.127  34.764  41.735  1.00  0.00    -0.224 OA
BRANCH  23  26
ATOM     26  C   UNL A   1      39.852  33.567  43.799  1.00  0.00     0.119 C 
BRANCH  26  27
ATOM     27  C   UNL A   1      39.760  33.425  45.320  1.00  0.00     0.021 C 
BRANCH  27  28
ATOM     28  C   UNL A   1      40.769  32.451  45.945  1.00  0.00     0.002 C 
BRANCH  28  29
ATOM     29  C   UNL A   1      40.168  31.316  46.780  1.00  0.00    -0.000 C 
BRANCH  29  30
ATOM     30  C   UNL A   1      40.746  29.923  46.515  1.00  0.00    -0.003 C 
ATOM     31  C   UNL A   1      41.283  29.750  45.103  1.00  0.00     0.004 C 
ENDBRANCH  29  30
ENDBRANCH  28  29
ENDBRANCH  27  28
ENDBRANCH  26  27
ENDBRANCH  23  26
ENDBRANCH  21  22
ENDBRANCH  16  21
ENDBRANCH  10  15
BRANCH  12  32
ATOM     32  O   UNL A   1      43.532  33.845  38.906  1.00  0.00    -0.507 OA
ATOM     33  H   UNL A   1      44.451  33.676  38.980  1.00  0.00     0.293 HD
ENDBRANCH  12  32
ENDBRANCH   7   9
ENDBRANCH   5   7
ENDBRANCH   4   5
ENDBRANCH   3   4
ENDBRANCH   2   3
ENDBRANCH   1   2
BRANCH   1  34
ATOM     34  C   UNL A   1      44.157  25.484  33.092  1.00  0.00     0.188 C 
BRANCH  34  35
ATOM     35  C   UNL A   1      45.422  25.024  32.354  1.00  0.00     0.188 C 
BRANCH  35  36
ATOM     36  O   UNL A   1      45.510  25.445  31.012  1.00  0.00    -0.377 OA
BRANCH  36  37
ATOM     37  C   UNL A   1      44.502  24.981  30.130  1.00  0.00     0.188 C 
BRANCH  37  38
ATOM     38  C   UNL A   1      44.462  25.616  28.729  1.00  0.00     0.188 C 
BRANCH  38  39
ATOM     39  O   UNL A   1      43.694  24.884  27.776  1.00  0.00    -0.376 OA
BRANCH  39  40
ATOM     40  C   UNL A   1      42.678  24.016  28.262  1.00  0.00     0.202 C 
BRANCH  40  41
ATOM     41  C   UNL A   1      41.624  23.504  27.267  1.00  0.00     0.261 C 
BRANCH  41  42
ATOM     42  O   UNL A   1      40.253  23.659  27.652  1.00  0.00    -0.460 OA
BRANCH  42  43
ATOM     43  C   UNL A   1      39.480  24.534  26.970  1.00  0.00     0.338 C 
ATOM     44  O   UNL A   1      38.656  24.276  26.121  1.00  0.00    -0.246 OA
BRANCH  43  45
ATOM     45  C   UNL A   1      39.647  25.856  27.622  1.00  0.00     0.060 A 
ATOM     46  C   UNL A   1      40.114  26.934  26.857  1.00  0.00     0.016 A 
ATOM     47  C   UNL A   1      39.324  26.037  28.969  1.00  0.00     0.016 A 
ATOM     48  C   UNL A   1      40.290  28.189  27.444  1.00  0.00     0.010 A 
ATOM     49  C   UNL A   1      39.529  27.287  29.562  1.00  0.00     0.010 A 
ATOM     50  C   UNL A   1      40.040  28.361  28.812  1.00  0.00    -0.014 A 
BRANCH  50  51
ATOM     51  C   UNL A   1      40.490  29.598  29.500  1.00  0.00     0.031 A 
ATOM     52  C   UNL A   1      41.960  29.919  29.497  1.00  0.00     0.074 A 
ATOM     53  C   UNL A   1      39.625  30.412  30.129  1.00  0.00     0.049 A 
ATOM     54  N   UNL A   1      42.601  30.887  30.097  1.00  0.00    -0.248 NA
ATOM     55  C   UNL A   1      42.824  29.023  28.709  1.00  0.00     0.031 C 
ATOM     56  C   UNL A   1      38.177  30.229  30.185  1.00  0.00     0.029 A 
ATOM     57  N   UNL A   1      39.851  31.545  30.876  1.00  0.00    -0.354 N 
ATOM     58  C   UNL A   1      43.943  30.697  29.794  1.00  0.00     0.074 A 
ATOM     59  C   UNL A   1      44.027  29.521  28.956  1.00  0.00     0.031 C 
ATOM     60  C   UNL A   1      37.646  31.191  30.960  1.00  0.00     0.029 A 
ATOM     61  C   UNL A   1      38.719  32.036  31.483  1.00  0.00     0.049 A 
ATOM     62  H   UNL A   1      40.738  31.962  30.967  1.00  0.00     0.167 HD
ATOM     63  C   UNL A   1      45.012  31.436  30.173  1.00  0.00     0.034 A 
ATOM     64  C   UNL A   1      38.574  33.028  32.386  1.00  0.00     0.034 A 
ATOM     65  C   UNL A   1      44.929  32.609  30.999  1.00  0.00     0.049 A 
ATOM     66  C   UNL A   1      39.787  33.804  32.837  1.00  0.00     0.074 A 
ATOM     67  C   UNL A   1      45.949  33.452  31.398  1.00  0.00     0.029 A 
ATOM     68  N   UNL A   1      43.763  33.092  31.572  1.00  0.00    -0.354 N 
ATOM     69  N   UNL A   1      41.035  33.684  32.455  1.00  0.00    -0.248 NA
ATOM     70  C   UNL A   1      39.567  34.870  33.829  1.00  0.00     0.031 C 
ATOM     71  C   UNL A   1      45.408  34.421  32.248  1.00  0.00     0.029 A 
ATOM     72  C   UNL A   1      44.042  34.207  32.342  1.00  0.00     0.049 A 
ATOM     73  H   UNL A   1      42.868  32.700  31.449  1.00  0.00     0.167 HD
ATOM     74  C   UNL A   1      41.741  34.676  33.129  1.00  0.00     0.074 A 
ATOM     75  C   UNL A   1      40.778  35.402  33.931  1.00  0.00     0.031 C 
ATOM     76  C   UNL A   1      43.068  34.953  33.098  1.00  0.00     0.034 A 
BRANCH  63  77
ATOM     77  C   UNL A   1      46.371  30.997  29.696  1.00  0.00     0.023 A 
ATOM     78  C   UNL A   1      46.924  31.563  28.530  1.00  0.00     0.012 A 
ATOM     79  C   UNL A   1      47.122  30.059  30.433  1.00  0.00     0.148 A 
ATOM     80  C   UNL A   1      48.189  31.179  28.086  1.00  0.00     0.002 A 
ATOM     81  C   UNL A   1      48.400  29.717  30.011  1.00  0.00     0.091 A 
ATOM     82  F   UNL A   1      46.568  29.516  31.527  1.00  0.00    -0.205 F 
ATOM     83  C   UNL A   1      48.929  30.266  28.832  1.00  0.00     0.022 A 
BRANCH  81  84
ATOM     84  S   UNL A   1      49.464  28.611  30.943  1.00  0.00     0.127 S 
ATOM     85  O   UNL A   1      48.701  27.363  30.902  1.00  0.00    -0.237 OA
ATOM     86  O   UNL A   1      50.684  28.606  30.135  1.00  0.00    -0.237 OA
ATOM     87  O   UNL A   1      49.610  29.208  32.262  1.00  0.00    -0.744 OA
ENDBRANCH  81  84
ENDBRANCH  63  77
BRANCH  64  88
ATOM     88  C   UNL A   1      37.223  33.351  32.933  1.00  0.00     0.023 A 
ATOM     89  C   UNL A   1      36.867  32.908  34.222  1.00  0.00     0.012 A 
ATOM     90  C   UNL A   1      36.291  34.092  32.180  1.00  0.00     0.148 A 
ATOM     91  C   UNL A   1      35.598  33.171  34.739  1.00  0.00     0.002 A 
ATOM     92  C   UNL A   1      35.049  34.400  32.723  1.00  0.00     0.091 A 
ATOM     93  F   UNL A   1      36.640  34.487  30.948  1.00  0.00    -0.205 F 
ATOM     94  C   UNL A   1      34.693  33.924  33.994  1.00  0.00     0.022 A 
BRANCH  92  95
ATOM     95  S   UNL A   1      33.867  35.465  31.890  1.00  0.00     0.127 S 
ATOM     96  O   UNL A   1      34.377  36.793  32.220  1.00  0.00    -0.237 OA
ATOM     97  O   UNL A   1      34.040  35.068  30.492  1.00  0.00    -0.237 OA
ATOM     98  O   UNL A   1      32.567  35.131  32.455  1.00  0.00    -0.744 OA
ENDBRANCH  92  95
ENDBRANCH  64  88
BRANCH  76  99
ATOM     99  C   UNL A   1      43.572  36.114  33.919  1.00  0.00     0.023 A 
ATOM    100  C   UNL A   1      43.688  37.390  33.336  1.00  0.00     0.012 A 
ATOM    101  C   UNL A   1      43.833  35.956  35.296  1.00  0.00     0.148 A 
ATOM    102  C   UNL A   1      44.082  38.487  34.103  1.00  0.00     0.002 A 
ATOM    103  C   UNL A   1      44.174  37.062  36.065  1.00  0.00     0.091 A 
ATOM    104  F   UNL A   1      43.727  34.731  35.829  1.00  0.00    -0.205 F 
ATOM    105  C   UNL A   1      44.312  38.326  35.469  1.00  0.00     0.022 A 
BRANCH 103 106
ATOM    106  S   UNL A   1      44.393  36.974  37.847  1.00  0.00     0.127 S 
ATOM    107  O   UNL A   1      45.412  35.932  37.970  1.00  0.00    -0.237 OA
ATOM    108  O   UNL A   1      44.859  38.323  38.166  1.00  0.00    -0.237 OA
ATOM    109  O   UNL A   1      43.089  36.633  38.399  1.00  0.00    -0.744 OA
ENDBRANCH 103 106
ENDBRANCH  76  99
ENDBRANCH  50  51
ENDBRANCH  43  45
ENDBRANCH  42  43
ENDBRANCH  41  42
ENDBRANCH  40  41
ENDBRANCH  39  40
ENDBRANCH  38  39
ENDBRANCH  37  38
ENDBRANCH  36  37
ENDBRANCH  35  36
ENDBRANCH  34  35
ENDBRANCH   1  34
TORSDOF 33
ENDMDL
MODEL 2
REMARK VINA RESULT:      -5.3      4.234     10.853
REMARK SMILES CCCCCCNC(=O)Oc1cccc(-c2ccc([C@@H](C)C(=O)OCCOCCOCCOCCOC(=O)c3ccc(-c4c5nc(c(-c6cccc(S(=O)(=O)[O-])c6F)c6ccc([nH]6)c(-c6cccc(S(=O)(=O)[O-])c6F)c6nc(c(-c7cccc(S(=O)(=O)[O-])c7F)c7ccc4[nH]7)C=C6)C=C5)cc3)cc2O)c1
REMARK SMILES IDX 27 1 26 2 25 3 24 4 22 5 23 6 20 7 21 8 19 9 16 10 17 11
REMARK SMILES IDX 103 12 18 13 102 14 15 15 11 16 12 17 105 18 13 19 14 20
REMARK SMILES IDX 10 21 8 22 7 23 9 25 6 26 5 27 4 28 3 29 2 30 1 31 104 32
REMARK SMILES IDX 28 34 29 35 30 36 31 37 32 38 33 39 34 40 35 41 36 42 37 43
REMARK SMILES IDX 38 44 39 45 40 46 101 47 41 48 100 49 42 50 43 51 44 52
REMARK SMILES IDX 94 53 45 54 99 55 93 56 95 57 46 58 98 59 92 60 91 61 47 63
REMARK SMILES IDX 79 64 59 65 78 66 60 67 63 68 77 69 96 70 61 71 62 72 76 74
REMARK SMILES IDX 97 75 64 76 48 77 49 78 57 79 50 80 52 81 58 82 51 83 53 84
REMARK SMILES IDX 54 85 55 86 56 87 80 88 81 89 89 90 82 91 84 92 90 93 83 94
REMARK SMILES IDX 85 95 86 96 87 97 88 98 65 99 66 100 74 101 67 102 69 103
REMARK SMILES IDX 75 104 68 105 70 106 71 107 72 108 73 109
REMARK H PARENT 7 24 104 33 95 62 63 73
REMARK Flexibility Score: inf
ROOT
ATOM      1  O   UNL A   1      44.685  39.174  33.479  1.00  0.00    -0.376 OA
ENDROOT
BRANCH   1   2
ATOM      2  C   UNL A   1      43.724  38.593  34.351  1.00  0.00     0.202 C 
BRANCH   2   3
ATOM      3  C   UNL A   1      43.639  37.066  34.535  1.00  0.00     0.261 C 
BRANCH   3   4
ATOM      4  O   UNL A   1      42.366  36.525  34.948  1.00  0.00    -0.463 OA
BRANCH   4   5
ATOM      5  C   UNL A   1      42.004  35.347  34.392  1.00  0.00     0.313 C 
ATOM      6  O   UNL A   1      41.778  35.206  33.190  1.00  0.00    -0.252 OA
BRANCH   5   7
ATOM      7  C   UNL A   1      41.855  34.168  35.353  1.00  0.00     0.126 C 
ATOM      8  C   UNL A   1      42.470  34.552  36.693  1.00  0.00     0.025 C 
BRANCH   7   9
ATOM      9  C   UNL A   1      42.248  32.749  34.941  1.00  0.00    -0.030 A 
ATOM     10  C   UNL A   1      43.127  30.118  34.167  1.00  0.00     0.024 A 
ATOM     11  C   UNL A   1      41.768  30.415  34.391  1.00  0.00     0.013 A 
ATOM     12  C   UNL A   1      44.033  31.176  34.337  1.00  0.00     0.123 A 
ATOM     13  C   UNL A   1      41.333  31.705  34.767  1.00  0.00     0.005 A 
ATOM     14  C   UNL A   1      43.608  32.458  34.708  1.00  0.00     0.051 A 
BRANCH  10  15
ATOM     15  C   UNL A   1      43.541  28.766  33.725  1.00  0.00    -0.011 A 
ATOM     16  C   UNL A   1      44.079  26.431  34.176  1.00  0.00     0.133 A 
ATOM     17  C   UNL A   1      44.487  26.241  32.857  1.00  0.00     0.047 A 
ATOM     18  C   UNL A   1      43.611  27.676  34.615  1.00  0.00     0.056 A 
ATOM     19  C   UNL A   1      44.403  27.302  31.961  1.00  0.00     0.004 A 
ATOM     20  C   UNL A   1      43.937  28.550  32.392  1.00  0.00     0.009 A 
BRANCH  16  21
ATOM     21  O   UNL A   1      44.294  25.362  35.066  1.00  0.00    -0.410 OA
BRANCH  21  22
ATOM     22  C   UNL A   1      44.391  24.088  34.528  1.00  0.00     0.412 C 
ATOM     23  N   UNL A   1      45.625  23.518  34.688  1.00  0.00    -0.321 N 
ATOM     24  H   UNL A   1      45.720  22.590  34.370  1.00  0.00     0.167 HD
ATOM     25  O   UNL A   1      43.495  23.480  33.957  1.00  0.00    -0.224 OA
BRANCH  23  26
ATOM     26  C   UNL A   1      46.808  24.119  35.271  1.00  0.00     0.119 C 
BRANCH  26  27
ATOM     27  C   UNL A   1      47.848  24.499  34.214  1.00  0.00     0.021 C 
BRANCH  27  28
ATOM     28  C   UNL A   1      49.120  23.639  34.213  1.00  0.00     0.002 C 
BRANCH  28  29
ATOM     29  C   UNL A   1      50.101  23.904  33.066  1.00  0.00    -0.000 C 
BRANCH  29  30
ATOM     30  C   UNL A   1      51.401  23.096  33.109  1.00  0.00    -0.003 C 
ATOM     31  C   UNL A   1      51.186  21.620  33.405  1.00  0.00     0.004 C 
ENDBRANCH  29  30
ENDBRANCH  28  29
ENDBRANCH  27  28
ENDBRANCH  26  27
ENDBRANCH  23  26
ENDBRANCH  21  22
ENDBRANCH  16  21
ENDBRANCH  10  15
BRANCH  12  32
ATOM     32  O   UNL A   1      45.384  31.041  34.131  1.00  0.00    -0.507 OA
ATOM     33  H   UNL A   1      45.797  31.497  33.425  1.00  0.00     0.293 HD
ENDBRANCH  12  32
ENDBRANCH   7   9
ENDBRANCH   5   7
ENDBRANCH   4   5
ENDBRANCH   3   4
ENDBRANCH   2   3
ENDBRANCH   1   2
BRANCH   1  34
ATOM     34  C   UNL A   1      45.730  39.989  33.995  1.00  0.00     0.188 C 
BRANCH  34  35
ATOM     35  C   UNL A   1      47.180  39.491  34.046  1.00  0.00     0.188 C 
BRANCH  35  36
ATOM     36  O   UNL A   1      48.154  40.469  33.760  1.00  0.00    -0.377 OA
BRANCH  36  37
ATOM     37  C   UNL A   1      49.480  40.010  33.561  1.00  0.00     0.188 C 
BRANCH  37  38
ATOM     38  C   UNL A   1      49.908  39.736  32.108  1.00  0.00     0.188 C 
BRANCH  38  39
ATOM     39  O   UNL A   1      48.822  39.555  31.203  1.00  0.00    -0.376 OA
BRANCH  39  40
ATOM     40  C   UNL A   1      49.090  38.933  29.952  1.00  0.00     0.202 C 
BRANCH  40  41
ATOM     41  C   UNL A   1      48.010  38.020  29.349  1.00  0.00     0.261 C 
BRANCH  41  42
ATOM     42  O   UNL A   1      48.135  36.618  29.620  1.00  0.00    -0.460 OA
BRANCH  42  43
ATOM     43  C   UNL A   1      47.788  36.157  30.842  1.00  0.00     0.338 C 
ATOM     44  O   UNL A   1      48.033  36.665  31.913  1.00  0.00    -0.246 OA
BRANCH  43  45
ATOM     45  C   UNL A   1      46.837  35.038  30.627  1.00  0.00     0.060 A 
ATOM     46  C   UNL A   1      46.710  34.058  31.621  1.00  0.00     0.016 A 
ATOM     47  C   UNL A   1      46.063  34.968  29.467  1.00  0.00     0.016 A 
ATOM     48  C   UNL A   1      45.831  32.988  31.445  1.00  0.00     0.010 A 
ATOM     49  C   UNL A   1      45.204  33.880  29.279  1.00  0.00     0.010 A 
ATOM     50  C   UNL A   1      45.105  32.870  30.253  1.00  0.00    -0.014 A 
BRANCH  50  51
ATOM     51  C   UNL A   1      44.394  31.604  29.937  1.00  0.00     0.031 A 
ATOM     52  C   UNL A   1      45.121  30.561  29.134  1.00  0.00     0.074 A 
ATOM     53  C   UNL A   1      43.128  31.386  30.335  1.00  0.00     0.049 A 
ATOM     54  N   UNL A   1      44.687  29.421  28.664  1.00  0.00    -0.248 NA
ATOM     55  C   UNL A   1      46.532  30.844  28.817  1.00  0.00     0.031 C 
ATOM     56  C   UNL A   1      42.322  32.303  31.138  1.00  0.00     0.029 A 
ATOM     57  N   UNL A   1      42.286  30.329  30.082  1.00  0.00    -0.354 N 
ATOM     58  C   UNL A   1      45.753  28.869  27.965  1.00  0.00     0.074 A 
ATOM     59  C   UNL A   1      46.857  29.798  28.072  1.00  0.00     0.031 C 
ATOM     60  C   UNL A   1      41.088  31.789  31.278  1.00  0.00     0.029 A 
ATOM     61  C   UNL A   1      41.006  30.525  30.546  1.00  0.00     0.049 A 
ATOM     62  H   UNL A   1      42.572  29.512  29.613  1.00  0.00     0.167 HD
ATOM     63  C   UNL A   1      45.813  27.693  27.298  1.00  0.00     0.034 A 
ATOM     64  C   UNL A   1      39.891  29.787  30.367  1.00  0.00     0.034 A 
ATOM     65  C   UNL A   1      44.719  26.766  27.199  1.00  0.00     0.049 A 
ATOM     66  C   UNL A   1      39.967  28.506  29.574  1.00  0.00     0.074 A 
ATOM     67  C   UNL A   1      44.698  25.527  26.586  1.00  0.00     0.029 A 
ATOM     68  N   UNL A   1      43.448  26.985  27.705  1.00  0.00    -0.354 N 
ATOM     69  N   UNL A   1      41.010  27.941  29.014  1.00  0.00    -0.248 NA
ATOM     70  C   UNL A   1      38.717  27.747  29.406  1.00  0.00     0.031 C 
ATOM     71  C   UNL A   1      43.400  25.015  26.683  1.00  0.00     0.029 A 
ATOM     72  C   UNL A   1      42.626  25.917  27.396  1.00  0.00     0.049 A 
ATOM     73  H   UNL A   1      43.171  27.784  28.210  1.00  0.00     0.167 HD
ATOM     74  C   UNL A   1      40.550  26.749  28.460  1.00  0.00     0.074 A 
ATOM     75  C   UNL A   1      39.138  26.663  28.768  1.00  0.00     0.031 C 
ATOM     76  C   UNL A   1      41.232  25.817  27.750  1.00  0.00     0.034 A 
BRANCH  63  77
ATOM     77  C   UNL A   1      47.110  27.338  26.621  1.00  0.00     0.023 A 
ATOM     78  C   UNL A   1      47.372  27.800  25.315  1.00  0.00     0.012 A 
ATOM     79  C   UNL A   1      48.092  26.589  27.299  1.00  0.00     0.148 A 
ATOM     80  C   UNL A   1      48.576  27.495  24.683  1.00  0.00     0.002 A 
ATOM     81  C   UNL A   1      49.309  26.330  26.682  1.00  0.00     0.091 A 
ATOM     82  F   UNL A   1      47.815  26.140  28.532  1.00  0.00    -0.205 F 
ATOM     83  C   UNL A   1      49.547  26.770  25.369  1.00  0.00     0.022 A 
BRANCH  81  84
ATOM     84  S   UNL A   1      50.653  25.472  27.508  1.00  0.00     0.127 S 
ATOM     85  O   UNL A   1      50.845  26.303  28.697  1.00  0.00    -0.237 OA
ATOM     86  O   UNL A   1      50.063  24.159  27.771  1.00  0.00    -0.237 OA
ATOM     87  O   UNL A   1      51.764  25.463  26.568  1.00  0.00    -0.744 OA
ENDBRANCH  81  84
ENDBRANCH  63  77
BRANCH  64  88
ATOM     88  C   UNL A   1      38.593  30.239  30.950  1.00  0.00     0.023 A 
ATOM     89  C   UNL A   1      38.245  29.854  32.261  1.00  0.00     0.012 A 
ATOM     90  C   UNL A   1      37.703  31.044  30.213  1.00  0.00     0.148 A 
ATOM     91  C   UNL A   1      37.022  30.238  32.813  1.00  0.00     0.002 A 
ATOM     92  C   UNL A   1      36.513  31.471  30.789  1.00  0.00     0.091 A 
ATOM     93  F   UNL A   1      38.042  31.383  28.961  1.00  0.00    -0.205 F 
ATOM     94  C   UNL A   1      36.161  31.053  32.082  1.00  0.00     0.022 A 
BRANCH  92  95
ATOM     95  S   UNL A   1      35.401  32.620  29.972  1.00  0.00     0.127 S 
ATOM     96  O   UNL A   1      34.563  31.719  29.186  1.00  0.00    -0.237 OA
ATOM     97  O   UNL A   1      34.730  33.247  31.112  1.00  0.00    -0.237 OA
ATOM     98  O   UNL A   1      36.253  33.518  29.206  1.00  0.00    -0.744 OA
ENDBRANCH  92  95
ENDBRANCH  64  88
BRANCH  76  99
ATOM     99  C   UNL A   1      40.486  24.593  27.282  1.00  0.00     0.023 A 
ATOM    100  C   UNL A   1      39.209  24.727  26.704  1.00  0.00     0.012 A 
ATOM    101  C   UNL A   1      41.095  23.322  27.326  1.00  0.00     0.148 A 
ATOM    102  C   UNL A   1      38.538  23.611  26.200  1.00  0.00     0.002 A 
ATOM    103  C   UNL A   1      40.444  22.225  26.775  1.00  0.00     0.091 A 
ATOM    104  F   UNL A   1      42.306  23.215  27.891  1.00  0.00    -0.205 F 
ATOM    105  C   UNL A   1      39.161  22.365  26.223  1.00  0.00     0.022 A 
BRANCH 103 106
ATOM    106  S   UNL A   1      41.204  20.600  26.670  1.00  0.00     0.127 S 
ATOM    107  O   UNL A   1      42.229  20.816  25.650  1.00  0.00    -0.237 OA
ATOM    108  O   UNL A   1      41.722  20.415  28.026  1.00  0.00    -0.237 OA
ATOM    109  O   UNL A   1      40.140  19.678  26.294  1.00  0.00    -0.744 OA
ENDBRANCH 103 106
ENDBRANCH  76  99
ENDBRANCH  50  51
ENDBRANCH  43  45
ENDBRANCH  42  43
ENDBRANCH  41  42
ENDBRANCH  40  41
ENDBRANCH  39  40
ENDBRANCH  38  39
ENDBRANCH  37  38
ENDBRANCH  36  37
ENDBRANCH  35  36
ENDBRANCH  34  35
ENDBRANCH   1  34
TORSDOF 33
ENDMDL
MODEL 3
REMARK VINA RESULT:      -5.3      4.929     12.987
REMARK SMILES CCCCCCNC(=O)Oc1cccc(-c2ccc([C@@H](C)C(=O)OCCOCCOCCOCCOC(=O)c3ccc(-c4c5nc(c(-c6cccc(S(=O)(=O)[O-])c6F)c6ccc([nH]6)c(-c6cccc(S(=O)(=O)[O-])c6F)c6nc(c(-c7cccc(S(=O)(=O)[O-])c7F)c7ccc4[nH]7)C=C6)C=C5)cc3)cc2O)c1
REMARK SMILES IDX 27 1 26 2 25 3 24 4 22 5 23 6 20 7 21 8 19 9 16 10 17 11
REMARK SMILES IDX 103 12 18 13 102 14 15 15 11 16 12 17 105 18 13 19 14 20
REMARK SMILES IDX 10 21 8 22 7 23 9 25 6 26 5 27 4 28 3 29 2 30 1 31 104 32
REMARK SMILES IDX 28 34 29 35 30 36 31 37 32 38 33 39 34 40 35 41 36 42 37 43
REMARK SMILES IDX 38 44 39 45 40 46 101 47 41 48 100 49 42 50 43 51 44 52
REMARK SMILES IDX 94 53 45 54 99 55 93 56 95 57 46 58 98 59 92 60 91 61 47 63
REMARK SMILES IDX 79 64 59 65 78 66 60 67 63 68 77 69 96 70 61 71 62 72 76 74
REMARK SMILES IDX 97 75 64 76 48 77 49 78 57 79 50 80 52 81 58 82 51 83 53 84
REMARK SMILES IDX 54 85 55 86 56 87 80 88 81 89 89 90 82 91 84 92 90 93 83 94
REMARK SMILES IDX 85 95 86 96 87 97 88 98 65 99 66 100 74 101 67 102 69 103
REMARK SMILES IDX 75 104 68 105 70 106 71 107 72 108 73 109
REMARK H PARENT 7 24 104 33 95 62 63 73
REMARK Flexibility Score: inf
ROOT
ATOM      1  O   UNL A   1      46.207  26.811  33.216  1.00  0.00    -0.376 OA
ENDROOT
BRANCH   1   2
ATOM      2  C   UNL A   1      47.269  26.776  32.272  1.00  0.00     0.202 C 
BRANCH   2   3
ATOM      3  C   UNL A   1      46.985  26.696  30.760  1.00  0.00     0.261 C 
BRANCH   3   4
ATOM      4  O   UNL A   1      45.915  27.520  30.249  1.00  0.00    -0.463 OA
BRANCH   4   5
ATOM      5  C   UNL A   1      44.704  26.930  30.135  1.00  0.00     0.313 C 
ATOM      6  O   UNL A   1      44.111  26.409  31.080  1.00  0.00    -0.252 OA
BRANCH   5   7
ATOM      7  C   UNL A   1      44.095  26.912  28.733  1.00  0.00     0.126 C 
ATOM      8  C   UNL A   1      43.318  28.206  28.523  1.00  0.00     0.025 C 
BRANCH   7   9
ATOM      9  C   UNL A   1      43.318  25.702  28.216  1.00  0.00    -0.030 A 
ATOM     10  C   UNL A   1      41.883  23.353  27.368  1.00  0.00     0.024 A 
ATOM     11  C   UNL A   1      41.968  24.507  26.564  1.00  0.00     0.013 A 
ATOM     12  C   UNL A   1      42.539  23.406  28.607  1.00  0.00     0.123 A 
ATOM     13  C   UNL A   1      42.674  25.659  26.974  1.00  0.00     0.005 A 
ATOM     14  C   UNL A   1      43.244  24.544  29.020  1.00  0.00     0.051 A 
BRANCH  10  15
ATOM     15  C   UNL A   1      41.176  22.146  26.882  1.00  0.00    -0.011 A 
ATOM     16  C   UNL A   1      41.157  19.824  26.135  1.00  0.00     0.133 A 
ATOM     17  C   UNL A   1      39.806  19.912  25.803  1.00  0.00     0.047 A 
ATOM     18  C   UNL A   1      41.843  20.923  26.667  1.00  0.00     0.056 A 
ATOM     19  C   UNL A   1      39.129  21.106  26.029  1.00  0.00     0.004 A 
ATOM     20  C   UNL A   1      39.807  22.209  26.560  1.00  0.00     0.009 A 
BRANCH  16  21
ATOM     21  O   UNL A   1      41.821  18.635  25.779  1.00  0.00    -0.410 OA
BRANCH  21  22
ATOM     22  C   UNL A   1      42.971  18.307  26.479  1.00  0.00     0.412 C 
ATOM     23  N   UNL A   1      44.125  18.546  25.783  1.00  0.00    -0.321 N 
ATOM     24  H   UNL A   1      44.967  18.381  26.266  1.00  0.00     0.167 HD
ATOM     25  O   UNL A   1      43.014  17.847  27.613  1.00  0.00    -0.224 OA
BRANCH  23  26
ATOM     26  C   UNL A   1      44.252  19.017  24.418  1.00  0.00     0.119 C 
BRANCH  26  27
ATOM     27  C   UNL A   1      45.433  19.974  24.240  1.00  0.00     0.021 C 
BRANCH  27  28
ATOM     28  C   UNL A   1      45.152  21.434  24.623  1.00  0.00     0.002 C 
BRANCH  28  29
ATOM     29  C   UNL A   1      46.388  22.302  24.884  1.00  0.00    -0.000 C 
BRANCH  29  30
ATOM     30  C   UNL A   1      46.200  23.804  24.654  1.00  0.00    -0.003 C 
ATOM     31  C   UNL A   1      45.910  24.580  25.929  1.00  0.00     0.004 C 
ENDBRANCH  29  30
ENDBRANCH  28  29
ENDBRANCH  27  28
ENDBRANCH  26  27
ENDBRANCH  23  26
ENDBRANCH  21  22
ENDBRANCH  16  21
ENDBRANCH  10  15
BRANCH  12  32
ATOM     32  O   UNL A   1      42.561  22.350  29.484  1.00  0.00    -0.507 OA
ATOM     33  H   UNL A   1      41.765  22.053  29.878  1.00  0.00     0.293 HD
ENDBRANCH  12  32
ENDBRANCH   7   9
ENDBRANCH   5   7
ENDBRANCH   4   5
ENDBRANCH   3   4
ENDBRANCH   2   3
ENDBRANCH   1   2
BRANCH   1  34
ATOM     34  C   UNL A   1      46.224  27.744  34.290  1.00  0.00     0.188 C 
BRANCH  34  35
ATOM     35  C   UNL A   1      44.959  28.052  35.102  1.00  0.00     0.188 C 
BRANCH  35  36
ATOM     36  O   UNL A   1      44.052  28.930  34.476  1.00  0.00    -0.377 OA
BRANCH  36  37
ATOM     37  C   UNL A   1      43.095  28.346  33.608  1.00  0.00     0.188 C 
BRANCH  37  38
ATOM     38  C   UNL A   1      41.617  28.476  34.019  1.00  0.00     0.188 C 
BRANCH  38  39
ATOM     39  O   UNL A   1      40.834  29.278  33.138  1.00  0.00    -0.376 OA
BRANCH  39  40
ATOM     40  C   UNL A   1      39.643  28.714  32.602  1.00  0.00     0.202 C 
BRANCH  40  41
ATOM     41  C   UNL A   1      38.298  29.325  33.024  1.00  0.00     0.261 C 
BRANCH  41  42
ATOM     42  O   UNL A   1      38.338  30.292  34.081  1.00  0.00    -0.460 OA
BRANCH  42  43
ATOM     43  C   UNL A   1      37.806  31.515  33.865  1.00  0.00     0.338 C 
ATOM     44  O   UNL A   1      36.664  31.774  33.562  1.00  0.00    -0.246 OA
BRANCH  43  45
ATOM     45  C   UNL A   1      38.816  32.509  34.308  1.00  0.00     0.060 A 
ATOM     46  C   UNL A   1      38.485  33.871  34.273  1.00  0.00     0.016 A 
ATOM     47  C   UNL A   1      40.067  32.100  34.773  1.00  0.00     0.016 A 
ATOM     48  C   UNL A   1      39.417  34.831  34.674  1.00  0.00     0.010 A 
ATOM     49  C   UNL A   1      41.009  33.065  35.147  1.00  0.00     0.010 A 
ATOM     50  C   UNL A   1      40.700  34.435  35.072  1.00  0.00    -0.014 A 
BRANCH  50  51
ATOM     51  C   UNL A   1      41.776  35.447  35.224  1.00  0.00     0.031 A 
ATOM     52  C   UNL A   1      42.003  36.045  36.585  1.00  0.00     0.074 A 
ATOM     53  C   UNL A   1      42.526  35.845  34.181  1.00  0.00     0.049 A 
ATOM     54  N   UNL A   1      42.818  37.001  36.949  1.00  0.00    -0.248 NA
ATOM     55  C   UNL A   1      41.199  35.489  37.687  1.00  0.00     0.031 C 
ATOM     56  C   UNL A   1      42.425  35.327  32.818  1.00  0.00     0.029 A 
ATOM     57  N   UNL A   1      43.504  36.808  34.104  1.00  0.00    -0.354 N 
ATOM     58  C   UNL A   1      42.600  37.188  38.308  1.00  0.00     0.074 A 
ATOM     59  C   UNL A   1      41.575  36.247  38.706  1.00  0.00     0.031 C 
ATOM     60  C   UNL A   1      43.276  36.007  32.030  1.00  0.00     0.029 A 
ATOM     61  C   UNL A   1      43.956  37.030  32.823  1.00  0.00     0.049 A 
ATOM     62  H   UNL A   1      43.846  37.293  34.889  1.00  0.00     0.167 HD
ATOM     63  C   UNL A   1      43.200  38.060  39.152  1.00  0.00     0.034 A 
ATOM     64  C   UNL A   1      44.792  37.974  32.344  1.00  0.00     0.034 A 
ATOM     65  C   UNL A   1      44.223  38.989  38.757  1.00  0.00     0.049 A 
ATOM     66  C   UNL A   1      45.408  38.971  33.295  1.00  0.00     0.074 A 
ATOM     67  C   UNL A   1      44.924  39.879  39.549  1.00  0.00     0.029 A 
ATOM     68  N   UNL A   1      44.674  39.164  37.459  1.00  0.00    -0.354 N 
ATOM     69  N   UNL A   1      45.277  39.064  34.596  1.00  0.00    -0.248 NA
ATOM     70  C   UNL A   1      46.306  39.982  32.713  1.00  0.00     0.031 C 
ATOM     71  C   UNL A   1      45.771  40.624  38.722  1.00  0.00     0.029 A 
ATOM     72  C   UNL A   1      45.627  40.167  37.422  1.00  0.00     0.049 A 
ATOM     73  H   UNL A   1      44.363  38.652  36.678  1.00  0.00     0.167 HD
ATOM     74  C   UNL A   1      46.099  40.115  34.992  1.00  0.00     0.074 A 
ATOM     75  C   UNL A   1      46.739  40.618  33.794  1.00  0.00     0.031 C 
ATOM     76  C   UNL A   1      46.296  40.627  36.232  1.00  0.00     0.034 A 
BRANCH  63  77
ATOM     77  C   UNL A   1      42.764  38.050  40.593  1.00  0.00     0.023 A 
ATOM     78  C   UNL A   1      43.406  37.202  41.517  1.00  0.00     0.012 A 
ATOM     79  C   UNL A   1      41.750  38.920  41.042  1.00  0.00     0.148 A 
ATOM     80  C   UNL A   1      43.026  37.195  42.858  1.00  0.00     0.002 A 
ATOM     81  C   UNL A   1      41.408  38.943  42.387  1.00  0.00     0.091 A 
ATOM     82  F   UNL A   1      41.136  39.702  40.142  1.00  0.00    -0.205 F 
ATOM     83  C   UNL A   1      42.036  38.073  43.294  1.00  0.00     0.022 A 
BRANCH  81  84
ATOM     84  S   UNL A   1      40.203  40.090  43.062  1.00  0.00     0.127 S 
ATOM     85  O   UNL A   1      39.269  39.180  43.725  1.00  0.00    -0.237 OA
ATOM     86  O   UNL A   1      41.019  40.894  43.972  1.00  0.00    -0.237 OA
ATOM     87  O   UNL A   1      39.660  40.820  41.925  1.00  0.00    -0.744 OA
ENDBRANCH  81  84
ENDBRANCH  63  77
BRANCH  64  88
ATOM     88  C   UNL A   1      45.101  38.029  30.885  1.00  0.00     0.023 A 
ATOM     89  C   UNL A   1      46.247  37.375  30.390  1.00  0.00     0.012 A 
ATOM     90  C   UNL A   1      44.268  38.727  29.989  1.00  0.00     0.148 A 
ATOM     91  C   UNL A   1      46.573  37.442  29.035  1.00  0.00     0.002 A 
ATOM     92  C   UNL A   1      44.567  38.741  28.632  1.00  0.00     0.091 A 
ATOM     93  F   UNL A   1      43.194  39.360  30.482  1.00  0.00    -0.205 F 
ATOM     94  C   UNL A   1      45.729  38.116  28.155  1.00  0.00     0.022 A 
BRANCH  92  95
ATOM     95  S   UNL A   1      43.476  39.478  27.410  1.00  0.00     0.127 S 
ATOM     96  O   UNL A   1      44.377  39.658  26.274  1.00  0.00    -0.237 OA
ATOM     97  O   UNL A   1      42.470  38.429  27.237  1.00  0.00    -0.237 OA
ATOM     98  O   UNL A   1      42.973  40.702  28.016  1.00  0.00    -0.744 OA
ENDBRANCH  92  95
ENDBRANCH  64  88
BRANCH  76  99
ATOM     99  C   UNL A   1      47.272  41.767  36.384  1.00  0.00     0.023 A 
ATOM    100  C   UNL A   1      48.653  41.504  36.466  1.00  0.00     0.012 A 
ATOM    101  C   UNL A   1      46.824  43.103  36.343  1.00  0.00     0.148 A 
ATOM    102  C   UNL A   1      49.572  42.553  36.532  1.00  0.00     0.002 A 
ATOM    103  C   UNL A   1      47.747  44.141  36.358  1.00  0.00     0.091 A 
ATOM    104  F   UNL A   1      45.505  43.331  36.278  1.00  0.00    -0.205 F 
ATOM    105  C   UNL A   1      49.120  43.869  36.464  1.00  0.00     0.022 A 
BRANCH 103 106
ATOM    106  S   UNL A   1      47.269  45.865  36.177  1.00  0.00     0.127 S 
ATOM    107  O   UNL A   1      46.619  45.857  34.868  1.00  0.00    -0.237 OA
ATOM    108  O   UNL A   1      46.361  46.052  37.308  1.00  0.00    -0.237 OA
ATOM    109  O   UNL A   1      48.502  46.637  36.251  1.00  0.00    -0.744 OA
ENDBRANCH 103 106
ENDBRANCH  76  99
ENDBRANCH  50  51
ENDBRANCH  43  45
ENDBRANCH  42  43
ENDBRANCH  41  42
ENDBRANCH  40  41
ENDBRANCH  39  40
ENDBRANCH  38  39
ENDBRANCH  37  38
ENDBRANCH  36  37
ENDBRANCH  35  36
ENDBRANCH  34  35
ENDBRANCH   1  34
TORSDOF 33
ENDMDL
