MODEL 1
REMARK VINA RESULT:     -10.9      0.000      0.000
REMARK SMILES C[C@@H](C(=O)OCCOCCOCCOCCOC(=O)c1ccc(-c2c3nc(c(-c4cccc(S(=O)(=O)[O-])c4F)c4ccc([nH]4)c(-c4cccc(S(=O)(=O)[O-])c4F)c4nc(c(-c5cccc(S(=O)(=O)[O-])c5F)c5ccc2[nH]5)C=C4)C=C3)cc1)c1ccc(-c2ccc3[nH]ccc3c2)cc1
REMARK SMILES IDX 12 1 11 2 10 3 9 4 8 5 7 6 6 7 5 8 3 9 4 10 2 11 1 12 83 13
REMARK SMILES IDX 84 14 97 15 85 16 96 17 86 18 87 19 88 20 95 21 89 22 94 23
REMARK SMILES IDX 90 24 93 25 91 26 92 27 13 29 14 30 15 31 16 32 17 33 18 34
REMARK SMILES IDX 19 35 20 36 21 37 82 38 22 39 81 40 23 41 24 42 25 43 75 44
REMARK SMILES IDX 26 45 80 46 74 47 76 48 27 49 79 50 73 51 72 52 28 54 60 55
REMARK SMILES IDX 40 56 59 57 41 58 44 59 58 60 77 61 42 62 43 63 57 65 78 66
REMARK SMILES IDX 45 67 29 68 30 69 38 70 31 71 33 72 39 73 32 74 34 75 35 76
REMARK SMILES IDX 36 77 37 78 61 79 62 80 70 81 63 82 65 83 71 84 64 85 66 86
REMARK SMILES IDX 67 87 68 88 69 89 46 90 47 91 55 92 48 93 50 94 56 95 49 96
REMARK SMILES IDX 51 97 52 98 53 99 54 100
REMARK H PARENT 91 28 76 53 44 64
REMARK Flexibility Score: inf
ROOT
ATOM      1  C   UNL A   1      34.831  24.884  25.646  1.00  0.00     0.188 C 
ENDROOT
BRANCH   1   2
ATOM      2  O   UNL A   1      34.285  26.189  25.518  1.00  0.00    -0.377 OA
BRANCH   2   3
ATOM      3  C   UNL A   1      33.846  26.632  24.252  1.00  0.00     0.188 C 
BRANCH   3   4
ATOM      4  C   UNL A   1      33.415  28.103  24.169  1.00  0.00     0.188 C 
BRANCH   4   5
ATOM      5  O   UNL A   1      32.101  28.441  24.559  1.00  0.00    -0.376 OA
BRANCH   5   6
ATOM      6  C   UNL A   1      31.795  28.804  25.899  1.00  0.00     0.202 C 
BRANCH   6   7
ATOM      7  C   UNL A   1      31.345  27.847  27.024  1.00  0.00     0.261 C 
BRANCH   7   8
ATOM      8  O   UNL A   1      31.439  26.441  26.776  1.00  0.00    -0.463 OA
BRANCH   8   9
ATOM      9  C   UNL A   1      30.364  25.844  26.210  1.00  0.00     0.313 C 
ATOM     10  O   UNL A   1      29.295  25.681  26.789  1.00  0.00    -0.252 OA
BRANCH   9  11
ATOM     11  C   UNL A   1      30.585  25.463  24.731  1.00  0.00     0.126 C 
ATOM     12  C   UNL A   1      29.434  25.868  23.795  1.00  0.00     0.025 C 
BRANCH  11  13
ATOM     13  C   UNL A   1      31.136  24.037  24.585  1.00  0.00    -0.034 A 
ATOM     14  C   UNL A   1      31.495  23.602  23.298  1.00  0.00     0.005 A 
ATOM     15  C   UNL A   1      31.301  23.124  25.640  1.00  0.00     0.005 A 
ATOM     16  C   UNL A   1      32.022  22.331  23.073  1.00  0.00     0.009 A 
ATOM     17  C   UNL A   1      31.825  21.837  25.412  1.00  0.00     0.009 A 
ATOM     18  C   UNL A   1      32.192  21.426  24.125  1.00  0.00    -0.018 A 
BRANCH  18  19
ATOM     19  C   UNL A   1      32.701  20.083  23.832  1.00  0.00    -0.018 A 
ATOM     20  C   UNL A   1      32.164  19.325  22.781  1.00  0.00     0.011 A 
ATOM     21  C   UNL A   1      33.645  19.489  24.693  1.00  0.00     0.019 A 
ATOM     22  C   UNL A   1      32.552  17.999  22.552  1.00  0.00     0.027 A 
ATOM     23  C   UNL A   1      33.999  18.137  24.523  1.00  0.00    -0.000 A 
ATOM     24  C   UNL A   1      33.465  17.432  23.445  1.00  0.00     0.045 A 
ATOM     25  C   UNL A   1      34.794  17.223  25.268  1.00  0.00     0.028 A 
ATOM     26  N   UNL A   1      33.995  16.162  23.492  1.00  0.00    -0.361 N 
ATOM     27  C   UNL A   1      34.744  16.005  24.628  1.00  0.00     0.083 A 
ATOM     28  H   UNL A   1      33.856  15.467  22.808  1.00  0.00     0.166 HD
ENDBRANCH  18  19
ENDBRANCH  11  13
ENDBRANCH   9  11
ENDBRANCH   8   9
ENDBRANCH   7   8
ENDBRANCH   6   7
ENDBRANCH   5   6
ENDBRANCH   4   5
ENDBRANCH   3   4
ENDBRANCH   2   3
ENDBRANCH   1   2
BRANCH   1  29
ATOM     29  C   UNL A   1      35.066  23.999  24.405  1.00  0.00     0.188 C 
BRANCH  29  30
ATOM     30  O   UNL A   1      36.178  23.120  24.489  1.00  0.00    -0.376 OA
BRANCH  30  31
ATOM     31  C   UNL A   1      36.062  21.953  25.287  1.00  0.00     0.202 C 
BRANCH  31  32
ATOM     32  C   UNL A   1      37.279  21.017  25.368  1.00  0.00     0.261 C 
BRANCH  32  33
ATOM     33  O   UNL A   1      38.568  21.634  25.222  1.00  0.00    -0.460 OA
BRANCH  33  34
ATOM     34  C   UNL A   1      39.487  21.416  26.185  1.00  0.00     0.338 C 
ATOM     35  O   UNL A   1      40.066  20.368  26.423  1.00  0.00    -0.246 OA
BRANCH  34  36
ATOM     36  C   UNL A   1      39.832  22.720  26.784  1.00  0.00     0.060 A 
ATOM     37  C   UNL A   1      39.117  23.858  26.387  1.00  0.00     0.016 A 
ATOM     38  C   UNL A   1      40.851  22.820  27.734  1.00  0.00     0.016 A 
ATOM     39  C   UNL A   1      39.450  25.109  26.906  1.00  0.00     0.010 A 
ATOM     40  C   UNL A   1      41.198  24.077  28.237  1.00  0.00     0.010 A 
ATOM     41  C   UNL A   1      40.525  25.231  27.795  1.00  0.00    -0.014 A 
BRANCH  41  42
ATOM     42  C   UNL A   1      41.074  26.573  28.103  1.00  0.00     0.031 A 
ATOM     43  C   UNL A   1      42.507  26.858  27.741  1.00  0.00     0.074 A 
ATOM     44  C   UNL A   1      40.322  27.524  28.686  1.00  0.00     0.049 A 
ATOM     45  N   UNL A   1      43.219  27.932  27.954  1.00  0.00    -0.248 NA
ATOM     46  C   UNL A   1      43.233  25.782  27.046  1.00  0.00     0.031 C 
ATOM     47  C   UNL A   1      38.920  27.377  29.071  1.00  0.00     0.029 A 
ATOM     48  N   UNL A   1      40.650  28.798  29.081  1.00  0.00    -0.354 N 
ATOM     49  C   UNL A   1      44.483  27.652  27.450  1.00  0.00     0.074 A 
ATOM     50  C   UNL A   1      44.445  26.302  26.932  1.00  0.00     0.031 C 
ATOM     51  C   UNL A   1      38.516  28.506  29.681  1.00  0.00     0.029 A 
ATOM     52  C   UNL A   1      39.638  29.440  29.755  1.00  0.00     0.049 A 
ATOM     53  H   UNL A   1      41.525  29.211  28.899  1.00  0.00     0.167 HD
ATOM     54  C   UNL A   1      45.577  28.450  27.409  1.00  0.00     0.034 A 
ATOM     55  C   UNL A   1      39.632  30.632  30.386  1.00  0.00     0.034 A 
ATOM     56  C   UNL A   1      45.612  29.794  27.918  1.00  0.00     0.049 A 
ATOM     57  C   UNL A   1      40.873  31.487  30.364  1.00  0.00     0.074 A 
ATOM     58  C   UNL A   1      46.660  30.695  27.892  1.00  0.00     0.029 A 
ATOM     59  N   UNL A   1      44.558  30.422  28.562  1.00  0.00    -0.354 N 
ATOM     60  N   UNL A   1      42.030  31.251  29.794  1.00  0.00    -0.248 NA
ATOM     61  C   UNL A   1      40.798  32.789  31.045  1.00  0.00     0.031 C 
ATOM     62  C   UNL A   1      46.253  31.857  28.556  1.00  0.00     0.029 A 
ATOM     63  C   UNL A   1      44.935  31.696  28.952  1.00  0.00     0.049 A 
ATOM     64  H   UNL A   1      43.672  30.023  28.719  1.00  0.00     0.167 HD
ATOM     65  C   UNL A   1      42.805  32.387  30.013  1.00  0.00     0.074 A 
ATOM     66  C   UNL A   1      41.978  33.318  30.752  1.00  0.00     0.031 C 
ATOM     67  C   UNL A   1      44.087  32.633  29.644  1.00  0.00     0.034 A 
BRANCH  54  68
ATOM     68  C   UNL A   1      46.827  27.889  26.783  1.00  0.00     0.023 A 
ATOM     69  C   UNL A   1      47.778  27.226  27.587  1.00  0.00     0.012 A 
ATOM     70  C   UNL A   1      47.040  27.978  25.394  1.00  0.00     0.148 A 
ATOM     71  C   UNL A   1      48.937  26.693  27.023  1.00  0.00     0.002 A 
ATOM     72  C   UNL A   1      48.171  27.401  24.832  1.00  0.00     0.091 A 
ATOM     73  F   UNL A   1      46.135  28.630  24.651  1.00  0.00    -0.205 F 
ATOM     74  C   UNL A   1      49.128  26.770  25.646  1.00  0.00     0.022 A 
BRANCH  72  75
ATOM     75  S   UNL A   1      48.469  27.376  23.061  1.00  0.00     0.127 S 
ATOM     76  O   UNL A   1      48.362  25.947  22.765  1.00  0.00    -0.237 OA
ATOM     77  O   UNL A   1      47.363  28.188  22.555  1.00  0.00    -0.237 OA
ATOM     78  O   UNL A   1      49.790  27.955  22.865  1.00  0.00    -0.744 OA
ENDBRANCH  72  75
ENDBRANCH  54  68
BRANCH  55  79
ATOM     79  C   UNL A   1      38.402  31.097  31.092  1.00  0.00     0.023 A 
ATOM     80  C   UNL A   1      38.275  30.904  32.481  1.00  0.00     0.012 A 
ATOM     81  C   UNL A   1      37.358  31.728  30.387  1.00  0.00     0.148 A 
ATOM     82  C   UNL A   1      37.115  31.301  33.151  1.00  0.00     0.002 A 
ATOM     83  C   UNL A   1      36.232  32.173  31.070  1.00  0.00     0.091 A 
ATOM     84  F   UNL A   1      37.490  31.886  29.063  1.00  0.00    -0.205 F 
ATOM     85  C   UNL A   1      36.099  31.943  32.447  1.00  0.00     0.022 A 
BRANCH  83  86
ATOM     86  S   UNL A   1      34.931  33.120  30.271  1.00  0.00     0.127 S 
ATOM     87  O   UNL A   1      34.401  32.154  29.314  1.00  0.00    -0.237 OA
ATOM     88  O   UNL A   1      34.048  33.422  31.398  1.00  0.00    -0.237 OA
ATOM     89  O   UNL A   1      35.589  34.285  29.692  1.00  0.00    -0.744 OA
ENDBRANCH  83  86
ENDBRANCH  55  79
BRANCH  67  90
ATOM     90  C   UNL A   1      44.669  33.983  29.980  1.00  0.00     0.023 A 
ATOM     91  C   UNL A   1      45.281  34.201  31.230  1.00  0.00     0.012 A 
ATOM     92  C   UNL A   1      44.677  35.014  29.018  1.00  0.00     0.148 A 
ATOM     93  C   UNL A   1      45.856  35.435  31.532  1.00  0.00     0.002 A 
ATOM     94  C   UNL A   1      45.300  36.222  29.306  1.00  0.00     0.091 A 
ATOM     95  F   UNL A   1      44.079  34.793  27.839  1.00  0.00    -0.205 F 
ATOM     96  C   UNL A   1      45.877  36.439  30.568  1.00  0.00     0.022 A 
BRANCH  94  97
ATOM     97  S   UNL A   1      45.465  37.537  28.092  1.00  0.00     0.127 S 
ATOM     98  O   UNL A   1      44.393  38.446  28.492  1.00  0.00    -0.237 OA
ATOM     99  O   UNL A   1      46.815  38.033  28.356  1.00  0.00    -0.237 OA
ATOM    100  O   UNL A   1      45.294  36.908  26.790  1.00  0.00    -0.744 OA
ENDBRANCH  94  97
ENDBRANCH  67  90
ENDBRANCH  41  42
ENDBRANCH  34  36
ENDBRANCH  33  34
ENDBRANCH  32  33
ENDBRANCH  31  32
ENDBRANCH  30  31
ENDBRANCH  29  30
ENDBRANCH   1  29
TORSDOF 25
ENDMDL
MODEL 2
REMARK VINA RESULT:     -10.8      4.784      9.857
REMARK SMILES C[C@@H](C(=O)OCCOCCOCCOCCOC(=O)c1ccc(-c2c3nc(c(-c4cccc(S(=O)(=O)[O-])c4F)c4ccc([nH]4)c(-c4cccc(S(=O)(=O)[O-])c4F)c4nc(c(-c5cccc(S(=O)(=O)[O-])c5F)c5ccc2[nH]5)C=C4)C=C3)cc1)c1ccc(-c2ccc3[nH]ccc3c2)cc1
REMARK SMILES IDX 12 1 11 2 10 3 9 4 8 5 7 6 6 7 5 8 3 9 4 10 2 11 1 12 83 13
REMARK SMILES IDX 84 14 97 15 85 16 96 17 86 18 87 19 88 20 95 21 89 22 94 23
REMARK SMILES IDX 90 24 93 25 91 26 92 27 13 29 14 30 15 31 16 32 17 33 18 34
REMARK SMILES IDX 19 35 20 36 21 37 82 38 22 39 81 40 23 41 24 42 25 43 75 44
REMARK SMILES IDX 26 45 80 46 74 47 76 48 27 49 79 50 73 51 72 52 28 54 60 55
REMARK SMILES IDX 40 56 59 57 41 58 44 59 58 60 77 61 42 62 43 63 57 65 78 66
REMARK SMILES IDX 45 67 29 68 30 69 38 70 31 71 33 72 39 73 32 74 34 75 35 76
REMARK SMILES IDX 36 77 37 78 61 79 62 80 70 81 63 82 65 83 71 84 64 85 66 86
REMARK SMILES IDX 67 87 68 88 69 89 46 90 47 91 55 92 48 93 50 94 56 95 49 96
REMARK SMILES IDX 51 97 52 98 53 99 54 100
REMARK H PARENT 91 28 76 53 44 64
REMARK Flexibility Score: inf
ROOT
ATOM      1  C   UNL A   1      32.364  28.729  25.886  1.00  0.00     0.188 C 
ENDROOT
BRANCH   1   2
ATOM      2  O   UNL A   1      31.121  28.904  25.222  1.00  0.00    -0.377 OA
BRANCH   2   3
ATOM      3  C   UNL A   1      31.087  29.607  23.998  1.00  0.00     0.188 C 
BRANCH   3   4
ATOM      4  C   UNL A   1      29.784  29.492  23.196  1.00  0.00     0.188 C 
BRANCH   4   5
ATOM      5  O   UNL A   1      29.675  28.463  22.235  1.00  0.00    -0.376 OA
BRANCH   5   6
ATOM      6  C   UNL A   1      30.617  27.401  22.174  1.00  0.00     0.202 C 
BRANCH   6   7
ATOM      7  C   UNL A   1      30.683  26.184  23.122  1.00  0.00     0.261 C 
BRANCH   7   8
ATOM      8  O   UNL A   1      31.212  24.962  22.596  1.00  0.00    -0.463 OA
BRANCH   8   9
ATOM      9  C   UNL A   1      32.559  24.832  22.580  1.00  0.00     0.313 C 
ATOM     10  O   UNL A   1      33.253  25.069  21.596  1.00  0.00    -0.252 OA
BRANCH   9  11
ATOM     11  C   UNL A   1      33.151  24.440  23.950  1.00  0.00     0.126 C 
ATOM     12  C   UNL A   1      34.390  25.251  24.360  1.00  0.00     0.025 C 
BRANCH  11  13
ATOM     13  C   UNL A   1      33.224  22.916  24.125  1.00  0.00    -0.034 A 
ATOM     14  C   UNL A   1      34.077  22.410  25.120  1.00  0.00     0.005 A 
ATOM     15  C   UNL A   1      32.510  21.981  23.357  1.00  0.00     0.005 A 
ATOM     16  C   UNL A   1      34.192  21.042  25.363  1.00  0.00     0.009 A 
ATOM     17  C   UNL A   1      32.632  20.599  23.595  1.00  0.00     0.009 A 
ATOM     18  C   UNL A   1      33.476  20.114  24.603  1.00  0.00    -0.018 A 
BRANCH  18  19
ATOM     19  C   UNL A   1      33.669  18.684  24.860  1.00  0.00    -0.018 A 
ATOM     20  C   UNL A   1      34.826  18.024  24.418  1.00  0.00     0.011 A 
ATOM     21  C   UNL A   1      32.629  17.929  25.437  1.00  0.00     0.019 A 
ATOM     22  C   UNL A   1      34.984  16.639  24.549  1.00  0.00     0.027 A 
ATOM     23  C   UNL A   1      32.737  16.527  25.517  1.00  0.00    -0.000 A 
ATOM     24  C   UNL A   1      33.918  15.919  25.095  1.00  0.00     0.045 A 
ATOM     25  C   UNL A   1      31.848  15.489  25.909  1.00  0.00     0.028 A 
ATOM     26  N   UNL A   1      33.775  14.566  25.313  1.00  0.00    -0.361 N 
ATOM     27  C   UNL A   1      32.503  14.290  25.739  1.00  0.00     0.083 A 
ATOM     28  H   UNL A   1      34.484  13.896  25.182  1.00  0.00     0.166 HD
ENDBRANCH  18  19
ENDBRANCH  11  13
ENDBRANCH   9  11
ENDBRANCH   8   9
ENDBRANCH   7   8
ENDBRANCH   6   7
ENDBRANCH   5   6
ENDBRANCH   4   5
ENDBRANCH   3   4
ENDBRANCH   2   3
ENDBRANCH   1   2
BRANCH   1  29
ATOM     29  C   UNL A   1      33.173  29.943  26.387  1.00  0.00     0.188 C 
BRANCH  29  30
ATOM     30  O   UNL A   1      32.475  30.816  27.263  1.00  0.00    -0.376 OA
BRANCH  30  31
ATOM     31  C   UNL A   1      31.795  31.932  26.710  1.00  0.00     0.202 C 
BRANCH  31  32
ATOM     32  C   UNL A   1      32.161  33.328  27.240  1.00  0.00     0.261 C 
BRANCH  32  33
ATOM     33  O   UNL A   1      33.126  33.373  28.302  1.00  0.00    -0.460 OA
BRANCH  33  34
ATOM     34  C   UNL A   1      34.277  34.043  28.084  1.00  0.00     0.338 C 
ATOM     35  O   UNL A   1      34.396  35.225  27.805  1.00  0.00    -0.246 OA
BRANCH  34  36
ATOM     36  C   UNL A   1      35.395  33.147  28.440  1.00  0.00     0.060 A 
ATOM     37  C   UNL A   1      35.108  31.883  28.971  1.00  0.00     0.016 A 
ATOM     38  C   UNL A   1      36.719  33.550  28.247  1.00  0.00     0.016 A 
ATOM     39  C   UNL A   1      36.145  31.033  29.354  1.00  0.00     0.010 A 
ATOM     40  C   UNL A   1      37.758  32.706  28.651  1.00  0.00     0.010 A 
ATOM     41  C   UNL A   1      37.474  31.461  29.242  1.00  0.00    -0.014 A 
BRANCH  41  42
ATOM     42  C   UNL A   1      38.550  30.703  29.925  1.00  0.00     0.031 A 
ATOM     43  C   UNL A   1      38.859  31.039  31.359  1.00  0.00     0.074 A 
ATOM     44  C   UNL A   1      39.237  29.734  29.294  1.00  0.00     0.049 A 
ATOM     45  N   UNL A   1      39.781  30.551  32.146  1.00  0.00    -0.248 NA
ATOM     46  C   UNL A   1      38.012  32.066  31.989  1.00  0.00     0.031 C 
ATOM     47  C   UNL A   1      39.023  29.306  27.914  1.00  0.00     0.029 A 
ATOM     48  N   UNL A   1      40.278  28.954  29.733  1.00  0.00    -0.354 N 
ATOM     49  C   UNL A   1      39.648  31.232  33.350  1.00  0.00     0.074 A 
ATOM     50  C   UNL A   1      38.564  32.176  33.187  1.00  0.00     0.031 C 
ATOM     51  C   UNL A   1      39.931  28.363  27.606  1.00  0.00     0.029 A 
ATOM     52  C   UNL A   1      40.806  28.144  28.756  1.00  0.00     0.049 A 
ATOM     53  H   UNL A   1      40.614  28.972  30.658  1.00  0.00     0.167 HD
ATOM     54  C   UNL A   1      40.355  31.078  34.495  1.00  0.00     0.034 A 
ATOM     55  C   UNL A   1      41.891  27.343  28.779  1.00  0.00     0.034 A 
ATOM     56  C   UNL A   1      41.427  30.135  34.658  1.00  0.00     0.049 A 
ATOM     57  C   UNL A   1      42.689  27.218  30.052  1.00  0.00     0.074 A 
ATOM     58  C   UNL A   1      42.181  29.878  35.788  1.00  0.00     0.029 A 
ATOM     59  N   UNL A   1      41.911  29.308  33.656  1.00  0.00    -0.354 N 
ATOM     60  N   UNL A   1      42.489  27.792  31.214  1.00  0.00    -0.248 NA
ATOM     61  C   UNL A   1      43.845  26.309  30.027  1.00  0.00     0.031 C 
ATOM     62  C   UNL A   1      43.148  28.923  35.459  1.00  0.00     0.029 A 
ATOM     63  C   UNL A   1      42.964  28.549  34.137  1.00  0.00     0.049 A 
ATOM     64  H   UNL A   1      41.558  29.265  32.738  1.00  0.00     0.167 HD
ATOM     65  C   UNL A   1      43.466  27.285  32.066  1.00  0.00     0.074 A 
ATOM     66  C   UNL A   1      44.246  26.343  31.291  1.00  0.00     0.031 C 
ATOM     67  C   UNL A   1      43.702  27.578  33.370  1.00  0.00     0.034 A 
BRANCH  54  68
ATOM     68  C   UNL A   1      39.984  31.948  35.667  1.00  0.00     0.023 A 
ATOM     69  C   UNL A   1      40.631  33.187  35.855  1.00  0.00     0.012 A 
ATOM     70  C   UNL A   1      38.962  31.561  36.556  1.00  0.00     0.148 A 
ATOM     71  C   UNL A   1      40.292  34.009  36.930  1.00  0.00     0.002 A 
ATOM     72  C   UNL A   1      38.596  32.407  37.595  1.00  0.00     0.091 A 
ATOM     73  F   UNL A   1      38.374  30.371  36.373  1.00  0.00    -0.205 F 
ATOM     74  C   UNL A   1      39.269  33.624  37.792  1.00  0.00     0.022 A 
BRANCH  72  75
ATOM     75  S   UNL A   1      37.237  32.041  38.710  1.00  0.00     0.127 S 
ATOM     76  O   UNL A   1      37.787  32.471  39.995  1.00  0.00    -0.237 OA
ATOM     77  O   UNL A   1      36.173  32.896  38.185  1.00  0.00    -0.237 OA
ATOM     78  O   UNL A   1      36.987  30.613  38.587  1.00  0.00    -0.744 OA
ENDBRANCH  72  75
ENDBRANCH  54  68
BRANCH  55  79
ATOM     79  C   UNL A   1      42.288  26.587  27.556  1.00  0.00     0.023 A 
ATOM     80  C   UNL A   1      42.926  27.256  26.494  1.00  0.00     0.012 A 
ATOM     81  C   UNL A   1      42.033  25.206  27.444  1.00  0.00     0.148 A 
ATOM     82  C   UNL A   1      43.272  26.570  25.327  1.00  0.00     0.002 A 
ATOM     83  C   UNL A   1      42.433  24.518  26.305  1.00  0.00     0.091 A 
ATOM     84  F   UNL A   1      41.410  24.591  28.459  1.00  0.00    -0.205 F 
ATOM     85  C   UNL A   1      43.035  25.201  25.237  1.00  0.00     0.022 A 
BRANCH  83  86
ATOM     86  S   UNL A   1      42.283  22.735  26.152  1.00  0.00     0.127 S 
ATOM     87  O   UNL A   1      42.869  22.496  24.837  1.00  0.00    -0.237 OA
ATOM     88  O   UNL A   1      43.089  22.270  27.281  1.00  0.00    -0.237 OA
ATOM     89  O   UNL A   1      40.859  22.446  26.270  1.00  0.00    -0.744 OA
ENDBRANCH  83  86
ENDBRANCH  55  79
BRANCH  67  90
ATOM     90  C   UNL A   1      44.814  26.838  34.068  1.00  0.00     0.023 A 
ATOM     91  C   UNL A   1      46.127  27.351  34.054  1.00  0.00     0.012 A 
ATOM     92  C   UNL A   1      44.539  25.669  34.806  1.00  0.00     0.148 A 
ATOM     93  C   UNL A   1      47.152  26.692  34.732  1.00  0.00     0.002 A 
ATOM     94  C   UNL A   1      45.554  25.048  35.522  1.00  0.00     0.091 A 
ATOM     95  F   UNL A   1      43.287  25.187  34.795  1.00  0.00    -0.205 F 
ATOM     96  C   UNL A   1      46.865  25.550  35.474  1.00  0.00     0.022 A 
BRANCH  94  97
ATOM     97  S   UNL A   1      45.258  23.631  36.587  1.00  0.00     0.127 S 
ATOM     98  O   UNL A   1      44.515  22.740  35.696  1.00  0.00    -0.237 OA
ATOM     99  O   UNL A   1      46.617  23.188  36.897  1.00  0.00    -0.237 OA
ATOM    100  O   UNL A   1      44.509  24.135  37.729  1.00  0.00    -0.744 OA
ENDBRANCH  94  97
ENDBRANCH  67  90
ENDBRANCH  41  42
ENDBRANCH  34  36
ENDBRANCH  33  34
ENDBRANCH  32  33
ENDBRANCH  31  32
ENDBRANCH  30  31
ENDBRANCH  29  30
ENDBRANCH   1  29
TORSDOF 25
ENDMDL
MODEL 3
REMARK VINA RESULT:     -10.6      1.553      7.511
REMARK SMILES C[C@@H](C(=O)OCCOCCOCCOCCOC(=O)c1ccc(-c2c3nc(c(-c4cccc(S(=O)(=O)[O-])c4F)c4ccc([nH]4)c(-c4cccc(S(=O)(=O)[O-])c4F)c4nc(c(-c5cccc(S(=O)(=O)[O-])c5F)c5ccc2[nH]5)C=C4)C=C3)cc1)c1ccc(-c2ccc3[nH]ccc3c2)cc1
REMARK SMILES IDX 12 1 11 2 10 3 9 4 8 5 7 6 6 7 5 8 3 9 4 10 2 11 1 12 83 13
REMARK SMILES IDX 84 14 97 15 85 16 96 17 86 18 87 19 88 20 95 21 89 22 94 23
REMARK SMILES IDX 90 24 93 25 91 26 92 27 13 29 14 30 15 31 16 32 17 33 18 34
REMARK SMILES IDX 19 35 20 36 21 37 82 38 22 39 81 40 23 41 24 42 25 43 75 44
REMARK SMILES IDX 26 45 80 46 74 47 76 48 27 49 79 50 73 51 72 52 28 54 60 55
REMARK SMILES IDX 40 56 59 57 41 58 44 59 58 60 77 61 42 62 43 63 57 65 78 66
REMARK SMILES IDX 45 67 29 68 30 69 38 70 31 71 33 72 39 73 32 74 34 75 35 76
REMARK SMILES IDX 36 77 37 78 61 79 62 80 70 81 63 82 65 83 71 84 64 85 66 86
REMARK SMILES IDX 67 87 68 88 69 89 46 90 47 91 55 92 48 93 50 94 56 95 49 96
REMARK SMILES IDX 51 97 52 98 53 99 54 100
REMARK H PARENT 91 28 76 53 44 64
REMARK Flexibility Score: inf
ROOT
ATOM      1  C   UNL A   1      37.299  23.100  24.748  1.00  0.00     0.188 C 
ENDROOT
BRANCH   1   2
ATOM      2  O   UNL A   1      36.531  24.120  25.370  1.00  0.00    -0.377 OA
BRANCH   2   3
ATOM      3  C   UNL A   1      35.258  24.438  24.850  1.00  0.00     0.188 C 
BRANCH   3   4
ATOM      4  C   UNL A   1      34.364  25.304  25.748  1.00  0.00     0.188 C 
BRANCH   4   5
ATOM      5  O   UNL A   1      33.603  26.331  25.148  1.00  0.00    -0.376 OA
BRANCH   5   6
ATOM      6  C   UNL A   1      33.748  27.689  25.541  1.00  0.00     0.202 C 
BRANCH   6   7
ATOM      7  C   UNL A   1      32.890  28.877  25.054  1.00  0.00     0.261 C 
BRANCH   7   8
ATOM      8  O   UNL A   1      31.624  28.579  24.457  1.00  0.00    -0.463 OA
BRANCH   8   9
ATOM      9  C   UNL A   1      31.641  27.953  23.258  1.00  0.00     0.313 C 
ATOM     10  O   UNL A   1      32.514  28.126  22.414  1.00  0.00    -0.252 OA
BRANCH   9  11
ATOM     11  C   UNL A   1      30.499  26.929  23.087  1.00  0.00     0.126 C 
ATOM     12  C   UNL A   1      29.128  27.421  23.580  1.00  0.00     0.025 C 
BRANCH  11  13
ATOM     13  C   UNL A   1      30.930  25.518  23.513  1.00  0.00    -0.034 A 
ATOM     14  C   UNL A   1      31.744  24.787  22.632  1.00  0.00     0.005 A 
ATOM     15  C   UNL A   1      30.563  24.891  24.716  1.00  0.00     0.005 A 
ATOM     16  C   UNL A   1      32.200  23.506  22.943  1.00  0.00     0.009 A 
ATOM     17  C   UNL A   1      31.015  23.594  25.027  1.00  0.00     0.009 A 
ATOM     18  C   UNL A   1      31.839  22.887  24.143  1.00  0.00    -0.018 A 
BRANCH  18  19
ATOM     19  C   UNL A   1      32.300  21.520  24.404  1.00  0.00    -0.018 A 
ATOM     20  C   UNL A   1      33.011  21.214  25.574  1.00  0.00     0.011 A 
ATOM     21  C   UNL A   1      32.148  20.529  23.416  1.00  0.00     0.019 A 
ATOM     22  C   UNL A   1      33.560  19.945  25.795  1.00  0.00     0.027 A 
ATOM     23  C   UNL A   1      32.749  19.267  23.586  1.00  0.00    -0.000 A 
ATOM     24  C   UNL A   1      33.418  18.996  24.779  1.00  0.00     0.045 A 
ATOM     25  C   UNL A   1      32.897  18.123  22.754  1.00  0.00     0.028 A 
ATOM     26  N   UNL A   1      33.874  17.699  24.699  1.00  0.00    -0.361 N 
ATOM     27  C   UNL A   1      33.624  17.187  23.454  1.00  0.00     0.083 A 
ATOM     28  H   UNL A   1      34.315  17.211  25.433  1.00  0.00     0.166 HD
ENDBRANCH  18  19
ENDBRANCH  11  13
ENDBRANCH   9  11
ENDBRANCH   8   9
ENDBRANCH   7   8
ENDBRANCH   6   7
ENDBRANCH   5   6
ENDBRANCH   4   5
ENDBRANCH   3   4
ENDBRANCH   2   3
ENDBRANCH   1   2
BRANCH   1  29
ATOM     29  C   UNL A   1      36.626  21.829  24.191  1.00  0.00     0.188 C 
BRANCH  29  30
ATOM     30  O   UNL A   1      37.212  20.602  24.603  1.00  0.00    -0.376 OA
BRANCH  30  31
ATOM     31  C   UNL A   1      38.364  20.645  25.430  1.00  0.00     0.202 C 
BRANCH  31  32
ATOM     32  C   UNL A   1      39.318  19.439  25.392  1.00  0.00     0.261 C 
BRANCH  32  33
ATOM     33  O   UNL A   1      40.327  19.393  26.413  1.00  0.00    -0.460 OA
BRANCH  33  34
ATOM     34  C   UNL A   1      41.584  19.749  26.077  1.00  0.00     0.338 C 
ATOM     35  O   UNL A   1      42.376  19.102  25.411  1.00  0.00    -0.246 OA
BRANCH  34  36
ATOM     36  C   UNL A   1      41.779  21.156  26.482  1.00  0.00     0.060 A 
ATOM     37  C   UNL A   1      41.625  22.164  25.522  1.00  0.00     0.016 A 
ATOM     38  C   UNL A   1      42.108  21.477  27.801  1.00  0.00     0.016 A 
ATOM     39  C   UNL A   1      41.845  23.497  25.868  1.00  0.00     0.010 A 
ATOM     40  C   UNL A   1      42.349  22.811  28.141  1.00  0.00     0.010 A 
ATOM     41  C   UNL A   1      42.256  23.822  27.167  1.00  0.00    -0.014 A 
BRANCH  41  42
ATOM     42  C   UNL A   1      42.785  25.178  27.452  1.00  0.00     0.031 A 
ATOM     43  C   UNL A   1      41.870  26.176  28.109  1.00  0.00     0.074 A 
ATOM     44  C   UNL A   1      44.049  25.519  27.143  1.00  0.00     0.049 A 
ATOM     45  N   UNL A   1      42.088  27.428  28.411  1.00  0.00    -0.248 NA
ATOM     46  C   UNL A   1      40.527  25.694  28.472  1.00  0.00     0.031 C 
ATOM     47  C   UNL A   1      45.035  24.640  26.520  1.00  0.00     0.029 A 
ATOM     48  N   UNL A   1      44.706  26.716  27.289  1.00  0.00    -0.354 N 
ATOM     49  C   UNL A   1      40.903  27.893  28.968  1.00  0.00     0.074 A 
ATOM     50  C   UNL A   1      39.964  26.792  28.952  1.00  0.00     0.031 C 
ATOM     51  C   UNL A   1      46.164  25.338  26.304  1.00  0.00     0.029 A 
ATOM     52  C   UNL A   1      45.968  26.718  26.746  1.00  0.00     0.049 A 
ATOM     53  H   UNL A   1      44.312  27.497  27.741  1.00  0.00     0.167 HD
ATOM     54  C   UNL A   1      40.622  29.122  29.463  1.00  0.00     0.034 A 
ATOM     55  C   UNL A   1      46.851  27.727  26.594  1.00  0.00     0.034 A 
ATOM     56  C   UNL A   1      41.557  30.213  29.485  1.00  0.00     0.049 A 
ATOM     57  C   UNL A   1      46.502  29.098  27.114  1.00  0.00     0.074 A 
ATOM     58  C   UNL A   1      41.381  31.486  29.996  1.00  0.00     0.029 A 
ATOM     59  N   UNL A   1      42.837  30.167  28.956  1.00  0.00    -0.354 N 
ATOM     60  N   UNL A   1      45.415  29.496  27.731  1.00  0.00    -0.248 NA
ATOM     61  C   UNL A   1      47.513  30.152  26.946  1.00  0.00     0.031 C 
ATOM     62  C   UNL A   1      42.541  32.223  29.741  1.00  0.00     0.029 A 
ATOM     63  C   UNL A   1      43.459  31.395  29.115  1.00  0.00     0.049 A 
ATOM     64  H   UNL A   1      43.246  29.379  28.531  1.00  0.00     0.167 HD
ATOM     65  C   UNL A   1      45.629  30.832  28.059  1.00  0.00     0.074 A 
ATOM     66  C   UNL A   1      46.956  31.170  27.588  1.00  0.00     0.031 C 
ATOM     67  C   UNL A   1      44.799  31.704  28.686  1.00  0.00     0.034 A 
BRANCH  54  68
ATOM     68  C   UNL A   1      39.244  29.349  30.028  1.00  0.00     0.023 A 
ATOM     69  C   UNL A   1      38.952  28.948  31.349  1.00  0.00     0.012 A 
ATOM     70  C   UNL A   1      38.253  30.000  29.269  1.00  0.00     0.148 A 
ATOM     71  C   UNL A   1      37.684  29.160  31.890  1.00  0.00     0.002 A 
ATOM     72  C   UNL A   1      37.008  30.252  29.832  1.00  0.00     0.091 A 
ATOM     73  F   UNL A   1      38.543  30.354  28.009  1.00  0.00    -0.205 F 
ATOM     74  C   UNL A   1      36.717  29.821  31.137  1.00  0.00     0.022 A 
BRANCH  72  75
ATOM     75  S   UNL A   1      35.723  31.167  28.974  1.00  0.00     0.127 S 
ATOM     76  O   UNL A   1      34.939  31.691  30.092  1.00  0.00    -0.237 OA
ATOM     77  O   UNL A   1      36.498  32.173  28.248  1.00  0.00    -0.237 OA
ATOM     78  O   UNL A   1      35.035  30.202  28.130  1.00  0.00    -0.744 OA
ENDBRANCH  72  75
ENDBRANCH  54  68
BRANCH  55  79
ATOM     79  C   UNL A   1      48.160  27.479  25.923  1.00  0.00     0.023 A 
ATOM     80  C   UNL A   1      49.296  27.172  26.695  1.00  0.00     0.012 A 
ATOM     81  C   UNL A   1      48.280  27.550  24.521  1.00  0.00     0.148 A 
ATOM     82  C   UNL A   1      50.537  26.972  26.086  1.00  0.00     0.002 A 
ATOM     83  C   UNL A   1      49.505  27.292  23.918  1.00  0.00     0.091 A 
ATOM     84  F   UNL A   1      47.190  27.861  23.805  1.00  0.00    -0.205 F 
ATOM     85  C   UNL A   1      50.639  27.023  24.698  1.00  0.00     0.022 A 
BRANCH  83  86
ATOM     86  S   UNL A   1      49.704  27.212  22.134  1.00  0.00     0.127 S 
ATOM     87  O   UNL A   1      49.501  28.604  21.746  1.00  0.00    -0.237 OA
ATOM     88  O   UNL A   1      51.080  26.730  22.010  1.00  0.00    -0.237 OA
ATOM     89  O   UNL A   1      48.692  26.273  21.665  1.00  0.00    -0.744 OA
ENDBRANCH  83  86
ENDBRANCH  55  79
BRANCH  67  90
ATOM     90  C   UNL A   1      45.311  33.096  28.953  1.00  0.00     0.023 A 
ATOM     91  C   UNL A   1      46.035  33.373  30.130  1.00  0.00     0.012 A 
ATOM     92  C   UNL A   1      45.139  34.115  27.994  1.00  0.00     0.148 A 
ATOM     93  C   UNL A   1      46.546  34.650  30.364  1.00  0.00     0.002 A 
ATOM     94  C   UNL A   1      45.697  35.369  28.209  1.00  0.00     0.091 A 
ATOM     95  F   UNL A   1      44.435  33.837  26.887  1.00  0.00    -0.205 F 
ATOM     96  C   UNL A   1      46.388  35.642  29.401  1.00  0.00     0.022 A 
BRANCH  94  97
ATOM     97  S   UNL A   1      45.632  36.679  26.981  1.00  0.00     0.127 S 
ATOM     98  O   UNL A   1      46.476  37.703  27.595  1.00  0.00    -0.237 OA
ATOM     99  O   UNL A   1      46.216  36.032  25.807  1.00  0.00    -0.237 OA
ATOM    100  O   UNL A   1      44.226  37.033  26.842  1.00  0.00    -0.744 OA
ENDBRANCH  94  97
ENDBRANCH  67  90
ENDBRANCH  41  42
ENDBRANCH  34  36
ENDBRANCH  33  34
ENDBRANCH  32  33
ENDBRANCH  31  32
ENDBRANCH  30  31
ENDBRANCH  29  30
ENDBRANCH   1  29
TORSDOF 25
ENDMDL
