MODEL 1
REMARK VINA RESULT:      -7.8      0.000      0.000
REMARK SMILES C[C@H](NC(=O)N(CC(=O)OCCOCCOCCOCCOC(=O)c1ccc(-c2c3nc(c(-c4cccc(S(=O)(=O)[O-])c4F)c4ccc([nH]4)c(-c4cccc(S(=O)(=O)[O-])c4F)c4nc(c(-c5cccc(S(=O)(=O)[O-])c5F)c5ccc2[nH]5)C=C4)C=C3)cc1)C(C)(C)C)c1nncn1C
REMARK SMILES IDX 15 1 14 2 13 3 12 4 11 5 10 6 8 7 9 8 7 9 6 10 4 11 3 12
REMARK SMILES IDX 5 14 2 15 1 16 92 17 93 18 96 19 94 20 95 21 97 22 88 23
REMARK SMILES IDX 89 24 90 25 91 26 16 27 17 28 18 29 19 30 20 31 21 32 22 33
REMARK SMILES IDX 23 34 24 35 25 36 26 37 87 38 27 39 86 40 28 41 29 42 30 43
REMARK SMILES IDX 80 44 31 45 85 46 79 47 81 48 32 49 84 50 78 51 77 52 33 54
REMARK SMILES IDX 65 55 45 56 64 57 46 58 49 59 63 60 82 61 47 62 48 63 62 65
REMARK SMILES IDX 83 66 50 67 34 68 35 69 43 70 36 71 38 72 44 73 37 74 39 75
REMARK SMILES IDX 40 76 41 77 42 78 66 79 67 80 75 81 68 82 70 83 76 84 69 85
REMARK SMILES IDX 71 86 72 87 73 88 74 89 51 90 52 91 60 92 53 93 55 94 61 95
REMARK SMILES IDX 54 96 56 97 57 98 58 99 59 100
REMARK H PARENT 3 13 81 53 49 64
REMARK Flexibility Score: inf
ROOT
ATOM      1  C   UNL A   1      32.039  29.551  26.916  1.00  0.00     0.188 C 
ENDROOT
BRANCH   1   2
ATOM      2  C   UNL A   1      31.792  29.995  25.465  1.00  0.00     0.188 C 
BRANCH   2   3
ATOM      3  O   UNL A   1      31.106  29.151  24.542  1.00  0.00    -0.376 OA
BRANCH   3   4
ATOM      4  C   UNL A   1      31.682  28.896  23.269  1.00  0.00     0.202 C 
BRANCH   4   5
ATOM      5  C   UNL A   1      32.212  27.467  23.027  1.00  0.00     0.261 C 
BRANCH   5   6
ATOM      6  O   UNL A   1      31.269  26.512  22.479  1.00  0.00    -0.462 OA
BRANCH   6   7
ATOM      7  C   UNL A   1      30.412  25.932  23.357  1.00  0.00     0.325 C 
ATOM      8  O   UNL A   1      29.322  26.413  23.665  1.00  0.00    -0.250 OA
BRANCH   7   9
ATOM      9  C   UNL A   1      30.788  24.485  23.819  1.00  0.00     0.244 C 
BRANCH   9  10
ATOM     10  N   UNL A   1      32.060  24.030  24.450  1.00  0.00    -0.309 N 
BRANCH  10  11
ATOM     11  C   UNL A   1      33.146  23.574  23.728  1.00  0.00     0.318 C 
ATOM     12  N   UNL A   1      33.336  22.278  23.407  1.00  0.00    -0.328 N 
ATOM     13  H   UNL A   1      34.255  22.075  23.121  1.00  0.00     0.166 HD
ATOM     14  O   UNL A   1      33.992  24.333  23.248  1.00  0.00    -0.249 OA
BRANCH  12  15
ATOM     15  C   UNL A   1      32.459  21.127  23.397  1.00  0.00     0.149 C 
ATOM     16  C   UNL A   1      31.681  21.038  22.082  1.00  0.00     0.040 C 
BRANCH  15  17
ATOM     17  C   UNL A   1      33.070  19.803  23.746  1.00  0.00     0.154 A 
ATOM     18  N   UNL A   1      32.532  18.669  23.317  1.00  0.00    -0.133 NA
ATOM     19  N   UNL A   1      34.147  19.484  24.536  1.00  0.00    -0.319 N 
ATOM     20  N   UNL A   1      33.220  17.619  23.855  1.00  0.00    -0.139 NA
ATOM     21  C   UNL A   1      34.171  18.120  24.602  1.00  0.00     0.225 A 
ATOM     22  C   UNL A   1      35.120  20.330  25.174  1.00  0.00     0.152 C 
ENDBRANCH  15  17
ENDBRANCH  12  15
ENDBRANCH  10  11
BRANCH  10  23
ATOM     23  C   UNL A   1      32.290  24.237  25.954  1.00  0.00     0.037 C 
ATOM     24  C   UNL A   1      32.406  25.744  26.309  1.00  0.00     0.034 C 
ATOM     25  C   UNL A   1      31.112  23.649  26.783  1.00  0.00     0.034 C 
ATOM     26  C   UNL A   1      33.530  23.503  26.535  1.00  0.00     0.034 C 
ENDBRANCH  10  23
ENDBRANCH   9  10
ENDBRANCH   7   9
ENDBRANCH   6   7
ENDBRANCH   5   6
ENDBRANCH   4   5
ENDBRANCH   3   4
ENDBRANCH   2   3
ENDBRANCH   1   2
BRANCH   1  27
ATOM     27  O   UNL A   1      33.287  29.969  27.421  1.00  0.00    -0.377 OA
BRANCH  27  28
ATOM     28  C   UNL A   1      34.387  29.204  26.979  1.00  0.00     0.188 C 
BRANCH  28  29
ATOM     29  C   UNL A   1      35.738  29.696  27.525  1.00  0.00     0.188 C 
BRANCH  29  30
ATOM     30  O   UNL A   1      35.610  30.741  28.475  1.00  0.00    -0.376 OA
BRANCH  30  31
ATOM     31  C   UNL A   1      36.316  30.765  29.698  1.00  0.00     0.202 C 
BRANCH  31  32
ATOM     32  C   UNL A   1      36.756  29.527  30.502  1.00  0.00     0.261 C 
BRANCH  32  33
ATOM     33  O   UNL A   1      37.915  29.627  31.324  1.00  0.00    -0.460 OA
BRANCH  33  34
ATOM     34  C   UNL A   1      37.775  29.231  32.614  1.00  0.00     0.338 C 
ATOM     35  O   UNL A   1      37.499  28.120  33.004  1.00  0.00    -0.246 OA
BRANCH  34  36
ATOM     36  C   UNL A   1      38.253  30.336  33.479  1.00  0.00     0.060 A 
ATOM     37  C   UNL A   1      39.374  30.097  34.284  1.00  0.00     0.016 A 
ATOM     38  C   UNL A   1      37.644  31.593  33.469  1.00  0.00     0.016 A 
ATOM     39  C   UNL A   1      39.904  31.116  35.070  1.00  0.00     0.010 A 
ATOM     40  C   UNL A   1      38.143  32.600  34.303  1.00  0.00     0.010 A 
ATOM     41  C   UNL A   1      39.265  32.358  35.116  1.00  0.00    -0.014 A 
BRANCH  41  42
ATOM     42  C   UNL A   1      39.665  33.326  36.161  1.00  0.00     0.031 A 
ATOM     43  C   UNL A   1      40.784  34.277  35.857  1.00  0.00     0.074 A 
ATOM     44  C   UNL A   1      39.040  33.367  37.351  1.00  0.00     0.049 A 
ATOM     45  N   UNL A   1      41.323  35.193  36.614  1.00  0.00    -0.248 NA
ATOM     46  C   UNL A   1      41.376  34.177  34.512  1.00  0.00     0.031 C 
ATOM     47  C   UNL A   1      37.930  32.506  37.750  1.00  0.00     0.029 A 
ATOM     48  N   UNL A   1      39.281  34.149  38.453  1.00  0.00    -0.354 N 
ATOM     49  C   UNL A   1      42.340  35.757  35.856  1.00  0.00     0.074 A 
ATOM     50  C   UNL A   1      42.341  35.081  34.577  1.00  0.00     0.031 C 
ATOM     51  C   UNL A   1      37.618  32.771  39.031  1.00  0.00     0.029 A 
ATOM     52  C   UNL A   1      38.526  33.796  39.545  1.00  0.00     0.049 A 
ATOM     53  H   UNL A   1      39.931  34.889  38.460  1.00  0.00     0.167 HD
ATOM     54  C   UNL A   1      43.198  36.747  36.195  1.00  0.00     0.034 A 
ATOM     55  C   UNL A   1      38.592  34.221  40.824  1.00  0.00     0.034 A 
ATOM     56  C   UNL A   1      43.196  37.409  37.471  1.00  0.00     0.049 A 
ATOM     57  C   UNL A   1      39.578  35.300  41.191  1.00  0.00     0.074 A 
ATOM     58  C   UNL A   1      43.980  38.468  37.891  1.00  0.00     0.029 A 
ATOM     59  N   UNL A   1      42.396  37.050  38.546  1.00  0.00    -0.354 N 
ATOM     60  N   UNL A   1      40.444  35.924  40.428  1.00  0.00    -0.248 NA
ATOM     61  C   UNL A   1      39.578  35.756  42.590  1.00  0.00     0.031 C 
ATOM     62  C   UNL A   1      43.693  38.713  39.238  1.00  0.00     0.029 A 
ATOM     63  C   UNL A   1      42.694  37.841  39.642  1.00  0.00     0.049 A 
ATOM     64  H   UNL A   1      41.717  36.338  38.532  1.00  0.00     0.167 HD
ATOM     65  C   UNL A   1      41.077  36.856  41.244  1.00  0.00     0.074 A 
ATOM     66  C   UNL A   1      40.475  36.733  42.557  1.00  0.00     0.031 C 
ATOM     67  C   UNL A   1      42.072  37.726  40.939  1.00  0.00     0.034 A 
BRANCH  54  68
ATOM     68  C   UNL A   1      44.227  37.149  35.173  1.00  0.00     0.023 A 
ATOM     69  C   UNL A   1      45.450  36.454  35.084  1.00  0.00     0.012 A 
ATOM     70  C   UNL A   1      43.971  38.215  34.289  1.00  0.00     0.148 A 
ATOM     71  C   UNL A   1      46.420  36.840  34.158  1.00  0.00     0.002 A 
ATOM     72  C   UNL A   1      44.922  38.562  33.337  1.00  0.00     0.091 A 
ATOM     73  F   UNL A   1      42.816  38.884  34.410  1.00  0.00    -0.205 F 
ATOM     74  C   UNL A   1      46.152  37.886  33.280  1.00  0.00     0.022 A 
BRANCH  72  75
ATOM     75  S   UNL A   1      44.635  39.843  32.111  1.00  0.00     0.127 S 
ATOM     76  O   UNL A   1      44.596  41.043  32.944  1.00  0.00    -0.237 OA
ATOM     77  O   UNL A   1      45.822  39.726  31.263  1.00  0.00    -0.237 OA
ATOM     78  O   UNL A   1      43.384  39.496  31.454  1.00  0.00    -0.744 OA
ENDBRANCH  72  75
ENDBRANCH  54  68
BRANCH  55  79
ATOM     79  C   UNL A   1      37.696  33.608  41.844  1.00  0.00     0.023 A 
ATOM     80  C   UNL A   1      36.361  34.036  41.959  1.00  0.00     0.012 A 
ATOM     81  C   UNL A   1      38.156  32.559  42.667  1.00  0.00     0.148 A 
ATOM     82  C   UNL A   1      35.505  33.443  42.890  1.00  0.00     0.002 A 
ATOM     83  C   UNL A   1      37.284  31.933  43.548  1.00  0.00     0.091 A 
ATOM     84  F   UNL A   1      39.437  32.177  42.551  1.00  0.00    -0.205 F 
ATOM     85  C   UNL A   1      35.962  32.385  43.674  1.00  0.00     0.022 A 
BRANCH  83  86
ATOM     86  S   UNL A   1      37.747  30.482  44.504  1.00  0.00     0.127 S 
ATOM     87  O   UNL A   1      38.891  30.974  45.265  1.00  0.00    -0.237 OA
ATOM     88  O   UNL A   1      36.539  30.240  45.295  1.00  0.00    -0.237 OA
ATOM     89  O   UNL A   1      38.045  29.439  43.532  1.00  0.00    -0.744 OA
ENDBRANCH  83  86
ENDBRANCH  55  79
BRANCH  67  90
ATOM     90  C   UNL A   1      42.578  38.631  42.036  1.00  0.00     0.023 A 
ATOM     91  C   UNL A   1      43.632  38.206  42.867  1.00  0.00     0.012 A 
ATOM     92  C   UNL A   1      42.065  39.935  42.185  1.00  0.00     0.148 A 
ATOM     93  C   UNL A   1      44.146  39.051  43.852  1.00  0.00     0.002 A 
ATOM     94  C   UNL A   1      42.617  40.790  43.132  1.00  0.00     0.091 A 
ATOM     95  F   UNL A   1      41.054  40.319  41.392  1.00  0.00    -0.205 F 
ATOM     96  C   UNL A   1      43.648  40.345  43.975  1.00  0.00     0.022 A 
BRANCH  94  97
ATOM     97  S   UNL A   1      42.109  42.505  43.301  1.00  0.00     0.127 S 
ATOM     98  O   UNL A   1      42.433  43.044  41.981  1.00  0.00    -0.237 OA
ATOM     99  O   UNL A   1      40.676  42.377  43.571  1.00  0.00    -0.237 OA
ATOM    100  O   UNL A   1      42.887  43.051  44.404  1.00  0.00    -0.744 OA
ENDBRANCH  94  97
ENDBRANCH  67  90
ENDBRANCH  41  42
ENDBRANCH  34  36
ENDBRANCH  33  34
ENDBRANCH  32  33
ENDBRANCH  31  32
ENDBRANCH  30  31
ENDBRANCH  29  30
ENDBRANCH  28  29
ENDBRANCH  27  28
ENDBRANCH   1  27
TORSDOF 28
ENDMDL
MODEL 2
REMARK VINA RESULT:      -7.5      9.702     14.516
REMARK SMILES C[C@H](NC(=O)N(CC(=O)OCCOCCOCCOCCOC(=O)c1ccc(-c2c3nc(c(-c4cccc(S(=O)(=O)[O-])c4F)c4ccc([nH]4)c(-c4cccc(S(=O)(=O)[O-])c4F)c4nc(c(-c5cccc(S(=O)(=O)[O-])c5F)c5ccc2[nH]5)C=C4)C=C3)cc1)C(C)(C)C)c1nncn1C
REMARK SMILES IDX 15 1 14 2 13 3 12 4 11 5 10 6 8 7 9 8 7 9 6 10 4 11 3 12
REMARK SMILES IDX 5 14 2 15 1 16 92 17 93 18 96 19 94 20 95 21 97 22 88 23
REMARK SMILES IDX 89 24 90 25 91 26 16 27 17 28 18 29 19 30 20 31 21 32 22 33
REMARK SMILES IDX 23 34 24 35 25 36 26 37 87 38 27 39 86 40 28 41 29 42 30 43
REMARK SMILES IDX 80 44 31 45 85 46 79 47 81 48 32 49 84 50 78 51 77 52 33 54
REMARK SMILES IDX 65 55 45 56 64 57 46 58 49 59 63 60 82 61 47 62 48 63 62 65
REMARK SMILES IDX 83 66 50 67 34 68 35 69 43 70 36 71 38 72 44 73 37 74 39 75
REMARK SMILES IDX 40 76 41 77 42 78 66 79 67 80 75 81 68 82 70 83 76 84 69 85
REMARK SMILES IDX 71 86 72 87 73 88 74 89 51 90 52 91 60 92 53 93 55 94 61 95
REMARK SMILES IDX 54 96 56 97 57 98 58 99 59 100
REMARK H PARENT 3 13 81 53 49 64
REMARK Flexibility Score: inf
ROOT
ATOM      1  C   UNL A   1      37.979  29.588  29.330  1.00  0.00     0.188 C 
ENDROOT
BRANCH   1   2
ATOM      2  C   UNL A   1      37.324  30.345  28.163  1.00  0.00     0.188 C 
BRANCH   2   3
ATOM      3  O   UNL A   1      36.412  31.416  28.399  1.00  0.00    -0.376 OA
BRANCH   3   4
ATOM      4  C   UNL A   1      35.134  31.393  27.781  1.00  0.00     0.202 C 
BRANCH   4   5
ATOM      5  C   UNL A   1      34.258  30.151  28.054  1.00  0.00     0.261 C 
BRANCH   5   6
ATOM      6  O   UNL A   1      33.999  29.283  26.923  1.00  0.00    -0.462 OA
BRANCH   6   7
ATOM      7  C   UNL A   1      32.696  29.021  26.643  1.00  0.00     0.325 C 
ATOM      8  O   UNL A   1      31.761  29.379  27.357  1.00  0.00    -0.250 OA
BRANCH   7   9
ATOM      9  C   UNL A   1      32.415  28.401  25.234  1.00  0.00     0.244 C 
BRANCH   9  10
ATOM     10  N   UNL A   1      31.543  27.238  24.906  1.00  0.00    -0.309 N 
BRANCH  10  11
ATOM     11  C   UNL A   1      31.337  26.176  25.766  1.00  0.00     0.318 C 
ATOM     12  N   UNL A   1      31.992  25.001  25.669  1.00  0.00    -0.328 N 
ATOM     13  H   UNL A   1      31.568  24.272  26.177  1.00  0.00     0.166 HD
ATOM     14  O   UNL A   1      30.589  26.250  26.745  1.00  0.00    -0.249 OA
BRANCH  12  15
ATOM     15  C   UNL A   1      33.192  24.597  24.970  1.00  0.00     0.149 C 
ATOM     16  C   UNL A   1      34.369  25.512  25.323  1.00  0.00     0.040 C 
BRANCH  15  17
ATOM     17  C   UNL A   1      33.588  23.155  25.074  1.00  0.00     0.154 A 
ATOM     18  N   UNL A   1      34.593  22.776  25.853  1.00  0.00    -0.133 NA
ATOM     19  N   UNL A   1      33.114  22.038  24.430  1.00  0.00    -0.319 N 
ATOM     20  N   UNL A   1      34.804  21.438  25.688  1.00  0.00    -0.139 NA
ATOM     21  C   UNL A   1      33.926  21.010  24.816  1.00  0.00     0.225 A 
ATOM     22  C   UNL A   1      31.989  21.876  23.547  1.00  0.00     0.152 C 
ENDBRANCH  15  17
ENDBRANCH  12  15
ENDBRANCH  10  11
BRANCH  10  23
ATOM     23  C   UNL A   1      30.665  27.266  23.646  1.00  0.00     0.037 C 
ATOM     24  C   UNL A   1      29.998  28.653  23.450  1.00  0.00     0.034 C 
ATOM     25  C   UNL A   1      31.509  26.966  22.374  1.00  0.00     0.034 C 
ATOM     26  C   UNL A   1      29.555  26.180  23.597  1.00  0.00     0.034 C 
ENDBRANCH  10  23
ENDBRANCH   9  10
ENDBRANCH   7   9
ENDBRANCH   6   7
ENDBRANCH   5   6
ENDBRANCH   4   5
ENDBRANCH   3   4
ENDBRANCH   2   3
ENDBRANCH   1   2
BRANCH   1  27
ATOM     27  O   UNL A   1      39.385  29.536  29.240  1.00  0.00    -0.377 OA
BRANCH  27  28
ATOM     28  C   UNL A   1      39.977  28.439  29.900  1.00  0.00     0.188 C 
BRANCH  28  29
ATOM     29  C   UNL A   1      41.428  28.169  29.465  1.00  0.00     0.188 C 
BRANCH  29  30
ATOM     30  O   UNL A   1      41.529  27.637  28.154  1.00  0.00    -0.376 OA
BRANCH  30  31
ATOM     31  C   UNL A   1      40.636  26.670  27.643  1.00  0.00     0.202 C 
BRANCH  31  32
ATOM     32  C   UNL A   1      40.922  25.160  27.527  1.00  0.00     0.261 C 
BRANCH  32  33
ATOM     33  O   UNL A   1      42.168  24.665  28.005  1.00  0.00    -0.460 OA
BRANCH  33  34
ATOM     34  C   UNL A   1      43.018  24.170  27.071  1.00  0.00     0.338 C 
ATOM     35  O   UNL A   1      42.846  23.192  26.381  1.00  0.00    -0.246 OA
BRANCH  34  36
ATOM     36  C   UNL A   1      44.095  25.169  26.866  1.00  0.00     0.060 A 
ATOM     37  C   UNL A   1      44.737  25.678  28.001  1.00  0.00     0.016 A 
ATOM     38  C   UNL A   1      44.497  25.564  25.588  1.00  0.00     0.016 A 
ATOM     39  C   UNL A   1      45.796  26.572  27.868  1.00  0.00     0.010 A 
ATOM     40  C   UNL A   1      45.524  26.506  25.457  1.00  0.00     0.010 A 
ATOM     41  C   UNL A   1      46.165  27.023  26.597  1.00  0.00    -0.014 A 
BRANCH  41  42
ATOM     42  C   UNL A   1      47.086  28.175  26.490  1.00  0.00     0.031 A 
ATOM     43  C   UNL A   1      46.503  29.557  26.538  1.00  0.00     0.074 A 
ATOM     44  C   UNL A   1      48.413  28.000  26.365  1.00  0.00     0.049 A 
ATOM     45  N   UNL A   1      47.100  30.713  26.444  1.00  0.00    -0.248 NA
ATOM     46  C   UNL A   1      45.043  29.641  26.716  1.00  0.00     0.031 C 
ATOM     47  C   UNL A   1      49.092  26.709  26.326  1.00  0.00     0.029 A 
ATOM     48  N   UNL A   1      49.419  28.921  26.214  1.00  0.00    -0.354 N 
ATOM     49  C   UNL A   1      46.091  31.664  26.514  1.00  0.00     0.074 A 
ATOM     50  C   UNL A   1      44.843  30.949  26.663  1.00  0.00     0.031 C 
ATOM     51  C   UNL A   1      50.403  26.917  26.107  1.00  0.00     0.029 A 
ATOM     52  C   UNL A   1      50.644  28.352  25.963  1.00  0.00     0.049 A 
ATOM     53  H   UNL A   1      49.277  29.894  26.278  1.00  0.00     0.167 HD
ATOM     54  C   UNL A   1      46.195  33.012  26.458  1.00  0.00     0.034 A 
ATOM     55  C   UNL A   1      51.815  28.923  25.613  1.00  0.00     0.034 A 
ATOM     56  C   UNL A   1      47.438  33.716  26.303  1.00  0.00     0.049 A 
ATOM     57  C   UNL A   1      51.903  30.425  25.521  1.00  0.00     0.074 A 
ATOM     58  C   UNL A   1      47.658  35.081  26.300  1.00  0.00     0.029 A 
ATOM     59  N   UNL A   1      48.667  33.111  26.083  1.00  0.00    -0.354 N 
ATOM     60  N   UNL A   1      50.968  31.322  25.726  1.00  0.00    -0.248 NA
ATOM     61  C   UNL A   1      53.214  30.997  25.177  1.00  0.00     0.031 C 
ATOM     62  C   UNL A   1      49.011  35.302  26.022  1.00  0.00     0.029 A 
ATOM     63  C   UNL A   1      49.644  34.074  25.905  1.00  0.00     0.049 A 
ATOM     64  H   UNL A   1      48.821  32.139  26.058  1.00  0.00     0.167 HD
ATOM     65  C   UNL A   1      51.578  32.561  25.556  1.00  0.00     0.074 A 
ATOM     66  C   UNL A   1      52.972  32.299  25.256  1.00  0.00     0.031 C 
ATOM     67  C   UNL A   1      51.034  33.802  25.630  1.00  0.00     0.034 A 
BRANCH  54  68
ATOM     68  C   UNL A   1      44.919  33.807  26.538  1.00  0.00     0.023 A 
ATOM     69  C   UNL A   1      44.221  34.152  25.363  1.00  0.00     0.012 A 
ATOM     70  C   UNL A   1      44.404  34.200  27.789  1.00  0.00     0.148 A 
ATOM     71  C   UNL A   1      43.054  34.913  25.428  1.00  0.00     0.002 A 
ATOM     72  C   UNL A   1      43.214  34.915  27.848  1.00  0.00     0.091 A 
ATOM     73  F   UNL A   1      45.097  33.889  28.893  1.00  0.00    -0.205 F 
ATOM     74  C   UNL A   1      42.547  35.285  26.669  1.00  0.00     0.022 A 
BRANCH  72  75
ATOM     75  S   UNL A   1      42.441  35.370  29.404  1.00  0.00     0.127 S 
ATOM     76  O   UNL A   1      43.235  36.532  29.799  1.00  0.00    -0.237 OA
ATOM     77  O   UNL A   1      41.073  35.679  28.986  1.00  0.00    -0.237 OA
ATOM     78  O   UNL A   1      42.563  34.205  30.268  1.00  0.00    -0.744 OA
ENDBRANCH  72  75
ENDBRANCH  54  68
BRANCH  55  79
ATOM     79  C   UNL A   1      52.990  28.057  25.316  1.00  0.00     0.023 A 
ATOM     80  C   UNL A   1      53.270  27.678  23.990  1.00  0.00     0.012 A 
ATOM     81  C   UNL A   1      53.862  27.651  26.347  1.00  0.00     0.148 A 
ATOM     82  C   UNL A   1      54.388  26.894  23.699  1.00  0.00     0.002 A 
ATOM     83  C   UNL A   1      55.005  26.922  26.043  1.00  0.00     0.091 A 
ATOM     84  F   UNL A   1      53.568  28.010  27.605  1.00  0.00    -0.205 F 
ATOM     85  C   UNL A   1      55.262  26.528  24.722  1.00  0.00     0.022 A 
BRANCH  83  86
ATOM     86  S   UNL A   1      56.251  26.515  27.274  1.00  0.00     0.127 S 
ATOM     87  O   UNL A   1      57.210  25.743  26.490  1.00  0.00    -0.237 OA
ATOM     88  O   UNL A   1      56.717  27.840  27.686  1.00  0.00    -0.237 OA
ATOM     89  O   UNL A   1      55.557  25.774  28.319  1.00  0.00    -0.744 OA
ENDBRANCH  83  86
ENDBRANCH  55  79
BRANCH  67  90
ATOM     90  C   UNL A   1      51.941  34.985  25.395  1.00  0.00     0.023 A 
ATOM     91  C   UNL A   1      51.953  35.622  24.138  1.00  0.00     0.012 A 
ATOM     92  C   UNL A   1      52.717  35.516  26.445  1.00  0.00     0.148 A 
ATOM     93  C   UNL A   1      52.747  36.749  23.921  1.00  0.00     0.002 A 
ATOM     94  C   UNL A   1      53.464  36.669  26.236  1.00  0.00     0.091 A 
ATOM     95  F   UNL A   1      52.702  34.889  27.630  1.00  0.00    -0.205 F 
ATOM     96  C   UNL A   1      53.492  37.279  24.971  1.00  0.00     0.022 A 
BRANCH  94  97
ATOM     97  S   UNL A   1      54.379  37.481  27.553  1.00  0.00     0.127 S 
ATOM     98  O   UNL A   1      53.448  37.371  28.674  1.00  0.00    -0.237 OA
ATOM     99  O   UNL A   1      55.570  36.639  27.665  1.00  0.00    -0.237 OA
ATOM    100  O   UNL A   1      54.637  38.837  27.090  1.00  0.00    -0.744 OA
ENDBRANCH  94  97
ENDBRANCH  67  90
ENDBRANCH  41  42
ENDBRANCH  34  36
ENDBRANCH  33  34
ENDBRANCH  32  33
ENDBRANCH  31  32
ENDBRANCH  30  31
ENDBRANCH  29  30
ENDBRANCH  28  29
ENDBRANCH  27  28
ENDBRANCH   1  27
TORSDOF 28
ENDMDL
MODEL 3
REMARK VINA RESULT:      -7.0      6.976     10.482
REMARK SMILES C[C@H](NC(=O)N(CC(=O)OCCOCCOCCOCCOC(=O)c1ccc(-c2c3nc(c(-c4cccc(S(=O)(=O)[O-])c4F)c4ccc([nH]4)c(-c4cccc(S(=O)(=O)[O-])c4F)c4nc(c(-c5cccc(S(=O)(=O)[O-])c5F)c5ccc2[nH]5)C=C4)C=C3)cc1)C(C)(C)C)c1nncn1C
REMARK SMILES IDX 15 1 14 2 13 3 12 4 11 5 10 6 8 7 9 8 7 9 6 10 4 11 3 12
REMARK SMILES IDX 5 14 2 15 1 16 92 17 93 18 96 19 94 20 95 21 97 22 88 23
REMARK SMILES IDX 89 24 90 25 91 26 16 27 17 28 18 29 19 30 20 31 21 32 22 33
REMARK SMILES IDX 23 34 24 35 25 36 26 37 87 38 27 39 86 40 28 41 29 42 30 43
REMARK SMILES IDX 80 44 31 45 85 46 79 47 81 48 32 49 84 50 78 51 77 52 33 54
REMARK SMILES IDX 65 55 45 56 64 57 46 58 49 59 63 60 82 61 47 62 48 63 62 65
REMARK SMILES IDX 83 66 50 67 34 68 35 69 43 70 36 71 38 72 44 73 37 74 39 75
REMARK SMILES IDX 40 76 41 77 42 78 66 79 67 80 75 81 68 82 70 83 76 84 69 85
REMARK SMILES IDX 71 86 72 87 73 88 74 89 51 90 52 91 60 92 53 93 55 94 61 95
REMARK SMILES IDX 54 96 56 97 57 98 58 99 59 100
REMARK H PARENT 3 13 81 53 49 64
REMARK Flexibility Score: inf
ROOT
ATOM      1  C   UNL A   1      51.829  27.939  26.170  1.00  0.00     0.188 C 
ENDROOT
BRANCH   1   2
ATOM      2  C   UNL A   1      51.712  26.421  26.384  1.00  0.00     0.188 C 
BRANCH   2   3
ATOM      3  O   UNL A   1      50.560  25.702  25.948  1.00  0.00    -0.376 OA
BRANCH   3   4
ATOM      4  C   UNL A   1      49.666  26.308  25.027  1.00  0.00     0.202 C 
BRANCH   4   5
ATOM      5  C   UNL A   1      48.225  26.553  25.524  1.00  0.00     0.261 C 
BRANCH   5   6
ATOM      6  O   UNL A   1      47.159  26.264  24.585  1.00  0.00    -0.462 OA
BRANCH   6   7
ATOM      7  C   UNL A   1      45.926  26.735  24.900  1.00  0.00     0.325 C 
ATOM      8  O   UNL A   1      45.586  27.908  24.749  1.00  0.00    -0.250 OA
BRANCH   7   9
ATOM      9  C   UNL A   1      44.863  25.654  25.284  1.00  0.00     0.244 C 
BRANCH   9  10
ATOM     10  N   UNL A   1      44.833  24.794  26.501  1.00  0.00    -0.309 N 
BRANCH  10  11
ATOM     11  C   UNL A   1      45.623  23.671  26.657  1.00  0.00     0.318 C 
ATOM     12  N   UNL A   1      45.283  22.451  26.194  1.00  0.00    -0.328 N 
ATOM     13  H   UNL A   1      45.808  21.719  26.593  1.00  0.00     0.166 HD
ATOM     14  O   UNL A   1      46.746  23.714  27.167  1.00  0.00    -0.249 OA
BRANCH  12  15
ATOM     15  C   UNL A   1      44.303  22.001  25.229  1.00  0.00     0.149 C 
ATOM     16  C   UNL A   1      44.768  22.287  23.799  1.00  0.00     0.040 C 
BRANCH  15  17
ATOM     17  C   UNL A   1      43.817  20.589  25.360  1.00  0.00     0.154 A 
ATOM     18  N   UNL A   1      42.538  20.326  25.594  1.00  0.00    -0.133 NA
ATOM     19  N   UNL A   1      44.493  19.394  25.337  1.00  0.00    -0.319 N 
ATOM     20  N   UNL A   1      42.385  18.980  25.766  1.00  0.00    -0.139 NA
ATOM     21  C   UNL A   1      43.567  18.434  25.631  1.00  0.00     0.225 A 
ATOM     22  C   UNL A   1      45.872  19.106  25.040  1.00  0.00     0.152 C 
ENDBRANCH  15  17
ENDBRANCH  12  15
ENDBRANCH  10  11
BRANCH  10  23
ATOM     23  C   UNL A   1      44.045  25.242  27.741  1.00  0.00     0.037 C 
ATOM     24  C   UNL A   1      43.252  24.063  28.365  1.00  0.00     0.034 C 
ATOM     25  C   UNL A   1      44.999  25.799  28.836  1.00  0.00     0.034 C 
ATOM     26  C   UNL A   1      43.060  26.418  27.500  1.00  0.00     0.034 C 
ENDBRANCH  10  23
ENDBRANCH   9  10
ENDBRANCH   7   9
ENDBRANCH   6   7
ENDBRANCH   5   6
ENDBRANCH   4   5
ENDBRANCH   3   4
ENDBRANCH   2   3
ENDBRANCH   1   2
BRANCH   1  27
ATOM     27  O   UNL A   1      50.850  28.676  26.866  1.00  0.00    -0.377 OA
BRANCH  27  28
ATOM     28  C   UNL A   1      51.357  29.524  27.873  1.00  0.00     0.188 C 
BRANCH  28  29
ATOM     29  C   UNL A   1      51.800  30.902  27.352  1.00  0.00     0.188 C 
BRANCH  29  30
ATOM     30  O   UNL A   1      50.734  31.834  27.261  1.00  0.00    -0.376 OA
BRANCH  30  31
ATOM     31  C   UNL A   1      50.581  32.728  26.180  1.00  0.00     0.202 C 
BRANCH  31  32
ATOM     32  C   UNL A   1      49.357  33.631  25.931  1.00  0.00     0.261 C 
BRANCH  32  33
ATOM     33  O   UNL A   1      48.261  33.557  26.838  1.00  0.00    -0.460 OA
BRANCH  33  34
ATOM     34  C   UNL A   1      47.139  34.231  26.482  1.00  0.00     0.338 C 
ATOM     35  O   UNL A   1      46.803  34.539  25.362  1.00  0.00    -0.246 OA
BRANCH  34  36
ATOM     36  C   UNL A   1      46.268  34.320  27.679  1.00  0.00     0.060 A 
ATOM     37  C   UNL A   1      45.467  35.460  27.820  1.00  0.00     0.016 A 
ATOM     38  C   UNL A   1      46.204  33.289  28.620  1.00  0.00     0.016 A 
ATOM     39  C   UNL A   1      44.585  35.570  28.891  1.00  0.00     0.010 A 
ATOM     40  C   UNL A   1      45.359  33.427  29.726  1.00  0.00     0.010 A 
ATOM     41  C   UNL A   1      44.559  34.574  29.872  1.00  0.00    -0.014 A 
BRANCH  41  42
ATOM     42  C   UNL A   1      43.837  34.838  31.136  1.00  0.00     0.031 A 
ATOM     43  C   UNL A   1      44.552  35.594  32.216  1.00  0.00     0.074 A 
ATOM     44  C   UNL A   1      42.571  34.426  31.317  1.00  0.00     0.049 A 
ATOM     45  N   UNL A   1      44.139  35.926  33.409  1.00  0.00    -0.248 NA
ATOM     46  C   UNL A   1      45.922  36.036  31.905  1.00  0.00     0.031 C 
ATOM     47  C   UNL A   1      41.772  33.701  30.333  1.00  0.00     0.029 A 
ATOM     48  N   UNL A   1      41.750  34.533  32.412  1.00  0.00    -0.354 N 
ATOM     49  C   UNL A   1      45.206  36.582  34.007  1.00  0.00     0.074 A 
ATOM     50  C   UNL A   1      46.285  36.606  33.044  1.00  0.00     0.031 C 
ATOM     51  C   UNL A   1      40.590  33.380  30.888  1.00  0.00     0.029 A 
ATOM     52  C   UNL A   1      40.566  33.852  32.272  1.00  0.00     0.049 A 
ATOM     53  H   UNL A   1      41.988  35.047  33.218  1.00  0.00     0.167 HD
ATOM     54  C   UNL A   1      45.282  37.116  35.248  1.00  0.00     0.034 A 
ATOM     55  C   UNL A   1      39.594  33.601  33.174  1.00  0.00     0.034 A 
ATOM     56  C   UNL A   1      44.209  37.083  36.203  1.00  0.00     0.049 A 
ATOM     57  C   UNL A   1      39.711  34.174  34.563  1.00  0.00     0.074 A 
ATOM     58  C   UNL A   1      44.161  37.652  37.463  1.00  0.00     0.029 A 
ATOM     59  N   UNL A   1      43.008  36.413  36.020  1.00  0.00    -0.354 N 
ATOM     60  N   UNL A   1      40.668  34.913  35.074  1.00  0.00    -0.248 NA
ATOM     61  C   UNL A   1      38.603  33.905  35.492  1.00  0.00     0.031 C 
ATOM     62  C   UNL A   1      42.954  37.278  38.063  1.00  0.00     0.029 A 
ATOM     63  C   UNL A   1      42.227  36.520  37.158  1.00  0.00     0.049 A 
ATOM     64  H   UNL A   1      42.750  35.932  35.201  1.00  0.00     0.167 HD
ATOM     65  C   UNL A   1      40.271  35.212  36.373  1.00  0.00     0.074 A 
ATOM     66  C   UNL A   1      38.973  34.596  36.563  1.00  0.00     0.031 C 
ATOM     67  C   UNL A   1      40.926  35.923  37.327  1.00  0.00     0.034 A 
BRANCH  54  68
ATOM     68  C   UNL A   1      46.585  37.756  35.647  1.00  0.00     0.023 A 
ATOM     69  C   UNL A   1      47.599  36.987  36.253  1.00  0.00     0.012 A 
ATOM     70  C   UNL A   1      46.807  39.126  35.404  1.00  0.00     0.148 A 
ATOM     71  C   UNL A   1      48.797  37.581  36.650  1.00  0.00     0.002 A 
ATOM     72  C   UNL A   1      48.022  39.698  35.758  1.00  0.00     0.091 A 
ATOM     73  F   UNL A   1      45.820  39.847  34.855  1.00  0.00    -0.205 F 
ATOM     74  C   UNL A   1      49.012  38.931  36.394  1.00  0.00     0.022 A 
BRANCH  72  75
ATOM     75  S   UNL A   1      48.421  41.412  35.396  1.00  0.00     0.127 S 
ATOM     76  O   UNL A   1      49.738  41.545  36.015  1.00  0.00    -0.237 OA
ATOM     77  O   UNL A   1      48.430  41.421  33.932  1.00  0.00    -0.237 OA
ATOM     78  O   UNL A   1      47.361  42.206  36.000  1.00  0.00    -0.744 OA
ENDBRANCH  72  75
ENDBRANCH  54  68
BRANCH  55  79
ATOM     79  C   UNL A   1      38.432  32.755  32.779  1.00  0.00     0.023 A 
ATOM     80  C   UNL A   1      38.476  31.363  32.973  1.00  0.00     0.012 A 
ATOM     81  C   UNL A   1      37.260  33.341  32.258  1.00  0.00     0.148 A 
ATOM     82  C   UNL A   1      37.379  30.566  32.637  1.00  0.00     0.002 A 
ATOM     83  C   UNL A   1      36.151  32.551  31.982  1.00  0.00     0.091 A 
ATOM     84  F   UNL A   1      37.246  34.669  32.067  1.00  0.00    -0.205 F 
ATOM     85  C   UNL A   1      36.214  31.161  32.155  1.00  0.00     0.022 A 
BRANCH  83  86
ATOM     86  S   UNL A   1      34.570  33.243  31.480  1.00  0.00     0.127 S 
ATOM     87  O   UNL A   1      34.302  32.517  30.242  1.00  0.00    -0.237 OA
ATOM     88  O   UNL A   1      33.707  32.879  32.605  1.00  0.00    -0.237 OA
ATOM     89  O   UNL A   1      34.786  34.675  31.332  1.00  0.00    -0.744 OA
ENDBRANCH  83  86
ENDBRANCH  55  79
BRANCH  67  90
ATOM     90  C   UNL A   1      40.252  36.089  38.668  1.00  0.00     0.023 A 
ATOM     91  C   UNL A   1      39.428  37.206  38.905  1.00  0.00     0.012 A 
ATOM     92  C   UNL A   1      40.370  35.095  39.660  1.00  0.00     0.148 A 
ATOM     93  C   UNL A   1      38.757  37.348  40.121  1.00  0.00     0.002 A 
ATOM     94  C   UNL A   1      39.658  35.217  40.847  1.00  0.00     0.091 A 
ATOM     95  F   UNL A   1      41.169  34.045  39.420  1.00  0.00    -0.205 F 
ATOM     96  C   UNL A   1      38.862  36.349  41.085  1.00  0.00     0.022 A 
BRANCH  94  97
ATOM     97  S   UNL A   1      39.653  33.937  42.108  1.00  0.00     0.127 S 
ATOM     98  O   UNL A   1      39.247  32.762  41.339  1.00  0.00    -0.237 OA
ATOM     99  O   UNL A   1      41.050  33.927  42.543  1.00  0.00    -0.237 OA
ATOM    100  O   UNL A   1      38.704  34.373  43.123  1.00  0.00    -0.744 OA
ENDBRANCH  94  97
ENDBRANCH  67  90
ENDBRANCH  41  42
ENDBRANCH  34  36
ENDBRANCH  33  34
ENDBRANCH  32  33
ENDBRANCH  31  32
ENDBRANCH  30  31
ENDBRANCH  29  30
ENDBRANCH  28  29
ENDBRANCH  27  28
ENDBRANCH   1  27
TORSDOF 28
ENDMDL
