MODEL 1
REMARK VINA RESULT:      -6.5      0.000      0.000
REMARK SMILES CCC[C@@H]([NH2+]Cc1cc(Cl)cs1)C(=O)OCCOCCOCCOCCOC(=O)c1ccc(-c2c3nc(c(-c4cccc(S(=O)(=O)[O-])c4F)c4ccc([nH]4)c(-c4cccc(S(=O)(=O)[O-])c4F)c4nc(c(-c5cccc(S(=O)(=O)[O-])c5F)c5ccc2[nH]5)C=C4)C=C3)cc1
REMARK SMILES IDX 21 1 20 2 19 3 18 4 17 5 16 6 15 7 13 8 14 9 4 10 3 11 2 12
REMARK SMILES IDX 1 13 5 14 6 17 7 18 8 19 12 20 9 21 11 22 10 23 22 24 23 25
REMARK SMILES IDX 24 26 25 27 26 28 27 29 28 30 29 31 30 32 31 33 92 34 32 35
REMARK SMILES IDX 91 36 33 37 34 38 35 39 85 40 36 41 90 42 84 43 86 44 37 45
REMARK SMILES IDX 89 46 83 47 82 48 38 50 70 51 50 52 69 53 51 54 54 55 68 56
REMARK SMILES IDX 87 57 52 58 53 59 67 61 88 62 55 63 39 64 40 65 48 66 41 67
REMARK SMILES IDX 43 68 49 69 42 70 44 71 45 72 46 73 47 74 71 75 72 76 80 77
REMARK SMILES IDX 73 78 75 79 81 80 74 81 76 82 77 83 78 84 79 85 56 86 57 87
REMARK SMILES IDX 65 88 58 89 60 90 66 91 59 92 61 93 62 94 63 95 64 96
REMARK H PARENT 5 15 5 16 86 49 54 60
REMARK Flexibility Score: inf
ROOT
ATOM      1  O   UNL A   1      44.657  28.230  30.672  1.00  0.00    -0.377 OA
ENDROOT
BRANCH   1   2
ATOM      2  C   UNL A   1      43.775  28.413  29.589  1.00  0.00     0.188 C 
BRANCH   2   3
ATOM      3  C   UNL A   1      42.636  29.411  29.826  1.00  0.00     0.188 C 
BRANCH   3   4
ATOM      4  O   UNL A   1      41.520  29.058  30.613  1.00  0.00    -0.376 OA
BRANCH   4   5
ATOM      5  C   UNL A   1      40.461  29.943  30.944  1.00  0.00     0.202 C 
BRANCH   5   6
ATOM      6  C   UNL A   1      39.181  30.243  30.137  1.00  0.00     0.261 C 
BRANCH   6   7
ATOM      7  O   UNL A   1      38.142  31.025  30.734  1.00  0.00    -0.459 OA
BRANCH   7   8
ATOM      8  C   UNL A   1      37.229  30.286  31.396  1.00  0.00     0.364 C 
ATOM      9  O   UNL A   1      37.078  29.081  31.192  1.00  0.00    -0.245 OA
BRANCH   8  10
ATOM     10  C   UNL A   1      36.423  31.036  32.480  1.00  0.00     0.293 C 
BRANCH  10  11
ATOM     11  C   UNL A   1      37.159  32.052  33.385  1.00  0.00     0.077 C 
BRANCH  11  12
ATOM     12  C   UNL A   1      36.433  33.409  33.546  1.00  0.00     0.003 C 
ATOM     13  C   UNL A   1      36.099  33.806  34.981  1.00  0.00     0.004 C 
ENDBRANCH  11  12
ENDBRANCH  10  11
BRANCH  10  14
ATOM     14  N   UNL A   1      35.238  31.708  31.889  1.00  0.00    -0.330 N 
ATOM     15  H   UNL A   1      35.133  32.615  32.342  1.00  0.00     0.347 HD
ATOM     16  H   UNL A   1      34.452  31.076  32.046  1.00  0.00     0.347 HD
BRANCH  14  17
ATOM     17  C   UNL A   1      35.293  31.929  30.441  1.00  0.00     0.309 C 
BRANCH  17  18
ATOM     18  C   UNL A   1      34.606  33.189  29.994  1.00  0.00     0.060 A 
ATOM     19  C   UNL A   1      34.265  34.308  30.733  1.00  0.00     0.041 A 
ATOM     20  S   UNL A   1      34.128  33.365  28.354  1.00  0.00    -0.141 S 
ATOM     21  C   UNL A   1      33.538  35.261  29.971  1.00  0.00     0.052 A 
ATOM     22  C   UNL A   1      33.388  34.873  28.661  1.00  0.00     0.085 A 
ATOM     23  Cl  UNL A   1      32.930  36.709  30.641  1.00  0.00    -0.083 Cl
ENDBRANCH  17  18
ENDBRANCH  14  17
ENDBRANCH  10  14
ENDBRANCH   8  10
ENDBRANCH   7   8
ENDBRANCH   6   7
ENDBRANCH   5   6
ENDBRANCH   4   5
ENDBRANCH   3   4
ENDBRANCH   2   3
ENDBRANCH   1   2
BRANCH   1  24
ATOM     24  C   UNL A   1      45.263  26.961  30.878  1.00  0.00     0.188 C 
BRANCH  24  25
ATOM     25  C   UNL A   1      45.642  26.499  32.299  1.00  0.00     0.188 C 
BRANCH  25  26
ATOM     26  O   UNL A   1      44.602  25.842  33.006  1.00  0.00    -0.376 OA
BRANCH  26  27
ATOM     27  C   UNL A   1      43.436  26.584  33.330  1.00  0.00     0.202 C 
BRANCH  27  28
ATOM     28  C   UNL A   1      42.635  26.156  34.570  1.00  0.00     0.261 C 
BRANCH  28  29
ATOM     29  O   UNL A   1      41.414  26.868  34.829  1.00  0.00    -0.460 OA
BRANCH  29  30
ATOM     30  C   UNL A   1      41.343  27.648  35.932  1.00  0.00     0.338 C 
ATOM     31  O   UNL A   1      41.218  27.282  37.080  1.00  0.00    -0.246 OA
BRANCH  30  32
ATOM     32  C   UNL A   1      41.656  29.034  35.514  1.00  0.00     0.060 A 
ATOM     33  C   UNL A   1      42.993  29.451  35.489  1.00  0.00     0.016 A 
ATOM     34  C   UNL A   1      40.635  29.913  35.149  1.00  0.00     0.016 A 
ATOM     35  C   UNL A   1      43.310  30.763  35.134  1.00  0.00     0.010 A 
ATOM     36  C   UNL A   1      40.952  31.232  34.815  1.00  0.00     0.010 A 
ATOM     37  C   UNL A   1      42.288  31.673  34.840  1.00  0.00    -0.014 A 
BRANCH  37  38
ATOM     38  C   UNL A   1      42.586  33.123  34.747  1.00  0.00     0.031 A 
ATOM     39  C   UNL A   1      42.768  33.726  33.380  1.00  0.00     0.074 A 
ATOM     40  C   UNL A   1      42.713  33.887  35.846  1.00  0.00     0.049 A 
ATOM     41  N   UNL A   1      43.113  34.941  33.049  1.00  0.00    -0.248 NA
ATOM     42  C   UNL A   1      42.531  32.833  32.233  1.00  0.00     0.031 C 
ATOM     43  C   UNL A   1      42.544  33.425  37.222  1.00  0.00     0.029 A 
ATOM     44  N   UNL A   1      43.050  35.213  35.972  1.00  0.00    -0.354 N 
ATOM     45  C   UNL A   1      43.174  34.951  31.660  1.00  0.00     0.074 A 
ATOM     46  C   UNL A   1      42.834  33.619  31.211  1.00  0.00     0.031 C 
ATOM     47  C   UNL A   1      42.815  34.444  38.058  1.00  0.00     0.029 A 
ATOM     48  C   UNL A   1      43.209  35.615  37.278  1.00  0.00     0.049 A 
ATOM     49  H   UNL A   1      43.164  35.816  35.203  1.00  0.00     0.167 HD
ATOM     50  C   UNL A   1      43.479  35.978  30.833  1.00  0.00     0.034 A 
ATOM     51  C   UNL A   1      43.659  36.782  37.781  1.00  0.00     0.034 A 
ATOM     52  C   UNL A   1      43.806  37.303  31.282  1.00  0.00     0.049 A 
ATOM     53  C   UNL A   1      44.035  37.899  36.838  1.00  0.00     0.074 A 
ATOM     54  C   UNL A   1      44.081  38.424  30.520  1.00  0.00     0.029 A 
ATOM     55  N   UNL A   1      43.924  37.683  32.609  1.00  0.00    -0.354 N 
ATOM     56  N   UNL A   1      43.981  37.928  35.529  1.00  0.00    -0.248 NA
ATOM     57  C   UNL A   1      44.509  39.153  37.445  1.00  0.00     0.031 C 
ATOM     58  C   UNL A   1      44.410  39.470  31.386  1.00  0.00     0.029 A 
ATOM     59  C   UNL A   1      44.291  39.014  32.690  1.00  0.00     0.049 A 
ATOM     60  H   UNL A   1      43.770  37.091  33.382  1.00  0.00     0.167 HD
ATOM     61  C   UNL A   1      44.377  39.210  35.157  1.00  0.00     0.074 A 
ATOM     62  C   UNL A   1      44.650  39.933  36.381  1.00  0.00     0.031 C 
ATOM     63  C   UNL A   1      44.511  39.738  33.915  1.00  0.00     0.034 A 
BRANCH  50  64
ATOM     64  C   UNL A   1      43.474  35.709  29.351  1.00  0.00     0.023 A 
ATOM     65  C   UNL A   1      42.311  35.949  28.594  1.00  0.00     0.012 A 
ATOM     66  C   UNL A   1      44.645  35.270  28.701  1.00  0.00     0.148 A 
ATOM     67  C   UNL A   1      42.300  35.727  27.218  1.00  0.00     0.002 A 
ATOM     68  C   UNL A   1      44.642  35.096  27.323  1.00  0.00     0.091 A 
ATOM     69  F   UNL A   1      45.734  35.025  29.441  1.00  0.00    -0.205 F 
ATOM     70  C   UNL A   1      43.468  35.312  26.581  1.00  0.00     0.022 A 
BRANCH  68  71
ATOM     71  S   UNL A   1      46.114  34.644  26.400  1.00  0.00     0.127 S 
ATOM     72  O   UNL A   1      45.551  33.806  25.341  1.00  0.00    -0.237 OA
ATOM     73  O   UNL A   1      46.605  35.947  25.950  1.00  0.00    -0.237 OA
ATOM     74  O   UNL A   1      46.984  33.955  27.341  1.00  0.00    -0.744 OA
ENDBRANCH  68  71
ENDBRANCH  50  64
BRANCH  51  75
ATOM     75  C   UNL A   1      43.779  36.965  39.257  1.00  0.00     0.023 A 
ATOM     76  C   UNL A   1      44.981  36.625  39.908  1.00  0.00     0.012 A 
ATOM     77  C   UNL A   1      42.707  37.471  40.016  1.00  0.00     0.148 A 
ATOM     78  C   UNL A   1      45.100  36.753  41.293  1.00  0.00     0.002 A 
ATOM     79  C   UNL A   1      42.851  37.652  41.387  1.00  0.00     0.091 A 
ATOM     80  F   UNL A   1      41.566  37.773  39.380  1.00  0.00    -0.205 F 
ATOM     81  C   UNL A   1      44.040  37.276  42.030  1.00  0.00     0.022 A 
BRANCH  79  82
ATOM     82  S   UNL A   1      41.586  38.429  42.398  1.00  0.00     0.127 S 
ATOM     83  O   UNL A   1      42.211  38.418  43.718  1.00  0.00    -0.237 OA
ATOM     84  O   UNL A   1      41.477  39.749  41.777  1.00  0.00    -0.237 OA
ATOM     85  O   UNL A   1      40.400  37.596  42.255  1.00  0.00    -0.744 OA
ENDBRANCH  79  82
ENDBRANCH  51  75
BRANCH  63  86
ATOM     86  C   UNL A   1      44.926  41.183  33.802  1.00  0.00     0.023 A 
ATOM     87  C   UNL A   1      46.282  41.518  33.615  1.00  0.00     0.012 A 
ATOM     88  C   UNL A   1      43.954  42.205  33.789  1.00  0.00     0.148 A 
ATOM     89  C   UNL A   1      46.667  42.848  33.449  1.00  0.00     0.002 A 
ATOM     90  C   UNL A   1      44.340  43.522  33.570  1.00  0.00     0.091 A 
ATOM     91  F   UNL A   1      42.671  41.868  33.982  1.00  0.00    -0.205 F 
ATOM     92  C   UNL A   1      45.696  43.847  33.414  1.00  0.00     0.022 A 
BRANCH  90  93
ATOM     93  S   UNL A   1      43.154  44.861  33.410  1.00  0.00     0.127 S 
ATOM     94  O   UNL A   1      43.968  46.024  33.761  1.00  0.00    -0.237 OA
ATOM     95  O   UNL A   1      42.787  44.780  31.996  1.00  0.00    -0.237 OA
ATOM     96  O   UNL A   1      42.072  44.558  34.337  1.00  0.00    -0.744 OA
ENDBRANCH  90  93
ENDBRANCH  63  86
ENDBRANCH  37  38
ENDBRANCH  30  32
ENDBRANCH  29  30
ENDBRANCH  28  29
ENDBRANCH  27  28
ENDBRANCH  26  27
ENDBRANCH  25  26
ENDBRANCH  24  25
ENDBRANCH   1  24
TORSDOF 28
ENDMDL
MODEL 2
REMARK VINA RESULT:      -6.3      6.813     11.604
REMARK SMILES CCC[C@@H]([NH2+]Cc1cc(Cl)cs1)C(=O)OCCOCCOCCOCCOC(=O)c1ccc(-c2c3nc(c(-c4cccc(S(=O)(=O)[O-])c4F)c4ccc([nH]4)c(-c4cccc(S(=O)(=O)[O-])c4F)c4nc(c(-c5cccc(S(=O)(=O)[O-])c5F)c5ccc2[nH]5)C=C4)C=C3)cc1
REMARK SMILES IDX 21 1 20 2 19 3 18 4 17 5 16 6 15 7 13 8 14 9 4 10 3 11 2 12
REMARK SMILES IDX 1 13 5 14 6 17 7 18 8 19 12 20 9 21 11 22 10 23 22 24 23 25
REMARK SMILES IDX 24 26 25 27 26 28 27 29 28 30 29 31 30 32 31 33 92 34 32 35
REMARK SMILES IDX 91 36 33 37 34 38 35 39 85 40 36 41 90 42 84 43 86 44 37 45
REMARK SMILES IDX 89 46 83 47 82 48 38 50 70 51 50 52 69 53 51 54 54 55 68 56
REMARK SMILES IDX 87 57 52 58 53 59 67 61 88 62 55 63 39 64 40 65 48 66 41 67
REMARK SMILES IDX 43 68 49 69 42 70 44 71 45 72 46 73 47 74 71 75 72 76 80 77
REMARK SMILES IDX 73 78 75 79 81 80 74 81 76 82 77 83 78 84 79 85 56 86 57 87
REMARK SMILES IDX 65 88 58 89 60 90 66 91 59 92 61 93 62 94 63 95 64 96
REMARK H PARENT 5 15 5 16 86 49 54 60
REMARK Flexibility Score: inf
ROOT
ATOM      1  O   UNL A   1      39.880  22.053  25.810  1.00  0.00    -0.377 OA
ENDROOT
BRANCH   1   2
ATOM      2  C   UNL A   1      38.748  21.218  25.729  1.00  0.00     0.188 C 
BRANCH   2   3
ATOM      3  C   UNL A   1      37.402  21.941  25.616  1.00  0.00     0.188 C 
BRANCH   3   4
ATOM      4  O   UNL A   1      37.316  23.217  25.020  1.00  0.00    -0.376 OA
BRANCH   4   5
ATOM      5  C   UNL A   1      36.170  23.708  24.341  1.00  0.00     0.202 C 
BRANCH   5   6
ATOM      6  C   UNL A   1      35.191  22.932  23.435  1.00  0.00     0.261 C 
BRANCH   6   7
ATOM      7  O   UNL A   1      34.304  23.656  22.579  1.00  0.00    -0.459 OA
BRANCH   7   8
ATOM      8  C   UNL A   1      33.425  24.430  23.249  1.00  0.00     0.364 C 
ATOM      9  O   UNL A   1      32.577  23.962  24.010  1.00  0.00    -0.245 OA
BRANCH   8  10
ATOM     10  C   UNL A   1      33.592  25.953  23.052  1.00  0.00     0.293 C 
BRANCH  10  11
ATOM     11  C   UNL A   1      32.578  26.703  22.156  1.00  0.00     0.077 C 
BRANCH  11  12
ATOM     12  C   UNL A   1      31.853  25.808  21.122  1.00  0.00     0.003 C 
ATOM     13  C   UNL A   1      32.618  25.554  19.826  1.00  0.00     0.004 C 
ENDBRANCH  11  12
ENDBRANCH  10  11
BRANCH  10  14
ATOM     14  N   UNL A   1      33.668  26.651  24.360  1.00  0.00    -0.330 N 
ATOM     15  H   UNL A   1      34.284  27.456  24.251  1.00  0.00     0.347 HD
ATOM     16  H   UNL A   1      34.010  25.959  25.027  1.00  0.00     0.347 HD
BRANCH  14  17
ATOM     17  C   UNL A   1      32.391  27.130  24.896  1.00  0.00     0.309 C 
BRANCH  17  18
ATOM     18  C   UNL A   1      32.502  28.410  25.677  1.00  0.00     0.060 A 
ATOM     19  C   UNL A   1      31.656  29.504  25.686  1.00  0.00     0.041 A 
ATOM     20  S   UNL A   1      33.836  28.653  26.732  1.00  0.00    -0.141 S 
ATOM     21  C   UNL A   1      32.152  30.567  26.489  1.00  0.00     0.052 A 
ATOM     22  C   UNL A   1      33.332  30.240  27.112  1.00  0.00     0.085 A 
ATOM     23  Cl  UNL A   1      31.349  32.067  26.632  1.00  0.00    -0.083 Cl
ENDBRANCH  17  18
ENDBRANCH  14  17
ENDBRANCH  10  14
ENDBRANCH   8  10
ENDBRANCH   7   8
ENDBRANCH   6   7
ENDBRANCH   5   6
ENDBRANCH   4   5
ENDBRANCH   3   4
ENDBRANCH   2   3
ENDBRANCH   1   2
BRANCH   1  24
ATOM     24  C   UNL A   1      40.577  22.176  27.043  1.00  0.00     0.188 C 
BRANCH  24  25
ATOM     25  C   UNL A   1      42.015  21.640  27.184  1.00  0.00     0.188 C 
BRANCH  25  26
ATOM     26  O   UNL A   1      42.620  21.890  28.444  1.00  0.00    -0.376 OA
BRANCH  26  27
ATOM     27  C   UNL A   1      42.810  23.238  28.844  1.00  0.00     0.202 C 
BRANCH  27  28
ATOM     28  C   UNL A   1      43.440  24.205  27.830  1.00  0.00     0.261 C 
BRANCH  28  29
ATOM     29  O   UNL A   1      42.678  25.376  27.493  1.00  0.00    -0.460 OA
BRANCH  29  30
ATOM     30  C   UNL A   1      43.320  26.564  27.415  1.00  0.00     0.338 C 
ATOM     31  O   UNL A   1      43.537  27.215  26.417  1.00  0.00    -0.246 OA
BRANCH  30  32
ATOM     32  C   UNL A   1      43.535  27.042  28.801  1.00  0.00     0.060 A 
ATOM     33  C   UNL A   1      44.783  27.572  29.151  1.00  0.00     0.016 A 
ATOM     34  C   UNL A   1      42.509  26.968  29.744  1.00  0.00     0.016 A 
ATOM     35  C   UNL A   1      45.022  27.995  30.460  1.00  0.00     0.010 A 
ATOM     36  C   UNL A   1      42.756  27.372  31.059  1.00  0.00     0.010 A 
ATOM     37  C   UNL A   1      44.024  27.854  31.431  1.00  0.00    -0.014 A 
BRANCH  37  38
ATOM     38  C   UNL A   1      44.354  28.026  32.867  1.00  0.00     0.031 A 
ATOM     39  C   UNL A   1      44.046  29.349  33.515  1.00  0.00     0.074 A 
ATOM     40  C   UNL A   1      44.931  27.042  33.578  1.00  0.00     0.049 A 
ATOM     41  N   UNL A   1      44.315  29.762  34.724  1.00  0.00    -0.248 NA
ATOM     42  C   UNL A   1      43.342  30.339  32.682  1.00  0.00     0.031 C 
ATOM     43  C   UNL A   1      45.262  25.712  33.070  1.00  0.00     0.029 A 
ATOM     44  N   UNL A   1      45.371  27.026  34.880  1.00  0.00    -0.354 N 
ATOM     45  C   UNL A   1      43.851  31.072  34.787  1.00  0.00     0.074 A 
ATOM     46  C   UNL A   1      43.286  31.384  33.493  1.00  0.00     0.031 C 
ATOM     47  C   UNL A   1      45.889  25.021  34.040  1.00  0.00     0.029 A 
ATOM     48  C   UNL A   1      46.033  25.870  35.221  1.00  0.00     0.049 A 
ATOM     49  H   UNL A   1      45.225  27.771  35.507  1.00  0.00     0.167 HD
ATOM     50  C   UNL A   1      43.886  31.933  35.830  1.00  0.00     0.034 A 
ATOM     51  C   UNL A   1      46.710  25.552  36.343  1.00  0.00     0.034 A 
ATOM     52  C   UNL A   1      44.438  31.616  37.118  1.00  0.00     0.049 A 
ATOM     53  C   UNL A   1      46.772  26.546  37.476  1.00  0.00     0.074 A 
ATOM     54  C   UNL A   1      44.476  32.405  38.254  1.00  0.00     0.029 A 
ATOM     55  N   UNL A   1      45.069  30.424  37.437  1.00  0.00    -0.354 N 
ATOM     56  N   UNL A   1      46.233  27.738  37.561  1.00  0.00    -0.248 NA
ATOM     57  C   UNL A   1      47.515  26.139  38.679  1.00  0.00     0.031 C 
ATOM     58  C   UNL A   1      45.169  31.707  39.246  1.00  0.00     0.029 A 
ATOM     59  C   UNL A   1      45.520  30.463  38.745  1.00  0.00     0.049 A 
ATOM     60  H   UNL A   1      45.180  29.662  36.824  1.00  0.00     0.167 HD
ATOM     61  C   UNL A   1      46.537  28.207  38.835  1.00  0.00     0.074 A 
ATOM     62  C   UNL A   1      47.294  27.163  39.495  1.00  0.00     0.031 C 
ATOM     63  C   UNL A   1      46.228  29.398  39.406  1.00  0.00     0.034 A 
BRANCH  50  64
ATOM     64  C   UNL A   1      43.309  33.309  35.622  1.00  0.00     0.023 A 
ATOM     65  C   UNL A   1      44.084  34.313  35.008  1.00  0.00     0.012 A 
ATOM     66  C   UNL A   1      41.976  33.588  35.986  1.00  0.00     0.148 A 
ATOM     67  C   UNL A   1      43.554  35.584  34.789  1.00  0.00     0.002 A 
ATOM     68  C   UNL A   1      41.440  34.841  35.721  1.00  0.00     0.091 A 
ATOM     69  F   UNL A   1      41.264  32.627  36.588  1.00  0.00    -0.205 F 
ATOM     70  C   UNL A   1      42.230  35.844  35.134  1.00  0.00     0.022 A 
BRANCH  68  71
ATOM     71  S   UNL A   1      39.723  35.250  36.053  1.00  0.00     0.127 S 
ATOM     72  O   UNL A   1      39.706  36.688  35.784  1.00  0.00    -0.237 OA
ATOM     73  O   UNL A   1      39.018  34.436  35.062  1.00  0.00    -0.237 OA
ATOM     74  O   UNL A   1      39.479  34.873  37.437  1.00  0.00    -0.744 OA
ENDBRANCH  68  71
ENDBRANCH  50  64
BRANCH  51  75
ATOM     75  C   UNL A   1      47.386  24.227  36.459  1.00  0.00     0.023 A 
ATOM     76  C   UNL A   1      48.746  24.104  36.116  1.00  0.00     0.012 A 
ATOM     77  C   UNL A   1      46.685  23.090  36.906  1.00  0.00     0.148 A 
ATOM     78  C   UNL A   1      49.386  22.865  36.182  1.00  0.00     0.002 A 
ATOM     79  C   UNL A   1      47.343  21.872  37.026  1.00  0.00     0.091 A 
ATOM     80  F   UNL A   1      45.387  23.225  37.212  1.00  0.00    -0.205 F 
ATOM     81  C   UNL A   1      48.688  21.753  36.647  1.00  0.00     0.022 A 
BRANCH  79  82
ATOM     82  S   UNL A   1      46.561  20.416  37.728  1.00  0.00     0.127 S 
ATOM     83  O   UNL A   1      45.589  20.071  36.694  1.00  0.00    -0.237 OA
ATOM     84  O   UNL A   1      47.693  19.496  37.844  1.00  0.00    -0.237 OA
ATOM     85  O   UNL A   1      46.000  20.844  39.002  1.00  0.00    -0.744 OA
ENDBRANCH  79  82
ENDBRANCH  51  75
BRANCH  63  86
ATOM     86  C   UNL A   1      46.658  29.632  40.832  1.00  0.00     0.023 A 
ATOM     87  C   UNL A   1      47.902  30.234  41.107  1.00  0.00     0.012 A 
ATOM     88  C   UNL A   1      45.783  29.337  41.899  1.00  0.00     0.148 A 
ATOM     89  C   UNL A   1      48.282  30.509  42.421  1.00  0.00     0.002 A 
ATOM     90  C   UNL A   1      46.146  29.663  43.199  1.00  0.00     0.091 A 
ATOM     91  F   UNL A   1      44.610  28.753  41.618  1.00  0.00    -0.205 F 
ATOM     92  C   UNL A   1      47.400  30.235  43.464  1.00  0.00     0.022 A 
BRANCH  90  93
ATOM     93  S   UNL A   1      45.038  29.440  44.595  1.00  0.00     0.127 S 
ATOM     94  O   UNL A   1      45.843  29.956  45.701  1.00  0.00    -0.237 OA
ATOM     95  O   UNL A   1      43.901  30.284  44.224  1.00  0.00    -0.237 OA
ATOM     96  O   UNL A   1      44.742  28.015  44.654  1.00  0.00    -0.744 OA
ENDBRANCH  90  93
ENDBRANCH  63  86
ENDBRANCH  37  38
ENDBRANCH  30  32
ENDBRANCH  29  30
ENDBRANCH  28  29
ENDBRANCH  27  28
ENDBRANCH  26  27
ENDBRANCH  25  26
ENDBRANCH  24  25
ENDBRANCH   1  24
TORSDOF 28
ENDMDL
MODEL 3
REMARK VINA RESULT:      -6.2      4.794     10.498
REMARK SMILES CCC[C@@H]([NH2+]Cc1cc(Cl)cs1)C(=O)OCCOCCOCCOCCOC(=O)c1ccc(-c2c3nc(c(-c4cccc(S(=O)(=O)[O-])c4F)c4ccc([nH]4)c(-c4cccc(S(=O)(=O)[O-])c4F)c4nc(c(-c5cccc(S(=O)(=O)[O-])c5F)c5ccc2[nH]5)C=C4)C=C3)cc1
REMARK SMILES IDX 21 1 20 2 19 3 18 4 17 5 16 6 15 7 13 8 14 9 4 10 3 11 2 12
REMARK SMILES IDX 1 13 5 14 6 17 7 18 8 19 12 20 9 21 11 22 10 23 22 24 23 25
REMARK SMILES IDX 24 26 25 27 26 28 27 29 28 30 29 31 30 32 31 33 92 34 32 35
REMARK SMILES IDX 91 36 33 37 34 38 35 39 85 40 36 41 90 42 84 43 86 44 37 45
REMARK SMILES IDX 89 46 83 47 82 48 38 50 70 51 50 52 69 53 51 54 54 55 68 56
REMARK SMILES IDX 87 57 52 58 53 59 67 61 88 62 55 63 39 64 40 65 48 66 41 67
REMARK SMILES IDX 43 68 49 69 42 70 44 71 45 72 46 73 47 74 71 75 72 76 80 77
REMARK SMILES IDX 73 78 75 79 81 80 74 81 76 82 77 83 78 84 79 85 56 86 57 87
REMARK SMILES IDX 65 88 58 89 60 90 66 91 59 92 61 93 62 94 63 95 64 96
REMARK H PARENT 5 15 5 16 86 49 54 60
REMARK Flexibility Score: inf
ROOT
ATOM      1  O   UNL A   1      39.648  29.795  31.331  1.00  0.00    -0.377 OA
ENDROOT
BRANCH   1   2
ATOM      2  C   UNL A   1      41.036  29.618  31.165  1.00  0.00     0.188 C 
BRANCH   2   3
ATOM      3  C   UNL A   1      41.557  28.201  31.428  1.00  0.00     0.188 C 
BRANCH   3   4
ATOM      4  O   UNL A   1      42.222  27.478  30.416  1.00  0.00    -0.376 OA
BRANCH   4   5
ATOM      5  C   UNL A   1      42.512  27.990  29.125  1.00  0.00     0.202 C 
BRANCH   5   6
ATOM      6  C   UNL A   1      42.497  27.241  27.775  1.00  0.00     0.261 C 
BRANCH   6   7
ATOM      7  O   UNL A   1      41.253  26.779  27.243  1.00  0.00    -0.459 OA
BRANCH   7   8
ATOM      8  C   UNL A   1      41.396  25.872  26.255  1.00  0.00     0.364 C 
ATOM      9  O   UNL A   1      41.259  26.162  25.066  1.00  0.00    -0.245 OA
BRANCH   8  10
ATOM     10  C   UNL A   1      41.809  24.454  26.707  1.00  0.00     0.293 C 
BRANCH  10  11
ATOM     11  C   UNL A   1      40.799  23.606  27.516  1.00  0.00     0.077 C 
BRANCH  11  12
ATOM     12  C   UNL A   1      39.529  23.202  26.730  1.00  0.00     0.003 C 
ATOM     13  C   UNL A   1      38.405  24.235  26.727  1.00  0.00     0.004 C 
ENDBRANCH  11  12
ENDBRANCH  10  11
BRANCH  10  14
ATOM     14  N   UNL A   1      42.280  23.646  25.553  1.00  0.00    -0.330 N 
ATOM     15  H   UNL A   1      42.314  24.255  24.736  1.00  0.00     0.347 HD
ATOM     16  H   UNL A   1      41.619  22.874  25.464  1.00  0.00     0.347 HD
BRANCH  14  17
ATOM     17  C   UNL A   1      43.600  23.029  25.711  1.00  0.00     0.309 C 
BRANCH  17  18
ATOM     18  C   UNL A   1      44.710  24.018  25.933  1.00  0.00     0.060 A 
ATOM     19  C   UNL A   1      45.150  25.038  25.107  1.00  0.00     0.041 A 
ATOM     20  S   UNL A   1      45.631  23.958  27.381  1.00  0.00    -0.141 S 
ATOM     21  C   UNL A   1      46.292  25.703  25.627  1.00  0.00     0.052 A 
ATOM     22  C   UNL A   1      46.663  25.214  26.856  1.00  0.00     0.085 A 
ATOM     23  Cl  UNL A   1      47.090  26.958  24.788  1.00  0.00    -0.083 Cl
ENDBRANCH  17  18
ENDBRANCH  14  17
ENDBRANCH  10  14
ENDBRANCH   8  10
ENDBRANCH   7   8
ENDBRANCH   6   7
ENDBRANCH   5   6
ENDBRANCH   4   5
ENDBRANCH   3   4
ENDBRANCH   2   3
ENDBRANCH   1   2
BRANCH   1  24
ATOM     24  C   UNL A   1      38.835  30.083  30.201  1.00  0.00     0.188 C 
BRANCH  24  25
ATOM     25  C   UNL A   1      38.465  31.539  29.856  1.00  0.00     0.188 C 
BRANCH  25  26
ATOM     26  O   UNL A   1      37.544  31.680  28.786  1.00  0.00    -0.376 OA
BRANCH  26  27
ATOM     27  C   UNL A   1      36.179  31.372  29.028  1.00  0.00     0.202 C 
BRANCH  27  28
ATOM     28  C   UNL A   1      35.420  32.234  30.048  1.00  0.00     0.261 C 
BRANCH  28  29
ATOM     29  O   UNL A   1      35.361  31.739  31.396  1.00  0.00    -0.460 OA
BRANCH  29  30
ATOM     30  C   UNL A   1      34.801  32.521  32.347  1.00  0.00     0.338 C 
ATOM     31  O   UNL A   1      33.630  32.806  32.463  1.00  0.00    -0.246 OA
BRANCH  30  32
ATOM     32  C   UNL A   1      35.846  32.805  33.358  1.00  0.00     0.060 A 
ATOM     33  C   UNL A   1      35.721  33.945  34.163  1.00  0.00     0.016 A 
ATOM     34  C   UNL A   1      36.940  31.951  33.508  1.00  0.00     0.016 A 
ATOM     35  C   UNL A   1      36.711  34.254  35.097  1.00  0.00     0.010 A 
ATOM     36  C   UNL A   1      37.940  32.274  34.428  1.00  0.00     0.010 A 
ATOM     37  C   UNL A   1      37.848  33.445  35.202  1.00  0.00    -0.014 A 
BRANCH  37  38
ATOM     38  C   UNL A   1      39.026  33.914  35.971  1.00  0.00     0.031 A 
ATOM     39  C   UNL A   1      39.008  33.755  37.467  1.00  0.00     0.074 A 
ATOM     40  C   UNL A   1      40.081  34.485  35.364  1.00  0.00     0.049 A 
ATOM     41  N   UNL A   1      39.877  34.160  38.355  1.00  0.00    -0.248 NA
ATOM     42  C   UNL A   1      37.849  33.047  38.038  1.00  0.00     0.031 C 
ATOM     43  C   UNL A   1      40.225  34.680  33.923  1.00  0.00     0.029 A 
ATOM     44  N   UNL A   1      41.220  35.039  35.896  1.00  0.00    -0.354 N 
ATOM     45  C   UNL A   1      39.354  33.792  39.590  1.00  0.00     0.074 A 
ATOM     46  C   UNL A   1      38.091  33.135  39.337  1.00  0.00     0.031 C 
ATOM     47  C   UNL A   1      41.371  35.343  33.687  1.00  0.00     0.029 A 
ATOM     48  C   UNL A   1      42.021  35.650  34.959  1.00  0.00     0.049 A 
ATOM     49  H   UNL A   1      41.441  35.001  36.854  1.00  0.00     0.167 HD
ATOM     50  C   UNL A   1      39.881  33.979  40.821  1.00  0.00     0.034 A 
ATOM     51  C   UNL A   1      43.129  36.402  35.118  1.00  0.00     0.034 A 
ATOM     52  C   UNL A   1      41.141  34.622  41.069  1.00  0.00     0.049 A 
ATOM     53  C   UNL A   1      43.674  36.633  36.506  1.00  0.00     0.074 A 
ATOM     54  C   UNL A   1      41.784  34.815  42.279  1.00  0.00     0.029 A 
ATOM     55  N   UNL A   1      41.941  35.198  40.095  1.00  0.00    -0.354 N 
ATOM     56  N   UNL A   1      43.228  36.185  37.654  1.00  0.00    -0.248 NA
ATOM     57  C   UNL A   1      44.891  37.453  36.616  1.00  0.00     0.031 C 
ATOM     58  C   UNL A   1      42.950  35.547  42.041  1.00  0.00     0.029 A 
ATOM     59  C   UNL A   1      43.060  35.767  40.677  1.00  0.00     0.049 A 
ATOM     60  H   UNL A   1      41.742  35.202  39.130  1.00  0.00     0.167 HD
ATOM     61  C   UNL A   1      44.127  36.634  38.617  1.00  0.00     0.074 A 
ATOM     62  C   UNL A   1      45.154  37.376  37.914  1.00  0.00     0.031 C 
ATOM     63  C   UNL A   1      44.101  36.458  39.962  1.00  0.00     0.034 A 
BRANCH  50  64
ATOM     64  C   UNL A   1      39.092  33.479  42.004  1.00  0.00     0.023 A 
ATOM     65  C   UNL A   1      38.229  34.352  42.695  1.00  0.00     0.012 A 
ATOM     66  C   UNL A   1      39.168  32.127  42.394  1.00  0.00     0.148 A 
ATOM     67  C   UNL A   1      37.477  33.897  43.777  1.00  0.00     0.002 A 
ATOM     68  C   UNL A   1      38.379  31.669  43.441  1.00  0.00     0.091 A 
ATOM     69  F   UNL A   1      40.011  31.319  41.738  1.00  0.00    -0.205 F 
ATOM     70  C   UNL A   1      37.543  32.554  44.142  1.00  0.00     0.022 A 
BRANCH  68  71
ATOM     71  S   UNL A   1      38.332  29.943  43.935  1.00  0.00     0.127 S 
ATOM     72  O   UNL A   1      39.627  29.791  44.598  1.00  0.00    -0.237 OA
ATOM     73  O   UNL A   1      37.179  29.915  44.836  1.00  0.00    -0.237 OA
ATOM     74  O   UNL A   1      38.166  29.177  42.710  1.00  0.00    -0.744 OA
ENDBRANCH  68  71
ENDBRANCH  50  64
BRANCH  51  75
ATOM     75  C   UNL A   1      43.808  36.995  33.929  1.00  0.00     0.023 A 
ATOM     76  C   UNL A   1      44.681  36.206  33.157  1.00  0.00     0.012 A 
ATOM     77  C   UNL A   1      43.594  38.339  33.565  1.00  0.00     0.148 A 
ATOM     78  C   UNL A   1      45.355  36.752  32.064  1.00  0.00     0.002 A 
ATOM     79  C   UNL A   1      44.222  38.861  32.441  1.00  0.00     0.091 A 
ATOM     80  F   UNL A   1      42.773  39.079  34.323  1.00  0.00    -0.205 F 
ATOM     81  C   UNL A   1      45.118  38.076  31.700  1.00  0.00     0.022 A 
BRANCH  79  82
ATOM     82  S   UNL A   1      43.887  40.515  31.827  1.00  0.00     0.127 S 
ATOM     83  O   UNL A   1      42.428  40.520  31.764  1.00  0.00    -0.237 OA
ATOM     84  O   UNL A   1      44.462  41.348  32.882  1.00  0.00    -0.237 OA
ATOM     85  O   UNL A   1      44.573  40.607  30.545  1.00  0.00    -0.744 OA
ENDBRANCH  79  82
ENDBRANCH  51  75
BRANCH  63  86
ATOM     86  C   UNL A   1      45.237  37.030  40.772  1.00  0.00     0.023 A 
ATOM     87  C   UNL A   1      46.399  36.267  41.000  1.00  0.00     0.012 A 
ATOM     88  C   UNL A   1      45.186  38.363  41.229  1.00  0.00     0.148 A 
ATOM     89  C   UNL A   1      47.478  36.809  41.698  1.00  0.00     0.002 A 
ATOM     90  C   UNL A   1      46.286  38.914  41.876  1.00  0.00     0.091 A 
ATOM     91  F   UNL A   1      44.067  39.070  41.014  1.00  0.00    -0.205 F 
ATOM     92  C   UNL A   1      47.427  38.135  42.123  1.00  0.00     0.022 A 
BRANCH  90  93
ATOM     93  S   UNL A   1      46.351  40.639  42.372  1.00  0.00     0.127 S 
ATOM     94  O   UNL A   1      45.289  40.701  43.375  1.00  0.00    -0.237 OA
ATOM     95  O   UNL A   1      47.706  40.753  42.912  1.00  0.00    -0.237 OA
ATOM     96  O   UNL A   1      46.110  41.418  41.165  1.00  0.00    -0.744 OA
ENDBRANCH  90  93
ENDBRANCH  63  86
ENDBRANCH  37  38
ENDBRANCH  30  32
ENDBRANCH  29  30
ENDBRANCH  28  29
ENDBRANCH  27  28
ENDBRANCH  26  27
ENDBRANCH  25  26
ENDBRANCH  24  25
ENDBRANCH   1  24
TORSDOF 28
ENDMDL
