MODEL 1
REMARK VINA RESULT:      -9.0      0.000      0.000
REMARK SMILES Cc1c(Br)c(C)c2c(c1Br)O[C@H](C(F)(F)F)C(C(=O)OCCOCCOCCOCCOC(=O)c1ccc(-c3c4nc(c(-c5cccc(S(=O)(=O)[O-])c5F)c5ccc([nH]5)c(-c5cccc(S(=O)(=O)[O-])c5F)c5nc(c(-c6cccc(S(=O)(=O)[O-])c6F)c6ccc3[nH]6)C=C5)C=C4)cc1)=C2
REMARK SMILES IDX 27 1 26 2 25 3 24 4 23 5 22 6 21 7 20 8 18 9 19 10 17 11
REMARK SMILES IDX 1 12 2 13 3 14 9 15 4 16 5 17 8 18 10 19 6 20 7 21 11 22
REMARK SMILES IDX 98 23 12 24 13 25 14 26 15 27 16 28 28 29 29 30 30 31 31 32
REMARK SMILES IDX 32 33 33 34 34 35 35 36 36 37 97 38 37 39 96 40 38 41 39 42
REMARK SMILES IDX 40 43 90 44 41 45 95 46 89 47 91 48 42 49 94 50 88 51 87 52
REMARK SMILES IDX 43 54 75 55 55 56 74 57 56 58 59 59 73 60 92 61 57 62 58 63
REMARK SMILES IDX 72 65 93 66 60 67 44 68 45 69 53 70 46 71 48 72 54 73 47 74
REMARK SMILES IDX 49 75 50 76 51 77 52 78 76 79 77 80 85 81 78 82 80 83 86 84
REMARK SMILES IDX 79 85 81 86 82 87 83 88 84 89 61 90 62 91 70 92 63 93 65 94
REMARK SMILES IDX 71 95 64 96 66 97 67 98 68 99 69 100
REMARK H PARENT 91 53 59 64
REMARK Flexibility Score: inf
ROOT
ATOM      1  C   UNL A   1      35.795  21.071  25.751  1.00  0.00     0.188 C 
ENDROOT
BRANCH   1   2
ATOM      2  O   UNL A   1      35.982  22.485  25.677  1.00  0.00    -0.377 OA
BRANCH   2   3
ATOM      3  C   UNL A   1      34.951  23.263  25.093  1.00  0.00     0.188 C 
BRANCH   3   4
ATOM      4  C   UNL A   1      34.473  22.708  23.738  1.00  0.00     0.188 C 
BRANCH   4   5
ATOM      5  O   UNL A   1      33.351  21.851  23.838  1.00  0.00    -0.376 OA
BRANCH   5   6
ATOM      6  C   UNL A   1      32.032  22.367  23.940  1.00  0.00     0.202 C 
BRANCH   6   7
ATOM      7  C   UNL A   1      31.319  23.185  22.844  1.00  0.00     0.261 C 
BRANCH   7   8
ATOM      8  O   UNL A   1      30.942  24.525  23.161  1.00  0.00    -0.460 OA
BRANCH   8   9
ATOM      9  C   UNL A   1      31.508  25.522  22.463  1.00  0.00     0.338 C 
ATOM     10  O   UNL A   1      31.905  25.481  21.311  1.00  0.00    -0.246 OA
BRANCH   9  11
ATOM     11  C   UNL A   1      31.379  26.755  23.273  1.00  0.00     0.087 C 
ATOM     12  C   UNL A   1      30.483  32.830  25.454  1.00  0.00     0.047 C 
ATOM     13  C   UNL A   1      30.369  31.436  24.883  1.00  0.00    -0.019 A 
ATOM     14  C   UNL A   1      29.483  31.179  23.806  1.00  0.00     0.025 A 
ATOM     15  C   UNL A   1      31.174  30.376  25.346  1.00  0.00     0.064 A 
ATOM     16  Br  UNL A   1      28.392  32.617  23.143  1.00  0.00    -0.050 Br
ATOM     17  C   UNL A   1      29.420  29.910  23.182  1.00  0.00    -0.026 A 
ATOM     18  C   UNL A   1      31.155  29.121  24.709  1.00  0.00     0.142 A 
ATOM     19  Br  UNL A   1      32.372  30.609  26.825  1.00  0.00    -0.046 Br
ATOM     20  C   UNL A   1      28.417  29.584  22.096  1.00  0.00     0.046 C 
ATOM     21  C   UNL A   1      30.327  28.906  23.600  1.00  0.00     0.022 A 
ATOM     22  O   UNL A   1      31.973  28.153  25.226  1.00  0.00    -0.474 OA
ATOM     23  C   UNL A   1      30.488  27.660  22.852  1.00  0.00     0.027 C 
ATOM     24  C   UNL A   1      32.172  26.893  24.539  1.00  0.00     0.316 C 
BRANCH  24  25
ATOM     25  C   UNL A   1      33.677  26.706  24.303  1.00  0.00     0.430 C 
ATOM     26  F   UNL A   1      33.919  25.722  23.409  1.00  0.00    -0.167 F 
ATOM     27  F   UNL A   1      34.257  27.832  23.833  1.00  0.00    -0.167 F 
ATOM     28  F   UNL A   1      34.313  26.376  25.455  1.00  0.00    -0.167 F 
ENDBRANCH  24  25
ENDBRANCH   9  11
ENDBRANCH   8   9
ENDBRANCH   7   8
ENDBRANCH   6   7
ENDBRANCH   5   6
ENDBRANCH   4   5
ENDBRANCH   3   4
ENDBRANCH   2   3
ENDBRANCH   1   2
BRANCH   1  29
ATOM     29  C   UNL A   1      36.728  20.086  25.006  1.00  0.00     0.188 C 
BRANCH  29  30
ATOM     30  O   UNL A   1      38.117  20.371  25.142  1.00  0.00    -0.376 OA
BRANCH  30  31
ATOM     31  C   UNL A   1      38.994  19.283  25.391  1.00  0.00     0.202 C 
BRANCH  31  32
ATOM     32  C   UNL A   1      40.296  19.632  26.121  1.00  0.00     0.261 C 
BRANCH  32  33
ATOM     33  O   UNL A   1      40.513  21.029  26.371  1.00  0.00    -0.460 OA
BRANCH  33  34
ATOM     34  C   UNL A   1      41.791  21.460  26.439  1.00  0.00     0.338 C 
ATOM     35  O   UNL A   1      42.781  20.898  25.999  1.00  0.00    -0.246 OA
BRANCH  34  36
ATOM     36  C   UNL A   1      41.764  22.839  26.964  1.00  0.00     0.060 A 
ATOM     37  C   UNL A   1      41.453  23.893  26.094  1.00  0.00     0.016 A 
ATOM     38  C   UNL A   1      42.024  23.086  28.314  1.00  0.00     0.016 A 
ATOM     39  C   UNL A   1      41.432  25.204  26.570  1.00  0.00     0.010 A 
ATOM     40  C   UNL A   1      42.026  24.400  28.784  1.00  0.00     0.010 A 
ATOM     41  C   UNL A   1      41.765  25.467  27.905  1.00  0.00    -0.014 A 
BRANCH  41  42
ATOM     42  C   UNL A   1      42.050  26.857  28.330  1.00  0.00     0.031 A 
ATOM     43  C   UNL A   1      43.480  27.323  28.302  1.00  0.00     0.074 A 
ATOM     44  C   UNL A   1      41.070  27.690  28.721  1.00  0.00     0.049 A 
ATOM     45  N   UNL A   1      43.981  28.480  28.646  1.00  0.00    -0.248 NA
ATOM     46  C   UNL A   1      44.480  26.355  27.817  1.00  0.00     0.031 C 
ATOM     47  C   UNL A   1      39.648  27.361  28.769  1.00  0.00     0.029 A 
ATOM     48  N   UNL A   1      41.133  28.988  29.169  1.00  0.00    -0.354 N 
ATOM     49  C   UNL A   1      45.350  28.374  28.434  1.00  0.00     0.074 A 
ATOM     50  C   UNL A   1      45.607  27.035  27.952  1.00  0.00     0.031 C 
ATOM     51  C   UNL A   1      38.971  28.425  29.238  1.00  0.00     0.029 A 
ATOM     52  C   UNL A   1      39.914  29.500  29.548  1.00  0.00     0.049 A 
ATOM     53  H   UNL A   1      41.970  29.502  29.214  1.00  0.00     0.167 HD
ATOM     54  C   UNL A   1      46.307  29.315  28.602  1.00  0.00     0.034 A 
ATOM     55  C   UNL A   1      39.602  30.693  30.095  1.00  0.00     0.034 A 
ATOM     56  C   UNL A   1      46.049  30.647  29.072  1.00  0.00     0.049 A 
ATOM     57  C   UNL A   1      40.697  31.704  30.331  1.00  0.00     0.074 A 
ATOM     58  C   UNL A   1      46.950  31.680  29.257  1.00  0.00     0.029 A 
ATOM     59  N   UNL A   1      44.803  31.131  29.439  1.00  0.00    -0.354 N 
ATOM     60  N   UNL A   1      41.972  31.627  30.035  1.00  0.00    -0.248 NA
ATOM     61  C   UNL A   1      40.307  32.979  30.954  1.00  0.00     0.031 C 
ATOM     62  C   UNL A   1      46.255  32.779  29.765  1.00  0.00     0.029 A 
ATOM     63  C   UNL A   1      44.913  32.444  29.862  1.00  0.00     0.049 A 
ATOM     64  H   UNL A   1      43.964  30.617  29.404  1.00  0.00     0.167 HD
ATOM     65  C   UNL A   1      42.529  32.849  30.401  1.00  0.00     0.074 A 
ATOM     66  C   UNL A   1      41.447  33.658  30.922  1.00  0.00     0.031 C 
ATOM     67  C   UNL A   1      43.820  33.258  30.328  1.00  0.00     0.034 A 
BRANCH  54  68
ATOM     68  C   UNL A   1      47.723  28.952  28.243  1.00  0.00     0.023 A 
ATOM     69  C   UNL A   1      48.165  29.120  26.915  1.00  0.00     0.012 A 
ATOM     70  C   UNL A   1      48.635  28.530  29.230  1.00  0.00     0.148 A 
ATOM     71  C   UNL A   1      49.490  28.856  26.571  1.00  0.00     0.002 A 
ATOM     72  C   UNL A   1      49.965  28.315  28.887  1.00  0.00     0.091 A 
ATOM     73  F   UNL A   1      48.186  28.353  30.480  1.00  0.00    -0.205 F 
ATOM     74  C   UNL A   1      50.391  28.467  27.558  1.00  0.00     0.022 A 
BRANCH  72  75
ATOM     75  S   UNL A   1      51.224  27.894  30.098  1.00  0.00     0.127 S 
ATOM     76  O   UNL A   1      52.385  27.650  29.242  1.00  0.00    -0.237 OA
ATOM     77  O   UNL A   1      51.299  29.118  30.895  1.00  0.00    -0.237 OA
ATOM     78  O   UNL A   1      50.725  26.728  30.812  1.00  0.00    -0.744 OA
ENDBRANCH  72  75
ENDBRANCH  54  68
BRANCH  55  79
ATOM     79  C   UNL A   1      38.182  31.019  30.417  1.00  0.00     0.023 A 
ATOM     80  C   UNL A   1      37.622  30.556  31.623  1.00  0.00     0.012 A 
ATOM     81  C   UNL A   1      37.392  31.801  29.551  1.00  0.00     0.148 A 
ATOM     82  C   UNL A   1      36.296  30.846  31.952  1.00  0.00     0.002 A 
ATOM     83  C   UNL A   1      36.090  32.134  29.911  1.00  0.00     0.091 A 
ATOM     84  F   UNL A   1      37.935  32.215  28.398  1.00  0.00    -0.205 F 
ATOM     85  C   UNL A   1      35.535  31.643  31.102  1.00  0.00     0.022 A 
BRANCH  83  86
ATOM     86  S   UNL A   1      35.079  33.263  28.947  1.00  0.00     0.127 S 
ATOM     87  O   UNL A   1      35.134  32.656  27.620  1.00  0.00    -0.237 OA
ATOM     88  O   UNL A   1      33.786  33.153  29.622  1.00  0.00    -0.237 OA
ATOM     89  O   UNL A   1      35.715  34.567  29.070  1.00  0.00    -0.744 OA
ENDBRANCH  83  86
ENDBRANCH  55  79
BRANCH  67  90
ATOM     90  C   UNL A   1      44.157  34.651  30.799  1.00  0.00     0.023 A 
ATOM     91  C   UNL A   1      44.697  34.842  32.086  1.00  0.00     0.012 A 
ATOM     92  C   UNL A   1      44.061  35.750  29.920  1.00  0.00     0.148 A 
ATOM     93  C   UNL A   1      45.116  36.106  32.499  1.00  0.00     0.002 A 
ATOM     94  C   UNL A   1      44.530  36.997  30.319  1.00  0.00     0.091 A 
ATOM     95  F   UNL A   1      43.533  35.551  28.703  1.00  0.00    -0.205 F 
ATOM     96  C   UNL A   1      45.046  37.179  31.612  1.00  0.00     0.022 A 
BRANCH  94  97
ATOM     97  S   UNL A   1      44.586  38.411  29.212  1.00  0.00     0.127 S 
ATOM     98  O   UNL A   1      45.327  37.869  28.074  1.00  0.00    -0.237 OA
ATOM     99  O   UNL A   1      43.166  38.657  28.954  1.00  0.00    -0.237 OA
ATOM    100  O   UNL A   1      45.261  39.473  29.945  1.00  0.00    -0.744 OA
ENDBRANCH  94  97
ENDBRANCH  67  90
ENDBRANCH  41  42
ENDBRANCH  34  36
ENDBRANCH  33  34
ENDBRANCH  32  33
ENDBRANCH  31  32
ENDBRANCH  30  31
ENDBRANCH  29  30
ENDBRANCH   1  29
TORSDOF 24
ENDMDL
MODEL 2
REMARK VINA RESULT:      -8.5      1.158      7.514
REMARK SMILES Cc1c(Br)c(C)c2c(c1Br)O[C@H](C(F)(F)F)C(C(=O)OCCOCCOCCOCCOC(=O)c1ccc(-c3c4nc(c(-c5cccc(S(=O)(=O)[O-])c5F)c5ccc([nH]5)c(-c5cccc(S(=O)(=O)[O-])c5F)c5nc(c(-c6cccc(S(=O)(=O)[O-])c6F)c6ccc3[nH]6)C=C5)C=C4)cc1)=C2
REMARK SMILES IDX 27 1 26 2 25 3 24 4 23 5 22 6 21 7 20 8 18 9 19 10 17 11
REMARK SMILES IDX 1 12 2 13 3 14 9 15 4 16 5 17 8 18 10 19 6 20 7 21 11 22
REMARK SMILES IDX 98 23 12 24 13 25 14 26 15 27 16 28 28 29 29 30 30 31 31 32
REMARK SMILES IDX 32 33 33 34 34 35 35 36 36 37 97 38 37 39 96 40 38 41 39 42
REMARK SMILES IDX 40 43 90 44 41 45 95 46 89 47 91 48 42 49 94 50 88 51 87 52
REMARK SMILES IDX 43 54 75 55 55 56 74 57 56 58 59 59 73 60 92 61 57 62 58 63
REMARK SMILES IDX 72 65 93 66 60 67 44 68 45 69 53 70 46 71 48 72 54 73 47 74
REMARK SMILES IDX 49 75 50 76 51 77 52 78 76 79 77 80 85 81 78 82 80 83 86 84
REMARK SMILES IDX 79 85 81 86 82 87 83 88 84 89 61 90 62 91 70 92 63 93 65 94
REMARK SMILES IDX 71 95 64 96 66 97 67 98 68 99 69 100
REMARK H PARENT 91 53 59 64
REMARK Flexibility Score: inf
ROOT
ATOM      1  C   UNL A   1      36.009  20.671  25.003  1.00  0.00     0.188 C 
ENDROOT
BRANCH   1   2
ATOM      2  O   UNL A   1      35.915  21.871  25.773  1.00  0.00    -0.377 OA
BRANCH   2   3
ATOM      3  C   UNL A   1      35.578  23.071  25.098  1.00  0.00     0.188 C 
BRANCH   3   4
ATOM      4  C   UNL A   1      35.615  22.929  23.565  1.00  0.00     0.188 C 
BRANCH   4   5
ATOM      5  O   UNL A   1      34.339  22.740  22.980  1.00  0.00    -0.376 OA
BRANCH   5   6
ATOM      6  C   UNL A   1      33.167  23.279  23.572  1.00  0.00     0.202 C 
BRANCH   6   7
ATOM      7  C   UNL A   1      32.501  24.607  23.158  1.00  0.00     0.261 C 
BRANCH   7   8
ATOM      8  O   UNL A   1      32.854  25.779  23.893  1.00  0.00    -0.460 OA
BRANCH   8   9
ATOM      9  C   UNL A   1      32.307  25.950  25.107  1.00  0.00     0.338 C 
ATOM     10  O   UNL A   1      32.343  25.176  26.047  1.00  0.00    -0.246 OA
BRANCH   9  11
ATOM     11  C   UNL A   1      31.820  27.348  25.177  1.00  0.00     0.087 C 
ATOM     12  C   UNL A   1      29.540  33.325  23.938  1.00  0.00     0.047 C 
ATOM     13  C   UNL A   1      29.768  31.844  24.129  1.00  0.00    -0.019 A 
ATOM     14  C   UNL A   1      29.174  30.912  23.241  1.00  0.00     0.025 A 
ATOM     15  C   UNL A   1      30.620  31.348  25.137  1.00  0.00     0.064 A 
ATOM     16  Br  UNL A   1      28.026  31.568  21.845  1.00  0.00    -0.050 Br
ATOM     17  C   UNL A   1      29.443  29.525  23.331  1.00  0.00    -0.026 A 
ATOM     18  C   UNL A   1      30.933  29.978  25.212  1.00  0.00     0.142 A 
ATOM     19  Br  UNL A   1      31.438  32.522  26.414  1.00  0.00    -0.046 Br
ATOM     20  C   UNL A   1      28.749  28.502  22.458  1.00  0.00     0.046 C 
ATOM     21  C   UNL A   1      30.395  29.081  24.281  1.00  0.00     0.022 A 
ATOM     22  O   UNL A   1      31.772  29.590  26.222  1.00  0.00    -0.474 OA
ATOM     23  C   UNL A   1      30.902  27.709  24.274  1.00  0.00     0.027 C 
ATOM     24  C   UNL A   1      32.305  28.244  26.278  1.00  0.00     0.316 C 
BRANCH  24  25
ATOM     25  C   UNL A   1      33.837  28.336  26.318  1.00  0.00     0.430 C 
ATOM     26  F   UNL A   1      34.407  27.110  26.296  1.00  0.00    -0.167 F 
ATOM     27  F   UNL A   1      34.328  29.029  25.268  1.00  0.00    -0.167 F 
ATOM     28  F   UNL A   1      34.258  28.960  27.446  1.00  0.00    -0.167 F 
ENDBRANCH  24  25
ENDBRANCH   9  11
ENDBRANCH   8   9
ENDBRANCH   7   8
ENDBRANCH   6   7
ENDBRANCH   5   6
ENDBRANCH   4   5
ENDBRANCH   3   4
ENDBRANCH   2   3
ENDBRANCH   1   2
BRANCH   1  29
ATOM     29  C   UNL A   1      37.368  19.984  24.729  1.00  0.00     0.188 C 
BRANCH  29  30
ATOM     30  O   UNL A   1      38.485  20.616  25.348  1.00  0.00    -0.376 OA
BRANCH  30  31
ATOM     31  C   UNL A   1      39.606  19.808  25.670  1.00  0.00     0.202 C 
BRANCH  31  32
ATOM     32  C   UNL A   1      40.691  20.483  26.519  1.00  0.00     0.261 C 
BRANCH  32  33
ATOM     33  O   UNL A   1      40.753  21.914  26.423  1.00  0.00    -0.460 OA
BRANCH  33  34
ATOM     34  C   UNL A   1      41.938  22.465  26.083  1.00  0.00     0.338 C 
ATOM     35  O   UNL A   1      42.743  22.036  25.273  1.00  0.00    -0.246 OA
BRANCH  34  36
ATOM     36  C   UNL A   1      42.002  23.797  26.716  1.00  0.00     0.060 A 
ATOM     37  C   UNL A   1      41.757  24.935  25.936  1.00  0.00     0.016 A 
ATOM     38  C   UNL A   1      42.282  23.917  28.080  1.00  0.00     0.016 A 
ATOM     39  C   UNL A   1      41.823  26.202  26.515  1.00  0.00     0.010 A 
ATOM     40  C   UNL A   1      42.371  25.187  28.653  1.00  0.00     0.010 A 
ATOM     41  C   UNL A   1      42.176  26.336  27.865  1.00  0.00    -0.014 A 
BRANCH  41  42
ATOM     42  C   UNL A   1      42.552  27.666  28.396  1.00  0.00     0.031 A 
ATOM     43  C   UNL A   1      41.452  28.560  28.900  1.00  0.00     0.074 A 
ATOM     44  C   UNL A   1      43.833  28.072  28.442  1.00  0.00     0.049 A 
ATOM     45  N   UNL A   1      41.526  29.770  29.387  1.00  0.00    -0.248 NA
ATOM     46  C   UNL A   1      40.084  28.014  28.851  1.00  0.00     0.031 C 
ATOM     47  C   UNL A   1      44.985  27.287  28.004  1.00  0.00     0.029 A 
ATOM     48  N   UNL A   1      44.375  29.260  28.867  1.00  0.00    -0.354 N 
ATOM     49  C   UNL A   1      40.219  30.134  29.687  1.00  0.00     0.074 A 
ATOM     50  C   UNL A   1      39.369  29.028  29.310  1.00  0.00     0.031 C 
ATOM     51  C   UNL A   1      46.100  28.023  28.169  1.00  0.00     0.029 A 
ATOM     52  C   UNL A   1      45.737  29.338  28.697  1.00  0.00     0.049 A 
ATOM     53  H   UNL A   1      43.839  29.987  29.258  1.00  0.00     0.167 HD
ATOM     54  C   UNL A   1      39.769  31.279  30.251  1.00  0.00     0.034 A 
ATOM     55  C   UNL A   1      46.587  30.359  28.929  1.00  0.00     0.034 A 
ATOM     56  C   UNL A   1      40.617  32.373  30.634  1.00  0.00     0.049 A 
ATOM     57  C   UNL A   1      46.052  31.649  29.500  1.00  0.00     0.074 A 
ATOM     58  C   UNL A   1      40.256  33.567  31.231  1.00  0.00     0.029 A 
ATOM     59  N   UNL A   1      41.990  32.412  30.453  1.00  0.00    -0.354 N 
ATOM     60  N   UNL A   1      44.829  31.944  29.871  1.00  0.00    -0.248 NA
ATOM     61  C   UNL A   1      47.017  32.740  29.710  1.00  0.00     0.031 C 
ATOM     62  C   UNL A   1      41.408  34.343  31.383  1.00  0.00     0.029 A 
ATOM     63  C   UNL A   1      42.492  33.617  30.914  1.00  0.00     0.049 A 
ATOM     64  H   UNL A   1      42.529  31.691  30.056  1.00  0.00     0.167 HD
ATOM     65  C   UNL A   1      44.883  33.236  30.388  1.00  0.00     0.074 A 
ATOM     66  C   UNL A   1      46.265  33.660  30.302  1.00  0.00     0.031 C 
ATOM     67  C   UNL A   1      43.878  34.006  30.874  1.00  0.00     0.034 A 
BRANCH  54  68
ATOM     68  C   UNL A   1      38.293  31.398  30.522  1.00  0.00     0.023 A 
ATOM     69  C   UNL A   1      37.767  30.889  31.727  1.00  0.00     0.012 A 
ATOM     70  C   UNL A   1      37.446  32.084  29.630  1.00  0.00     0.148 A 
ATOM     71  C   UNL A   1      36.417  31.046  32.033  1.00  0.00     0.002 A 
ATOM     72  C   UNL A   1      36.111  32.277  29.965  1.00  0.00     0.091 A 
ATOM     73  F   UNL A   1      37.962  32.537  28.479  1.00  0.00    -0.205 F 
ATOM     74  C   UNL A   1      35.593  31.751  31.160  1.00  0.00     0.022 A 
BRANCH  72  75
ATOM     75  S   UNL A   1      34.985  33.244  28.952  1.00  0.00     0.127 S 
ATOM     76  O   UNL A   1      33.751  33.172  29.733  1.00  0.00    -0.237 OA
ATOM     77  O   UNL A   1      35.631  34.556  28.949  1.00  0.00    -0.237 OA
ATOM     78  O   UNL A   1      34.938  32.581  27.656  1.00  0.00    -0.744 OA
ENDBRANCH  72  75
ENDBRANCH  54  68
BRANCH  55  79
ATOM     79  C   UNL A   1      48.046  30.191  28.665  1.00  0.00     0.023 A 
ATOM     80  C   UNL A   1      48.603  30.726  27.488  1.00  0.00     0.012 A 
ATOM     81  C   UNL A   1      48.889  29.528  29.580  1.00  0.00     0.148 A 
ATOM     82  C   UNL A   1      49.965  30.586  27.214  1.00  0.00     0.002 A 
ATOM     83  C   UNL A   1      50.254  29.441  29.329  1.00  0.00     0.091 A 
ATOM     84  F   UNL A   1      48.338  29.006  30.685  1.00  0.00    -0.205 F 
ATOM     85  C   UNL A   1      50.791  29.954  28.139  1.00  0.00     0.022 A 
BRANCH  83  86
ATOM     86  S   UNL A   1      51.416  28.764  30.520  1.00  0.00     0.127 S 
ATOM     87  O   UNL A   1      52.670  29.385  30.100  1.00  0.00    -0.237 OA
ATOM     88  O   UNL A   1      50.872  29.264  31.783  1.00  0.00    -0.237 OA
ATOM     89  O   UNL A   1      51.346  27.318  30.362  1.00  0.00    -0.744 OA
ENDBRANCH  83  86
ENDBRANCH  55  79
BRANCH  67  90
ATOM     90  C   UNL A   1      44.216  35.388  31.378  1.00  0.00     0.023 A 
ATOM     91  C   UNL A   1      44.603  35.566  32.721  1.00  0.00     0.012 A 
ATOM     92  C   UNL A   1      44.276  36.483  30.490  1.00  0.00     0.148 A 
ATOM     93  C   UNL A   1      45.023  36.814  33.178  1.00  0.00     0.002 A 
ATOM     94  C   UNL A   1      44.747  37.711  30.940  1.00  0.00     0.091 A 
ATOM     95  F   UNL A   1      43.891  36.296  29.219  1.00  0.00    -0.205 F 
ATOM     96  C   UNL A   1      45.110  37.881  32.286  1.00  0.00     0.022 A 
BRANCH  94  97
ATOM     97  S   UNL A   1      44.999  39.112  29.844  1.00  0.00     0.127 S 
ATOM     98  O   UNL A   1      43.640  39.368  29.370  1.00  0.00    -0.237 OA
ATOM     99  O   UNL A   1      45.528  40.127  30.757  1.00  0.00    -0.237 OA
ATOM    100  O   UNL A   1      45.939  38.665  28.825  1.00  0.00    -0.744 OA
ENDBRANCH  94  97
ENDBRANCH  67  90
ENDBRANCH  41  42
ENDBRANCH  34  36
ENDBRANCH  33  34
ENDBRANCH  32  33
ENDBRANCH  31  32
ENDBRANCH  30  31
ENDBRANCH  29  30
ENDBRANCH   1  29
TORSDOF 24
ENDMDL
MODEL 3
REMARK VINA RESULT:      -8.3      4.093      6.141
REMARK SMILES Cc1c(Br)c(C)c2c(c1Br)O[C@H](C(F)(F)F)C(C(=O)OCCOCCOCCOCCOC(=O)c1ccc(-c3c4nc(c(-c5cccc(S(=O)(=O)[O-])c5F)c5ccc([nH]5)c(-c5cccc(S(=O)(=O)[O-])c5F)c5nc(c(-c6cccc(S(=O)(=O)[O-])c6F)c6ccc3[nH]6)C=C5)C=C4)cc1)=C2
REMARK SMILES IDX 27 1 26 2 25 3 24 4 23 5 22 6 21 7 20 8 18 9 19 10 17 11
REMARK SMILES IDX 1 12 2 13 3 14 9 15 4 16 5 17 8 18 10 19 6 20 7 21 11 22
REMARK SMILES IDX 98 23 12 24 13 25 14 26 15 27 16 28 28 29 29 30 30 31 31 32
REMARK SMILES IDX 32 33 33 34 34 35 35 36 36 37 97 38 37 39 96 40 38 41 39 42
REMARK SMILES IDX 40 43 90 44 41 45 95 46 89 47 91 48 42 49 94 50 88 51 87 52
REMARK SMILES IDX 43 54 75 55 55 56 74 57 56 58 59 59 73 60 92 61 57 62 58 63
REMARK SMILES IDX 72 65 93 66 60 67 44 68 45 69 53 70 46 71 48 72 54 73 47 74
REMARK SMILES IDX 49 75 50 76 51 77 52 78 76 79 77 80 85 81 78 82 80 83 86 84
REMARK SMILES IDX 79 85 81 86 82 87 83 88 84 89 61 90 62 91 70 92 63 93 65 94
REMARK SMILES IDX 71 95 64 96 66 97 67 98 68 99 69 100
REMARK H PARENT 91 53 59 64
REMARK Flexibility Score: inf
ROOT
ATOM      1  C   UNL A   1      35.935  21.980  25.133  1.00  0.00     0.188 C 
ENDROOT
BRANCH   1   2
ATOM      2  O   UNL A   1      35.872  23.372  25.451  1.00  0.00    -0.377 OA
BRANCH   2   3
ATOM      3  C   UNL A   1      35.356  24.256  24.471  1.00  0.00     0.188 C 
BRANCH   3   4
ATOM      4  C   UNL A   1      34.084  23.719  23.787  1.00  0.00     0.188 C 
BRANCH   4   5
ATOM      5  O   UNL A   1      32.923  23.813  24.591  1.00  0.00    -0.376 OA
BRANCH   5   6
ATOM      6  C   UNL A   1      32.476  25.059  25.103  1.00  0.00     0.202 C 
BRANCH   6   7
ATOM      7  C   UNL A   1      33.023  25.737  26.375  1.00  0.00     0.261 C 
BRANCH   7   8
ATOM      8  O   UNL A   1      32.896  27.155  26.474  1.00  0.00    -0.460 OA
BRANCH   8   9
ATOM      9  C   UNL A   1      33.664  27.914  25.675  1.00  0.00     0.338 C 
ATOM     10  O   UNL A   1      33.876  27.752  24.487  1.00  0.00    -0.246 OA
BRANCH   9  11
ATOM     11  C   UNL A   1      34.051  29.116  26.450  1.00  0.00     0.087 C 
ATOM     12  C   UNL A   1      36.288  33.345  30.874  1.00  0.00     0.047 C 
ATOM     13  C   UNL A   1      36.088  32.292  29.809  1.00  0.00    -0.019 A 
ATOM     14  C   UNL A   1      36.931  31.153  29.768  1.00  0.00     0.025 A 
ATOM     15  C   UNL A   1      35.033  32.370  28.877  1.00  0.00     0.064 A 
ATOM     16  Br  UNL A   1      38.363  31.015  31.044  1.00  0.00    -0.050 Br
ATOM     17  C   UNL A   1      36.713  30.101  28.846  1.00  0.00    -0.026 A 
ATOM     18  C   UNL A   1      34.776  31.313  27.984  1.00  0.00     0.142 A 
ATOM     19  Br  UNL A   1      33.865  33.890  28.822  1.00  0.00    -0.046 Br
ATOM     20  C   UNL A   1      37.653  28.921  28.718  1.00  0.00     0.046 C 
ATOM     21  C   UNL A   1      35.574  30.162  28.006  1.00  0.00     0.022 A 
ATOM     22  O   UNL A   1      33.728  31.476  27.119  1.00  0.00    -0.474 OA
ATOM     23  C   UNL A   1      35.150  29.015  27.205  1.00  0.00     0.027 C 
ATOM     24  C   UNL A   1      33.262  30.382  26.291  1.00  0.00     0.316 C 
BRANCH  24  25
ATOM     25  C   UNL A   1      31.767  30.172  26.571  1.00  0.00     0.430 C 
ATOM     26  F   UNL A   1      31.572  29.364  27.637  1.00  0.00    -0.167 F 
ATOM     27  F   UNL A   1      31.132  31.337  26.825  1.00  0.00    -0.167 F 
ATOM     28  F   UNL A   1      31.149  29.600  25.508  1.00  0.00    -0.167 F 
ENDBRANCH  24  25
ENDBRANCH   9  11
ENDBRANCH   8   9
ENDBRANCH   7   8
ENDBRANCH   6   7
ENDBRANCH   5   6
ENDBRANCH   4   5
ENDBRANCH   3   4
ENDBRANCH   2   3
ENDBRANCH   1   2
BRANCH   1  29
ATOM     29  C   UNL A   1      37.268  21.194  25.180  1.00  0.00     0.188 C 
BRANCH  29  30
ATOM     30  O   UNL A   1      38.380  21.945  25.656  1.00  0.00    -0.376 OA
BRANCH  30  31
ATOM     31  C   UNL A   1      39.507  21.226  26.134  1.00  0.00     0.202 C 
BRANCH  31  32
ATOM     32  C   UNL A   1      40.518  22.041  26.951  1.00  0.00     0.261 C 
BRANCH  32  33
ATOM     33  O   UNL A   1      41.373  22.908  26.193  1.00  0.00    -0.460 OA
BRANCH  33  34
ATOM     34  C   UNL A   1      42.591  22.438  25.847  1.00  0.00     0.338 C 
ATOM     35  O   UNL A   1      42.843  21.366  25.321  1.00  0.00    -0.246 OA
BRANCH  34  36
ATOM     36  C   UNL A   1      43.557  23.539  26.031  1.00  0.00     0.060 A 
ATOM     37  C   UNL A   1      44.304  23.599  27.214  1.00  0.00     0.016 A 
ATOM     38  C   UNL A   1      43.738  24.493  25.027  1.00  0.00     0.016 A 
ATOM     39  C   UNL A   1      45.215  24.637  27.410  1.00  0.00     0.010 A 
ATOM     40  C   UNL A   1      44.632  25.545  25.233  1.00  0.00     0.010 A 
ATOM     41  C   UNL A   1      45.348  25.640  26.440  1.00  0.00    -0.014 A 
BRANCH  41  42
ATOM     42  C   UNL A   1      46.065  26.893  26.775  1.00  0.00     0.031 A 
ATOM     43  C   UNL A   1      47.507  27.011  26.361  1.00  0.00     0.074 A 
ATOM     44  C   UNL A   1      45.457  27.904  27.418  1.00  0.00     0.049 A 
ATOM     45  N   UNL A   1      48.348  27.991  26.559  1.00  0.00    -0.248 NA
ATOM     46  C   UNL A   1      48.076  25.870  25.621  1.00  0.00     0.031 C 
ATOM     47  C   UNL A   1      44.061  27.915  27.849  1.00  0.00     0.029 A 
ATOM     48  N   UNL A   1      45.949  29.117  27.835  1.00  0.00    -0.354 N 
ATOM     49  C   UNL A   1      49.544  27.582  25.984  1.00  0.00     0.074 A 
ATOM     50  C   UNL A   1      49.330  26.257  25.448  1.00  0.00     0.031 C 
ATOM     51  C   UNL A   1      43.812  29.074  28.486  1.00  0.00     0.029 A 
ATOM     52  C   UNL A   1      45.036  29.873  28.532  1.00  0.00     0.049 A 
ATOM     53  H   UNL A   1      46.868  29.416  27.652  1.00  0.00     0.167 HD
ATOM     54  C   UNL A   1      50.711  28.259  25.889  1.00  0.00     0.034 A 
ATOM     55  C   UNL A   1      45.180  31.066  29.145  1.00  0.00     0.034 A 
ATOM     56  C   UNL A   1      50.919  29.579  26.414  1.00  0.00     0.049 A 
ATOM     57  C   UNL A   1      46.511  31.774  29.078  1.00  0.00     0.074 A 
ATOM     58  C   UNL A   1      52.061  30.356  26.350  1.00  0.00     0.029 A 
ATOM     59  N   UNL A   1      49.970  30.316  27.106  1.00  0.00    -0.354 N 
ATOM     60  N   UNL A   1      47.605  31.419  28.447  1.00  0.00    -0.248 NA
ATOM     61  C   UNL A   1      46.622  33.059  29.786  1.00  0.00     0.031 C 
ATOM     62  C   UNL A   1      51.814  31.551  27.030  1.00  0.00     0.029 A 
ATOM     63  C   UNL A   1      50.504  31.534  27.487  1.00  0.00     0.049 A 
ATOM     64  H   UNL A   1      49.052  30.016  27.298  1.00  0.00     0.167 HD
ATOM     65  C   UNL A   1      48.519  32.449  28.652  1.00  0.00     0.074 A 
ATOM     66  C   UNL A   1      47.843  33.452  29.448  1.00  0.00     0.031 C 
ATOM     67  C   UNL A   1      49.805  32.548  28.232  1.00  0.00     0.034 A 
BRANCH  54  68
ATOM     68  C   UNL A   1      51.851  27.599  25.159  1.00  0.00     0.023 A 
ATOM     69  C   UNL A   1      52.735  26.761  25.868  1.00  0.00     0.012 A 
ATOM     70  C   UNL A   1      51.995  27.739  23.765  1.00  0.00     0.148 A 
ATOM     71  C   UNL A   1      53.757  26.086  25.204  1.00  0.00     0.002 A 
ATOM     72  C   UNL A   1      52.987  27.024  23.104  1.00  0.00     0.091 A 
ATOM     73  F   UNL A   1      51.158  28.560  23.115  1.00  0.00    -0.205 F 
ATOM     74  C   UNL A   1      53.874  26.206  23.822  1.00  0.00     0.022 A 
BRANCH  72  75
ATOM     75  S   UNL A   1      53.169  27.042  21.316  1.00  0.00     0.127 S 
ATOM     76  O   UNL A   1      52.084  26.153  20.901  1.00  0.00    -0.237 OA
ATOM     77  O   UNL A   1      52.955  28.455  21.004  1.00  0.00    -0.237 OA
ATOM     78  O   UNL A   1      54.512  26.550  21.041  1.00  0.00    -0.744 OA
ENDBRANCH  72  75
ENDBRANCH  54  68
BRANCH  55  79
ATOM     79  C   UNL A   1      44.018  31.693  29.840  1.00  0.00     0.023 A 
ATOM     80  C   UNL A   1      43.257  32.671  29.171  1.00  0.00     0.012 A 
ATOM     81  C   UNL A   1      43.647  31.313  31.145  1.00  0.00     0.148 A 
ATOM     82  C   UNL A   1      42.163  33.275  29.795  1.00  0.00     0.002 A 
ATOM     83  C   UNL A   1      42.523  31.876  31.740  1.00  0.00     0.091 A 
ATOM     84  F   UNL A   1      44.396  30.395  31.775  1.00  0.00    -0.205 F 
ATOM     85  C   UNL A   1      41.790  32.870  31.073  1.00  0.00     0.022 A 
BRANCH  83  86
ATOM     86  S   UNL A   1      41.888  31.324  33.327  1.00  0.00     0.127 S 
ATOM     87  O   UNL A   1      41.577  29.923  33.054  1.00  0.00    -0.237 OA
ATOM     88  O   UNL A   1      43.042  31.540  34.200  1.00  0.00    -0.237 OA
ATOM     89  O   UNL A   1      40.744  32.178  33.613  1.00  0.00    -0.744 OA
ENDBRANCH  83  86
ENDBRANCH  55  79
BRANCH  67  90
ATOM     90  C   UNL A   1      50.583  33.788  28.597  1.00  0.00     0.023 A 
ATOM     91  C   UNL A   1      51.408  33.784  29.740  1.00  0.00     0.012 A 
ATOM     92  C   UNL A   1      50.598  34.907  27.738  1.00  0.00     0.148 A 
ATOM     93  C   UNL A   1      52.217  34.880  30.033  1.00  0.00     0.002 A 
ATOM     94  C   UNL A   1      51.448  35.973  28.009  1.00  0.00     0.091 A 
ATOM     95  F   UNL A   1      49.798  34.897  26.662  1.00  0.00    -0.205 F 
ATOM     96  C   UNL A   1      52.249  35.967  29.161  1.00  0.00     0.022 A 
BRANCH  94  97
ATOM     97  S   UNL A   1      51.642  37.365  26.889  1.00  0.00     0.127 S 
ATOM     98  O   UNL A   1      50.251  37.706  26.594  1.00  0.00    -0.237 OA
ATOM     99  O   UNL A   1      52.344  38.339  27.727  1.00  0.00    -0.237 OA
ATOM    100  O   UNL A   1      52.413  36.871  25.757  1.00  0.00    -0.744 OA
ENDBRANCH  94  97
ENDBRANCH  67  90
ENDBRANCH  41  42
ENDBRANCH  34  36
ENDBRANCH  33  34
ENDBRANCH  32  33
ENDBRANCH  31  32
ENDBRANCH  30  31
ENDBRANCH  29  30
ENDBRANCH   1  29
TORSDOF 24
ENDMDL
