MODEL 1
REMARK VINA RESULT:      -9.4      0.000      0.000
REMARK SMILES O=C(OCCOCCOCCOCCOC(=O)c1cc(S(=O)(=O)NNC(=O)[C@H]2C=C(c3ccccc3)N=N2)ccc1F)c1ccc(-c2c3nc(c(-c4cccc(S(=O)(=O)[O-])c4F)c4ccc([nH]4)c(-c4cccc(S(=O)(=O)[O-])c4F)c4nc(c(-c5cccc(S(=O)(=O)[O-])c5F)c5ccc2[nH]5)C=C4)C=C3)cc1
REMARK SMILES IDX 10 1 9 2 8 3 7 4 6 5 5 6 4 7 3 8 2 9 1 10 43 11 44 12 105 13
REMARK SMILES IDX 45 14 104 15 46 16 47 17 48 18 98 19 49 20 103 21 97 22
REMARK SMILES IDX 99 23 50 24 102 25 96 26 95 27 51 29 83 30 63 31 82 32 64 33
REMARK SMILES IDX 67 34 81 35 100 36 65 37 66 38 80 40 101 41 68 42 52 43
REMARK SMILES IDX 53 44 61 45 54 46 56 47 62 48 55 49 57 50 58 51 59 52 60 53
REMARK SMILES IDX 84 54 85 55 93 56 86 57 88 58 94 59 87 60 89 61 90 62 91 63
REMARK SMILES IDX 92 64 69 65 70 66 78 67 71 68 73 69 79 70 72 71 74 72 75 73
REMARK SMILES IDX 76 74 77 75 11 76 12 77 13 78 14 79 15 80 16 81 17 82 18 83
REMARK SMILES IDX 19 84 41 85 20 86 40 87 42 88 39 89 21 90 22 91 23 92 24 93
REMARK SMILES IDX 25 95 26 96 27 98 28 99 29 100 38 101 30 102 37 103 31 104
REMARK SMILES IDX 32 105 36 106 33 107 35 108 34 109
REMARK H PARENT 99 28 67 39 24 94 25 97
REMARK Flexibility Score: inf
ROOT
ATOM      1  C   UNL A   1      41.365  28.432  29.382  1.00  0.00     0.188 C 
ENDROOT
BRANCH   1   2
ATOM      2  O   UNL A   1      40.499  29.147  28.532  1.00  0.00    -0.377 OA
BRANCH   2   3
ATOM      3  C   UNL A   1      39.124  28.889  28.770  1.00  0.00     0.188 C 
BRANCH   3   4
ATOM      4  C   UNL A   1      38.166  30.098  28.793  1.00  0.00     0.188 C 
BRANCH   4   5
ATOM      5  O   UNL A   1      36.770  30.011  28.567  1.00  0.00    -0.376 OA
BRANCH   5   6
ATOM      6  C   UNL A   1      35.902  30.886  27.878  1.00  0.00     0.202 C 
BRANCH   6   7
ATOM      7  C   UNL A   1      34.428  31.142  28.192  1.00  0.00     0.261 C 
BRANCH   7   8
ATOM      8  O   UNL A   1      34.103  32.424  28.703  1.00  0.00    -0.460 OA
BRANCH   8   9
ATOM      9  C   UNL A   1      34.736  33.160  29.637  1.00  0.00     0.338 C 
ATOM     10  O   UNL A   1      34.421  34.347  29.731  1.00  0.00    -0.246 OA
BRANCH   9  11
ATOM     11  C   UNL A   1      35.827  32.658  30.515  1.00  0.00     0.060 A 
ATOM     12  C   UNL A   1      35.727  31.651  31.474  1.00  0.00     0.016 A 
ATOM     13  C   UNL A   1      37.060  33.324  30.360  1.00  0.00     0.016 A 
ATOM     14  C   UNL A   1      36.734  31.483  32.404  1.00  0.00     0.010 A 
ATOM     15  C   UNL A   1      38.091  33.130  31.259  1.00  0.00     0.010 A 
ATOM     16  C   UNL A   1      37.875  32.278  32.328  1.00  0.00    -0.014 A 
BRANCH  16  17
ATOM     17  C   UNL A   1      38.850  32.123  33.386  1.00  0.00     0.031 A 
ATOM     18  C   UNL A   1      38.633  33.038  34.528  1.00  0.00     0.074 A 
ATOM     19  C   UNL A   1      39.862  31.241  33.305  1.00  0.00     0.049 A 
ATOM     20  N   UNL A   1      39.323  34.089  34.828  1.00  0.00    -0.248 NA
ATOM     21  C   UNL A   1      37.394  32.887  35.299  1.00  0.00     0.031 C 
ATOM     22  C   UNL A   1      40.029  30.147  32.345  1.00  0.00     0.029 A 
ATOM     23  N   UNL A   1      40.912  31.075  34.151  1.00  0.00    -0.354 N 
ATOM     24  C   UNL A   1      38.749  34.583  35.995  1.00  0.00     0.074 A 
ATOM     25  C   UNL A   1      37.462  33.950  36.100  1.00  0.00     0.031 C 
ATOM     26  C   UNL A   1      40.969  29.291  32.810  1.00  0.00     0.029 A 
ATOM     27  C   UNL A   1      41.566  29.856  34.007  1.00  0.00     0.049 A 
ATOM     28  H   UNL A   1      41.186  31.755  34.807  1.00  0.00     0.167 HD
ATOM     29  C   UNL A   1      39.511  35.240  36.912  1.00  0.00     0.034 A 
ATOM     30  C   UNL A   1      42.477  29.334  34.863  1.00  0.00     0.034 A 
ATOM     31  C   UNL A   1      40.726  35.735  36.306  1.00  0.00     0.049 A 
ATOM     32  C   UNL A   1      43.047  30.468  35.627  1.00  0.00     0.074 A 
ATOM     33  C   UNL A   1      41.025  36.584  35.259  1.00  0.00     0.029 A 
ATOM     34  N   UNL A   1      41.875  35.026  36.558  1.00  0.00    -0.354 N 
ATOM     35  N   UNL A   1      43.784  31.400  35.089  1.00  0.00    -0.248 NA
ATOM     36  C   UNL A   1      42.454  30.797  36.912  1.00  0.00     0.031 C 
ATOM     37  C   UNL A   1      42.184  36.023  34.646  1.00  0.00     0.029 A 
ATOM     38  C   UNL A   1      42.569  34.903  35.386  1.00  0.00     0.049 A 
ATOM     39  H   UNL A   1      42.152  34.667  37.431  1.00  0.00     0.167 HD
ATOM     40  C   UNL A   1      43.370  32.566  35.718  1.00  0.00     0.074 A 
ATOM     41  C   UNL A   1      42.646  32.119  36.908  1.00  0.00     0.031 C 
ATOM     42  C   UNL A   1      43.399  33.762  35.064  1.00  0.00     0.034 A 
BRANCH  29  43
ATOM     43  C   UNL A   1      39.400  35.044  38.418  1.00  0.00     0.023 A 
ATOM     44  C   UNL A   1      39.464  36.212  39.214  1.00  0.00     0.012 A 
ATOM     45  C   UNL A   1      39.537  33.812  39.099  1.00  0.00     0.148 A 
ATOM     46  C   UNL A   1      39.770  36.164  40.579  1.00  0.00     0.002 A 
ATOM     47  C   UNL A   1      39.777  33.763  40.468  1.00  0.00     0.091 A 
ATOM     48  F   UNL A   1      39.542  32.661  38.431  1.00  0.00    -0.205 F 
ATOM     49  C   UNL A   1      39.935  34.937  41.205  1.00  0.00     0.022 A 
BRANCH  47  50
ATOM     50  S   UNL A   1      39.949  32.200  41.343  1.00  0.00     0.127 S 
ATOM     51  O   UNL A   1      41.247  31.740  40.857  1.00  0.00    -0.237 OA
ATOM     52  O   UNL A   1      39.928  32.639  42.737  1.00  0.00    -0.237 OA
ATOM     53  O   UNL A   1      38.800  31.394  40.951  1.00  0.00    -0.744 OA
ENDBRANCH  47  50
ENDBRANCH  29  43
BRANCH  30  54
ATOM     54  C   UNL A   1      42.669  27.930  35.300  1.00  0.00     0.023 A 
ATOM     55  C   UNL A   1      41.536  27.119  35.520  1.00  0.00     0.012 A 
ATOM     56  C   UNL A   1      43.927  27.298  35.190  1.00  0.00     0.148 A 
ATOM     57  C   UNL A   1      41.644  25.724  35.567  1.00  0.00     0.002 A 
ATOM     58  C   UNL A   1      44.029  25.911  35.238  1.00  0.00     0.091 A 
ATOM     59  F   UNL A   1      45.009  28.047  34.942  1.00  0.00    -0.205 F 
ATOM     60  C   UNL A   1      42.887  25.120  35.412  1.00  0.00     0.022 A 
BRANCH  58  61
ATOM     61  S   UNL A   1      45.593  25.055  35.000  1.00  0.00     0.127 S 
ATOM     62  O   UNL A   1      45.820  25.236  33.565  1.00  0.00    -0.237 OA
ATOM     63  O   UNL A   1      46.488  25.821  35.863  1.00  0.00    -0.237 OA
ATOM     64  O   UNL A   1      45.357  23.674  35.400  1.00  0.00    -0.744 OA
ENDBRANCH  58  61
ENDBRANCH  30  54
BRANCH  42  65
ATOM     65  C   UNL A   1      44.147  33.850  33.757  1.00  0.00     0.023 A 
ATOM     66  C   UNL A   1      45.550  33.989  33.696  1.00  0.00     0.012 A 
ATOM     67  C   UNL A   1      43.439  33.559  32.579  1.00  0.00     0.148 A 
ATOM     68  C   UNL A   1      46.229  33.841  32.483  1.00  0.00     0.002 A 
ATOM     69  C   UNL A   1      44.122  33.354  31.389  1.00  0.00     0.091 A 
ATOM     70  F   UNL A   1      42.106  33.435  32.659  1.00  0.00    -0.205 F 
ATOM     71  C   UNL A   1      45.517  33.503  31.333  1.00  0.00     0.022 A 
BRANCH  69  72
ATOM     72  S   UNL A   1      43.286  32.759  29.917  1.00  0.00     0.127 S 
ATOM     73  O   UNL A   1      44.368  32.745  28.935  1.00  0.00    -0.237 OA
ATOM     74  O   UNL A   1      42.822  31.435  30.337  1.00  0.00    -0.237 OA
ATOM     75  O   UNL A   1      42.213  33.709  29.650  1.00  0.00    -0.744 OA
ENDBRANCH  69  72
ENDBRANCH  42  65
ENDBRANCH  16  17
ENDBRANCH   9  11
ENDBRANCH   8   9
ENDBRANCH   7   8
ENDBRANCH   6   7
ENDBRANCH   5   6
ENDBRANCH   4   5
ENDBRANCH   3   4
ENDBRANCH   2   3
ENDBRANCH   1   2
BRANCH   1  76
ATOM     76  C   UNL A   1      42.406  27.574  28.636  1.00  0.00     0.188 C 
BRANCH  76  77
ATOM     77  O   UNL A   1      42.376  26.156  28.680  1.00  0.00    -0.376 OA
BRANCH  77  78
ATOM     78  C   UNL A   1      41.544  25.424  27.797  1.00  0.00     0.202 C 
BRANCH  78  79
ATOM     79  C   UNL A   1      40.931  26.100  26.559  1.00  0.00     0.261 C 
BRANCH  79  80
ATOM     80  O   UNL A   1      41.606  25.898  25.308  1.00  0.00    -0.460 OA
BRANCH  80  81
ATOM     81  C   UNL A   1      42.625  26.742  25.019  1.00  0.00     0.341 C 
ATOM     82  O   UNL A   1      42.562  27.917  24.708  1.00  0.00    -0.246 OA
BRANCH  81  83
ATOM     83  C   UNL A   1      43.887  26.056  25.332  1.00  0.00     0.097 A 
ATOM     84  C   UNL A   1      44.072  24.730  24.920  1.00  0.00     0.040 A 
ATOM     85  C   UNL A   1      44.913  26.731  25.979  1.00  0.00     0.137 A 
ATOM     86  C   UNL A   1      45.326  24.131  25.074  1.00  0.00     0.085 A 
ATOM     87  C   UNL A   1      46.139  26.100  26.203  1.00  0.00     0.041 A 
ATOM     88  F   UNL A   1      44.743  27.987  26.410  1.00  0.00    -0.206 F 
ATOM     89  C   UNL A   1      46.359  24.800  25.733  1.00  0.00     0.025 A 
BRANCH  86  90
ATOM     90  S   UNL A   1      45.553  22.517  24.387  1.00  0.00     0.257 S 
ATOM     91  O   UNL A   1      44.473  22.263  23.472  1.00  0.00    -0.205 OA
ATOM     92  O   UNL A   1      46.947  22.414  23.988  1.00  0.00    -0.205 OA
BRANCH  90  93
ATOM     93  N   UNL A   1      45.351  21.462  25.697  1.00  0.00    -0.123 NA
ATOM     94  H   UNL A   1      44.997  22.017  26.478  1.00  0.00     0.167 HD
BRANCH  93  95
ATOM     95  N   UNL A   1      44.473  20.337  25.546  1.00  0.00    -0.275 N 
ATOM     96  C   UNL A   1      43.120  20.299  25.755  1.00  0.00     0.265 C 
ATOM     97  H   UNL A   1      44.892  19.494  25.258  1.00  0.00     0.186 HD
ATOM     98  O   UNL A   1      42.524  19.280  25.377  1.00  0.00    -0.271 OA
BRANCH  96  99
ATOM     99  C   UNL A   1      42.346  21.431  26.463  1.00  0.00     0.244 C 
ATOM    100  C   UNL A   1      41.265  22.163  25.760  1.00  0.00     0.042 C 
ATOM    101  N   UNL A   1      41.622  20.809  27.608  1.00  0.00    -0.171 NA
ATOM    102  C   UNL A   1      40.155  21.886  26.448  1.00  0.00     0.091 C 
ATOM    103  N   UNL A   1      40.393  21.097  27.542  1.00  0.00    -0.155 NA
BRANCH 102 104
ATOM    104  C   UNL A   1      38.803  22.237  26.028  1.00  0.00     0.002 A 
ATOM    105  C   UNL A   1      37.975  21.305  25.396  1.00  0.00     0.010 A 
ATOM    106  C   UNL A   1      38.325  23.535  26.257  1.00  0.00     0.010 A 
ATOM    107  C   UNL A   1      36.684  21.669  25.003  1.00  0.00     0.001 A 
ATOM    108  C   UNL A   1      37.033  23.893  25.876  1.00  0.00     0.001 A 
ATOM    109  C   UNL A   1      36.214  22.959  25.248  1.00  0.00     0.000 A 
ENDBRANCH 102 104
ENDBRANCH  96  99
ENDBRANCH  93  95
ENDBRANCH  90  93
ENDBRANCH  86  90
ENDBRANCH  81  83
ENDBRANCH  80  81
ENDBRANCH  79  80
ENDBRANCH  78  79
ENDBRANCH  77  78
ENDBRANCH  76  77
ENDBRANCH   1  76
TORSDOF 28
ENDMDL
MODEL 2
REMARK VINA RESULT:      -9.0      6.703     11.288
REMARK SMILES O=C(OCCOCCOCCOCCOC(=O)c1cc(S(=O)(=O)NNC(=O)[C@H]2C=C(c3ccccc3)N=N2)ccc1F)c1ccc(-c2c3nc(c(-c4cccc(S(=O)(=O)[O-])c4F)c4ccc([nH]4)c(-c4cccc(S(=O)(=O)[O-])c4F)c4nc(c(-c5cccc(S(=O)(=O)[O-])c5F)c5ccc2[nH]5)C=C4)C=C3)cc1
REMARK SMILES IDX 10 1 9 2 8 3 7 4 6 5 5 6 4 7 3 8 2 9 1 10 43 11 44 12 105 13
REMARK SMILES IDX 45 14 104 15 46 16 47 17 48 18 98 19 49 20 103 21 97 22
REMARK SMILES IDX 99 23 50 24 102 25 96 26 95 27 51 29 83 30 63 31 82 32 64 33
REMARK SMILES IDX 67 34 81 35 100 36 65 37 66 38 80 40 101 41 68 42 52 43
REMARK SMILES IDX 53 44 61 45 54 46 56 47 62 48 55 49 57 50 58 51 59 52 60 53
REMARK SMILES IDX 84 54 85 55 93 56 86 57 88 58 94 59 87 60 89 61 90 62 91 63
REMARK SMILES IDX 92 64 69 65 70 66 78 67 71 68 73 69 79 70 72 71 74 72 75 73
REMARK SMILES IDX 76 74 77 75 11 76 12 77 13 78 14 79 15 80 16 81 17 82 18 83
REMARK SMILES IDX 19 84 41 85 20 86 40 87 42 88 39 89 21 90 22 91 23 92 24 93
REMARK SMILES IDX 25 95 26 96 27 98 28 99 29 100 38 101 30 102 37 103 31 104
REMARK SMILES IDX 32 105 36 106 33 107 35 108 34 109
REMARK H PARENT 99 28 67 39 24 94 25 97
REMARK Flexibility Score: inf
ROOT
ATOM      1  C   UNL A   1      44.319  28.016  29.673  1.00  0.00     0.188 C 
ENDROOT
BRANCH   1   2
ATOM      2  O   UNL A   1      44.295  29.363  29.262  1.00  0.00    -0.377 OA
BRANCH   2   3
ATOM      3  C   UNL A   1      42.988  29.871  29.045  1.00  0.00     0.188 C 
BRANCH   3   4
ATOM      4  C   UNL A   1      42.596  31.165  29.786  1.00  0.00     0.188 C 
BRANCH   4   5
ATOM      5  O   UNL A   1      41.670  31.219  30.857  1.00  0.00    -0.376 OA
BRANCH   5   6
ATOM      6  C   UNL A   1      40.330  31.660  30.883  1.00  0.00     0.202 C 
BRANCH   6   7
ATOM      7  C   UNL A   1      39.749  32.767  31.763  1.00  0.00     0.261 C 
BRANCH   7   8
ATOM      8  O   UNL A   1      39.135  33.853  31.092  1.00  0.00    -0.460 OA
BRANCH   8   9
ATOM      9  C   UNL A   1      39.346  34.322  29.846  1.00  0.00     0.338 C 
ATOM     10  O   UNL A   1      38.428  34.205  29.035  1.00  0.00    -0.246 OA
BRANCH   9  11
ATOM     11  C   UNL A   1      40.626  34.910  29.369  1.00  0.00     0.060 A 
ATOM     12  C   UNL A   1      41.802  35.056  30.105  1.00  0.00     0.016 A 
ATOM     13  C   UNL A   1      40.592  35.398  28.047  1.00  0.00     0.016 A 
ATOM     14  C   UNL A   1      42.814  35.867  29.633  1.00  0.00     0.010 A 
ATOM     15  C   UNL A   1      41.621  36.175  27.549  1.00  0.00     0.010 A 
ATOM     16  C   UNL A   1      42.678  36.478  28.388  1.00  0.00    -0.014 A 
BRANCH  16  17
ATOM     17  C   UNL A   1      43.726  37.392  27.991  1.00  0.00     0.031 A 
ATOM     18  C   UNL A   1      45.016  36.726  27.707  1.00  0.00     0.074 A 
ATOM     19  C   UNL A   1      43.529  38.721  27.917  1.00  0.00     0.049 A 
ATOM     20  N   UNL A   1      46.077  36.733  28.444  1.00  0.00    -0.248 NA
ATOM     21  C   UNL A   1      45.064  35.780  26.585  1.00  0.00     0.031 C 
ATOM     22  C   UNL A   1      42.257  39.447  27.948  1.00  0.00     0.029 A 
ATOM     23  N   UNL A   1      44.440  39.702  27.685  1.00  0.00    -0.354 N 
ATOM     24  C   UNL A   1      47.021  35.997  27.734  1.00  0.00     0.074 A 
ATOM     25  C   UNL A   1      46.285  35.266  26.739  1.00  0.00     0.031 C 
ATOM     26  C   UNL A   1      42.456  40.706  27.497  1.00  0.00     0.029 A 
ATOM     27  C   UNL A   1      43.879  40.913  27.297  1.00  0.00     0.049 A 
ATOM     28  H   UNL A   1      45.410  39.567  27.783  1.00  0.00     0.167 HD
ATOM     29  C   UNL A   1      48.347  36.288  27.846  1.00  0.00     0.034 A 
ATOM     30  C   UNL A   1      44.548  41.972  26.780  1.00  0.00     0.034 A 
ATOM     31  C   UNL A   1      48.606  37.028  29.060  1.00  0.00     0.049 A 
ATOM     32  C   UNL A   1      45.959  41.840  27.210  1.00  0.00     0.074 A 
ATOM     33  C   UNL A   1      48.411  36.801  30.408  1.00  0.00     0.029 A 
ATOM     34  N   UNL A   1      48.804  38.381  28.928  1.00  0.00    -0.354 N 
ATOM     35  N   UNL A   1      46.346  41.942  28.451  1.00  0.00    -0.248 NA
ATOM     36  C   UNL A   1      46.890  41.180  26.311  1.00  0.00     0.031 C 
ATOM     37  C   UNL A   1      48.051  38.071  30.949  1.00  0.00     0.029 A 
ATOM     38  C   UNL A   1      48.109  39.014  29.921  1.00  0.00     0.049 A 
ATOM     39  H   UNL A   1      49.351  38.820  28.238  1.00  0.00     0.167 HD
ATOM     40  C   UNL A   1      47.324  40.966  28.583  1.00  0.00     0.074 A 
ATOM     41  C   UNL A   1      47.701  40.619  27.213  1.00  0.00     0.031 C 
ATOM     42  C   UNL A   1      47.521  40.328  29.772  1.00  0.00     0.034 A 
BRANCH  29  43
ATOM     43  C   UNL A   1      49.318  36.321  26.674  1.00  0.00     0.023 A 
ATOM     44  C   UNL A   1      49.056  37.276  25.663  1.00  0.00     0.012 A 
ATOM     45  C   UNL A   1      50.260  35.315  26.357  1.00  0.00     0.148 A 
ATOM     46  C   UNL A   1      49.600  37.164  24.378  1.00  0.00     0.002 A 
ATOM     47  C   UNL A   1      50.850  35.243  25.100  1.00  0.00     0.091 A 
ATOM     48  F   UNL A   1      50.535  34.343  27.224  1.00  0.00    -0.205 F 
ATOM     49  C   UNL A   1      50.492  36.141  24.094  1.00  0.00     0.022 A 
BRANCH  47  50
ATOM     50  S   UNL A   1      52.052  33.968  24.691  1.00  0.00     0.127 S 
ATOM     51  O   UNL A   1      52.625  34.498  23.457  1.00  0.00    -0.237 OA
ATOM     52  O   UNL A   1      52.935  34.011  25.856  1.00  0.00    -0.237 OA
ATOM     53  O   UNL A   1      51.293  32.730  24.561  1.00  0.00    -0.744 OA
ENDBRANCH  47  50
ENDBRANCH  29  43
BRANCH  30  54
ATOM     54  C   UNL A   1      44.150  42.906  25.698  1.00  0.00     0.023 A 
ATOM     55  C   UNL A   1      44.888  44.093  25.511  1.00  0.00     0.012 A 
ATOM     56  C   UNL A   1      43.279  42.495  24.666  1.00  0.00     0.148 A 
ATOM     57  C   UNL A   1      44.807  44.814  24.314  1.00  0.00     0.002 A 
ATOM     58  C   UNL A   1      43.201  43.216  23.477  1.00  0.00     0.091 A 
ATOM     59  F   UNL A   1      42.599  41.350  24.808  1.00  0.00    -0.205 F 
ATOM     60  C   UNL A   1      43.975  44.367  23.292  1.00  0.00     0.022 A 
BRANCH  58  61
ATOM     61  S   UNL A   1      42.185  42.677  22.094  1.00  0.00     0.127 S 
ATOM     62  O   UNL A   1      42.376  43.767  21.137  1.00  0.00    -0.237 OA
ATOM     63  O   UNL A   1      42.825  41.418  21.724  1.00  0.00    -0.237 OA
ATOM     64  O   UNL A   1      40.828  42.567  22.615  1.00  0.00    -0.744 OA
ENDBRANCH  58  61
ENDBRANCH  30  54
BRANCH  42  65
ATOM     65  C   UNL A   1      46.863  40.891  31.008  1.00  0.00     0.023 A 
ATOM     66  C   UNL A   1      47.420  41.960  31.741  1.00  0.00     0.012 A 
ATOM     67  C   UNL A   1      45.552  40.477  31.294  1.00  0.00     0.148 A 
ATOM     68  C   UNL A   1      46.679  42.600  32.739  1.00  0.00     0.002 A 
ATOM     69  C   UNL A   1      44.800  41.153  32.244  1.00  0.00     0.091 A 
ATOM     70  F   UNL A   1      45.044  39.455  30.588  1.00  0.00    -0.205 F 
ATOM     71  C   UNL A   1      45.362  42.211  32.977  1.00  0.00     0.022 A 
BRANCH  69  72
ATOM     72  S   UNL A   1      43.055  40.809  32.479  1.00  0.00     0.127 S 
ATOM     73  O   UNL A   1      42.587  42.031  33.130  1.00  0.00    -0.237 OA
ATOM     74  O   UNL A   1      42.585  40.629  31.104  1.00  0.00    -0.237 OA
ATOM     75  O   UNL A   1      42.987  39.602  33.294  1.00  0.00    -0.744 OA
ENDBRANCH  69  72
ENDBRANCH  42  65
ENDBRANCH  16  17
ENDBRANCH   9  11
ENDBRANCH   8   9
ENDBRANCH   7   8
ENDBRANCH   6   7
ENDBRANCH   5   6
ENDBRANCH   4   5
ENDBRANCH   3   4
ENDBRANCH   2   3
ENDBRANCH   1   2
BRANCH   1  76
ATOM     76  C   UNL A   1      45.485  27.201  29.078  1.00  0.00     0.188 C 
BRANCH  76  77
ATOM     77  O   UNL A   1      45.302  25.882  28.587  1.00  0.00    -0.376 OA
BRANCH  77  78
ATOM     78  C   UNL A   1      44.105  25.172  28.855  1.00  0.00     0.202 C 
BRANCH  78  79
ATOM     79  C   UNL A   1      42.910  25.263  27.891  1.00  0.00     0.261 C 
BRANCH  79  80
ATOM     80  O   UNL A   1      42.800  24.234  26.895  1.00  0.00    -0.460 OA
BRANCH  80  81
ATOM     81  C   UNL A   1      43.100  24.582  25.621  1.00  0.00     0.341 C 
ATOM     82  O   UNL A   1      42.520  25.374  24.901  1.00  0.00    -0.246 OA
BRANCH  81  83
ATOM     83  C   UNL A   1      44.397  23.980  25.278  1.00  0.00     0.097 A 
ATOM     84  C   UNL A   1      44.498  22.590  25.142  1.00  0.00     0.040 A 
ATOM     85  C   UNL A   1      45.503  24.784  25.033  1.00  0.00     0.137 A 
ATOM     86  C   UNL A   1      45.686  22.031  24.662  1.00  0.00     0.085 A 
ATOM     87  C   UNL A   1      46.712  24.212  24.631  1.00  0.00     0.041 A 
ATOM     88  F   UNL A   1      45.435  26.111  25.190  1.00  0.00    -0.206 F 
ATOM     89  C   UNL A   1      46.805  22.831  24.423  1.00  0.00     0.025 A 
BRANCH  86  90
ATOM     90  S   UNL A   1      45.704  20.290  24.351  1.00  0.00     0.257 S 
ATOM     91  O   UNL A   1      44.682  19.996  23.383  1.00  0.00    -0.205 OA
ATOM     92  O   UNL A   1      47.092  19.905  24.154  1.00  0.00    -0.205 OA
BRANCH  90  93
ATOM     93  N   UNL A   1      45.217  19.589  25.814  1.00  0.00    -0.123 NA
ATOM     94  H   UNL A   1      45.008  20.352  26.459  1.00  0.00     0.167 HD
BRANCH  93  95
ATOM     95  N   UNL A   1      44.079  18.714  25.813  1.00  0.00    -0.275 N 
ATOM     96  C   UNL A   1      42.774  19.040  26.066  1.00  0.00     0.265 C 
ATOM     97  H   UNL A   1      44.258  17.768  25.606  1.00  0.00     0.186 HD
ATOM     98  O   UNL A   1      41.922  18.175  25.820  1.00  0.00    -0.271 OA
BRANCH  96  99
ATOM     99  C   UNL A   1      42.347  20.395  26.669  1.00  0.00     0.244 C 
ATOM    100  C   UNL A   1      41.478  21.324  25.906  1.00  0.00     0.042 C 
ATOM    101  N   UNL A   1      41.518  20.093  27.870  1.00  0.00    -0.171 NA
ATOM    102  C   UNL A   1      40.355  21.414  26.621  1.00  0.00     0.091 C 
ATOM    103  N   UNL A   1      40.407  20.690  27.783  1.00  0.00    -0.155 NA
BRANCH 102 104
ATOM    104  C   UNL A   1      39.133  22.074  26.177  1.00  0.00     0.002 A 
ATOM    105  C   UNL A   1      38.862  23.404  26.513  1.00  0.00     0.010 A 
ATOM    106  C   UNL A   1      38.207  21.360  25.403  1.00  0.00     0.010 A 
ATOM    107  C   UNL A   1      37.682  24.010  26.075  1.00  0.00     0.001 A 
ATOM    108  C   UNL A   1      37.035  21.970  24.955  1.00  0.00     0.001 A 
ATOM    109  C   UNL A   1      36.773  23.294  25.293  1.00  0.00     0.000 A 
ENDBRANCH 102 104
ENDBRANCH  96  99
ENDBRANCH  93  95
ENDBRANCH  90  93
ENDBRANCH  86  90
ENDBRANCH  81  83
ENDBRANCH  80  81
ENDBRANCH  79  80
ENDBRANCH  78  79
ENDBRANCH  77  78
ENDBRANCH  76  77
ENDBRANCH   1  76
TORSDOF 28
ENDMDL
MODEL 3
REMARK VINA RESULT:      -8.4      5.012      9.551
REMARK SMILES O=C(OCCOCCOCCOCCOC(=O)c1cc(S(=O)(=O)NNC(=O)[C@H]2C=C(c3ccccc3)N=N2)ccc1F)c1ccc(-c2c3nc(c(-c4cccc(S(=O)(=O)[O-])c4F)c4ccc([nH]4)c(-c4cccc(S(=O)(=O)[O-])c4F)c4nc(c(-c5cccc(S(=O)(=O)[O-])c5F)c5ccc2[nH]5)C=C4)C=C3)cc1
REMARK SMILES IDX 10 1 9 2 8 3 7 4 6 5 5 6 4 7 3 8 2 9 1 10 43 11 44 12 105 13
REMARK SMILES IDX 45 14 104 15 46 16 47 17 48 18 98 19 49 20 103 21 97 22
REMARK SMILES IDX 99 23 50 24 102 25 96 26 95 27 51 29 83 30 63 31 82 32 64 33
REMARK SMILES IDX 67 34 81 35 100 36 65 37 66 38 80 40 101 41 68 42 52 43
REMARK SMILES IDX 53 44 61 45 54 46 56 47 62 48 55 49 57 50 58 51 59 52 60 53
REMARK SMILES IDX 84 54 85 55 93 56 86 57 88 58 94 59 87 60 89 61 90 62 91 63
REMARK SMILES IDX 92 64 69 65 70 66 78 67 71 68 73 69 79 70 72 71 74 72 75 73
REMARK SMILES IDX 76 74 77 75 11 76 12 77 13 78 14 79 15 80 16 81 17 82 18 83
REMARK SMILES IDX 19 84 41 85 20 86 40 87 42 88 39 89 21 90 22 91 23 92 24 93
REMARK SMILES IDX 25 95 26 96 27 98 28 99 29 100 38 101 30 102 37 103 31 104
REMARK SMILES IDX 32 105 36 106 33 107 35 108 34 109
REMARK H PARENT 99 28 67 39 24 94 25 97
REMARK Flexibility Score: inf
ROOT
ATOM      1  C   UNL A   1      36.813  23.219  26.006  1.00  0.00     0.188 C 
ENDROOT
BRANCH   1   2
ATOM      2  O   UNL A   1      37.386  22.433  24.986  1.00  0.00    -0.377 OA
BRANCH   2   3
ATOM      3  C   UNL A   1      38.424  21.578  25.439  1.00  0.00     0.188 C 
BRANCH   3   4
ATOM      4  C   UNL A   1      39.423  22.152  26.463  1.00  0.00     0.188 C 
BRANCH   4   5
ATOM      5  O   UNL A   1      40.264  21.360  27.284  1.00  0.00    -0.376 OA
BRANCH   5   6
ATOM      6  C   UNL A   1      40.845  20.096  27.043  1.00  0.00     0.202 C 
BRANCH   6   7
ATOM      7  C   UNL A   1      41.721  19.706  25.853  1.00  0.00     0.261 C 
BRANCH   7   8
ATOM      8  O   UNL A   1      43.041  20.224  25.842  1.00  0.00    -0.460 OA
BRANCH   8   9
ATOM      9  C   UNL A   1      43.461  21.498  25.720  1.00  0.00     0.338 C 
ATOM     10  O   UNL A   1      43.783  21.882  24.596  1.00  0.00    -0.246 OA
BRANCH   9  11
ATOM     11  C   UNL A   1      43.621  22.448  26.853  1.00  0.00     0.060 A 
ATOM     12  C   UNL A   1      43.356  22.193  28.199  1.00  0.00     0.016 A 
ATOM     13  C   UNL A   1      44.045  23.741  26.481  1.00  0.00     0.016 A 
ATOM     14  C   UNL A   1      43.278  23.240  29.095  1.00  0.00     0.010 A 
ATOM     15  C   UNL A   1      44.014  24.786  27.384  1.00  0.00     0.010 A 
ATOM     16  C   UNL A   1      43.537  24.537  28.659  1.00  0.00    -0.014 A 
BRANCH  16  17
ATOM     17  C   UNL A   1      43.345  25.601  29.620  1.00  0.00     0.031 A 
ATOM     18  C   UNL A   1      42.258  26.535  29.258  1.00  0.00     0.074 A 
ATOM     19  C   UNL A   1      44.111  25.720  30.719  1.00  0.00     0.049 A 
ATOM     20  N   UNL A   1      42.382  27.741  28.809  1.00  0.00    -0.248 NA
ATOM     21  C   UNL A   1      40.892  26.002  29.192  1.00  0.00     0.031 C 
ATOM     22  C   UNL A   1      45.040  24.738  31.283  1.00  0.00     0.029 A 
ATOM     23  N   UNL A   1      44.131  26.725  31.634  1.00  0.00    -0.354 N 
ATOM     24  C   UNL A   1      41.080  28.209  28.653  1.00  0.00     0.074 A 
ATOM     25  C   UNL A   1      40.236  27.046  28.684  1.00  0.00     0.031 C 
ATOM     26  C   UNL A   1      45.336  25.089  32.555  1.00  0.00     0.029 A 
ATOM     27  C   UNL A   1      44.744  26.385  32.834  1.00  0.00     0.049 A 
ATOM     28  H   UNL A   1      43.745  27.614  31.463  1.00  0.00     0.167 HD
ATOM     29  C   UNL A   1      40.803  29.533  28.809  1.00  0.00     0.034 A 
ATOM     30  C   UNL A   1      44.696  27.098  33.985  1.00  0.00     0.034 A 
ATOM     31  C   UNL A   1      42.000  30.328  28.655  1.00  0.00     0.049 A 
ATOM     32  C   UNL A   1      44.379  28.496  33.611  1.00  0.00     0.074 A 
ATOM     33  C   UNL A   1      42.934  30.510  27.654  1.00  0.00     0.029 A 
ATOM     34  N   UNL A   1      42.581  30.799  29.806  1.00  0.00    -0.354 N 
ATOM     35  N   UNL A   1      45.190  29.260  32.933  1.00  0.00    -0.248 NA
ATOM     36  C   UNL A   1      42.988  28.913  33.630  1.00  0.00     0.031 C 
ATOM     37  C   UNL A   1      44.180  30.656  28.333  1.00  0.00     0.029 A 
ATOM     38  C   UNL A   1      43.933  30.621  29.707  1.00  0.00     0.049 A 
ATOM     39  H   UNL A   1      42.107  31.196  30.572  1.00  0.00     0.167 HD
ATOM     40  C   UNL A   1      44.356  29.962  32.074  1.00  0.00     0.074 A 
ATOM     41  C   UNL A   1      43.013  29.800  32.632  1.00  0.00     0.031 C 
ATOM     42  C   UNL A   1      44.791  30.356  30.842  1.00  0.00     0.034 A 
BRANCH  29  43
ATOM     43  C   UNL A   1      39.583  30.072  29.544  1.00  0.00     0.023 A 
ATOM     44  C   UNL A   1      38.769  30.985  28.833  1.00  0.00     0.012 A 
ATOM     45  C   UNL A   1      39.356  29.983  30.937  1.00  0.00     0.148 A 
ATOM     46  C   UNL A   1      37.875  31.844  29.483  1.00  0.00     0.002 A 
ATOM     47  C   UNL A   1      38.421  30.792  31.573  1.00  0.00     0.091 A 
ATOM     48  F   UNL A   1      40.106  29.191  31.701  1.00  0.00    -0.205 F 
ATOM     49  C   UNL A   1      37.708  31.753  30.856  1.00  0.00     0.022 A 
BRANCH  47  50
ATOM     50  S   UNL A   1      38.125  30.683  33.345  1.00  0.00     0.127 S 
ATOM     51  O   UNL A   1      37.056  31.663  33.519  1.00  0.00    -0.237 OA
ATOM     52  O   UNL A   1      37.717  29.286  33.489  1.00  0.00    -0.237 OA
ATOM     53  O   UNL A   1      39.395  31.005  33.983  1.00  0.00    -0.744 OA
ENDBRANCH  47  50
ENDBRANCH  29  43
BRANCH  30  54
ATOM     54  C   UNL A   1      44.584  26.626  35.387  1.00  0.00     0.023 A 
ATOM     55  C   UNL A   1      43.332  26.183  35.863  1.00  0.00     0.012 A 
ATOM     56  C   UNL A   1      45.733  26.306  36.141  1.00  0.00     0.148 A 
ATOM     57  C   UNL A   1      43.235  25.398  37.018  1.00  0.00     0.002 A 
ATOM     58  C   UNL A   1      45.631  25.525  37.290  1.00  0.00     0.091 A 
ATOM     59  F   UNL A   1      46.934  26.683  35.685  1.00  0.00    -0.205 F 
ATOM     60  C   UNL A   1      44.384  25.057  37.722  1.00  0.00     0.022 A 
BRANCH  58  61
ATOM     61  S   UNL A   1      47.075  25.006  38.227  1.00  0.00     0.127 S 
ATOM     62  O   UNL A   1      46.475  24.170  39.268  1.00  0.00    -0.237 OA
ATOM     63  O   UNL A   1      47.840  24.276  37.220  1.00  0.00    -0.237 OA
ATOM     64  O   UNL A   1      47.691  26.230  38.723  1.00  0.00    -0.744 OA
ENDBRANCH  58  61
ENDBRANCH  30  54
BRANCH  42  65
ATOM     65  C   UNL A   1      46.266  30.270  30.539  1.00  0.00     0.023 A 
ATOM     66  C   UNL A   1      46.871  29.092  30.053  1.00  0.00     0.012 A 
ATOM     67  C   UNL A   1      47.001  31.467  30.534  1.00  0.00     0.148 A 
ATOM     68  C   UNL A   1      48.184  29.112  29.573  1.00  0.00     0.002 A 
ATOM     69  C   UNL A   1      48.282  31.494  30.002  1.00  0.00     0.091 A 
ATOM     70  F   UNL A   1      46.408  32.574  31.006  1.00  0.00    -0.205 F 
ATOM     71  C   UNL A   1      48.883  30.317  29.528  1.00  0.00     0.022 A 
BRANCH  69  72
ATOM     72  S   UNL A   1      49.168  33.037  29.766  1.00  0.00     0.127 S 
ATOM     73  O   UNL A   1      49.516  33.402  31.137  1.00  0.00    -0.237 OA
ATOM     74  O   UNL A   1      50.301  32.621  28.936  1.00  0.00    -0.237 OA
ATOM     75  O   UNL A   1      48.239  33.938  29.096  1.00  0.00    -0.744 OA
ENDBRANCH  69  72
ENDBRANCH  42  65
ENDBRANCH  16  17
ENDBRANCH   9  11
ENDBRANCH   8   9
ENDBRANCH   7   8
ENDBRANCH   6   7
ENDBRANCH   5   6
ENDBRANCH   4   5
ENDBRANCH   3   4
ENDBRANCH   2   3
ENDBRANCH   1   2
BRANCH   1  76
ATOM     76  C   UNL A   1      35.395  22.775  26.415  1.00  0.00     0.188 C 
BRANCH  76  77
ATOM     77  O   UNL A   1      34.299  23.677  26.414  1.00  0.00    -0.376 OA
BRANCH  77  78
ATOM     78  C   UNL A   1      33.169  23.440  27.237  1.00  0.00     0.202 C 
BRANCH  78  79
ATOM     79  C   UNL A   1      31.749  23.709  26.710  1.00  0.00     0.261 C 
BRANCH  79  80
ATOM     80  O   UNL A   1      31.462  25.048  26.274  1.00  0.00    -0.460 OA
BRANCH  80  81
ATOM     81  C   UNL A   1      30.157  25.371  26.113  1.00  0.00     0.341 C 
ATOM     82  O   UNL A   1      29.208  25.032  26.795  1.00  0.00    -0.246 OA
BRANCH  81  83
ATOM     83  C   UNL A   1      30.069  26.390  25.056  1.00  0.00     0.097 A 
ATOM     84  C   UNL A   1      31.194  27.168  24.753  1.00  0.00     0.040 A 
ATOM     85  C   UNL A   1      28.900  26.545  24.323  1.00  0.00     0.137 A 
ATOM     86  C   UNL A   1      31.160  28.023  23.646  1.00  0.00     0.085 A 
ATOM     87  C   UNL A   1      28.847  27.459  23.269  1.00  0.00     0.041 A 
ATOM     88  F   UNL A   1      27.805  25.835  24.621  1.00  0.00    -0.206 F 
ATOM     89  C   UNL A   1      29.985  28.190  22.911  1.00  0.00     0.025 A 
BRANCH  86  90
ATOM     90  S   UNL A   1      32.658  28.855  23.209  1.00  0.00     0.257 S 
ATOM     91  O   UNL A   1      32.374  29.748  22.118  1.00  0.00    -0.205 OA
ATOM     92  O   UNL A   1      33.271  29.311  24.444  1.00  0.00    -0.205 OA
BRANCH  90  93
ATOM     93  N   UNL A   1      33.663  27.633  22.600  1.00  0.00    -0.123 NA
ATOM     94  H   UNL A   1      33.971  27.073  23.395  1.00  0.00     0.167 HD
BRANCH  93  95
ATOM     95  N   UNL A   1      33.129  26.725  21.625  1.00  0.00    -0.275 N 
ATOM     96  C   UNL A   1      32.749  25.424  21.816  1.00  0.00     0.265 C 
ATOM     97  H   UNL A   1      33.024  27.080  20.713  1.00  0.00     0.186 HD
ATOM     98  O   UNL A   1      32.131  24.880  20.890  1.00  0.00    -0.271 OA
BRANCH  96  99
ATOM     99  C   UNL A   1      33.094  24.625  23.091  1.00  0.00     0.244 C 
ATOM    100  C   UNL A   1      32.316  23.417  23.460  1.00  0.00     0.042 C 
ATOM    101  N   UNL A   1      34.467  24.077  22.900  1.00  0.00    -0.171 NA
ATOM    102  C   UNL A   1      33.191  22.411  23.403  1.00  0.00     0.091 C 
ATOM    103  N   UNL A   1      34.457  22.827  23.085  1.00  0.00    -0.155 NA
BRANCH 102 104
ATOM    104  C   UNL A   1      32.847  20.998  23.510  1.00  0.00     0.002 A 
ATOM    105  C   UNL A   1      32.404  20.273  22.400  1.00  0.00     0.010 A 
ATOM    106  C   UNL A   1      32.958  20.353  24.750  1.00  0.00     0.010 A 
ATOM    107  C   UNL A   1      32.078  18.920  22.531  1.00  0.00     0.001 A 
ATOM    108  C   UNL A   1      32.646  19.000  24.877  1.00  0.00     0.001 A 
ATOM    109  C   UNL A   1      32.205  18.285  23.767  1.00  0.00     0.000 A 
ENDBRANCH 102 104
ENDBRANCH  96  99
ENDBRANCH  93  95
ENDBRANCH  90  93
ENDBRANCH  86  90
ENDBRANCH  81  83
ENDBRANCH  80  81
ENDBRANCH  79  80
ENDBRANCH  78  79
ENDBRANCH  77  78
ENDBRANCH  76  77
ENDBRANCH   1  76
TORSDOF 28
ENDMDL
