MODEL 1
REMARK VINA RESULT:      -7.6      0.000      0.000
REMARK SMILES CN1C(=O)C[C@@H](C(=O)OCCOCCOCCOCCOC(=O)c2ccc(-c3c4nc(c(-c5cccc(S(=O)(=O)[O-])c5F)c5ccc([nH]5)c(-c5cccc(S(=O)(=O)[O-])c5F)c5nc(c(-c6cccc(S(=O)(=O)[O-])c6F)c6ccc3[nH]6)C=C5)C=C4)cc2)C12CCN(C(=O)c1ccccc1-n1cccn1)CC2
REMARK SMILES IDX 16 1 15 2 14 3 13 4 12 5 11 6 10 7 9 8 7 9 8 10 6 11 1 12
REMARK SMILES IDX 2 13 3 14 87 15 4 16 5 17 88 18 105 19 89 20 104 21 90 22
REMARK SMILES IDX 91 23 92 24 93 25 94 26 98 27 95 28 97 29 96 30 99 31 100 32
REMARK SMILES IDX 103 33 101 34 102 35 17 36 18 37 19 38 20 39 21 40 22 41
REMARK SMILES IDX 23 42 24 43 25 44 86 45 26 46 85 47 27 48 28 49 29 50 79 51
REMARK SMILES IDX 30 52 84 53 78 54 80 55 31 56 83 57 77 58 76 59 32 61 64 62
REMARK SMILES IDX 44 63 63 64 45 65 48 66 62 67 81 68 46 69 47 70 61 72 82 73
REMARK SMILES IDX 49 74 33 75 34 76 42 77 35 78 37 79 43 80 36 81 38 82 39 83
REMARK SMILES IDX 40 84 41 85 65 86 66 87 74 88 67 89 69 90 75 91 68 92 70 93
REMARK SMILES IDX 71 94 72 95 73 96 50 97 51 98 59 99 52 100 54 101 60 102
REMARK SMILES IDX 53 103 55 104 56 105 57 106 58 107
REMARK H PARENT 80 60 48 71
REMARK Flexibility Score: inf
ROOT
ATOM      1  C   UNL A   1      40.272  34.183  29.967  1.00  0.00     0.188 C 
ENDROOT
BRANCH   1   2
ATOM      2  O   UNL A   1      41.405  34.971  29.615  1.00  0.00    -0.377 OA
BRANCH   2   3
ATOM      3  C   UNL A   1      41.470  35.675  28.393  1.00  0.00     0.188 C 
BRANCH   3   4
ATOM      4  C   UNL A   1      42.754  35.512  27.586  1.00  0.00     0.188 C 
BRANCH   4   5
ATOM      5  O   UNL A   1      43.989  35.636  28.258  1.00  0.00    -0.376 OA
BRANCH   5   6
ATOM      6  C   UNL A   1      44.778  36.809  28.063  1.00  0.00     0.202 C 
BRANCH   6   7
ATOM      7  C   UNL A   1      45.731  36.964  26.855  1.00  0.00     0.261 C 
BRANCH   7   8
ATOM      8  O   UNL A   1      47.100  36.482  27.009  1.00  0.00    -0.463 OA
BRANCH   8   9
ATOM      9  C   UNL A   1      47.303  35.184  26.705  1.00  0.00     0.311 C 
ATOM     10  O   UNL A   1      47.285  34.753  25.548  1.00  0.00    -0.252 OA
BRANCH   9  11
ATOM     11  C   UNL A   1      47.452  34.173  27.837  1.00  0.00     0.134 C 
ATOM     12  C   UNL A   1      50.084  31.473  27.750  1.00  0.00     0.147 C 
ATOM     13  N   UNL A   1      49.240  32.654  27.834  1.00  0.00    -0.339 N 
ATOM     14  C   UNL A   1      49.754  33.817  28.390  1.00  0.00     0.223 C 
ATOM     15  C   UNL A   1      47.762  32.646  27.795  1.00  0.00     0.060 C 
ATOM     16  O   UNL A   1      50.913  34.028  28.709  1.00  0.00    -0.275 OA
ATOM     17  C   UNL A   1      48.615  34.752  28.670  1.00  0.00     0.118 C 
ATOM     18  C   UNL A   1      47.217  31.812  26.623  1.00  0.00     0.051 C 
ATOM     19  C   UNL A   1      47.249  31.978  29.118  1.00  0.00     0.051 C 
ATOM     20  C   UNL A   1      45.740  31.410  26.697  1.00  0.00     0.122 C 
ATOM     21  C   UNL A   1      45.755  31.661  29.133  1.00  0.00     0.122 C 
ATOM     22  N   UNL A   1      45.350  30.858  27.987  1.00  0.00    -0.338 N 
ATOM     23  C   UNL A   1      44.387  29.860  28.192  1.00  0.00     0.256 C 
ATOM     24  O   UNL A   1      43.909  29.621  29.302  1.00  0.00    -0.269 OA
BRANCH  23  25
ATOM     25  C   UNL A   1      43.843  29.041  27.077  1.00  0.00     0.065 A 
ATOM     26  C   UNL A   1      42.513  29.321  26.706  1.00  0.00     0.016 A 
ATOM     27  C   UNL A   1      44.517  27.998  26.422  1.00  0.00     0.077 A 
ATOM     28  C   UNL A   1      41.864  28.576  25.715  1.00  0.00     0.001 A 
ATOM     29  C   UNL A   1      43.860  27.257  25.419  1.00  0.00     0.029 A 
ATOM     30  C   UNL A   1      42.530  27.527  25.089  1.00  0.00     0.002 A 
BRANCH  27  31
ATOM     31  N   UNL A   1      45.860  27.665  26.696  1.00  0.00    -0.240 N 
ATOM     32  C   UNL A   1      46.440  27.323  27.893  1.00  0.00     0.115 A 
ATOM     33  N   UNL A   1      46.776  27.718  25.694  1.00  0.00    -0.177 NA
ATOM     34  C   UNL A   1      47.795  27.255  27.673  1.00  0.00     0.042 A 
ATOM     35  C   UNL A   1      47.948  27.546  26.308  1.00  0.00     0.135 A 
ENDBRANCH  27  31
ENDBRANCH  23  25
ENDBRANCH   9  11
ENDBRANCH   8   9
ENDBRANCH   7   8
ENDBRANCH   6   7
ENDBRANCH   5   6
ENDBRANCH   4   5
ENDBRANCH   3   4
ENDBRANCH   2   3
ENDBRANCH   1   2
BRANCH   1  36
ATOM     36  C   UNL A   1      38.876  34.689  29.598  1.00  0.00     0.188 C 
BRANCH  36  37
ATOM     37  O   UNL A   1      37.857  33.695  29.457  1.00  0.00    -0.376 OA
BRANCH  37  38
ATOM     38  C   UNL A   1      36.522  34.162  29.265  1.00  0.00     0.202 C 
BRANCH  38  39
ATOM     39  C   UNL A   1      35.478  33.069  29.373  1.00  0.00     0.261 C 
BRANCH  39  40
ATOM     40  O   UNL A   1      35.223  32.500  28.086  1.00  0.00    -0.460 OA
BRANCH  40  41
ATOM     41  C   UNL A   1      34.790  31.232  28.119  1.00  0.00     0.338 C 
ATOM     42  O   UNL A   1      33.643  30.825  27.911  1.00  0.00    -0.246 OA
BRANCH  41  43
ATOM     43  C   UNL A   1      35.936  30.341  28.257  1.00  0.00     0.060 A 
ATOM     44  C   UNL A   1      36.037  29.615  29.446  1.00  0.00     0.016 A 
ATOM     45  C   UNL A   1      36.950  30.315  27.296  1.00  0.00     0.016 A 
ATOM     46  C   UNL A   1      37.206  28.925  29.726  1.00  0.00     0.010 A 
ATOM     47  C   UNL A   1      38.128  29.623  27.581  1.00  0.00     0.010 A 
ATOM     48  C   UNL A   1      38.277  28.981  28.824  1.00  0.00    -0.014 A 
BRANCH  48  49
ATOM     49  C   UNL A   1      39.605  28.540  29.300  1.00  0.00     0.031 A 
ATOM     50  C   UNL A   1      40.250  29.298  30.428  1.00  0.00     0.074 A 
ATOM     51  C   UNL A   1      40.174  27.438  28.789  1.00  0.00     0.049 A 
ATOM     52  N   UNL A   1      41.367  29.051  31.056  1.00  0.00    -0.248 NA
ATOM     53  C   UNL A   1      39.534  30.489  30.921  1.00  0.00     0.031 C 
ATOM     54  C   UNL A   1      39.616  26.623  27.710  1.00  0.00     0.029 A 
ATOM     55  N   UNL A   1      41.351  26.815  29.111  1.00  0.00    -0.354 N 
ATOM     56  C   UNL A   1      41.503  30.062  32.000  1.00  0.00     0.074 A 
ATOM     57  C   UNL A   1      40.360  30.936  31.854  1.00  0.00     0.031 C 
ATOM     58  C   UNL A   1      40.463  25.614  27.446  1.00  0.00     0.029 A 
ATOM     59  C   UNL A   1      41.626  25.726  28.321  1.00  0.00     0.049 A 
ATOM     60  H   UNL A   1      41.942  27.119  29.838  1.00  0.00     0.167 HD
ATOM     61  C   UNL A   1      42.483  30.237  32.915  1.00  0.00     0.034 A 
ATOM     62  C   UNL A   1      42.709  24.924  28.301  1.00  0.00     0.034 A 
ATOM     63  C   UNL A   1      43.605  29.351  33.057  1.00  0.00     0.049 A 
ATOM     64  C   UNL A   1      43.802  25.159  29.308  1.00  0.00     0.074 A 
ATOM     65  C   UNL A   1      44.639  29.410  33.974  1.00  0.00     0.029 A 
ATOM     66  N   UNL A   1      43.849  28.251  32.247  1.00  0.00    -0.354 N 
ATOM     67  N   UNL A   1      43.865  26.055  30.265  1.00  0.00    -0.248 NA
ATOM     68  C   UNL A   1      44.959  24.255  29.256  1.00  0.00     0.031 C 
ATOM     69  C   UNL A   1      45.528  28.366  33.693  1.00  0.00     0.029 A 
ATOM     70  C   UNL A   1      45.027  27.634  32.627  1.00  0.00     0.049 A 
ATOM     71  H   UNL A   1      43.268  27.955  31.509  1.00  0.00     0.167 HD
ATOM     72  C   UNL A   1      45.050  25.804  30.947  1.00  0.00     0.074 A 
ATOM     73  C   UNL A   1      45.661  24.656  30.307  1.00  0.00     0.031 C 
ATOM     74  C   UNL A   1      45.592  26.468  31.998  1.00  0.00     0.034 A 
BRANCH  61  75
ATOM     75  C   UNL A   1      42.379  31.423  33.836  1.00  0.00     0.023 A 
ATOM     76  C   UNL A   1      41.733  31.292  35.084  1.00  0.00     0.012 A 
ATOM     77  C   UNL A   1      42.957  32.659  33.486  1.00  0.00     0.148 A 
ATOM     78  C   UNL A   1      41.637  32.379  35.952  1.00  0.00     0.002 A 
ATOM     79  C   UNL A   1      42.896  33.725  34.374  1.00  0.00     0.091 A 
ATOM     80  F   UNL A   1      43.543  32.771  32.285  1.00  0.00    -0.205 F 
ATOM     81  C   UNL A   1      42.226  33.591  35.602  1.00  0.00     0.022 A 
BRANCH  79  82
ATOM     82  S   UNL A   1      43.687  35.305  34.049  1.00  0.00     0.127 S 
ATOM     83  O   UNL A   1      43.282  36.084  35.219  1.00  0.00    -0.237 OA
ATOM     84  O   UNL A   1      45.103  34.938  34.021  1.00  0.00    -0.237 OA
ATOM     85  O   UNL A   1      43.152  35.768  32.777  1.00  0.00    -0.744 OA
ENDBRANCH  79  82
ENDBRANCH  61  75
BRANCH  62  86
ATOM     86  C   UNL A   1      42.796  23.819  27.307  1.00  0.00     0.023 A 
ATOM     87  C   UNL A   1      43.540  23.992  26.125  1.00  0.00     0.012 A 
ATOM     88  C   UNL A   1      42.160  22.585  27.545  1.00  0.00     0.148 A 
ATOM     89  C   UNL A   1      43.628  22.964  25.185  1.00  0.00     0.002 A 
ATOM     90  C   UNL A   1      42.298  21.547  26.632  1.00  0.00     0.091 A 
ATOM     91  F   UNL A   1      41.442  22.447  28.669  1.00  0.00    -0.205 F 
ATOM     92  C   UNL A   1      43.016  21.739  25.442  1.00  0.00     0.022 A 
BRANCH  90  93
ATOM     93  S   UNL A   1      41.655  19.900  26.947  1.00  0.00     0.127 S 
ATOM     94  O   UNL A   1      41.390  19.419  25.594  1.00  0.00    -0.237 OA
ATOM     95  O   UNL A   1      42.787  19.262  27.621  1.00  0.00    -0.237 OA
ATOM     96  O   UNL A   1      40.484  20.091  27.793  1.00  0.00    -0.744 OA
ENDBRANCH  90  93
ENDBRANCH  62  86
BRANCH  74  97
ATOM     97  C   UNL A   1      46.899  25.954  32.544  1.00  0.00     0.023 A 
ATOM     98  C   UNL A   1      48.107  26.578  32.173  1.00  0.00     0.012 A 
ATOM     99  C   UNL A   1      46.921  24.902  33.480  1.00  0.00     0.148 A 
ATOM    100  C   UNL A   1      49.321  26.137  32.699  1.00  0.00     0.002 A 
ATOM    101  C   UNL A   1      48.128  24.505  34.040  1.00  0.00     0.091 A 
ATOM    102  F   UNL A   1      45.762  24.312  33.807  1.00  0.00    -0.205 F 
ATOM    103  C   UNL A   1      49.330  25.111  33.640  1.00  0.00     0.022 A 
BRANCH 101 104
ATOM    104  S   UNL A   1      48.226  23.262  35.333  1.00  0.00     0.127 S 
ATOM    105  O   UNL A   1      48.165  22.023  34.560  1.00  0.00    -0.237 OA
ATOM    106  O   UNL A   1      49.530  23.543  35.934  1.00  0.00    -0.237 OA
ATOM    107  O   UNL A   1      47.089  23.505  36.212  1.00  0.00    -0.744 OA
ENDBRANCH 101 104
ENDBRANCH  74  97
ENDBRANCH  48  49
ENDBRANCH  41  43
ENDBRANCH  40  41
ENDBRANCH  39  40
ENDBRANCH  38  39
ENDBRANCH  37  38
ENDBRANCH  36  37
ENDBRANCH   1  36
TORSDOF 25
ENDMDL
MODEL 2
REMARK VINA RESULT:      -6.6      2.216      2.873
REMARK SMILES CN1C(=O)C[C@@H](C(=O)OCCOCCOCCOCCOC(=O)c2ccc(-c3c4nc(c(-c5cccc(S(=O)(=O)[O-])c5F)c5ccc([nH]5)c(-c5cccc(S(=O)(=O)[O-])c5F)c5nc(c(-c6cccc(S(=O)(=O)[O-])c6F)c6ccc3[nH]6)C=C5)C=C4)cc2)C12CCN(C(=O)c1ccccc1-n1cccn1)CC2
REMARK SMILES IDX 16 1 15 2 14 3 13 4 12 5 11 6 10 7 9 8 7 9 8 10 6 11 1 12
REMARK SMILES IDX 2 13 3 14 87 15 4 16 5 17 88 18 105 19 89 20 104 21 90 22
REMARK SMILES IDX 91 23 92 24 93 25 94 26 98 27 95 28 97 29 96 30 99 31 100 32
REMARK SMILES IDX 103 33 101 34 102 35 17 36 18 37 19 38 20 39 21 40 22 41
REMARK SMILES IDX 23 42 24 43 25 44 86 45 26 46 85 47 27 48 28 49 29 50 79 51
REMARK SMILES IDX 30 52 84 53 78 54 80 55 31 56 83 57 77 58 76 59 32 61 64 62
REMARK SMILES IDX 44 63 63 64 45 65 48 66 62 67 81 68 46 69 47 70 61 72 82 73
REMARK SMILES IDX 49 74 33 75 34 76 42 77 35 78 37 79 43 80 36 81 38 82 39 83
REMARK SMILES IDX 40 84 41 85 65 86 66 87 74 88 67 89 69 90 75 91 68 92 70 93
REMARK SMILES IDX 71 94 72 95 73 96 50 97 51 98 59 99 52 100 54 101 60 102
REMARK SMILES IDX 53 103 55 104 56 105 57 106 58 107
REMARK H PARENT 80 60 48 71
REMARK Flexibility Score: inf
ROOT
ATOM      1  C   UNL A   1      40.468  34.125  30.577  1.00  0.00     0.188 C 
ENDROOT
BRANCH   1   2
ATOM      2  O   UNL A   1      41.734  34.709  30.284  1.00  0.00    -0.377 OA
BRANCH   2   3
ATOM      3  C   UNL A   1      41.991  35.348  29.052  1.00  0.00     0.188 C 
BRANCH   3   4
ATOM      4  C   UNL A   1      43.008  34.674  28.139  1.00  0.00     0.188 C 
BRANCH   4   5
ATOM      5  O   UNL A   1      44.217  34.215  28.703  1.00  0.00    -0.376 OA
BRANCH   5   6
ATOM      6  C   UNL A   1      45.333  35.102  28.785  1.00  0.00     0.202 C 
BRANCH   6   7
ATOM      7  C   UNL A   1      46.782  34.584  28.931  1.00  0.00     0.261 C 
BRANCH   7   8
ATOM      8  O   UNL A   1      47.298  34.390  30.282  1.00  0.00    -0.463 OA
BRANCH   8   9
ATOM      9  C   UNL A   1      48.093  33.316  30.460  1.00  0.00     0.311 C 
ATOM     10  O   UNL A   1      49.293  33.312  30.169  1.00  0.00    -0.252 OA
BRANCH   9  11
ATOM     11  C   UNL A   1      47.473  32.006  30.934  1.00  0.00     0.134 C 
ATOM     12  C   UNL A   1      49.576  29.218  32.359  1.00  0.00     0.147 C 
ATOM     13  N   UNL A   1      48.797  30.396  32.009  1.00  0.00    -0.339 N 
ATOM     14  C   UNL A   1      48.432  31.288  33.007  1.00  0.00     0.223 C 
ATOM     15  C   UNL A   1      47.975  30.538  30.788  1.00  0.00     0.060 C 
ATOM     16  O   UNL A   1      48.809  31.286  34.167  1.00  0.00    -0.275 OA
ATOM     17  C   UNL A   1      47.374  32.201  32.462  1.00  0.00     0.118 C 
ATOM     18  C   UNL A   1      48.749  30.143  29.518  1.00  0.00     0.051 C 
ATOM     19  C   UNL A   1      46.755  29.560  30.912  1.00  0.00     0.051 C 
ATOM     20  C   UNL A   1      47.912  29.877  28.262  1.00  0.00     0.122 C 
ATOM     21  C   UNL A   1      45.940  29.394  29.631  1.00  0.00     0.122 C 
ATOM     22  N   UNL A   1      46.768  29.008  28.497  1.00  0.00    -0.338 N 
ATOM     23  C   UNL A   1      46.238  28.089  27.580  1.00  0.00     0.256 C 
ATOM     24  O   UNL A   1      45.126  27.578  27.725  1.00  0.00    -0.269 OA
BRANCH  23  25
ATOM     25  C   UNL A   1      46.964  27.690  26.345  1.00  0.00     0.065 A 
ATOM     26  C   UNL A   1      46.427  28.178  25.137  1.00  0.00     0.016 A 
ATOM     27  C   UNL A   1      48.080  26.841  26.289  1.00  0.00     0.077 A 
ATOM     28  C   UNL A   1      46.979  27.822  23.902  1.00  0.00     0.001 A 
ATOM     29  C   UNL A   1      48.636  26.493  25.042  1.00  0.00     0.029 A 
ATOM     30  C   UNL A   1      48.069  26.959  23.854  1.00  0.00     0.002 A 
BRANCH  27  31
ATOM     31  N   UNL A   1      48.712  26.331  27.442  1.00  0.00    -0.240 N 
ATOM     32  C   UNL A   1      48.168  25.622  28.485  1.00  0.00     0.115 A 
ATOM     33  N   UNL A   1      50.032  26.582  27.645  1.00  0.00    -0.177 NA
ATOM     34  C   UNL A   1      49.150  25.501  29.439  1.00  0.00     0.042 A 
ATOM     35  C   UNL A   1      50.266  26.147  28.883  1.00  0.00     0.135 A 
ENDBRANCH  27  31
ENDBRANCH  23  25
ENDBRANCH   9  11
ENDBRANCH   8   9
ENDBRANCH   7   8
ENDBRANCH   6   7
ENDBRANCH   5   6
ENDBRANCH   4   5
ENDBRANCH   3   4
ENDBRANCH   2   3
ENDBRANCH   1   2
BRANCH   1  36
ATOM     36  C   UNL A   1      39.222  34.676  29.880  1.00  0.00     0.188 C 
BRANCH  36  37
ATOM     37  O   UNL A   1      38.233  33.715  29.496  1.00  0.00    -0.376 OA
BRANCH  37  38
ATOM     38  C   UNL A   1      37.013  34.226  28.958  1.00  0.00     0.202 C 
BRANCH  38  39
ATOM     39  C   UNL A   1      35.846  33.270  29.096  1.00  0.00     0.261 C 
BRANCH  39  40
ATOM     40  O   UNL A   1      35.573  32.638  27.842  1.00  0.00    -0.460 OA
BRANCH  40  41
ATOM     41  C   UNL A   1      35.079  31.396  27.945  1.00  0.00     0.338 C 
ATOM     42  O   UNL A   1      33.913  31.036  27.767  1.00  0.00    -0.246 OA
BRANCH  41  43
ATOM     43  C   UNL A   1      36.182  30.459  28.125  1.00  0.00     0.060 A 
ATOM     44  C   UNL A   1      36.160  29.663  29.273  1.00  0.00     0.016 A 
ATOM     45  C   UNL A   1      37.272  30.452  27.250  1.00  0.00     0.016 A 
ATOM     46  C   UNL A   1      37.279  28.917  29.606  1.00  0.00     0.010 A 
ATOM     47  C   UNL A   1      38.400  29.703  27.590  1.00  0.00     0.010 A 
ATOM     48  C   UNL A   1      38.424  28.987  28.800  1.00  0.00    -0.014 A 
BRANCH  48  49
ATOM     49  C   UNL A   1      39.693  28.473  29.357  1.00  0.00     0.031 A 
ATOM     50  C   UNL A   1      40.320  29.208  30.510  1.00  0.00     0.074 A 
ATOM     51  C   UNL A   1      40.220  27.329  28.895  1.00  0.00     0.049 A 
ATOM     52  N   UNL A   1      41.383  28.904  31.203  1.00  0.00    -0.248 NA
ATOM     53  C   UNL A   1      39.654  30.449  30.945  1.00  0.00     0.031 C 
ATOM     54  C   UNL A   1      39.673  26.532  27.797  1.00  0.00     0.029 A 
ATOM     55  N   UNL A   1      41.335  26.640  29.291  1.00  0.00    -0.354 N 
ATOM     56  C   UNL A   1      41.529  29.921  32.139  1.00  0.00     0.074 A 
ATOM     57  C   UNL A   1      40.453  30.861  31.917  1.00  0.00     0.031 C 
ATOM     58  C   UNL A   1      40.468  25.468  27.595  1.00  0.00     0.029 A 
ATOM     59  C   UNL A   1      41.586  25.522  28.533  1.00  0.00     0.049 A 
ATOM     60  H   UNL A   1      41.902  26.919  30.046  1.00  0.00     0.167 HD
ATOM     61  C   UNL A   1      42.465  30.050  33.107  1.00  0.00     0.034 A 
ATOM     62  C   UNL A   1      42.615  24.655  28.585  1.00  0.00     0.034 A 
ATOM     63  C   UNL A   1      43.520  29.099  33.324  1.00  0.00     0.049 A 
ATOM     64  C   UNL A   1      43.663  24.840  29.650  1.00  0.00     0.074 A 
ATOM     65  C   UNL A   1      44.502  29.110  34.297  1.00  0.00     0.029 A 
ATOM     66  N   UNL A   1      43.739  27.973  32.545  1.00  0.00    -0.354 N 
ATOM     67  N   UNL A   1      43.728  25.746  30.597  1.00  0.00    -0.248 NA
ATOM     68  C   UNL A   1      44.762  23.865  29.676  1.00  0.00     0.031 C 
ATOM     69  C   UNL A   1      45.338  28.008  34.082  1.00  0.00     0.029 A 
ATOM     70  C   UNL A   1      44.853  27.290  32.999  1.00  0.00     0.049 A 
ATOM     71  H   UNL A   1      43.183  27.700  31.779  1.00  0.00     0.167 HD
ATOM     72  C   UNL A   1      44.855  25.434  31.349  1.00  0.00     0.074 A 
ATOM     73  C   UNL A   1      45.427  24.240  30.760  1.00  0.00     0.031 C 
ATOM     74  C   UNL A   1      45.378  26.081  32.420  1.00  0.00     0.034 A 
BRANCH  61  75
ATOM     75  C   UNL A   1      42.384  31.256  34.004  1.00  0.00     0.023 A 
ATOM     76  C   UNL A   1      43.170  32.395  33.726  1.00  0.00     0.012 A 
ATOM     77  C   UNL A   1      41.500  31.279  35.101  1.00  0.00     0.148 A 
ATOM     78  C   UNL A   1      43.099  33.523  34.543  1.00  0.00     0.002 A 
ATOM     79  C   UNL A   1      41.402  32.423  35.883  1.00  0.00     0.091 A 
ATOM     80  F   UNL A   1      40.782  30.179  35.364  1.00  0.00    -0.205 F 
ATOM     81  C   UNL A   1      42.209  33.541  35.614  1.00  0.00     0.022 A 
BRANCH  79  82
ATOM     82  S   UNL A   1      40.234  32.573  37.239  1.00  0.00     0.127 S 
ATOM     83  O   UNL A   1      41.097  32.351  38.399  1.00  0.00    -0.237 OA
ATOM     84  O   UNL A   1      39.761  33.948  37.086  1.00  0.00    -0.237 OA
ATOM     85  O   UNL A   1      39.222  31.551  37.013  1.00  0.00    -0.744 OA
ENDBRANCH  79  82
ENDBRANCH  61  75
BRANCH  62  86
ATOM     86  C   UNL A   1      42.688  23.530  27.614  1.00  0.00     0.023 A 
ATOM     87  C   UNL A   1      41.680  22.547  27.596  1.00  0.00     0.012 A 
ATOM     88  C   UNL A   1      43.747  23.446  26.688  1.00  0.00     0.148 A 
ATOM     89  C   UNL A   1      41.739  21.487  26.691  1.00  0.00     0.002 A 
ATOM     90  C   UNL A   1      43.769  22.418  25.753  1.00  0.00     0.091 A 
ATOM     91  F   UNL A   1      44.705  24.381  26.733  1.00  0.00    -0.205 F 
ATOM     92  C   UNL A   1      42.776  21.427  25.764  1.00  0.00     0.022 A 
BRANCH  90  93
ATOM     93  S   UNL A   1      44.994  22.341  24.442  1.00  0.00     0.127 S 
ATOM     94  O   UNL A   1      44.962  23.706  23.923  1.00  0.00    -0.237 OA
ATOM     95  O   UNL A   1      46.205  21.990  25.185  1.00  0.00    -0.237 OA
ATOM     96  O   UNL A   1      44.528  21.305  23.530  1.00  0.00    -0.744 OA
ENDBRANCH  90  93
ENDBRANCH  62  86
BRANCH  74  97
ATOM     97  C   UNL A   1      46.618  25.497  33.045  1.00  0.00     0.023 A 
ATOM     98  C   UNL A   1      47.887  25.970  32.660  1.00  0.00     0.012 A 
ATOM     99  C   UNL A   1      46.518  24.533  34.067  1.00  0.00     0.148 A 
ATOM    100  C   UNL A   1      49.042  25.465  33.257  1.00  0.00     0.002 A 
ATOM    101  C   UNL A   1      47.670  24.074  34.695  1.00  0.00     0.091 A 
ATOM    102  F   UNL A   1      45.301  24.084  34.408  1.00  0.00    -0.205 F 
ATOM    103  C   UNL A   1      48.932  24.529  34.282  1.00  0.00     0.022 A 
BRANCH 101 104
ATOM    104  S   UNL A   1      47.620  22.945  36.090  1.00  0.00     0.127 S 
ATOM    105  O   UNL A   1      47.344  21.670  35.432  1.00  0.00    -0.237 OA
ATOM    106  O   UNL A   1      48.971  23.070  36.638  1.00  0.00    -0.237 OA
ATOM    107  O   UNL A   1      46.564  23.435  36.967  1.00  0.00    -0.744 OA
ENDBRANCH 101 104
ENDBRANCH  74  97
ENDBRANCH  48  49
ENDBRANCH  41  43
ENDBRANCH  40  41
ENDBRANCH  39  40
ENDBRANCH  38  39
ENDBRANCH  37  38
ENDBRANCH  36  37
ENDBRANCH   1  36
TORSDOF 25
ENDMDL
MODEL 3
REMARK VINA RESULT:      -6.5      5.739     13.043
REMARK SMILES CN1C(=O)C[C@@H](C(=O)OCCOCCOCCOCCOC(=O)c2ccc(-c3c4nc(c(-c5cccc(S(=O)(=O)[O-])c5F)c5ccc([nH]5)c(-c5cccc(S(=O)(=O)[O-])c5F)c5nc(c(-c6cccc(S(=O)(=O)[O-])c6F)c6ccc3[nH]6)C=C5)C=C4)cc2)C12CCN(C(=O)c1ccccc1-n1cccn1)CC2
REMARK SMILES IDX 16 1 15 2 14 3 13 4 12 5 11 6 10 7 9 8 7 9 8 10 6 11 1 12
REMARK SMILES IDX 2 13 3 14 87 15 4 16 5 17 88 18 105 19 89 20 104 21 90 22
REMARK SMILES IDX 91 23 92 24 93 25 94 26 98 27 95 28 97 29 96 30 99 31 100 32
REMARK SMILES IDX 103 33 101 34 102 35 17 36 18 37 19 38 20 39 21 40 22 41
REMARK SMILES IDX 23 42 24 43 25 44 86 45 26 46 85 47 27 48 28 49 29 50 79 51
REMARK SMILES IDX 30 52 84 53 78 54 80 55 31 56 83 57 77 58 76 59 32 61 64 62
REMARK SMILES IDX 44 63 63 64 45 65 48 66 62 67 81 68 46 69 47 70 61 72 82 73
REMARK SMILES IDX 49 74 33 75 34 76 42 77 35 78 37 79 43 80 36 81 38 82 39 83
REMARK SMILES IDX 40 84 41 85 65 86 66 87 74 88 67 89 69 90 75 91 68 92 70 93
REMARK SMILES IDX 71 94 72 95 73 96 50 97 51 98 59 99 52 100 54 101 60 102
REMARK SMILES IDX 53 103 55 104 56 105 57 106 58 107
REMARK H PARENT 80 60 48 71
REMARK Flexibility Score: inf
ROOT
ATOM      1  C   UNL A   1      39.428  21.844  26.383  1.00  0.00     0.188 C 
ENDROOT
BRANCH   1   2
ATOM      2  O   UNL A   1      38.205  21.859  25.653  1.00  0.00    -0.377 OA
BRANCH   2   3
ATOM      3  C   UNL A   1      37.793  22.990  24.915  1.00  0.00     0.188 C 
BRANCH   3   4
ATOM      4  C   UNL A   1      36.702  23.848  25.546  1.00  0.00     0.188 C 
BRANCH   4   5
ATOM      5  O   UNL A   1      36.349  23.603  26.890  1.00  0.00    -0.376 OA
BRANCH   5   6
ATOM      6  C   UNL A   1      35.035  23.133  27.194  1.00  0.00     0.202 C 
BRANCH   6   7
ATOM      7  C   UNL A   1      34.639  21.647  27.028  1.00  0.00     0.261 C 
BRANCH   7   8
ATOM      8  O   UNL A   1      35.298  20.886  25.972  1.00  0.00    -0.463 OA
BRANCH   8   9
ATOM      9  C   UNL A   1      34.493  20.118  25.210  1.00  0.00     0.311 C 
ATOM     10  O   UNL A   1      34.874  19.077  24.666  1.00  0.00    -0.252 OA
BRANCH   9  11
ATOM     11  C   UNL A   1      33.080  20.603  24.905  1.00  0.00     0.134 C 
ATOM     12  C   UNL A   1      32.038  21.605  21.421  1.00  0.00     0.147 C 
ATOM     13  N   UNL A   1      32.425  21.005  22.688  1.00  0.00    -0.339 N 
ATOM     14  C   UNL A   1      32.249  19.642  22.876  1.00  0.00     0.223 C 
ATOM     15  C   UNL A   1      32.582  21.740  23.962  1.00  0.00     0.060 C 
ATOM     16  O   UNL A   1      31.924  18.822  22.032  1.00  0.00    -0.275 OA
ATOM     17  C   UNL A   1      32.395  19.341  24.337  1.00  0.00     0.118 C 
ATOM     18  C   UNL A   1      33.448  23.001  23.802  1.00  0.00     0.051 C 
ATOM     19  C   UNL A   1      31.160  22.210  24.426  1.00  0.00     0.051 C 
ATOM     20  C   UNL A   1      33.367  24.035  24.930  1.00  0.00     0.122 C 
ATOM     21  C   UNL A   1      31.164  23.197  25.592  1.00  0.00     0.122 C 
ATOM     22  N   UNL A   1      32.005  24.356  25.329  1.00  0.00    -0.338 N 
ATOM     23  C   UNL A   1      31.558  25.606  25.781  1.00  0.00     0.256 C 
ATOM     24  O   UNL A   1      30.476  25.755  26.351  1.00  0.00    -0.269 OA
BRANCH  23  25
ATOM     25  C   UNL A   1      32.375  26.840  25.640  1.00  0.00     0.065 A 
ATOM     26  C   UNL A   1      32.767  27.455  26.846  1.00  0.00     0.016 A 
ATOM     27  C   UNL A   1      32.729  27.454  24.429  1.00  0.00     0.077 A 
ATOM     28  C   UNL A   1      33.483  28.657  26.849  1.00  0.00     0.001 A 
ATOM     29  C   UNL A   1      33.458  28.660  24.438  1.00  0.00     0.029 A 
ATOM     30  C   UNL A   1      33.807  29.272  25.644  1.00  0.00     0.002 A 
BRANCH  27  31
ATOM     31  N   UNL A   1      32.417  26.899  23.170  1.00  0.00    -0.240 N 
ATOM     32  C   UNL A   1      31.193  26.774  22.559  1.00  0.00     0.115 A 
ATOM     33  N   UNL A   1      33.407  26.343  22.423  1.00  0.00    -0.177 NA
ATOM     34  C   UNL A   1      31.390  26.020  21.426  1.00  0.00     0.042 A 
ATOM     35  C   UNL A   1      32.768  25.750  21.414  1.00  0.00     0.135 A 
ENDBRANCH  27  31
ENDBRANCH  23  25
ENDBRANCH   9  11
ENDBRANCH   8   9
ENDBRANCH   7   8
ENDBRANCH   6   7
ENDBRANCH   5   6
ENDBRANCH   4   5
ENDBRANCH   3   4
ENDBRANCH   2   3
ENDBRANCH   1   2
BRANCH   1  36
ATOM     36  C   UNL A   1      40.307  20.593  26.328  1.00  0.00     0.188 C 
BRANCH  36  37
ATOM     37  O   UNL A   1      41.714  20.798  26.489  1.00  0.00    -0.376 OA
BRANCH  37  38
ATOM     38  C   UNL A   1      42.257  22.000  25.942  1.00  0.00     0.202 C 
BRANCH  38  39
ATOM     39  C   UNL A   1      43.691  22.258  26.356  1.00  0.00     0.261 C 
BRANCH  39  40
ATOM     40  O   UNL A   1      43.752  22.592  27.746  1.00  0.00    -0.460 OA
BRANCH  40  41
ATOM     41  C   UNL A   1      42.880  23.536  28.126  1.00  0.00     0.338 C 
ATOM     42  O   UNL A   1      41.775  23.370  28.651  1.00  0.00    -0.246 OA
BRANCH  41  43
ATOM     43  C   UNL A   1      43.511  24.845  28.002  1.00  0.00     0.060 A 
ATOM     44  C   UNL A   1      43.532  25.423  26.730  1.00  0.00     0.016 A 
ATOM     45  C   UNL A   1      44.175  25.432  29.083  1.00  0.00     0.016 A 
ATOM     46  C   UNL A   1      44.302  26.553  26.508  1.00  0.00     0.010 A 
ATOM     47  C   UNL A   1      44.953  26.568  28.856  1.00  0.00     0.010 A 
ATOM     48  C   UNL A   1      45.065  27.089  27.554  1.00  0.00    -0.014 A 
BRANCH  48  49
ATOM     49  C   UNL A   1      46.127  28.057  27.210  1.00  0.00     0.031 A 
ATOM     50  C   UNL A   1      45.749  29.502  27.031  1.00  0.00     0.074 A 
ATOM     51  C   UNL A   1      47.408  27.662  27.146  1.00  0.00     0.049 A 
ATOM     52  N   UNL A   1      46.515  30.534  26.802  1.00  0.00    -0.248 NA
ATOM     53  C   UNL A   1      44.315  29.830  27.131  1.00  0.00     0.031 C 
ATOM     54  C   UNL A   1      47.876  26.288  27.328  1.00  0.00     0.029 A 
ATOM     55  N   UNL A   1      48.549  28.381  26.908  1.00  0.00    -0.354 N 
ATOM     56  C   UNL A   1      45.661  31.627  26.709  1.00  0.00     0.074 A 
ATOM     57  C   UNL A   1      44.315  31.132  26.891  1.00  0.00     0.031 C 
ATOM     58  C   UNL A   1      49.210  26.261  27.176  1.00  0.00     0.029 A 
ATOM     59  C   UNL A   1      49.683  27.607  26.867  1.00  0.00     0.049 A 
ATOM     60  H   UNL A   1      48.555  29.357  26.778  1.00  0.00     0.167 HD
ATOM     61  C   UNL A   1      45.973  32.927  26.506  1.00  0.00     0.034 A 
ATOM     62  C   UNL A   1      50.956  27.954  26.593  1.00  0.00     0.034 A 
ATOM     63  C   UNL A   1      47.318  33.405  26.341  1.00  0.00     0.049 A 
ATOM     64  C   UNL A   1      51.272  29.403  26.337  1.00  0.00     0.074 A 
ATOM     65  C   UNL A   1      47.754  34.706  26.166  1.00  0.00     0.029 A 
ATOM     66  N   UNL A   1      48.444  32.597  26.315  1.00  0.00    -0.354 N 
ATOM     67  N   UNL A   1      50.469  30.440  26.358  1.00  0.00    -0.248 NA
ATOM     68  C   UNL A   1      52.675  29.736  26.051  1.00  0.00     0.031 C 
ATOM     69  C   UNL A   1      49.143  34.679  25.996  1.00  0.00     0.029 A 
ATOM     70  C   UNL A   1      49.575  33.366  26.105  1.00  0.00     0.049 A 
ATOM     71  H   UNL A   1      48.440  31.619  26.429  1.00  0.00     0.167 HD
ATOM     72  C   UNL A   1      51.271  31.550  26.120  1.00  0.00     0.074 A 
ATOM     73  C   UNL A   1      52.627  31.059  25.981  1.00  0.00     0.031 C 
ATOM     74  C   UNL A   1      50.919  32.856  26.012  1.00  0.00     0.034 A 
BRANCH  61  75
ATOM     75  C   UNL A   1      44.843  33.920  26.459  1.00  0.00     0.023 A 
ATOM     76  C   UNL A   1      44.040  34.020  25.303  1.00  0.00     0.012 A 
ATOM     77  C   UNL A   1      44.547  34.727  27.576  1.00  0.00     0.148 A 
ATOM     78  C   UNL A   1      42.984  34.929  25.248  1.00  0.00     0.002 A 
ATOM     79  C   UNL A   1      43.466  35.598  27.530  1.00  0.00     0.091 A 
ATOM     80  F   UNL A   1      45.337  34.637  28.655  1.00  0.00    -0.205 F 
ATOM     81  C   UNL A   1      42.690  35.710  26.364  1.00  0.00     0.022 A 
BRANCH  79  82
ATOM     82  S   UNL A   1      42.962  36.592  28.938  1.00  0.00     0.127 S 
ATOM     83  O   UNL A   1      42.938  35.596  30.009  1.00  0.00    -0.237 OA
ATOM     84  O   UNL A   1      44.051  37.564  29.034  1.00  0.00    -0.237 OA
ATOM     85  O   UNL A   1      41.668  37.160  28.588  1.00  0.00    -0.744 OA
ENDBRANCH  79  82
ENDBRANCH  61  75
BRANCH  62  86
ATOM     86  C   UNL A   1      52.019  26.912  26.566  1.00  0.00     0.023 A 
ATOM     87  C   UNL A   1      52.096  26.011  25.488  1.00  0.00     0.012 A 
ATOM     88  C   UNL A   1      52.973  26.830  27.600  1.00  0.00     0.148 A 
ATOM     89  C   UNL A   1      53.087  25.029  25.453  1.00  0.00     0.002 A 
ATOM     90  C   UNL A   1      53.990  25.886  27.531  1.00  0.00     0.091 A 
ATOM     91  F   UNL A   1      52.871  27.686  28.626  1.00  0.00    -0.205 F 
ATOM     92  C   UNL A   1      54.039  24.973  26.467  1.00  0.00     0.022 A 
BRANCH  90  93
ATOM     93  S   UNL A   1      55.330  25.832  28.724  1.00  0.00     0.127 S 
ATOM     94  O   UNL A   1      54.602  25.720  29.986  1.00  0.00    -0.237 OA
ATOM     95  O   UNL A   1      56.047  24.623  28.314  1.00  0.00    -0.237 OA
ATOM     96  O   UNL A   1      56.078  27.067  28.531  1.00  0.00    -0.744 OA
ENDBRANCH  90  93
ENDBRANCH  62  86
BRANCH  74  97
ATOM     97  C   UNL A   1      52.020  33.852  25.759  1.00  0.00     0.023 A 
ATOM     98  C   UNL A   1      52.328  34.236  24.438  1.00  0.00     0.012 A 
ATOM     99  C   UNL A   1      52.697  34.460  26.833  1.00  0.00     0.148 A 
ATOM    100  C   UNL A   1      53.319  35.186  24.191  1.00  0.00     0.002 A 
ATOM    101  C   UNL A   1      53.645  35.444  26.581  1.00  0.00     0.091 A 
ATOM    102  F   UNL A   1      52.401  34.069  28.081  1.00  0.00    -0.205 F 
ATOM    103  C   UNL A   1      53.967  35.798  25.261  1.00  0.00     0.022 A 
BRANCH 101 104
ATOM    104  S   UNL A   1      54.458  36.357  27.896  1.00  0.00     0.127 S 
ATOM    105  O   UNL A   1      55.316  37.267  27.142  1.00  0.00    -0.237 OA
ATOM    106  O   UNL A   1      53.329  37.000  28.570  1.00  0.00    -0.237 OA
ATOM    107  O   UNL A   1      55.158  35.365  28.702  1.00  0.00    -0.744 OA
ENDBRANCH 101 104
ENDBRANCH  74  97
ENDBRANCH  48  49
ENDBRANCH  41  43
ENDBRANCH  40  41
ENDBRANCH  39  40
ENDBRANCH  38  39
ENDBRANCH  37  38
ENDBRANCH  36  37
ENDBRANCH   1  36
TORSDOF 25
ENDMDL
