MODEL 1
REMARK VINA RESULT:      -7.5      0.000      0.000
REMARK SMILES CC(C)c1nnsc1C[N@@H+]1C[C@@H](C(=O)OCCOCCOCCOCCOC(=O)c2ccc(-c3c4nc(c(-c5cccc(S(=O)(=O)[O-])c5F)c5ccc([nH]5)c(-c5cccc(S(=O)(=O)[O-])c5F)c5nc(c(-c6cccc(S(=O)(=O)[O-])c6F)c6ccc3[nH]6)C=C5)C=C4)cc2)[C@H](c2cccc(F)c2)C1
REMARK SMILES IDX 21 1 20 2 19 3 18 4 17 5 16 6 15 7 13 8 14 9 12 10 10 11
REMARK SMILES IDX 11 12 101 13 93 15 9 16 8 17 4 18 5 19 6 20 7 21 2 22 1 23
REMARK SMILES IDX 3 24 94 25 95 26 100 27 96 28 98 29 97 30 99 31 22 32 23 33
REMARK SMILES IDX 24 34 25 35 26 36 27 37 28 38 29 39 30 40 31 41 92 42 32 43
REMARK SMILES IDX 91 44 33 45 34 46 35 47 85 48 36 49 90 50 84 51 86 52 37 53
REMARK SMILES IDX 89 54 83 55 82 56 38 58 70 59 50 60 69 61 51 62 54 63 68 64
REMARK SMILES IDX 87 65 52 66 53 67 67 69 88 70 55 71 39 72 40 73 48 74 41 75
REMARK SMILES IDX 43 76 49 77 42 78 44 79 45 80 46 81 47 82 71 83 72 84 80 85
REMARK SMILES IDX 73 86 75 87 81 88 74 89 76 90 77 91 78 92 79 93 56 94 57 95
REMARK SMILES IDX 65 96 58 97 60 98 66 99 59 100 61 101 62 102 63 103 64 104
REMARK H PARENT 10 14 86 57 54 68
REMARK Flexibility Score: inf
ROOT
ATOM      1  O   UNL A   1      45.171  38.610  34.301  1.00  0.00    -0.377 OA
ENDROOT
BRANCH   1   2
ATOM      2  C   UNL A   1      44.181  38.141  35.203  1.00  0.00     0.188 C 
BRANCH   2   3
ATOM      3  C   UNL A   1      42.934  37.345  34.735  1.00  0.00     0.188 C 
BRANCH   3   4
ATOM      4  O   UNL A   1      43.219  36.046  34.242  1.00  0.00    -0.376 OA
BRANCH   4   5
ATOM      5  C   UNL A   1      42.351  35.389  33.342  1.00  0.00     0.202 C 
BRANCH   5   6
ATOM      6  C   UNL A   1      40.928  35.053  33.785  1.00  0.00     0.261 C 
BRANCH   6   7
ATOM      7  O   UNL A   1      40.708  33.690  34.141  1.00  0.00    -0.463 OA
BRANCH   7   8
ATOM      8  C   UNL A   1      39.557  33.327  34.763  1.00  0.00     0.315 C 
ATOM      9  O   UNL A   1      39.394  33.256  35.969  1.00  0.00    -0.252 OA
BRANCH   8  10
ATOM     10  C   UNL A   1      38.523  33.059  33.695  1.00  0.00     0.167 C 
ATOM     11  N   UNL A   1      36.302  33.433  32.980  1.00  0.00    -0.329 N 
ATOM     12  C   UNL A   1      37.393  34.069  33.709  1.00  0.00     0.278 C 
ATOM     13  C   UNL A   1      36.430  31.995  33.245  1.00  0.00     0.272 C 
ATOM     14  H   UNL A   1      35.402  33.772  33.321  1.00  0.00     0.348 HD
ATOM     15  C   UNL A   1      37.825  31.715  33.866  1.00  0.00     0.094 C 
BRANCH  11  16
ATOM     16  C   UNL A   1      36.155  33.827  31.561  1.00  0.00     0.313 C 
BRANCH  16  17
ATOM     17  C   UNL A   1      34.832  34.344  31.081  1.00  0.00     0.103 A 
ATOM     18  C   UNL A   1      34.072  34.135  29.925  1.00  0.00     0.087 A 
ATOM     19  N   UNL A   1      32.880  34.863  29.888  1.00  0.00    -0.142 NA
ATOM     20  N   UNL A   1      32.640  35.496  31.017  1.00  0.00    -0.090 NA
ATOM     21  S   UNL A   1      33.801  35.218  32.166  1.00  0.00    -0.011 S 
BRANCH  18  22
ATOM     22  C   UNL A   1      34.258  33.209  28.747  1.00  0.00     0.035 C 
ATOM     23  C   UNL A   1      33.077  33.172  27.785  1.00  0.00     0.014 C 
ATOM     24  C   UNL A   1      35.572  33.409  27.997  1.00  0.00     0.014 C 
ENDBRANCH  18  22
ENDBRANCH  16  17
ENDBRANCH  11  16
BRANCH  15  25
ATOM     25  C   UNL A   1      38.610  30.540  33.299  1.00  0.00    -0.035 A 
ATOM     26  C   UNL A   1      39.985  30.397  33.528  1.00  0.00     0.004 A 
ATOM     27  C   UNL A   1      38.003  29.581  32.466  1.00  0.00     0.043 A 
ATOM     28  C   UNL A   1      40.696  29.299  33.029  1.00  0.00     0.003 A 
ATOM     29  C   UNL A   1      38.717  28.501  31.957  1.00  0.00     0.123 A 
ATOM     30  C   UNL A   1      40.058  28.341  32.247  1.00  0.00     0.039 A 
ATOM     31  F   UNL A   1      38.092  27.623  31.164  1.00  0.00    -0.207 F 
ENDBRANCH  15  25
ENDBRANCH   8  10
ENDBRANCH   7   8
ENDBRANCH   6   7
ENDBRANCH   5   6
ENDBRANCH   4   5
ENDBRANCH   3   4
ENDBRANCH   2   3
ENDBRANCH   1   2
BRANCH   1  32
ATOM     32  C   UNL A   1      44.708  39.257  33.129  1.00  0.00     0.188 C 
BRANCH  32  33
ATOM     33  C   UNL A   1      45.814  39.341  32.060  1.00  0.00     0.188 C 
BRANCH  33  34
ATOM     34  O   UNL A   1      45.843  38.218  31.191  1.00  0.00    -0.376 OA
BRANCH  34  35
ATOM     35  C   UNL A   1      44.732  37.338  31.117  1.00  0.00     0.202 C 
BRANCH  35  36
ATOM     36  C   UNL A   1      43.604  37.444  30.071  1.00  0.00     0.261 C 
BRANCH  36  37
ATOM     37  O   UNL A   1      43.539  36.466  29.031  1.00  0.00    -0.460 OA
BRANCH  37  38
ATOM     38  C   UNL A   1      42.357  35.854  28.807  1.00  0.00     0.338 C 
ATOM     39  O   UNL A   1      41.384  36.315  28.256  1.00  0.00    -0.246 OA
BRANCH  38  40
ATOM     40  C   UNL A   1      42.553  34.431  29.173  1.00  0.00     0.060 A 
ATOM     41  C   UNL A   1      41.581  33.789  29.953  1.00  0.00     0.016 A 
ATOM     42  C   UNL A   1      43.664  33.726  28.703  1.00  0.00     0.016 A 
ATOM     43  C   UNL A   1      41.728  32.445  30.285  1.00  0.00     0.010 A 
ATOM     44  C   UNL A   1      43.832  32.390  29.070  1.00  0.00     0.010 A 
ATOM     45  C   UNL A   1      42.881  31.757  29.890  1.00  0.00    -0.014 A 
BRANCH  45  46
ATOM     46  C   UNL A   1      43.201  30.462  30.528  1.00  0.00     0.031 A 
ATOM     47  C   UNL A   1      43.732  30.492  31.935  1.00  0.00     0.074 A 
ATOM     48  C   UNL A   1      43.022  29.296  29.886  1.00  0.00     0.049 A 
ATOM     49  N   UNL A   1      44.129  29.505  32.691  1.00  0.00    -0.248 NA
ATOM     50  C   UNL A   1      43.831  31.818  32.575  1.00  0.00     0.031 C 
ATOM     51  C   UNL A   1      42.498  29.146  28.529  1.00  0.00     0.029 A 
ATOM     52  N   UNL A   1      43.293  28.011  30.287  1.00  0.00    -0.354 N 
ATOM     53  C   UNL A   1      44.561  30.089  33.876  1.00  0.00     0.074 A 
ATOM     54  C   UNL A   1      44.374  31.516  33.744  1.00  0.00     0.031 C 
ATOM     55  C   UNL A   1      42.526  27.844  28.194  1.00  0.00     0.029 A 
ATOM     56  C   UNL A   1      43.095  27.075  29.299  1.00  0.00     0.049 A 
ATOM     57  H   UNL A   1      43.600  27.783  31.195  1.00  0.00     0.167 HD
ATOM     58  C   UNL A   1      45.065  29.488  34.976  1.00  0.00     0.034 A 
ATOM     59  C   UNL A   1      43.379  25.758  29.286  1.00  0.00     0.034 A 
ATOM     60  C   UNL A   1      45.232  28.068  35.108  1.00  0.00     0.049 A 
ATOM     61  C   UNL A   1      43.967  25.120  30.521  1.00  0.00     0.074 A 
ATOM     62  C   UNL A   1      45.682  27.357  36.205  1.00  0.00     0.029 A 
ATOM     63  N   UNL A   1      44.978  27.146  34.106  1.00  0.00    -0.354 N 
ATOM     64  N   UNL A   1      44.252  25.666  31.678  1.00  0.00    -0.248 NA
ATOM     65  C   UNL A   1      44.241  23.676  30.459  1.00  0.00     0.031 C 
ATOM     66  C   UNL A   1      45.742  26.006  35.852  1.00  0.00     0.029 A 
ATOM     67  C   UNL A   1      45.280  25.872  34.553  1.00  0.00     0.049 A 
ATOM     68  H   UNL A   1      44.634  27.365  33.210  1.00  0.00     0.167 HD
ATOM     69  C   UNL A   1      44.696  24.627  32.492  1.00  0.00     0.074 A 
ATOM     70  C   UNL A   1      44.622  23.418  31.702  1.00  0.00     0.031 C 
ATOM     71  C   UNL A   1      45.139  24.671  33.772  1.00  0.00     0.034 A 
BRANCH  58  72
ATOM     72  C   UNL A   1      45.475  30.356  36.133  1.00  0.00     0.023 A 
ATOM     73  C   UNL A   1      46.683  31.078  36.079  1.00  0.00     0.012 A 
ATOM     74  C   UNL A   1      44.612  30.523  37.234  1.00  0.00     0.148 A 
ATOM     75  C   UNL A   1      47.033  31.947  37.113  1.00  0.00     0.002 A 
ATOM     76  C   UNL A   1      44.945  31.426  38.234  1.00  0.00     0.091 A 
ATOM     77  F   UNL A   1      43.481  29.805  37.273  1.00  0.00    -0.205 F 
ATOM     78  C   UNL A   1      46.158  32.132  38.181  1.00  0.00     0.022 A 
BRANCH  76  79
ATOM     79  S   UNL A   1      43.848  31.799  39.606  1.00  0.00     0.127 S 
ATOM     80  O   UNL A   1      42.537  31.745  38.960  1.00  0.00    -0.237 OA
ATOM     81  O   UNL A   1      44.121  30.693  40.523  1.00  0.00    -0.237 OA
ATOM     82  O   UNL A   1      44.242  33.113  40.096  1.00  0.00    -0.744 OA
ENDBRANCH  76  79
ENDBRANCH  58  72
BRANCH  59  83
ATOM     83  C   UNL A   1      43.121  24.937  28.066  1.00  0.00     0.023 A 
ATOM     84  C   UNL A   1      41.820  24.471  27.797  1.00  0.00     0.012 A 
ATOM     85  C   UNL A   1      44.169  24.585  27.194  1.00  0.00     0.148 A 
ATOM     86  C   UNL A   1      41.577  23.625  26.714  1.00  0.00     0.002 A 
ATOM     87  C   UNL A   1      43.910  23.790  26.084  1.00  0.00     0.091 A 
ATOM     88  F   UNL A   1      45.405  25.023  27.475  1.00  0.00    -0.205 F 
ATOM     89  C   UNL A   1      42.619  23.291  25.854  1.00  0.00     0.022 A 
BRANCH  87  90
ATOM     90  S   UNL A   1      45.168  23.403  24.862  1.00  0.00     0.127 S 
ATOM     91  O   UNL A   1      46.061  22.529  25.618  1.00  0.00    -0.237 OA
ATOM     92  O   UNL A   1      44.383  22.733  23.824  1.00  0.00    -0.237 OA
ATOM     93  O   UNL A   1      45.728  24.685  24.459  1.00  0.00    -0.744 OA
ENDBRANCH  87  90
ENDBRANCH  59  83
BRANCH  71  94
ATOM     94  C   UNL A   1      45.516  23.370  34.434  1.00  0.00     0.023 A 
ATOM     95  C   UNL A   1      44.516  22.502  34.915  1.00  0.00     0.012 A 
ATOM     96  C   UNL A   1      46.867  22.974  34.505  1.00  0.00     0.148 A 
ATOM     97  C   UNL A   1      44.858  21.279  35.489  1.00  0.00     0.002 A 
ATOM     98  C   UNL A   1      47.196  21.730  35.027  1.00  0.00     0.091 A 
ATOM     99  F   UNL A   1      47.805  23.821  34.054  1.00  0.00    -0.205 F 
ATOM    100  C   UNL A   1      46.194  20.888  35.534  1.00  0.00     0.022 A 
BRANCH  98 101
ATOM    101  S   UNL A   1      48.878  21.101  35.030  1.00  0.00     0.127 S 
ATOM    102  O   UNL A   1      49.015  20.611  33.660  1.00  0.00    -0.237 OA
ATOM    103  O   UNL A   1      49.657  22.303  35.329  1.00  0.00    -0.237 OA
ATOM    104  O   UNL A   1      48.924  20.078  36.065  1.00  0.00    -0.744 OA
ENDBRANCH  98 101
ENDBRANCH  71  94
ENDBRANCH  45  46
ENDBRANCH  38  40
ENDBRANCH  37  38
ENDBRANCH  36  37
ENDBRANCH  35  36
ENDBRANCH  34  35
ENDBRANCH  33  34
ENDBRANCH  32  33
ENDBRANCH   1  32
TORSDOF 27
ENDMDL
MODEL 2
REMARK VINA RESULT:      -7.1      0.850      7.320
REMARK SMILES CC(C)c1nnsc1C[N@@H+]1C[C@@H](C(=O)OCCOCCOCCOCCOC(=O)c2ccc(-c3c4nc(c(-c5cccc(S(=O)(=O)[O-])c5F)c5ccc([nH]5)c(-c5cccc(S(=O)(=O)[O-])c5F)c5nc(c(-c6cccc(S(=O)(=O)[O-])c6F)c6ccc3[nH]6)C=C5)C=C4)cc2)[C@H](c2cccc(F)c2)C1
REMARK SMILES IDX 21 1 20 2 19 3 18 4 17 5 16 6 15 7 13 8 14 9 12 10 10 11
REMARK SMILES IDX 11 12 101 13 93 15 9 16 8 17 4 18 5 19 6 20 7 21 2 22 1 23
REMARK SMILES IDX 3 24 94 25 95 26 100 27 96 28 98 29 97 30 99 31 22 32 23 33
REMARK SMILES IDX 24 34 25 35 26 36 27 37 28 38 29 39 30 40 31 41 92 42 32 43
REMARK SMILES IDX 91 44 33 45 34 46 35 47 85 48 36 49 90 50 84 51 86 52 37 53
REMARK SMILES IDX 89 54 83 55 82 56 38 58 70 59 50 60 69 61 51 62 54 63 68 64
REMARK SMILES IDX 87 65 52 66 53 67 67 69 88 70 55 71 39 72 40 73 48 74 41 75
REMARK SMILES IDX 43 76 49 77 42 78 44 79 45 80 46 81 47 82 71 83 72 84 80 85
REMARK SMILES IDX 73 86 75 87 81 88 74 89 76 90 77 91 78 92 79 93 56 94 57 95
REMARK SMILES IDX 65 96 58 97 60 98 66 99 59 100 61 101 62 102 63 103 64 104
REMARK H PARENT 10 14 86 57 54 68
REMARK Flexibility Score: inf
ROOT
ATOM      1  O   UNL A   1      45.037  38.504  33.559  1.00  0.00    -0.377 OA
ENDROOT
BRANCH   1   2
ATOM      2  C   UNL A   1      44.273  37.844  34.557  1.00  0.00     0.188 C 
BRANCH   2   3
ATOM      3  C   UNL A   1      43.138  36.843  34.214  1.00  0.00     0.188 C 
BRANCH   3   4
ATOM      4  O   UNL A   1      43.581  35.638  33.611  1.00  0.00    -0.376 OA
BRANCH   4   5
ATOM      5  C   UNL A   1      42.729  34.864  32.791  1.00  0.00     0.202 C 
BRANCH   5   6
ATOM      6  C   UNL A   1      41.319  34.534  33.278  1.00  0.00     0.261 C 
BRANCH   6   7
ATOM      7  O   UNL A   1      41.183  33.277  33.936  1.00  0.00    -0.463 OA
BRANCH   7   8
ATOM      8  C   UNL A   1      40.056  32.997  34.640  1.00  0.00     0.315 C 
ATOM      9  O   UNL A   1      39.985  32.891  35.853  1.00  0.00    -0.252 OA
BRANCH   8  10
ATOM     10  C   UNL A   1      38.918  32.870  33.655  1.00  0.00     0.167 C 
ATOM     11  N   UNL A   1      36.667  33.410  33.181  1.00  0.00    -0.329 N 
ATOM     12  C   UNL A   1      37.852  33.929  33.855  1.00  0.00     0.278 C 
ATOM     13  C   UNL A   1      36.738  31.950  33.316  1.00  0.00     0.272 C 
ATOM     14  H   UNL A   1      35.821  33.761  33.630  1.00  0.00     0.348 HD
ATOM     15  C   UNL A   1      38.165  31.551  33.782  1.00  0.00     0.094 C 
BRANCH  11  16
ATOM     16  C   UNL A   1      36.418  33.929  31.818  1.00  0.00     0.313 C 
BRANCH  16  17
ATOM     17  C   UNL A   1      35.040  34.401  31.458  1.00  0.00     0.103 A 
ATOM     18  C   UNL A   1      34.223  34.234  30.335  1.00  0.00     0.087 A 
ATOM     19  N   UNL A   1      32.992  34.890  30.425  1.00  0.00    -0.142 NA
ATOM     20  N   UNL A   1      32.788  35.420  31.613  1.00  0.00    -0.090 NA
ATOM     21  S   UNL A   1      34.032  35.126  32.667  1.00  0.00    -0.011 S 
BRANCH  18  22
ATOM     22  C   UNL A   1      34.385  33.413  29.079  1.00  0.00     0.035 C 
ATOM     23  C   UNL A   1      35.200  34.092  27.985  1.00  0.00     0.014 C 
ATOM     24  C   UNL A   1      34.873  31.988  29.323  1.00  0.00     0.014 C 
ENDBRANCH  18  22
ENDBRANCH  16  17
ENDBRANCH  11  16
BRANCH  15  25
ATOM     25  C   UNL A   1      38.830  30.392  33.051  1.00  0.00    -0.035 A 
ATOM     26  C   UNL A   1      38.164  29.681  32.044  1.00  0.00     0.004 A 
ATOM     27  C   UNL A   1      40.117  29.943  33.399  1.00  0.00     0.043 A 
ATOM     28  C   UNL A   1      38.792  28.637  31.354  1.00  0.00     0.003 A 
ATOM     29  C   UNL A   1      40.730  28.893  32.724  1.00  0.00     0.123 A 
ATOM     30  C   UNL A   1      40.084  28.245  31.690  1.00  0.00     0.039 A 
ATOM     31  F   UNL A   1      41.953  28.501  33.102  1.00  0.00    -0.207 F 
ENDBRANCH  15  25
ENDBRANCH   8  10
ENDBRANCH   7   8
ENDBRANCH   6   7
ENDBRANCH   5   6
ENDBRANCH   4   5
ENDBRANCH   3   4
ENDBRANCH   2   3
ENDBRANCH   1   2
BRANCH   1  32
ATOM     32  C   UNL A   1      44.312  39.177  32.545  1.00  0.00     0.188 C 
BRANCH  32  33
ATOM     33  C   UNL A   1      45.215  39.523  31.347  1.00  0.00     0.188 C 
BRANCH  33  34
ATOM     34  O   UNL A   1      45.320  38.470  30.399  1.00  0.00    -0.376 OA
BRANCH  34  35
ATOM     35  C   UNL A   1      44.419  37.375  30.440  1.00  0.00     0.202 C 
BRANCH  35  36
ATOM     36  C   UNL A   1      43.153  37.255  29.569  1.00  0.00     0.261 C 
BRANCH  36  37
ATOM     37  O   UNL A   1      43.138  36.298  28.506  1.00  0.00    -0.460 OA
BRANCH  37  38
ATOM     38  C   UNL A   1      42.063  35.491  28.393  1.00  0.00     0.338 C 
ATOM     39  O   UNL A   1      41.027  35.724  27.813  1.00  0.00    -0.246 OA
BRANCH  38  40
ATOM     40  C   UNL A   1      42.477  34.174  28.931  1.00  0.00     0.060 A 
ATOM     41  C   UNL A   1      41.583  33.458  29.741  1.00  0.00     0.016 A 
ATOM     42  C   UNL A   1      43.720  33.630  28.595  1.00  0.00     0.016 A 
ATOM     43  C   UNL A   1      41.938  32.206  30.234  1.00  0.00     0.010 A 
ATOM     44  C   UNL A   1      44.091  32.394  29.123  1.00  0.00     0.010 A 
ATOM     45  C   UNL A   1      43.214  31.695  29.971  1.00  0.00    -0.014 A 
BRANCH  45  46
ATOM     46  C   UNL A   1      43.711  30.554  30.771  1.00  0.00     0.031 A 
ATOM     47  C   UNL A   1      43.531  29.174  30.201  1.00  0.00     0.074 A 
ATOM     48  C   UNL A   1      44.306  30.733  31.962  1.00  0.00     0.049 A 
ATOM     49  N   UNL A   1      43.834  28.016  30.723  1.00  0.00    -0.248 NA
ATOM     50  C   UNL A   1      42.924  29.088  28.859  1.00  0.00     0.031 C 
ATOM     51  C   UNL A   1      44.549  32.025  32.603  1.00  0.00     0.029 A 
ATOM     52  N   UNL A   1      44.790  29.814  32.859  1.00  0.00    -0.354 N 
ATOM     53  C   UNL A   1      43.421  27.067  29.797  1.00  0.00     0.074 A 
ATOM     54  C   UNL A   1      42.849  27.778  28.676  1.00  0.00     0.031 C 
ATOM     55  C   UNL A   1      45.099  31.813  33.812  1.00  0.00     0.029 A 
ATOM     56  C   UNL A   1      45.219  30.374  34.039  1.00  0.00     0.049 A 
ATOM     57  H   UNL A   1      44.827  28.847  32.675  1.00  0.00     0.167 HD
ATOM     58  C   UNL A   1      43.513  25.720  29.873  1.00  0.00     0.034 A 
ATOM     59  C   UNL A   1      45.625  29.783  35.181  1.00  0.00     0.034 A 
ATOM     60  C   UNL A   1      44.097  25.018  30.981  1.00  0.00     0.049 A 
ATOM     61  C   UNL A   1      45.691  28.277  35.244  1.00  0.00     0.074 A 
ATOM     62  C   UNL A   1      44.288  23.657  31.127  1.00  0.00     0.029 A 
ATOM     63  N   UNL A   1      44.563  25.619  32.139  1.00  0.00    -0.354 N 
ATOM     64  N   UNL A   1      45.415  27.395  34.314  1.00  0.00    -0.248 NA
ATOM     65  C   UNL A   1      46.158  27.683  36.508  1.00  0.00     0.031 C 
ATOM     66  C   UNL A   1      44.831  23.429  32.395  1.00  0.00     0.029 A 
ATOM     67  C   UNL A   1      45.025  24.653  33.015  1.00  0.00     0.049 A 
ATOM     68  H   UNL A   1      44.565  26.588  32.312  1.00  0.00     0.167 HD
ATOM     69  C   UNL A   1      45.715  26.152  34.863  1.00  0.00     0.074 A 
ATOM     70  C   UNL A   1      46.214  26.395  36.198  1.00  0.00     0.031 C 
ATOM     71  C   UNL A   1      45.578  24.919  34.317  1.00  0.00     0.034 A 
BRANCH  58  72
ATOM     72  C   UNL A   1      42.972  24.907  28.730  1.00  0.00     0.023 A 
ATOM     73  C   UNL A   1      41.587  24.672  28.624  1.00  0.00     0.012 A 
ATOM     74  C   UNL A   1      43.835  24.455  27.712  1.00  0.00     0.148 A 
ATOM     75  C   UNL A   1      41.070  23.987  27.525  1.00  0.00     0.002 A 
ATOM     76  C   UNL A   1      43.306  23.817  26.599  1.00  0.00     0.091 A 
ATOM     77  F   UNL A   1      45.152  24.669  27.850  1.00  0.00    -0.205 F 
ATOM     78  C   UNL A   1      41.926  23.574  26.508  1.00  0.00     0.022 A 
BRANCH  76  79
ATOM     79  S   UNL A   1      44.313  23.323  25.197  1.00  0.00     0.127 S 
ATOM     80  O   UNL A   1      45.480  22.742  25.861  1.00  0.00    -0.237 OA
ATOM     81  O   UNL A   1      43.447  22.353  24.528  1.00  0.00    -0.237 OA
ATOM     82  O   UNL A   1      44.575  24.537  24.437  1.00  0.00    -0.744 OA
ENDBRANCH  76  79
ENDBRANCH  58  72
BRANCH  59  83
ATOM     83  C   UNL A   1      45.999  30.603  36.370  1.00  0.00     0.023 A 
ATOM     84  C   UNL A   1      47.340  30.990  36.560  1.00  0.00     0.012 A 
ATOM     85  C   UNL A   1      45.039  30.966  37.333  1.00  0.00     0.148 A 
ATOM     86  C   UNL A   1      47.726  31.677  37.712  1.00  0.00     0.002 A 
ATOM     87  C   UNL A   1      45.419  31.700  38.450  1.00  0.00     0.091 A 
ATOM     88  F   UNL A   1      43.771  30.574  37.146  1.00  0.00    -0.205 F 
ATOM     89  C   UNL A   1      46.766  32.037  38.653  1.00  0.00     0.022 A 
BRANCH  87  90
ATOM     90  S   UNL A   1      44.234  32.304  39.655  1.00  0.00     0.127 S 
ATOM     91  O   UNL A   1      43.795  31.065  40.291  1.00  0.00    -0.237 OA
ATOM     92  O   UNL A   1      45.069  33.164  40.495  1.00  0.00    -0.237 OA
ATOM     93  O   UNL A   1      43.221  33.014  38.886  1.00  0.00    -0.744 OA
ENDBRANCH  87  90
ENDBRANCH  59  83
BRANCH  71  94
ATOM     94  C   UNL A   1      46.034  23.733  35.129  1.00  0.00     0.023 A 
ATOM     95  C   UNL A   1      45.166  23.139  36.067  1.00  0.00     0.012 A 
ATOM     96  C   UNL A   1      47.300  23.159  34.899  1.00  0.00     0.148 A 
ATOM     97  C   UNL A   1      45.567  22.017  36.789  1.00  0.00     0.002 A 
ATOM     98  C   UNL A   1      47.671  22.008  35.581  1.00  0.00     0.091 A 
ATOM     99  F   UNL A   1      48.116  23.747  34.011  1.00  0.00    -0.205 F 
ATOM    100  C   UNL A   1      46.812  21.444  36.538  1.00  0.00     0.022 A 
BRANCH  98 101
ATOM    101  S   UNL A   1      49.210  21.143  35.249  1.00  0.00     0.127 S 
ATOM    102  O   UNL A   1      49.038  20.757  33.850  1.00  0.00    -0.237 OA
ATOM    103  O   UNL A   1      50.207  22.191  35.474  1.00  0.00    -0.237 OA
ATOM    104  O   UNL A   1      49.266  20.040  36.197  1.00  0.00    -0.744 OA
ENDBRANCH  98 101
ENDBRANCH  71  94
ENDBRANCH  45  46
ENDBRANCH  38  40
ENDBRANCH  37  38
ENDBRANCH  36  37
ENDBRANCH  35  36
ENDBRANCH  34  35
ENDBRANCH  33  34
ENDBRANCH  32  33
ENDBRANCH   1  32
TORSDOF 27
ENDMDL
MODEL 3
REMARK VINA RESULT:      -7.1      3.701      9.576
REMARK SMILES CC(C)c1nnsc1C[N@@H+]1C[C@@H](C(=O)OCCOCCOCCOCCOC(=O)c2ccc(-c3c4nc(c(-c5cccc(S(=O)(=O)[O-])c5F)c5ccc([nH]5)c(-c5cccc(S(=O)(=O)[O-])c5F)c5nc(c(-c6cccc(S(=O)(=O)[O-])c6F)c6ccc3[nH]6)C=C5)C=C4)cc2)[C@H](c2cccc(F)c2)C1
REMARK SMILES IDX 21 1 20 2 19 3 18 4 17 5 16 6 15 7 13 8 14 9 12 10 10 11
REMARK SMILES IDX 11 12 101 13 93 15 9 16 8 17 4 18 5 19 6 20 7 21 2 22 1 23
REMARK SMILES IDX 3 24 94 25 95 26 100 27 96 28 98 29 97 30 99 31 22 32 23 33
REMARK SMILES IDX 24 34 25 35 26 36 27 37 28 38 29 39 30 40 31 41 92 42 32 43
REMARK SMILES IDX 91 44 33 45 34 46 35 47 85 48 36 49 90 50 84 51 86 52 37 53
REMARK SMILES IDX 89 54 83 55 82 56 38 58 70 59 50 60 69 61 51 62 54 63 68 64
REMARK SMILES IDX 87 65 52 66 53 67 67 69 88 70 55 71 39 72 40 73 48 74 41 75
REMARK SMILES IDX 43 76 49 77 42 78 44 79 45 80 46 81 47 82 71 83 72 84 80 85
REMARK SMILES IDX 73 86 75 87 81 88 74 89 76 90 77 91 78 92 79 93 56 94 57 95
REMARK SMILES IDX 65 96 58 97 60 98 66 99 59 100 61 101 62 102 63 103 64 104
REMARK H PARENT 10 14 86 57 54 68
REMARK Flexibility Score: inf
ROOT
ATOM      1  O   UNL A   1      41.835  27.576  27.017  1.00  0.00    -0.377 OA
ENDROOT
BRANCH   1   2
ATOM      2  C   UNL A   1      41.820  26.712  28.142  1.00  0.00     0.188 C 
BRANCH   2   3
ATOM      3  C   UNL A   1      40.519  26.046  28.665  1.00  0.00     0.188 C 
BRANCH   3   4
ATOM      4  O   UNL A   1      39.524  26.960  29.095  1.00  0.00    -0.376 OA
BRANCH   4   5
ATOM      5  C   UNL A   1      38.771  27.723  28.174  1.00  0.00     0.202 C 
BRANCH   5   6
ATOM      6  C   UNL A   1      38.861  29.247  28.215  1.00  0.00     0.261 C 
BRANCH   6   7
ATOM      7  O   UNL A   1      37.856  29.894  28.992  1.00  0.00    -0.463 OA
BRANCH   7   8
ATOM      8  C   UNL A   1      38.166  30.412  30.208  1.00  0.00     0.315 C 
ATOM      9  O   UNL A   1      39.004  29.970  30.976  1.00  0.00    -0.252 OA
BRANCH   8  10
ATOM     10  C   UNL A   1      37.311  31.640  30.416  1.00  0.00     0.167 C 
ATOM     11  N   UNL A   1      35.588  33.000  29.540  1.00  0.00    -0.329 N 
ATOM     12  C   UNL A   1      36.041  31.614  29.588  1.00  0.00     0.278 C 
ATOM     13  C   UNL A   1      36.806  33.819  29.572  1.00  0.00     0.272 C 
ATOM     14  H   UNL A   1      35.072  33.175  28.677  1.00  0.00     0.348 HD
ATOM     15  C   UNL A   1      38.006  32.929  29.993  1.00  0.00     0.094 C 
BRANCH  11  16
ATOM     16  C   UNL A   1      34.526  33.368  30.502  1.00  0.00     0.313 C 
BRANCH  16  17
ATOM     17  C   UNL A   1      33.742  34.627  30.277  1.00  0.00     0.103 A 
ATOM     18  C   UNL A   1      33.442  35.736  31.074  1.00  0.00     0.087 A 
ATOM     19  N   UNL A   1      32.636  36.688  30.443  1.00  0.00    -0.142 NA
ATOM     20  N   UNL A   1      32.436  36.418  29.171  1.00  0.00    -0.090 NA
ATOM     21  S   UNL A   1      33.225  35.047  28.676  1.00  0.00    -0.011 S 
BRANCH  18  22
ATOM     22  C   UNL A   1      33.890  36.138  32.458  1.00  0.00     0.035 C 
ATOM     23  C   UNL A   1      35.173  35.460  32.925  1.00  0.00     0.014 C 
ATOM     24  C   UNL A   1      33.953  37.646  32.681  1.00  0.00     0.014 C 
ENDBRANCH  18  22
ENDBRANCH  16  17
ENDBRANCH  11  16
BRANCH  15  25
ATOM     25  C   UNL A   1      38.945  33.493  31.051  1.00  0.00    -0.035 A 
ATOM     26  C   UNL A   1      40.336  33.485  30.877  1.00  0.00     0.004 A 
ATOM     27  C   UNL A   1      38.463  33.989  32.277  1.00  0.00     0.043 A 
ATOM     28  C   UNL A   1      41.194  34.033  31.839  1.00  0.00     0.003 A 
ATOM     29  C   UNL A   1      39.319  34.515  33.238  1.00  0.00     0.123 A 
ATOM     30  C   UNL A   1      40.683  34.558  33.022  1.00  0.00     0.039 A 
ATOM     31  F   UNL A   1      38.808  34.965  34.390  1.00  0.00    -0.207 F 
ENDBRANCH  15  25
ENDBRANCH   8  10
ENDBRANCH   7   8
ENDBRANCH   6   7
ENDBRANCH   5   6
ENDBRANCH   4   5
ENDBRANCH   3   4
ENDBRANCH   2   3
ENDBRANCH   1   2
BRANCH   1  32
ATOM     32  C   UNL A   1      42.732  27.245  25.972  1.00  0.00     0.188 C 
BRANCH  32  33
ATOM     33  C   UNL A   1      43.390  25.873  26.212  1.00  0.00     0.188 C 
BRANCH  33  34
ATOM     34  O   UNL A   1      43.862  25.259  25.021  1.00  0.00    -0.376 OA
BRANCH  34  35
ATOM     35  C   UNL A   1      44.984  24.392  25.057  1.00  0.00     0.202 C 
BRANCH  35  36
ATOM     36  C   UNL A   1      46.449  24.855  24.925  1.00  0.00     0.261 C 
BRANCH  36  37
ATOM     37  O   UNL A   1      46.861  26.033  25.621  1.00  0.00    -0.460 OA
BRANCH  37  38
ATOM     38  C   UNL A   1      47.886  25.930  26.494  1.00  0.00     0.338 C 
ATOM     39  O   UNL A   1      48.978  25.452  26.291  1.00  0.00    -0.246 OA
BRANCH  38  40
ATOM     40  C   UNL A   1      47.491  26.712  27.689  1.00  0.00     0.060 A 
ATOM     41  C   UNL A   1      46.128  26.891  27.966  1.00  0.00     0.016 A 
ATOM     42  C   UNL A   1      48.463  27.220  28.555  1.00  0.00     0.016 A 
ATOM     43  C   UNL A   1      45.733  27.597  29.099  1.00  0.00     0.010 A 
ATOM     44  C   UNL A   1      48.067  27.963  29.668  1.00  0.00     0.010 A 
ATOM     45  C   UNL A   1      46.702  28.182  29.922  1.00  0.00    -0.014 A 
BRANCH  45  46
ATOM     46  C   UNL A   1      46.287  29.209  30.903  1.00  0.00     0.031 A 
ATOM     47  C   UNL A   1      45.924  28.744  32.286  1.00  0.00     0.074 A 
ATOM     48  C   UNL A   1      46.238  30.512  30.581  1.00  0.00     0.049 A 
ATOM     49  N   UNL A   1      45.487  29.435  33.304  1.00  0.00    -0.248 NA
ATOM     50  C   UNL A   1      46.073  27.301  32.558  1.00  0.00     0.031 C 
ATOM     51  C   UNL A   1      46.583  31.078  29.277  1.00  0.00     0.029 A 
ATOM     52  N   UNL A   1      45.846  31.596  31.326  1.00  0.00    -0.354 N 
ATOM     53  C   UNL A   1      45.271  28.512  34.320  1.00  0.00     0.074 A 
ATOM     54  C   UNL A   1      45.628  27.210  33.802  1.00  0.00     0.031 C 
ATOM     55  C   UNL A   1      46.347  32.401  29.302  1.00  0.00     0.029 A 
ATOM     56  C   UNL A   1      45.808  32.769  30.610  1.00  0.00     0.049 A 
ATOM     57  H   UNL A   1      45.615  31.538  32.282  1.00  0.00     0.167 HD
ATOM     58  C   UNL A   1      44.817  28.731  35.574  1.00  0.00     0.034 A 
ATOM     59  C   UNL A   1      45.353  33.987  30.966  1.00  0.00     0.034 A 
ATOM     60  C   UNL A   1      44.480  30.028  36.089  1.00  0.00     0.049 A 
ATOM     61  C   UNL A   1      44.827  34.193  32.366  1.00  0.00     0.074 A 
ATOM     62  C   UNL A   1      44.065  30.361  37.365  1.00  0.00     0.029 A 
ATOM     63  N   UNL A   1      44.498  31.199  35.351  1.00  0.00    -0.354 N 
ATOM     64  N   UNL A   1      44.746  33.337  33.355  1.00  0.00    -0.248 NA
ATOM     65  C   UNL A   1      44.360  35.546  32.709  1.00  0.00     0.031 C 
ATOM     66  C   UNL A   1      43.789  31.731  37.388  1.00  0.00     0.029 A 
ATOM     67  C   UNL A   1      44.082  32.257  36.139  1.00  0.00     0.049 A 
ATOM     68  H   UNL A   1      44.766  31.269  34.406  1.00  0.00     0.167 HD
ATOM     69  C   UNL A   1      44.263  34.055  34.445  1.00  0.00     0.074 A 
ATOM     70  C   UNL A   1      44.089  35.421  34.000  1.00  0.00     0.031 C 
ATOM     71  C   UNL A   1      43.975  33.623  35.697  1.00  0.00     0.034 A 
BRANCH  58  72
ATOM     72  C   UNL A   1      44.657  27.547  36.486  1.00  0.00     0.023 A 
ATOM     73  C   UNL A   1      43.434  26.848  36.527  1.00  0.00     0.012 A 
ATOM     74  C   UNL A   1      45.753  27.075  37.235  1.00  0.00     0.148 A 
ATOM     75  C   UNL A   1      43.302  25.702  37.311  1.00  0.00     0.002 A 
ATOM     76  C   UNL A   1      45.627  25.907  37.973  1.00  0.00     0.091 A 
ATOM     77  F   UNL A   1      46.898  27.773  37.199  1.00  0.00    -0.205 F 
ATOM     78  C   UNL A   1      44.400  25.224  38.020  1.00  0.00     0.022 A 
BRANCH  76  79
ATOM     79  S   UNL A   1      47.005  25.163  38.851  1.00  0.00     0.127 S 
ATOM     80  O   UNL A   1      48.110  25.400  37.923  1.00  0.00    -0.237 OA
ATOM     81  O   UNL A   1      47.054  25.964  40.074  1.00  0.00    -0.237 OA
ATOM     82  O   UNL A   1      46.654  23.763  39.049  1.00  0.00    -0.744 OA
ENDBRANCH  76  79
ENDBRANCH  58  72
BRANCH  59  83
ATOM     83  C   UNL A   1      45.362  35.117  29.992  1.00  0.00     0.023 A 
ATOM     84  C   UNL A   1      46.494  35.949  29.895  1.00  0.00     0.012 A 
ATOM     85  C   UNL A   1      44.238  35.393  29.191  1.00  0.00     0.148 A 
ATOM     86  C   UNL A   1      46.487  37.066  29.058  1.00  0.00     0.002 A 
ATOM     87  C   UNL A   1      44.259  36.473  28.316  1.00  0.00     0.091 A 
ATOM     88  F   UNL A   1      43.163  34.602  29.308  1.00  0.00    -0.205 F 
ATOM     89  C   UNL A   1      45.373  37.324  28.264  1.00  0.00     0.022 A 
BRANCH  87  90
ATOM     90  S   UNL A   1      42.914  36.814  27.176  1.00  0.00     0.127 S 
ATOM     91  O   UNL A   1      41.761  36.840  28.071  1.00  0.00    -0.237 OA
ATOM     92  O   UNL A   1      43.302  38.118  26.634  1.00  0.00    -0.237 OA
ATOM     93  O   UNL A   1      42.940  35.728  26.206  1.00  0.00    -0.744 OA
ENDBRANCH  87  90
ENDBRANCH  59  83
BRANCH  71  94
ATOM     94  C   UNL A   1      43.506  34.641  36.706  1.00  0.00     0.023 A 
ATOM     95  C   UNL A   1      44.441  35.404  37.432  1.00  0.00     0.012 A 
ATOM     96  C   UNL A   1      42.129  34.893  36.871  1.00  0.00     0.148 A 
ATOM     97  C   UNL A   1      44.012  36.376  38.334  1.00  0.00     0.002 A 
ATOM     98  C   UNL A   1      41.710  35.901  37.730  1.00  0.00     0.091 A 
ATOM     99  F   UNL A   1      41.255  34.146  36.180  1.00  0.00    -0.205 F 
ATOM    100  C   UNL A   1      42.650  36.633  38.474  1.00  0.00     0.022 A 
BRANCH  98 101
ATOM    101  S   UNL A   1      39.985  36.371  37.896  1.00  0.00     0.127 S 
ATOM    102  O   UNL A   1      40.075  37.519  38.797  1.00  0.00    -0.237 OA
ATOM    103  O   UNL A   1      39.622  36.704  36.518  1.00  0.00    -0.237 OA
ATOM    104  O   UNL A   1      39.299  35.207  38.437  1.00  0.00    -0.744 OA
ENDBRANCH  98 101
ENDBRANCH  71  94
ENDBRANCH  45  46
ENDBRANCH  38  40
ENDBRANCH  37  38
ENDBRANCH  36  37
ENDBRANCH  35  36
ENDBRANCH  34  35
ENDBRANCH  33  34
ENDBRANCH  32  33
ENDBRANCH   1  32
TORSDOF 27
ENDMDL
