MODEL 1
REMARK VINA RESULT:      -9.0      0.000      0.000
REMARK SMILES Cc1cccc(CN(C)c2ccc(C(=O)OCCOCCOCCOCCOC(=O)c3ccc(-c4c5nc(c(-c6cccc(S(=O)(=O)[O-])c6F)c6ccc([nH]6)c(-c6cccc(S(=O)(=O)[O-])c6F)c6nc(c(-c7cccc(S(=O)(=O)[O-])c7F)c7ccc4[nH]7)C=C6)C=C5)cc3)cc2C)n1
REMARK SMILES IDX 22 1 21 2 20 3 19 4 18 5 17 6 16 7 14 8 15 9 13 10 10 11
REMARK SMILES IDX 11 12 95 13 12 14 94 15 96 16 8 17 9 18 7 19 6 20 1 21 2 22
REMARK SMILES IDX 3 23 97 24 4 25 5 26 23 27 24 28 25 29 26 30 27 31 28 32
REMARK SMILES IDX 29 33 30 34 31 35 32 36 93 37 33 38 92 39 34 40 35 41 36 42
REMARK SMILES IDX 86 43 37 44 91 45 85 46 87 47 38 48 90 49 84 50 83 51 39 53
REMARK SMILES IDX 71 54 51 55 70 56 52 57 55 58 69 59 88 60 53 61 54 62 68 64
REMARK SMILES IDX 89 65 56 66 40 67 41 68 49 69 42 70 44 71 50 72 43 73 45 74
REMARK SMILES IDX 46 75 47 76 48 77 72 78 73 79 81 80 74 81 76 82 82 83 75 84
REMARK SMILES IDX 77 85 78 86 79 87 80 88 57 89 58 90 66 91 59 92 61 93 67 94
REMARK SMILES IDX 60 95 62 96 63 97 64 98 65 99
REMARK H PARENT 87 52 55 63
REMARK Flexibility Score: inf
ROOT
ATOM      1  O   UNL A   1      34.806  32.159  27.840  1.00  0.00    -0.377 OA
ENDROOT
BRANCH   1   2
ATOM      2  C   UNL A   1      33.564  31.547  27.547  1.00  0.00     0.188 C 
BRANCH   2   3
ATOM      3  C   UNL A   1      33.670  30.215  26.794  1.00  0.00     0.188 C 
BRANCH   3   4
ATOM      4  O   UNL A   1      32.509  29.752  26.105  1.00  0.00    -0.376 OA
BRANCH   4   5
ATOM      5  C   UNL A   1      32.282  28.346  26.110  1.00  0.00     0.202 C 
BRANCH   5   6
ATOM      6  C   UNL A   1      31.284  27.871  25.098  1.00  0.00     0.261 C 
BRANCH   6   7
ATOM      7  O   UNL A   1      31.988  27.689  23.882  1.00  0.00    -0.460 OA
BRANCH   7   8
ATOM      8  C   UNL A   1      31.234  27.190  22.905  1.00  0.00     0.338 C 
ATOM      9  O   UNL A   1      30.809  27.739  21.896  1.00  0.00    -0.246 OA
BRANCH   8  10
ATOM     10  C   UNL A   1      31.351  25.748  23.045  1.00  0.00     0.060 A 
ATOM     11  C   UNL A   1      31.889  23.027  23.359  1.00  0.00     0.040 A 
ATOM     12  C   UNL A   1      30.649  23.587  23.739  1.00  0.00     0.027 A 
ATOM     13  C   UNL A   1      32.920  23.907  22.980  1.00  0.00    -0.027 A 
ATOM     14  C   UNL A   1      30.358  24.929  23.561  1.00  0.00     0.018 A 
ATOM     15  C   UNL A   1      32.631  25.260  22.826  1.00  0.00     0.021 A 
ATOM     16  C   UNL A   1      34.349  23.537  22.728  1.00  0.00     0.046 C 
BRANCH  11  17
ATOM     17  N   UNL A   1      32.002  21.651  23.272  1.00  0.00    -0.368 N 
ATOM     18  C   UNL A   1      31.972  20.964  22.000  1.00  0.00     0.144 C 
BRANCH  17  19
ATOM     19  C   UNL A   1      32.233  20.892  24.515  1.00  0.00     0.172 C 
BRANCH  19  20
ATOM     20  C   UNL A   1      33.497  21.286  25.271  1.00  0.00     0.060 A 
ATOM     21  C   UNL A   1      37.101  20.693  24.867  1.00  0.00     0.067 C 
ATOM     22  C   UNL A   1      35.818  21.214  25.435  1.00  0.00     0.038 A 
ATOM     23  C   UNL A   1      35.821  22.175  26.440  1.00  0.00     0.023 A 
ATOM     24  N   UNL A   1      34.678  20.748  24.868  1.00  0.00    -0.256 NA
ATOM     25  C   UNL A   1      34.606  22.683  26.883  1.00  0.00     0.004 A 
ATOM     26  C   UNL A   1      33.427  22.237  26.293  1.00  0.00     0.026 A 
ENDBRANCH  19  20
ENDBRANCH  17  19
ENDBRANCH  11  17
ENDBRANCH   8  10
ENDBRANCH   7   8
ENDBRANCH   6   7
ENDBRANCH   5   6
ENDBRANCH   4   5
ENDBRANCH   3   4
ENDBRANCH   2   3
ENDBRANCH   1   2
BRANCH   1  27
ATOM     27  C   UNL A   1      34.770  33.528  28.191  1.00  0.00     0.188 C 
BRANCH  27  28
ATOM     28  C   UNL A   1      34.388  33.793  29.664  1.00  0.00     0.188 C 
BRANCH  28  29
ATOM     29  O   UNL A   1      34.929  32.936  30.637  1.00  0.00    -0.376 OA
BRANCH  29  30
ATOM     30  C   UNL A   1      35.431  33.633  31.753  1.00  0.00     0.202 C 
BRANCH  30  31
ATOM     31  C   UNL A   1      35.573  32.977  33.166  1.00  0.00     0.261 C 
BRANCH  31  32
ATOM     32  O   UNL A   1      36.754  32.944  34.129  1.00  0.00    -0.460 OA
BRANCH  32  33
ATOM     33  C   UNL A   1      37.663  32.729  35.107  1.00  0.00     0.338 C 
ATOM     34  O   UNL A   1      37.587  33.457  36.102  1.00  0.00    -0.246 OA
BRANCH  33  35
ATOM     35  C   UNL A   1      38.862  31.812  35.043  1.00  0.00     0.060 A 
ATOM     36  C   UNL A   1      40.130  32.269  35.393  1.00  0.00     0.016 A 
ATOM     37  C   UNL A   1      38.826  30.469  34.724  1.00  0.00     0.016 A 
ATOM     38  C   UNL A   1      41.293  31.642  34.895  1.00  0.00     0.010 A 
ATOM     39  C   UNL A   1      39.947  29.883  34.122  1.00  0.00     0.010 A 
ATOM     40  C   UNL A   1      41.165  30.564  34.041  1.00  0.00    -0.014 A 
BRANCH  40  41
ATOM     41  C   UNL A   1      42.131  30.219  32.958  1.00  0.00     0.031 A 
ATOM     42  C   UNL A   1      42.001  30.861  31.584  1.00  0.00     0.074 A 
ATOM     43  C   UNL A   1      43.345  29.696  33.328  1.00  0.00     0.049 A 
ATOM     44  N   UNL A   1      42.835  30.734  30.599  1.00  0.00    -0.248 NA
ATOM     45  C   UNL A   1      40.910  31.764  31.224  1.00  0.00     0.031 C 
ATOM     46  C   UNL A   1      44.579  29.918  32.577  1.00  0.00     0.029 A 
ATOM     47  N   UNL A   1      43.840  29.001  34.445  1.00  0.00    -0.354 N 
ATOM     48  C   UNL A   1      42.638  31.778  29.700  1.00  0.00     0.074 A 
ATOM     49  C   UNL A   1      41.349  32.300  30.076  1.00  0.00     0.031 C 
ATOM     50  C   UNL A   1      45.648  29.490  33.252  1.00  0.00     0.029 A 
ATOM     51  C   UNL A   1      45.141  28.519  34.168  1.00  0.00     0.049 A 
ATOM     52  H   UNL A   1      43.355  28.871  35.292  1.00  0.00     0.167 HD
ATOM     53  C   UNL A   1      43.653  32.174  28.856  1.00  0.00     0.034 A 
ATOM     54  C   UNL A   1      45.531  27.213  34.000  1.00  0.00     0.034 A 
ATOM     55  C   UNL A   1      44.844  31.264  28.936  1.00  0.00     0.049 A 
ATOM     56  C   UNL A   1      45.853  26.832  32.531  1.00  0.00     0.074 A 
ATOM     57  C   UNL A   1      46.217  31.436  29.069  1.00  0.00     0.029 A 
ATOM     58  N   UNL A   1      44.662  29.883  28.997  1.00  0.00    -0.354 N 
ATOM     59  N   UNL A   1      46.053  27.684  31.550  1.00  0.00    -0.248 NA
ATOM     60  C   UNL A   1      45.954  25.462  32.041  1.00  0.00     0.031 C 
ATOM     61  C   UNL A   1      46.829  30.171  29.321  1.00  0.00     0.029 A 
ATOM     62  C   UNL A   1      45.849  29.201  29.227  1.00  0.00     0.049 A 
ATOM     63  H   UNL A   1      43.789  29.441  28.889  1.00  0.00     0.167 HD
ATOM     64  C   UNL A   1      46.025  27.052  30.329  1.00  0.00     0.074 A 
ATOM     65  C   UNL A   1      46.093  25.649  30.714  1.00  0.00     0.031 C 
ATOM     66  C   UNL A   1      45.866  27.738  29.139  1.00  0.00     0.034 A 
BRANCH  53  67
ATOM     67  C   UNL A   1      43.720  33.503  28.035  1.00  0.00     0.023 A 
ATOM     68  C   UNL A   1      44.087  33.401  26.667  1.00  0.00     0.012 A 
ATOM     69  C   UNL A   1      43.513  34.840  28.481  1.00  0.00     0.148 A 
ATOM     70  C   UNL A   1      44.275  34.508  25.820  1.00  0.00     0.002 A 
ATOM     71  C   UNL A   1      43.628  35.948  27.614  1.00  0.00     0.091 A 
ATOM     72  F   UNL A   1      43.250  35.083  29.766  1.00  0.00    -0.205 F 
ATOM     73  C   UNL A   1      44.033  35.784  26.289  1.00  0.00     0.022 A 
BRANCH  71  74
ATOM     74  S   UNL A   1      43.253  37.650  28.105  1.00  0.00     0.127 S 
ATOM     75  O   UNL A   1      44.148  37.855  29.245  1.00  0.00    -0.237 OA
ATOM     76  O   UNL A   1      43.621  38.409  26.908  1.00  0.00    -0.237 OA
ATOM     77  O   UNL A   1      41.833  37.680  28.433  1.00  0.00    -0.744 OA
ENDBRANCH  71  74
ENDBRANCH  53  67
BRANCH  54  78
ATOM     78  C   UNL A   1      45.100  26.334  35.117  1.00  0.00     0.023 A 
ATOM     79  C   UNL A   1      45.904  26.425  36.284  1.00  0.00     0.012 A 
ATOM     80  C   UNL A   1      43.737  26.063  35.241  1.00  0.00     0.148 A 
ATOM     81  C   UNL A   1      45.311  26.520  37.543  1.00  0.00     0.002 A 
ATOM     82  C   UNL A   1      43.148  26.241  36.484  1.00  0.00     0.091 A 
ATOM     83  F   UNL A   1      43.027  25.835  34.129  1.00  0.00    -0.205 F 
ATOM     84  C   UNL A   1      43.926  26.500  37.629  1.00  0.00     0.022 A 
BRANCH  82  85
ATOM     85  S   UNL A   1      41.406  26.646  36.602  1.00  0.00     0.127 S 
ATOM     86  O   UNL A   1      40.824  25.936  35.472  1.00  0.00    -0.237 OA
ATOM     87  O   UNL A   1      41.098  26.078  37.909  1.00  0.00    -0.237 OA
ATOM     88  O   UNL A   1      41.350  28.100  36.545  1.00  0.00    -0.744 OA
ENDBRANCH  82  85
ENDBRANCH  54  78
BRANCH  66  89
ATOM     89  C   UNL A   1      45.633  27.153  27.728  1.00  0.00     0.023 A 
ATOM     90  C   UNL A   1      46.625  27.131  26.738  1.00  0.00     0.012 A 
ATOM     91  C   UNL A   1      44.389  26.544  27.356  1.00  0.00     0.148 A 
ATOM     92  C   UNL A   1      46.435  26.517  25.491  1.00  0.00     0.002 A 
ATOM     93  C   UNL A   1      44.226  25.869  26.147  1.00  0.00     0.091 A 
ATOM     94  F   UNL A   1      43.314  26.656  28.143  1.00  0.00    -0.205 F 
ATOM     95  C   UNL A   1      45.249  25.859  25.207  1.00  0.00     0.022 A 
BRANCH  93  96
ATOM     96  S   UNL A   1      42.739  24.932  25.753  1.00  0.00     0.127 S 
ATOM     97  O   UNL A   1      43.232  24.019  24.722  1.00  0.00    -0.237 OA
ATOM     98  O   UNL A   1      42.436  24.295  27.036  1.00  0.00    -0.237 OA
ATOM     99  O   UNL A   1      41.749  25.905  25.315  1.00  0.00    -0.744 OA
ENDBRANCH  93  96
ENDBRANCH  66  89
ENDBRANCH  40  41
ENDBRANCH  33  35
ENDBRANCH  32  33
ENDBRANCH  31  32
ENDBRANCH  30  31
ENDBRANCH  29  30
ENDBRANCH  28  29
ENDBRANCH  27  28
ENDBRANCH   1  27
TORSDOF 26
ENDMDL
MODEL 2
REMARK VINA RESULT:      -8.5      1.990      2.549
REMARK SMILES Cc1cccc(CN(C)c2ccc(C(=O)OCCOCCOCCOCCOC(=O)c3ccc(-c4c5nc(c(-c6cccc(S(=O)(=O)[O-])c6F)c6ccc([nH]6)c(-c6cccc(S(=O)(=O)[O-])c6F)c6nc(c(-c7cccc(S(=O)(=O)[O-])c7F)c7ccc4[nH]7)C=C6)C=C5)cc3)cc2C)n1
REMARK SMILES IDX 22 1 21 2 20 3 19 4 18 5 17 6 16 7 14 8 15 9 13 10 10 11
REMARK SMILES IDX 11 12 95 13 12 14 94 15 96 16 8 17 9 18 7 19 6 20 1 21 2 22
REMARK SMILES IDX 3 23 97 24 4 25 5 26 23 27 24 28 25 29 26 30 27 31 28 32
REMARK SMILES IDX 29 33 30 34 31 35 32 36 93 37 33 38 92 39 34 40 35 41 36 42
REMARK SMILES IDX 86 43 37 44 91 45 85 46 87 47 38 48 90 49 84 50 83 51 39 53
REMARK SMILES IDX 71 54 51 55 70 56 52 57 55 58 69 59 88 60 53 61 54 62 68 64
REMARK SMILES IDX 89 65 56 66 40 67 41 68 49 69 42 70 44 71 50 72 43 73 45 74
REMARK SMILES IDX 46 75 47 76 48 77 72 78 73 79 81 80 74 81 76 82 82 83 75 84
REMARK SMILES IDX 77 85 78 86 79 87 80 88 57 89 58 90 66 91 59 92 61 93 67 94
REMARK SMILES IDX 60 95 62 96 63 97 64 98 65 99
REMARK H PARENT 87 52 55 63
REMARK Flexibility Score: inf
ROOT
ATOM      1  O   UNL A   1      35.890  31.948  28.046  1.00  0.00    -0.377 OA
ENDROOT
BRANCH   1   2
ATOM      2  C   UNL A   1      34.684  31.323  27.648  1.00  0.00     0.188 C 
BRANCH   2   3
ATOM      3  C   UNL A   1      34.836  29.861  27.211  1.00  0.00     0.188 C 
BRANCH   3   4
ATOM      4  O   UNL A   1      33.860  29.336  26.312  1.00  0.00    -0.376 OA
BRANCH   4   5
ATOM      5  C   UNL A   1      32.668  30.099  26.147  1.00  0.00     0.202 C 
BRANCH   5   6
ATOM      6  C   UNL A   1      31.547  29.368  25.472  1.00  0.00     0.261 C 
BRANCH   6   7
ATOM      7  O   UNL A   1      31.985  28.035  25.281  1.00  0.00    -0.460 OA
BRANCH   7   8
ATOM      8  C   UNL A   1      31.673  27.225  26.290  1.00  0.00     0.338 C 
ATOM      9  O   UNL A   1      30.953  27.435  27.258  1.00  0.00    -0.246 OA
BRANCH   8  10
ATOM     10  C   UNL A   1      32.013  25.893  25.817  1.00  0.00     0.060 A 
ATOM     11  C   UNL A   1      32.368  23.251  24.991  1.00  0.00     0.040 A 
ATOM     12  C   UNL A   1      33.050  24.321  24.370  1.00  0.00     0.027 A 
ATOM     13  C   UNL A   1      31.364  23.565  25.925  1.00  0.00    -0.027 A 
ATOM     14  C   UNL A   1      32.907  25.633  24.789  1.00  0.00     0.018 A 
ATOM     15  C   UNL A   1      31.205  24.888  26.326  1.00  0.00     0.021 A 
ATOM     16  C   UNL A   1      30.404  22.599  26.548  1.00  0.00     0.046 C 
BRANCH  11  17
ATOM     17  N   UNL A   1      32.786  21.956  24.738  1.00  0.00    -0.368 N 
ATOM     18  C   UNL A   1      32.537  21.311  23.469  1.00  0.00     0.144 C 
BRANCH  17  19
ATOM     19  C   UNL A   1      33.567  21.263  25.778  1.00  0.00     0.172 C 
BRANCH  19  20
ATOM     20  C   UNL A   1      33.948  19.827  25.433  1.00  0.00     0.060 A 
ATOM     21  C   UNL A   1      32.144  16.653  25.005  1.00  0.00     0.067 C 
ATOM     22  C   UNL A   1      33.276  17.633  25.042  1.00  0.00     0.038 A 
ATOM     23  C   UNL A   1      34.535  17.286  24.563  1.00  0.00     0.023 A 
ATOM     24  N   UNL A   1      32.980  18.874  25.498  1.00  0.00    -0.256 NA
ATOM     25  C   UNL A   1      35.534  18.252  24.548  1.00  0.00     0.004 A 
ATOM     26  C   UNL A   1      35.240  19.540  24.985  1.00  0.00     0.026 A 
ENDBRANCH  19  20
ENDBRANCH  17  19
ENDBRANCH  11  17
ENDBRANCH   8  10
ENDBRANCH   7   8
ENDBRANCH   6   7
ENDBRANCH   5   6
ENDBRANCH   4   5
ENDBRANCH   3   4
ENDBRANCH   2   3
ENDBRANCH   1   2
BRANCH   1  27
ATOM     27  C   UNL A   1      35.862  33.356  28.167  1.00  0.00     0.188 C 
BRANCH  27  28
ATOM     28  C   UNL A   1      34.979  33.874  29.322  1.00  0.00     0.188 C 
BRANCH  28  29
ATOM     29  O   UNL A   1      34.790  33.024  30.425  1.00  0.00    -0.376 OA
BRANCH  29  30
ATOM     30  C   UNL A   1      34.959  33.687  31.655  1.00  0.00     0.202 C 
BRANCH  30  31
ATOM     31  C   UNL A   1      35.227  32.927  32.997  1.00  0.00     0.261 C 
BRANCH  31  32
ATOM     32  O   UNL A   1      36.419  32.980  33.944  1.00  0.00    -0.460 OA
BRANCH  32  33
ATOM     33  C   UNL A   1      37.403  32.783  34.850  1.00  0.00     0.338 C 
ATOM     34  O   UNL A   1      37.514  33.633  35.740  1.00  0.00    -0.246 OA
BRANCH  33  35
ATOM     35  C   UNL A   1      38.487  31.732  34.797  1.00  0.00     0.060 A 
ATOM     36  C   UNL A   1      39.776  32.011  35.243  1.00  0.00     0.016 A 
ATOM     37  C   UNL A   1      38.312  30.422  34.395  1.00  0.00     0.016 A 
ATOM     38  C   UNL A   1      40.885  31.275  34.771  1.00  0.00     0.010 A 
ATOM     39  C   UNL A   1      39.391  29.737  33.820  1.00  0.00     0.010 A 
ATOM     40  C   UNL A   1      40.684  30.269  33.848  1.00  0.00    -0.014 A 
BRANCH  40  41
ATOM     41  C   UNL A   1      41.667  29.867  32.801  1.00  0.00     0.031 A 
ATOM     42  C   UNL A   1      41.634  30.525  31.428  1.00  0.00     0.074 A 
ATOM     43  C   UNL A   1      42.829  29.264  33.213  1.00  0.00     0.049 A 
ATOM     44  N   UNL A   1      42.496  30.350  30.475  1.00  0.00    -0.248 NA
ATOM     45  C   UNL A   1      40.619  31.500  31.034  1.00  0.00     0.031 C 
ATOM     46  C   UNL A   1      44.104  29.408  32.513  1.00  0.00     0.029 A 
ATOM     47  N   UNL A   1      43.232  28.531  34.343  1.00  0.00    -0.354 N 
ATOM     48  C   UNL A   1      42.403  31.409  29.578  1.00  0.00     0.074 A 
ATOM     49  C   UNL A   1      41.137  32.013  29.909  1.00  0.00     0.031 C 
ATOM     50  C   UNL A   1      45.114  28.907  33.225  1.00  0.00     0.029 A 
ATOM     51  C   UNL A   1      44.509  27.966  34.112  1.00  0.00     0.049 A 
ATOM     52  H   UNL A   1      42.707  28.427  35.169  1.00  0.00     0.167 HD
ATOM     53  C   UNL A   1      43.474  31.743  28.778  1.00  0.00     0.034 A 
ATOM     54  C   UNL A   1      44.819  26.638  33.949  1.00  0.00     0.034 A 
ATOM     55  C   UNL A   1      44.600  30.756  28.897  1.00  0.00     0.049 A 
ATOM     56  C   UNL A   1      45.173  26.246  32.490  1.00  0.00     0.074 A 
ATOM     57  C   UNL A   1      45.974  30.837  29.085  1.00  0.00     0.029 A 
ATOM     58  N   UNL A   1      44.325  29.390  28.938  1.00  0.00    -0.354 N 
ATOM     59  N   UNL A   1      45.467  27.088  31.525  1.00  0.00    -0.248 NA
ATOM     60  C   UNL A   1      45.204  24.875  31.992  1.00  0.00     0.031 C 
ATOM     61  C   UNL A   1      46.491  29.533  29.350  1.00  0.00     0.029 A 
ATOM     62  C   UNL A   1      45.455  28.630  29.208  1.00  0.00     0.049 A 
ATOM     63  H   UNL A   1      43.430  29.007  28.793  1.00  0.00     0.167 HD
ATOM     64  C   UNL A   1      45.446  26.468  30.298  1.00  0.00     0.074 A 
ATOM     65  C   UNL A   1      45.407  25.061  30.673  1.00  0.00     0.031 C 
ATOM     66  C   UNL A   1      45.380  27.170  29.109  1.00  0.00     0.034 A 
BRANCH  53  67
ATOM     67  C   UNL A   1      43.660  33.070  27.972  1.00  0.00     0.023 A 
ATOM     68  C   UNL A   1      44.158  32.958  26.647  1.00  0.00     0.012 A 
ATOM     69  C   UNL A   1      43.449  34.412  28.400  1.00  0.00     0.148 A 
ATOM     70  C   UNL A   1      44.461  34.059  25.827  1.00  0.00     0.002 A 
ATOM     71  C   UNL A   1      43.681  35.517  27.552  1.00  0.00     0.091 A 
ATOM     72  F   UNL A   1      43.068  34.662  29.653  1.00  0.00    -0.205 F 
ATOM     73  C   UNL A   1      44.211  35.342  26.273  1.00  0.00     0.022 A 
BRANCH  71  74
ATOM     74  S   UNL A   1      43.309  37.229  28.008  1.00  0.00     0.127 S 
ATOM     75  O   UNL A   1      41.881  37.168  28.324  1.00  0.00    -0.237 OA
ATOM     76  O   UNL A   1      44.173  37.438  29.171  1.00  0.00    -0.237 OA
ATOM     77  O   UNL A   1      43.641  38.046  26.847  1.00  0.00    -0.744 OA
ENDBRANCH  71  74
ENDBRANCH  53  67
BRANCH  54  78
ATOM     78  C   UNL A   1      44.288  25.782  35.040  1.00  0.00     0.023 A 
ATOM     79  C   UNL A   1      42.983  25.273  34.807  1.00  0.00     0.012 A 
ATOM     80  C   UNL A   1      45.200  25.023  35.773  1.00  0.00     0.148 A 
ATOM     81  C   UNL A   1      42.693  23.932  35.059  1.00  0.00     0.002 A 
ATOM     82  C   UNL A   1      44.935  23.672  35.945  1.00  0.00     0.091 A 
ATOM     83  F   UNL A   1      46.372  25.579  36.107  1.00  0.00    -0.205 F 
ATOM     84  C   UNL A   1      43.698  23.118  35.562  1.00  0.00     0.022 A 
BRANCH  82  85
ATOM     85  S   UNL A   1      46.284  22.515  36.176  1.00  0.00     0.127 S 
ATOM     86  O   UNL A   1      45.627  21.219  36.097  1.00  0.00    -0.237 OA
ATOM     87  O   UNL A   1      47.113  22.854  35.025  1.00  0.00    -0.237 OA
ATOM     88  O   UNL A   1      46.866  22.863  37.464  1.00  0.00    -0.744 OA
ENDBRANCH  82  85
ENDBRANCH  54  78
BRANCH  66  89
ATOM     89  C   UNL A   1      45.165  26.610  27.685  1.00  0.00     0.023 A 
ATOM     90  C   UNL A   1      45.997  26.934  26.604  1.00  0.00     0.012 A 
ATOM     91  C   UNL A   1      44.119  25.674  27.388  1.00  0.00     0.148 A 
ATOM     92  C   UNL A   1      45.850  26.351  25.337  1.00  0.00     0.002 A 
ATOM     93  C   UNL A   1      44.020  25.040  26.151  1.00  0.00     0.091 A 
ATOM     94  F   UNL A   1      43.158  25.421  28.283  1.00  0.00    -0.205 F 
ATOM     95  C   UNL A   1      44.885  25.382  25.117  1.00  0.00     0.022 A 
BRANCH  93  96
ATOM     96  S   UNL A   1      42.838  23.720  25.829  1.00  0.00     0.127 S 
ATOM     97  O   UNL A   1      41.580  24.463  25.759  1.00  0.00    -0.237 OA
ATOM     98  O   UNL A   1      43.310  23.201  24.544  1.00  0.00    -0.237 OA
ATOM     99  O   UNL A   1      42.960  22.785  26.937  1.00  0.00    -0.744 OA
ENDBRANCH  93  96
ENDBRANCH  66  89
ENDBRANCH  40  41
ENDBRANCH  33  35
ENDBRANCH  32  33
ENDBRANCH  31  32
ENDBRANCH  30  31
ENDBRANCH  29  30
ENDBRANCH  28  29
ENDBRANCH  27  28
ENDBRANCH   1  27
TORSDOF 26
ENDMDL
MODEL 3
REMARK VINA RESULT:      -8.3      7.934     14.586
REMARK SMILES Cc1cccc(CN(C)c2ccc(C(=O)OCCOCCOCCOCCOC(=O)c3ccc(-c4c5nc(c(-c6cccc(S(=O)(=O)[O-])c6F)c6ccc([nH]6)c(-c6cccc(S(=O)(=O)[O-])c6F)c6nc(c(-c7cccc(S(=O)(=O)[O-])c7F)c7ccc4[nH]7)C=C6)C=C5)cc3)cc2C)n1
REMARK SMILES IDX 22 1 21 2 20 3 19 4 18 5 17 6 16 7 14 8 15 9 13 10 10 11
REMARK SMILES IDX 11 12 95 13 12 14 94 15 96 16 8 17 9 18 7 19 6 20 1 21 2 22
REMARK SMILES IDX 3 23 97 24 4 25 5 26 23 27 24 28 25 29 26 30 27 31 28 32
REMARK SMILES IDX 29 33 30 34 31 35 32 36 93 37 33 38 92 39 34 40 35 41 36 42
REMARK SMILES IDX 86 43 37 44 91 45 85 46 87 47 38 48 90 49 84 50 83 51 39 53
REMARK SMILES IDX 71 54 51 55 70 56 52 57 55 58 69 59 88 60 53 61 54 62 68 64
REMARK SMILES IDX 89 65 56 66 40 67 41 68 49 69 42 70 44 71 50 72 43 73 45 74
REMARK SMILES IDX 46 75 47 76 48 77 72 78 73 79 81 80 74 81 76 82 82 83 75 84
REMARK SMILES IDX 77 85 78 86 79 87 80 88 57 89 58 90 66 91 59 92 61 93 67 94
REMARK SMILES IDX 60 95 62 96 63 97 64 98 65 99
REMARK H PARENT 87 52 55 63
REMARK Flexibility Score: inf
ROOT
ATOM      1  O   UNL A   1      48.861  19.985  36.743  1.00  0.00    -0.377 OA
ENDROOT
BRANCH   1   2
ATOM      2  C   UNL A   1      48.568  19.623  38.080  1.00  0.00     0.188 C 
BRANCH   2   3
ATOM      3  C   UNL A   1      47.456  20.451  38.736  1.00  0.00     0.188 C 
BRANCH   3   4
ATOM      4  O   UNL A   1      46.246  19.775  39.080  1.00  0.00    -0.376 OA
BRANCH   4   5
ATOM      5  C   UNL A   1      46.329  18.811  40.126  1.00  0.00     0.202 C 
BRANCH   5   6
ATOM      6  C   UNL A   1      45.822  17.449  39.760  1.00  0.00     0.261 C 
BRANCH   6   7
ATOM      7  O   UNL A   1      44.441  17.428  40.078  1.00  0.00    -0.460 OA
BRANCH   7   8
ATOM      8  C   UNL A   1      43.728  16.634  39.283  1.00  0.00     0.338 C 
ATOM      9  O   UNL A   1      43.772  16.513  38.064  1.00  0.00    -0.246 OA
BRANCH   8  10
ATOM     10  C   UNL A   1      43.168  15.626  40.168  1.00  0.00     0.060 A 
ATOM     11  C   UNL A   1      42.116  13.911  42.102  1.00  0.00     0.040 A 
ATOM     12  C   UNL A   1      41.736  13.821  40.745  1.00  0.00     0.027 A 
ATOM     13  C   UNL A   1      42.908  15.006  42.493  1.00  0.00    -0.027 A 
ATOM     14  C   UNL A   1      42.273  14.645  39.770  1.00  0.00     0.018 A 
ATOM     15  C   UNL A   1      43.426  15.848  41.513  1.00  0.00     0.021 A 
ATOM     16  C   UNL A   1      43.257  15.387  43.898  1.00  0.00     0.046 C 
BRANCH  11  17
ATOM     17  N   UNL A   1      41.788  12.873  42.958  1.00  0.00    -0.368 N 
ATOM     18  C   UNL A   1      40.709  12.988  43.913  1.00  0.00     0.144 C 
BRANCH  17  19
ATOM     19  C   UNL A   1      42.524  11.603  42.823  1.00  0.00     0.172 C 
BRANCH  19  20
ATOM     20  C   UNL A   1      43.578  11.365  43.899  1.00  0.00     0.060 A 
ATOM     21  C   UNL A   1      46.547  13.153  45.120  1.00  0.00     0.067 C 
ATOM     22  C   UNL A   1      45.482  12.106  45.013  1.00  0.00     0.038 A 
ATOM     23  C   UNL A   1      45.351  11.121  45.986  1.00  0.00     0.023 A 
ATOM     24  N   UNL A   1      44.631  12.221  43.965  1.00  0.00    -0.256 NA
ATOM     25  C   UNL A   1      44.301  10.216  45.884  1.00  0.00     0.004 A 
ATOM     26  C   UNL A   1      43.400  10.337  44.830  1.00  0.00     0.026 A 
ENDBRANCH  19  20
ENDBRANCH  17  19
ENDBRANCH  11  17
ENDBRANCH   8  10
ENDBRANCH   7   8
ENDBRANCH   6   7
ENDBRANCH   5   6
ENDBRANCH   4   5
ENDBRANCH   3   4
ENDBRANCH   2   3
ENDBRANCH   1   2
BRANCH   1  27
ATOM     27  C   UNL A   1      50.029  20.754  36.538  1.00  0.00     0.188 C 
BRANCH  27  28
ATOM     28  C   UNL A   1      51.337  19.934  36.553  1.00  0.00     0.188 C 
BRANCH  28  29
ATOM     29  O   UNL A   1      52.527  20.607  36.227  1.00  0.00    -0.376 OA
BRANCH  29  30
ATOM     30  C   UNL A   1      52.514  21.955  36.633  1.00  0.00     0.202 C 
BRANCH  30  31
ATOM     31  C   UNL A   1      52.391  23.142  35.619  1.00  0.00     0.261 C 
BRANCH  31  32
ATOM     32  O   UNL A   1      51.467  23.330  34.422  1.00  0.00    -0.460 OA
BRANCH  32  33
ATOM     33  C   UNL A   1      50.816  23.689  33.293  1.00  0.00     0.338 C 
ATOM     34  O   UNL A   1      50.830  22.874  32.364  1.00  0.00    -0.246 OA
BRANCH  33  35
ATOM     35  C   UNL A   1      50.219  25.041  32.981  1.00  0.00     0.060 A 
ATOM     36  C   UNL A   1      50.202  26.052  33.938  1.00  0.00     0.016 A 
ATOM     37  C   UNL A   1      49.721  25.431  31.753  1.00  0.00     0.016 A 
ATOM     38  C   UNL A   1      49.257  27.100  33.872  1.00  0.00     0.010 A 
ATOM     39  C   UNL A   1      48.699  26.390  31.708  1.00  0.00     0.010 A 
ATOM     40  C   UNL A   1      48.333  27.113  32.847  1.00  0.00    -0.014 A 
BRANCH  40  41
ATOM     41  C   UNL A   1      46.954  27.670  32.953  1.00  0.00     0.031 A 
ATOM     42  C   UNL A   1      46.663  29.087  32.478  1.00  0.00     0.074 A 
ATOM     43  C   UNL A   1      45.912  26.782  33.051  1.00  0.00     0.049 A 
ATOM     44  N   UNL A   1      45.494  29.646  32.410  1.00  0.00    -0.248 NA
ATOM     45  C   UNL A   1      47.697  29.991  31.979  1.00  0.00     0.031 C 
ATOM     46  C   UNL A   1      44.578  27.043  32.514  1.00  0.00     0.029 A 
ATOM     47  N   UNL A   1      45.765  25.452  33.483  1.00  0.00    -0.354 N 
ATOM     48  C   UNL A   1      45.559  30.731  31.541  1.00  0.00     0.074 A 
ATOM     49  C   UNL A   1      46.975  30.969  31.415  1.00  0.00     0.031 C 
ATOM     50  C   UNL A   1      43.814  25.950  32.547  1.00  0.00     0.029 A 
ATOM     51  C   UNL A   1      44.390  25.127  33.561  1.00  0.00     0.049 A 
ATOM     52  H   UNL A   1      46.506  24.840  33.698  1.00  0.00     0.167 HD
ATOM     53  C   UNL A   1      44.423  31.191  30.912  1.00  0.00     0.034 A 
ATOM     54  C   UNL A   1      43.649  24.889  34.692  1.00  0.00     0.034 A 
ATOM     55  C   UNL A   1      43.183  30.501  31.405  1.00  0.00     0.049 A 
ATOM     56  C   UNL A   1      42.665  26.032  35.057  1.00  0.00     0.074 A 
ATOM     57  C   UNL A   1      42.080  29.899  30.812  1.00  0.00     0.029 A 
ATOM     58  N   UNL A   1      43.019  30.257  32.768  1.00  0.00    -0.354 N 
ATOM     59  N   UNL A   1      42.300  27.007  34.254  1.00  0.00    -0.248 NA
ATOM     60  C   UNL A   1      42.028  26.183  36.360  1.00  0.00     0.031 C 
ATOM     61  C   UNL A   1      41.330  29.204  31.808  1.00  0.00     0.029 A 
ATOM     62  C   UNL A   1      41.903  29.476  33.036  1.00  0.00     0.049 A 
ATOM     63  H   UNL A   1      43.626  30.599  33.463  1.00  0.00     0.167 HD
ATOM     64  C   UNL A   1      41.661  28.008  34.946  1.00  0.00     0.074 A 
ATOM     65  C   UNL A   1      41.406  27.371  36.231  1.00  0.00     0.031 C 
ATOM     66  C   UNL A   1      41.482  29.276  34.425  1.00  0.00     0.034 A 
BRANCH  53  67
ATOM     67  C   UNL A   1      44.361  32.159  29.686  1.00  0.00     0.023 A 
ATOM     68  C   UNL A   1      43.713  33.408  29.880  1.00  0.00     0.012 A 
ATOM     69  C   UNL A   1      44.824  31.947  28.356  1.00  0.00     0.148 A 
ATOM     70  C   UNL A   1      43.500  34.349  28.856  1.00  0.00     0.002 A 
ATOM     71  C   UNL A   1      44.678  32.921  27.345  1.00  0.00     0.091 A 
ATOM     72  F   UNL A   1      45.372  30.779  28.017  1.00  0.00    -0.205 F 
ATOM     73  C   UNL A   1      43.994  34.113  27.589  1.00  0.00     0.022 A 
BRANCH  71  74
ATOM     74  S   UNL A   1      45.360  32.748  25.676  1.00  0.00     0.127 S 
ATOM     75  O   UNL A   1      44.163  32.813  24.837  1.00  0.00    -0.237 OA
ATOM     76  O   UNL A   1      46.233  33.919  25.571  1.00  0.00    -0.237 OA
ATOM     77  O   UNL A   1      46.054  31.466  25.647  1.00  0.00    -0.744 OA
ENDBRANCH  71  74
ENDBRANCH  53  67
BRANCH  54  78
ATOM     78  C   UNL A   1      44.265  23.872  35.583  1.00  0.00     0.023 A 
ATOM     79  C   UNL A   1      44.412  22.587  34.998  1.00  0.00     0.012 A 
ATOM     80  C   UNL A   1      45.201  24.311  36.520  1.00  0.00     0.148 A 
ATOM     81  C   UNL A   1      45.607  21.881  35.137  1.00  0.00     0.002 A 
ATOM     82  C   UNL A   1      46.417  23.646  36.588  1.00  0.00     0.091 A 
ATOM     83  F   UNL A   1      44.968  25.460  37.167  1.00  0.00    -0.205 F 
ATOM     84  C   UNL A   1      46.634  22.450  35.876  1.00  0.00     0.022 A 
BRANCH  82  85
ATOM     85  S   UNL A   1      47.883  24.510  37.150  1.00  0.00     0.127 S 
ATOM     86  O   UNL A   1      48.956  23.855  36.417  1.00  0.00    -0.237 OA
ATOM     87  O   UNL A   1      47.571  25.863  36.702  1.00  0.00    -0.237 OA
ATOM     88  O   UNL A   1      47.893  24.338  38.596  1.00  0.00    -0.744 OA
ENDBRANCH  82  85
ENDBRANCH  54  78
BRANCH  66  89
ATOM     89  C   UNL A   1      40.955  30.536  35.149  1.00  0.00     0.023 A 
ATOM     90  C   UNL A   1      41.615  31.123  36.236  1.00  0.00     0.012 A 
ATOM     91  C   UNL A   1      39.770  31.219  34.716  1.00  0.00     0.148 A 
ATOM     92  C   UNL A   1      41.180  32.317  36.829  1.00  0.00     0.002 A 
ATOM     93  C   UNL A   1      39.381  32.444  35.256  1.00  0.00     0.091 A 
ATOM     94  F   UNL A   1      38.959  30.666  33.808  1.00  0.00    -0.205 F 
ATOM     95  C   UNL A   1      40.083  32.994  36.321  1.00  0.00     0.022 A 
BRANCH  93  96
ATOM     96  S   UNL A   1      38.012  33.407  34.588  1.00  0.00     0.127 S 
ATOM     97  O   UNL A   1      38.187  33.208  33.150  1.00  0.00    -0.237 OA
ATOM     98  O   UNL A   1      36.854  32.720  35.162  1.00  0.00    -0.237 OA
ATOM     99  O   UNL A   1      38.202  34.768  35.066  1.00  0.00    -0.744 OA
ENDBRANCH  93  96
ENDBRANCH  66  89
ENDBRANCH  40  41
ENDBRANCH  33  35
ENDBRANCH  32  33
ENDBRANCH  31  32
ENDBRANCH  30  31
ENDBRANCH  29  30
ENDBRANCH  28  29
ENDBRANCH  27  28
ENDBRANCH   1  27
TORSDOF 26
ENDMDL
