MODEL 1
REMARK VINA RESULT:      -9.2      0.000      0.000
REMARK SMILES C[C@@H](C(=O)OCCOCCOCCOCCOC(=O)c1ccc(-c2c3nc(c(-c4cccc(S(=O)(=O)[O-])c4F)c4ccc([nH]4)c(-c4cccc(S(=O)(=O)[O-])c4F)c4nc(c(-c5cccc(S(=O)(=O)[O-])c5F)c5ccc2[nH]5)C=C4)C=C3)cc1)[N@@H+]1CCc2n[nH]c(C(c3ccccc3)c3ccccc3)c2C1
REMARK SMILES IDX 11 1 10 2 9 3 8 4 7 5 6 6 5 7 3 8 4 9 2 10 1 11 83 12 84 13
REMARK SMILES IDX 104 14 85 16 103 17 86 18 89 19 87 20 88 21 90 23 91 24
REMARK SMILES IDX 92 25 96 26 93 27 95 28 94 29 97 30 98 31 102 32 99 33
REMARK SMILES IDX 101 34 100 35 12 36 13 37 14 38 15 39 16 40 17 41 18 42
REMARK SMILES IDX 19 43 20 44 21 45 82 46 22 47 81 48 23 49 24 50 25 51 75 52
REMARK SMILES IDX 26 53 80 54 74 55 76 56 27 57 79 58 73 59 72 60 28 62 60 63
REMARK SMILES IDX 40 64 59 65 41 66 44 67 58 68 77 69 42 70 43 71 57 73 78 74
REMARK SMILES IDX 45 75 29 76 30 77 38 78 31 79 33 80 39 81 32 82 34 83 35 84
REMARK SMILES IDX 36 85 37 86 61 87 62 88 70 89 63 90 65 91 71 92 64 93 66 94
REMARK SMILES IDX 67 95 68 96 69 97 46 98 47 99 55 100 48 101 50 102 56 103
REMARK SMILES IDX 49 104 51 105 52 106 53 107 54 108
REMARK H PARENT 83 15 88 22 76 61 44 72
REMARK Flexibility Score: inf
ROOT
ATOM      1  O   UNL A   1      45.864  25.584  25.201  1.00  0.00    -0.377 OA
ENDROOT
BRANCH   1   2
ATOM      2  C   UNL A   1      45.066  24.475  25.619  1.00  0.00     0.188 C 
BRANCH   2   3
ATOM      3  C   UNL A   1      43.620  24.434  25.066  1.00  0.00     0.188 C 
BRANCH   3   4
ATOM      4  O   UNL A   1      42.697  23.508  25.669  1.00  0.00    -0.376 OA
BRANCH   4   5
ATOM      5  C   UNL A   1      43.041  22.118  25.504  1.00  0.00     0.202 C 
BRANCH   5   6
ATOM      6  C   UNL A   1      42.103  21.159  26.316  1.00  0.00     0.261 C 
BRANCH   6   7
ATOM      7  O   UNL A   1      40.695  21.451  26.081  1.00  0.00    -0.459 OA
BRANCH   7   8
ATOM      8  C   UNL A   1      39.871  20.395  25.804  1.00  0.00     0.364 C 
ATOM      9  O   UNL A   1      40.237  19.224  25.866  1.00  0.00    -0.245 OA
BRANCH   8  10
ATOM     10  C   UNL A   1      38.401  20.814  25.467  1.00  0.00     0.292 C 
ATOM     11  C   UNL A   1      37.624  19.694  24.756  1.00  0.00     0.088 C 
BRANCH  10  12
ATOM     12  N   UNL A   1      38.302  22.222  24.947  1.00  0.00    -0.319 N 
ATOM     13  C   UNL A   1      38.580  23.296  25.948  1.00  0.00     0.269 C 
ATOM     14  C   UNL A   1      37.055  22.519  24.201  1.00  0.00     0.303 C 
ATOM     15  H   UNL A   1      39.070  22.246  24.277  1.00  0.00     0.349 HD
ATOM     16  C   UNL A   1      37.369  24.195  26.334  1.00  0.00     0.120 C 
ATOM     17  C   UNL A   1      35.915  22.500  25.146  1.00  0.00     0.052 A 
ATOM     18  C   UNL A   1      36.144  23.366  26.253  1.00  0.00     0.077 A 
ATOM     19  C   UNL A   1      34.697  21.877  25.419  1.00  0.00     0.056 A 
ATOM     20  N   UNL A   1      35.340  23.128  27.269  1.00  0.00    -0.180 NA
ATOM     21  N   UNL A   1      34.667  22.064  26.820  1.00  0.00    -0.281 N 
ATOM     22  H   UNL A   1      34.186  21.451  27.423  1.00  0.00     0.190 HD
BRANCH  19  23
ATOM     23  C   UNL A   1      33.455  21.047  24.931  1.00  0.00     0.098 C 
BRANCH  23  24
ATOM     24  C   UNL A   1      32.774  22.014  23.902  1.00  0.00    -0.035 A 
ATOM     25  C   UNL A   1      31.513  22.550  24.179  1.00  0.00     0.005 A 
ATOM     26  C   UNL A   1      33.605  22.655  22.949  1.00  0.00     0.005 A 
ATOM     27  C   UNL A   1      31.149  23.771  23.609  1.00  0.00     0.000 A 
ATOM     28  C   UNL A   1      33.252  23.888  22.418  1.00  0.00     0.000 A 
ATOM     29  C   UNL A   1      32.031  24.455  22.767  1.00  0.00     0.000 A 
ENDBRANCH  23  24
BRANCH  23  30
ATOM     30  C   UNL A   1      33.398  19.595  24.397  1.00  0.00    -0.035 A 
ATOM     31  C   UNL A   1      34.403  18.650  24.659  1.00  0.00     0.005 A 
ATOM     32  C   UNL A   1      32.481  19.224  23.388  1.00  0.00     0.005 A 
ATOM     33  C   UNL A   1      34.495  17.419  23.977  1.00  0.00     0.000 A 
ATOM     34  C   UNL A   1      32.542  17.973  22.733  1.00  0.00     0.000 A 
ATOM     35  C   UNL A   1      33.555  17.071  23.024  1.00  0.00     0.000 A 
ENDBRANCH  23  30
ENDBRANCH  19  23
ENDBRANCH  10  12
ENDBRANCH   8  10
ENDBRANCH   7   8
ENDBRANCH   6   7
ENDBRANCH   5   6
ENDBRANCH   4   5
ENDBRANCH   3   4
ENDBRANCH   2   3
ENDBRANCH   1   2
BRANCH   1  36
ATOM     36  C   UNL A   1      47.145  25.184  24.707  1.00  0.00     0.188 C 
BRANCH  36  37
ATOM     37  C   UNL A   1      48.269  26.135  25.140  1.00  0.00     0.188 C 
BRANCH  37  38
ATOM     38  O   UNL A   1      48.811  25.817  26.422  1.00  0.00    -0.376 OA
BRANCH  38  39
ATOM     39  C   UNL A   1      50.211  25.514  26.408  1.00  0.00     0.202 C 
BRANCH  39  40
ATOM     40  C   UNL A   1      50.919  25.809  27.741  1.00  0.00     0.261 C 
BRANCH  40  41
ATOM     41  O   UNL A   1      51.145  27.216  27.963  1.00  0.00    -0.460 OA
BRANCH  41  42
ATOM     42  C   UNL A   1      51.100  27.578  29.271  1.00  0.00     0.338 C 
ATOM     43  O   UNL A   1      51.832  27.151  30.156  1.00  0.00    -0.246 OA
BRANCH  42  44
ATOM     44  C   UNL A   1      49.945  28.458  29.561  1.00  0.00     0.060 A 
ATOM     45  C   UNL A   1      49.926  29.357  30.629  1.00  0.00     0.016 A 
ATOM     46  C   UNL A   1      48.811  28.330  28.754  1.00  0.00     0.016 A 
ATOM     47  C   UNL A   1      48.776  30.118  30.899  1.00  0.00     0.010 A 
ATOM     48  C   UNL A   1      47.679  29.116  28.997  1.00  0.00     0.010 A 
ATOM     49  C   UNL A   1      47.628  29.984  30.103  1.00  0.00    -0.014 A 
BRANCH  49  50
ATOM     50  C   UNL A   1      46.303  30.509  30.555  1.00  0.00     0.031 A 
ATOM     51  C   UNL A   1      45.571  29.719  31.615  1.00  0.00     0.074 A 
ATOM     52  C   UNL A   1      45.742  31.642  30.084  1.00  0.00     0.049 A 
ATOM     53  N   UNL A   1      44.375  29.896  32.114  1.00  0.00    -0.248 NA
ATOM     54  C   UNL A   1      46.290  28.563  32.181  1.00  0.00     0.031 C 
ATOM     55  C   UNL A   1      46.336  32.548  29.107  1.00  0.00     0.029 A 
ATOM     56  N   UNL A   1      44.524  32.221  30.370  1.00  0.00    -0.354 N 
ATOM     57  C   UNL A   1      44.183  28.846  33.004  1.00  0.00     0.074 A 
ATOM     58  C   UNL A   1      45.368  28.021  32.956  1.00  0.00     0.031 C 
ATOM     59  C   UNL A   1      45.481  33.558  28.861  1.00  0.00     0.029 A 
ATOM     60  C   UNL A   1      44.269  33.371  29.656  1.00  0.00     0.049 A 
ATOM     61  H   UNL A   1      43.893  31.846  31.027  1.00  0.00     0.167 HD
ATOM     62  C   UNL A   1      43.134  28.595  33.822  1.00  0.00     0.034 A 
ATOM     63  C   UNL A   1      43.187  34.181  29.651  1.00  0.00     0.034 A 
ATOM     64  C   UNL A   1      41.986  29.441  33.947  1.00  0.00     0.049 A 
ATOM     65  C   UNL A   1      42.022  33.876  30.566  1.00  0.00     0.074 A 
ATOM     66  C   UNL A   1      40.887  29.281  34.772  1.00  0.00     0.029 A 
ATOM     67  N   UNL A   1      41.790  30.613  33.236  1.00  0.00    -0.354 N 
ATOM     68  N   UNL A   1      41.897  32.925  31.460  1.00  0.00    -0.248 NA
ATOM     69  C   UNL A   1      40.861  34.780  30.496  1.00  0.00     0.031 C 
ATOM     70  C   UNL A   1      40.021  30.358  34.553  1.00  0.00     0.029 A 
ATOM     71  C   UNL A   1      40.590  31.191  33.604  1.00  0.00     0.049 A 
ATOM     72  H   UNL A   1      42.414  30.980  32.569  1.00  0.00     0.167 HD
ATOM     73  C   UNL A   1      40.671  33.143  32.084  1.00  0.00     0.074 A 
ATOM     74  C   UNL A   1      40.098  34.326  31.481  1.00  0.00     0.031 C 
ATOM     75  C   UNL A   1      40.067  32.417  33.057  1.00  0.00     0.034 A 
BRANCH  62  76
ATOM     76  C   UNL A   1      43.215  27.351  34.663  1.00  0.00     0.023 A 
ATOM     77  C   UNL A   1      42.611  26.160  34.211  1.00  0.00     0.012 A 
ATOM     78  C   UNL A   1      43.864  27.372  35.910  1.00  0.00     0.148 A 
ATOM     79  C   UNL A   1      42.605  25.022  35.016  1.00  0.00     0.002 A 
ATOM     80  C   UNL A   1      43.894  26.221  36.686  1.00  0.00     0.091 A 
ATOM     81  F   UNL A   1      44.411  28.523  36.328  1.00  0.00    -0.205 F 
ATOM     82  C   UNL A   1      43.251  25.051  36.249  1.00  0.00     0.022 A 
BRANCH  80  83
ATOM     83  S   UNL A   1      44.755  26.141  38.259  1.00  0.00     0.127 S 
ATOM     84  O   UNL A   1      44.998  24.706  38.391  1.00  0.00    -0.237 OA
ATOM     85  O   UNL A   1      45.951  26.942  37.995  1.00  0.00    -0.237 OA
ATOM     86  O   UNL A   1      43.848  26.716  39.242  1.00  0.00    -0.744 OA
ENDBRANCH  80  83
ENDBRANCH  62  76
BRANCH  63  87
ATOM     87  C   UNL A   1      43.149  35.407  28.794  1.00  0.00     0.023 A 
ATOM     88  C   UNL A   1      42.632  35.318  27.484  1.00  0.00     0.012 A 
ATOM     89  C   UNL A   1      43.663  36.639  29.242  1.00  0.00     0.148 A 
ATOM     90  C   UNL A   1      42.669  36.417  26.625  1.00  0.00     0.002 A 
ATOM     91  C   UNL A   1      43.649  37.745  28.397  1.00  0.00     0.091 A 
ATOM     92  F   UNL A   1      44.169  36.703  30.481  1.00  0.00    -0.205 F 
ATOM     93  C   UNL A   1      43.171  37.632  27.083  1.00  0.00     0.022 A 
BRANCH  91  94
ATOM     94  S   UNL A   1      44.176  39.376  28.934  1.00  0.00     0.127 S 
ATOM     95  O   UNL A   1      44.018  40.161  27.713  1.00  0.00    -0.237 OA
ATOM     96  O   UNL A   1      43.207  39.674  29.990  1.00  0.00    -0.237 OA
ATOM     97  O   UNL A   1      45.544  39.207  29.409  1.00  0.00    -0.744 OA
ENDBRANCH  91  94
ENDBRANCH  63  87
BRANCH  75  98
ATOM     98  C   UNL A   1      38.736  32.888  33.582  1.00  0.00     0.023 A 
ATOM     99  C   UNL A   1      38.663  33.517  34.840  1.00  0.00     0.012 A 
ATOM    100  C   UNL A   1      37.582  32.821  32.774  1.00  0.00     0.148 A 
ATOM    101  C   UNL A   1      37.458  34.055  35.294  1.00  0.00     0.002 A 
ATOM    102  C   UNL A   1      36.398  33.402  33.212  1.00  0.00     0.091 A 
ATOM    103  F   UNL A   1      37.667  32.199  31.588  1.00  0.00    -0.205 F 
ATOM    104  C   UNL A   1      36.333  34.012  34.475  1.00  0.00     0.022 A 
BRANCH 102 105
ATOM    105  S   UNL A   1      34.930  33.487  32.179  1.00  0.00     0.127 S 
ATOM    106  O   UNL A   1      35.485  33.955  30.910  1.00  0.00    -0.237 OA
ATOM    107  O   UNL A   1      34.474  32.097  32.169  1.00  0.00    -0.237 OA
ATOM    108  O   UNL A   1      34.025  34.413  32.846  1.00  0.00    -0.744 OA
ENDBRANCH 102 105
ENDBRANCH  75  98
ENDBRANCH  49  50
ENDBRANCH  42  44
ENDBRANCH  41  42
ENDBRANCH  40  41
ENDBRANCH  39  40
ENDBRANCH  38  39
ENDBRANCH  37  38
ENDBRANCH  36  37
ENDBRANCH   1  36
TORSDOF 27
ENDMDL
MODEL 2
REMARK VINA RESULT:      -8.7      4.848      9.698
REMARK SMILES C[C@@H](C(=O)OCCOCCOCCOCCOC(=O)c1ccc(-c2c3nc(c(-c4cccc(S(=O)(=O)[O-])c4F)c4ccc([nH]4)c(-c4cccc(S(=O)(=O)[O-])c4F)c4nc(c(-c5cccc(S(=O)(=O)[O-])c5F)c5ccc2[nH]5)C=C4)C=C3)cc1)[N@@H+]1CCc2n[nH]c(C(c3ccccc3)c3ccccc3)c2C1
REMARK SMILES IDX 11 1 10 2 9 3 8 4 7 5 6 6 5 7 3 8 4 9 2 10 1 11 83 12 84 13
REMARK SMILES IDX 104 14 85 16 103 17 86 18 89 19 87 20 88 21 90 23 91 24
REMARK SMILES IDX 92 25 96 26 93 27 95 28 94 29 97 30 98 31 102 32 99 33
REMARK SMILES IDX 101 34 100 35 12 36 13 37 14 38 15 39 16 40 17 41 18 42
REMARK SMILES IDX 19 43 20 44 21 45 82 46 22 47 81 48 23 49 24 50 25 51 75 52
REMARK SMILES IDX 26 53 80 54 74 55 76 56 27 57 79 58 73 59 72 60 28 62 60 63
REMARK SMILES IDX 40 64 59 65 41 66 44 67 58 68 77 69 42 70 43 71 57 73 78 74
REMARK SMILES IDX 45 75 29 76 30 77 38 78 31 79 33 80 39 81 32 82 34 83 35 84
REMARK SMILES IDX 36 85 37 86 61 87 62 88 70 89 63 90 65 91 71 92 64 93 66 94
REMARK SMILES IDX 67 95 68 96 69 97 46 98 47 99 55 100 48 101 50 102 56 103
REMARK SMILES IDX 49 104 51 105 52 106 53 107 54 108
REMARK H PARENT 83 15 88 22 76 61 44 72
REMARK Flexibility Score: inf
ROOT
ATOM      1  O   UNL A   1      39.271  25.740  28.845  1.00  0.00    -0.377 OA
ENDROOT
BRANCH   1   2
ATOM      2  C   UNL A   1      39.912  27.018  28.836  1.00  0.00     0.188 C 
BRANCH   2   3
ATOM      3  C   UNL A   1      39.081  28.188  28.252  1.00  0.00     0.188 C 
BRANCH   3   4
ATOM      4  O   UNL A   1      38.630  29.209  29.160  1.00  0.00    -0.376 OA
BRANCH   4   5
ATOM      5  C   UNL A   1      37.262  29.624  28.973  1.00  0.00     0.202 C 
BRANCH   5   6
ATOM      6  C   UNL A   1      36.457  29.688  30.318  1.00  0.00     0.261 C 
BRANCH   6   7
ATOM      7  O   UNL A   1      36.781  30.882  31.087  1.00  0.00    -0.459 OA
BRANCH   7   8
ATOM      8  C   UNL A   1      35.899  31.926  31.030  1.00  0.00     0.364 C 
ATOM      9  O   UNL A   1      34.891  31.915  30.328  1.00  0.00    -0.245 OA
BRANCH   8  10
ATOM     10  C   UNL A   1      36.255  33.106  31.994  1.00  0.00     0.292 C 
ATOM     11  C   UNL A   1      35.106  33.434  32.964  1.00  0.00     0.088 C 
BRANCH  10  12
ATOM     12  N   UNL A   1      36.973  34.230  31.299  1.00  0.00    -0.319 N 
ATOM     13  C   UNL A   1      37.038  34.124  29.810  1.00  0.00     0.269 C 
ATOM     14  C   UNL A   1      38.310  34.547  31.855  1.00  0.00     0.303 C 
ATOM     15  H   UNL A   1      36.362  35.020  31.506  1.00  0.00     0.349 HD
ATOM     16  C   UNL A   1      38.456  33.900  29.206  1.00  0.00     0.120 C 
ATOM     17  C   UNL A   1      39.228  33.423  31.567  1.00  0.00     0.052 A 
ATOM     18  C   UNL A   1      39.243  33.107  30.178  1.00  0.00     0.077 A 
ATOM     19  C   UNL A   1      40.052  32.467  32.163  1.00  0.00     0.056 A 
ATOM     20  N   UNL A   1      39.760  31.922  29.924  1.00  0.00    -0.180 NA
ATOM     21  N   UNL A   1      39.993  31.472  31.161  1.00  0.00    -0.281 N 
ATOM     22  H   UNL A   1      40.114  30.515  31.360  1.00  0.00     0.190 HD
BRANCH  19  23
ATOM     23  C   UNL A   1      40.901  31.982  33.394  1.00  0.00     0.098 C 
BRANCH  23  24
ATOM     24  C   UNL A   1      40.049  32.468  34.616  1.00  0.00    -0.035 A 
ATOM     25  C   UNL A   1      40.320  33.705  35.207  1.00  0.00     0.005 A 
ATOM     26  C   UNL A   1      38.780  31.868  34.817  1.00  0.00     0.005 A 
ATOM     27  C   UNL A   1      39.298  34.384  35.872  1.00  0.00     0.000 A 
ATOM     28  C   UNL A   1      37.759  32.567  35.445  1.00  0.00     0.000 A 
ATOM     29  C   UNL A   1      38.015  33.835  35.955  1.00  0.00     0.000 A 
ENDBRANCH  23  24
BRANCH  23  30
ATOM     30  C   UNL A   1      41.482  30.578  33.689  1.00  0.00    -0.035 A 
ATOM     31  C   UNL A   1      41.424  29.523  32.764  1.00  0.00     0.005 A 
ATOM     32  C   UNL A   1      41.844  30.198  35.001  1.00  0.00     0.005 A 
ATOM     33  C   UNL A   1      41.710  28.185  33.106  1.00  0.00     0.000 A 
ATOM     34  C   UNL A   1      42.176  28.867  35.340  1.00  0.00     0.000 A 
ATOM     35  C   UNL A   1      42.103  27.856  34.391  1.00  0.00     0.000 A 
ENDBRANCH  23  30
ENDBRANCH  19  23
ENDBRANCH  10  12
ENDBRANCH   8  10
ENDBRANCH   7   8
ENDBRANCH   6   7
ENDBRANCH   5   6
ENDBRANCH   4   5
ENDBRANCH   3   4
ENDBRANCH   2   3
ENDBRANCH   1   2
BRANCH   1  36
ATOM     36  C   UNL A   1      39.862  24.823  27.921  1.00  0.00     0.188 C 
BRANCH  36  37
ATOM     37  C   UNL A   1      38.872  24.338  26.854  1.00  0.00     0.188 C 
BRANCH  37  38
ATOM     38  O   UNL A   1      39.206  23.058  26.317  1.00  0.00    -0.376 OA
BRANCH  38  39
ATOM     39  C   UNL A   1      40.268  22.391  27.008  1.00  0.00     0.202 C 
BRANCH  39  40
ATOM     40  C   UNL A   1      41.489  22.094  26.123  1.00  0.00     0.261 C 
BRANCH  40  41
ATOM     41  O   UNL A   1      42.596  21.529  26.855  1.00  0.00    -0.460 OA
BRANCH  41  42
ATOM     42  C   UNL A   1      43.755  22.223  26.717  1.00  0.00     0.338 C 
ATOM     43  O   UNL A   1      44.573  22.075  25.817  1.00  0.00    -0.246 OA
BRANCH  42  44
ATOM     44  C   UNL A   1      44.014  23.102  27.880  1.00  0.00     0.060 A 
ATOM     45  C   UNL A   1      43.090  23.286  28.911  1.00  0.00     0.016 A 
ATOM     46  C   UNL A   1      45.216  23.814  27.903  1.00  0.00     0.016 A 
ATOM     47  C   UNL A   1      43.360  24.186  29.956  1.00  0.00     0.010 A 
ATOM     48  C   UNL A   1      45.504  24.680  28.964  1.00  0.00     0.010 A 
ATOM     49  C   UNL A   1      44.558  24.916  29.978  1.00  0.00    -0.014 A 
BRANCH  49  50
ATOM     50  C   UNL A   1      44.726  26.107  30.867  1.00  0.00     0.031 A 
ATOM     51  C   UNL A   1      45.039  25.846  32.322  1.00  0.00     0.074 A 
ATOM     52  C   UNL A   1      44.629  27.384  30.441  1.00  0.00     0.049 A 
ATOM     53  N   UNL A   1      45.141  26.686  33.320  1.00  0.00    -0.248 NA
ATOM     54  C   UNL A   1      45.258  24.438  32.700  1.00  0.00     0.031 C 
ATOM     55  C   UNL A   1      44.390  27.810  29.066  1.00  0.00     0.029 A 
ATOM     56  N   UNL A   1      44.716  28.568  31.141  1.00  0.00    -0.354 N 
ATOM     57  C   UNL A   1      45.377  25.902  34.443  1.00  0.00     0.074 A 
ATOM     58  C   UNL A   1      45.375  24.524  34.013  1.00  0.00     0.031 C 
ATOM     59  C   UNL A   1      44.332  29.154  29.022  1.00  0.00     0.029 A 
ATOM     60  C   UNL A   1      44.522  29.692  30.369  1.00  0.00     0.049 A 
ATOM     61  H   UNL A   1      44.899  28.607  32.109  1.00  0.00     0.167 HD
ATOM     62  C   UNL A   1      45.613  26.283  35.721  1.00  0.00     0.034 A 
ATOM     63  C   UNL A   1      44.507  31.000  30.708  1.00  0.00     0.034 A 
ATOM     64  C   UNL A   1      45.701  27.644  36.156  1.00  0.00     0.049 A 
ATOM     65  C   UNL A   1      44.763  31.402  32.143  1.00  0.00     0.074 A 
ATOM     66  C   UNL A   1      45.965  28.125  37.426  1.00  0.00     0.029 A 
ATOM     67  N   UNL A   1      45.539  28.746  35.332  1.00  0.00    -0.354 N 
ATOM     68  N   UNL A   1      45.067  30.650  33.172  1.00  0.00    -0.248 NA
ATOM     69  C   UNL A   1      44.707  32.840  32.456  1.00  0.00     0.031 C 
ATOM     70  C   UNL A   1      45.955  29.523  37.370  1.00  0.00     0.029 A 
ATOM     71  C   UNL A   1      45.700  29.907  36.064  1.00  0.00     0.049 A 
ATOM     72  H   UNL A   1      45.340  28.706  34.369  1.00  0.00     0.167 HD
ATOM     73  C   UNL A   1      45.282  31.523  34.237  1.00  0.00     0.074 A 
ATOM     74  C   UNL A   1      45.090  32.862  33.725  1.00  0.00     0.031 C 
ATOM     75  C   UNL A   1      45.591  31.239  35.526  1.00  0.00     0.034 A 
BRANCH  62  76
ATOM     76  C   UNL A   1      45.815  25.184  36.727  1.00  0.00     0.023 A 
ATOM     77  C   UNL A   1      44.720  24.710  37.477  1.00  0.00     0.012 A 
ATOM     78  C   UNL A   1      47.095  24.644  36.948  1.00  0.00     0.148 A 
ATOM     79  C   UNL A   1      44.906  23.752  38.472  1.00  0.00     0.002 A 
ATOM     80  C   UNL A   1      47.265  23.656  37.909  1.00  0.00     0.091 A 
ATOM     81  F   UNL A   1      48.125  25.128  36.239  1.00  0.00    -0.205 F 
ATOM     82  C   UNL A   1      46.176  23.222  38.683  1.00  0.00     0.022 A 
BRANCH  80  83
ATOM     83  S   UNL A   1      48.849  22.867  38.210  1.00  0.00     0.127 S 
ATOM     84  O   UNL A   1      48.519  21.947  39.297  1.00  0.00    -0.237 OA
ATOM     85  O   UNL A   1      49.120  22.223  36.925  1.00  0.00    -0.237 OA
ATOM     86  O   UNL A   1      49.771  23.939  38.555  1.00  0.00    -0.744 OA
ENDBRANCH  80  83
ENDBRANCH  62  76
BRANCH  63  87
ATOM     87  C   UNL A   1      44.297  32.059  29.672  1.00  0.00     0.023 A 
ATOM     88  C   UNL A   1      43.076  32.765  29.644  1.00  0.00     0.012 A 
ATOM     89  C   UNL A   1      45.268  32.337  28.691  1.00  0.00     0.148 A 
ATOM     90  C   UNL A   1      42.808  33.692  28.635  1.00  0.00     0.002 A 
ATOM     91  C   UNL A   1      45.014  33.300  27.718  1.00  0.00     0.091 A 
ATOM     92  F   UNL A   1      46.414  31.644  28.718  1.00  0.00    -0.205 F 
ATOM     93  C   UNL A   1      43.779  33.964  27.676  1.00  0.00     0.022 A 
BRANCH  91  94
ATOM     94  S   UNL A   1      46.246  33.794  26.507  1.00  0.00     0.127 S 
ATOM     95  O   UNL A   1      45.413  34.301  25.420  1.00  0.00    -0.237 OA
ATOM     96  O   UNL A   1      46.996  34.815  27.238  1.00  0.00    -0.237 OA
ATOM     97  O   UNL A   1      47.009  32.587  26.213  1.00  0.00    -0.744 OA
ENDBRANCH  91  94
ENDBRANCH  63  87
BRANCH  75  98
ATOM     98  C   UNL A   1      45.795  32.383  36.484  1.00  0.00     0.023 A 
ATOM     99  C   UNL A   1      47.081  32.932  36.655  1.00  0.00     0.012 A 
ATOM    100  C   UNL A   1      44.693  32.995  37.115  1.00  0.00     0.148 A 
ATOM    101  C   UNL A   1      47.270  34.059  37.454  1.00  0.00     0.002 A 
ATOM    102  C   UNL A   1      44.881  34.147  37.870  1.00  0.00     0.091 A 
ATOM    103  F   UNL A   1      43.479  32.447  36.956  1.00  0.00    -0.205 F 
ATOM    104  C   UNL A   1      46.170  34.675  38.047  1.00  0.00     0.022 A 
BRANCH 102 105
ATOM    105  S   UNL A   1      43.510  35.065  38.580  1.00  0.00     0.127 S 
ATOM    106  O   UNL A   1      42.964  34.099  39.531  1.00  0.00    -0.237 OA
ATOM    107  O   UNL A   1      44.184  36.211  39.193  1.00  0.00    -0.237 OA
ATOM    108  O   UNL A   1      42.638  35.407  37.465  1.00  0.00    -0.744 OA
ENDBRANCH 102 105
ENDBRANCH  75  98
ENDBRANCH  49  50
ENDBRANCH  42  44
ENDBRANCH  41  42
ENDBRANCH  40  41
ENDBRANCH  39  40
ENDBRANCH  38  39
ENDBRANCH  37  38
ENDBRANCH  36  37
ENDBRANCH   1  36
TORSDOF 27
ENDMDL
MODEL 3
REMARK VINA RESULT:      -8.6      4.412      7.724
REMARK SMILES C[C@@H](C(=O)OCCOCCOCCOCCOC(=O)c1ccc(-c2c3nc(c(-c4cccc(S(=O)(=O)[O-])c4F)c4ccc([nH]4)c(-c4cccc(S(=O)(=O)[O-])c4F)c4nc(c(-c5cccc(S(=O)(=O)[O-])c5F)c5ccc2[nH]5)C=C4)C=C3)cc1)[N@@H+]1CCc2n[nH]c(C(c3ccccc3)c3ccccc3)c2C1
REMARK SMILES IDX 11 1 10 2 9 3 8 4 7 5 6 6 5 7 3 8 4 9 2 10 1 11 83 12 84 13
REMARK SMILES IDX 104 14 85 16 103 17 86 18 89 19 87 20 88 21 90 23 91 24
REMARK SMILES IDX 92 25 96 26 93 27 95 28 94 29 97 30 98 31 102 32 99 33
REMARK SMILES IDX 101 34 100 35 12 36 13 37 14 38 15 39 16 40 17 41 18 42
REMARK SMILES IDX 19 43 20 44 21 45 82 46 22 47 81 48 23 49 24 50 25 51 75 52
REMARK SMILES IDX 26 53 80 54 74 55 76 56 27 57 79 58 73 59 72 60 28 62 60 63
REMARK SMILES IDX 40 64 59 65 41 66 44 67 58 68 77 69 42 70 43 71 57 73 78 74
REMARK SMILES IDX 45 75 29 76 30 77 38 78 31 79 33 80 39 81 32 82 34 83 35 84
REMARK SMILES IDX 36 85 37 86 61 87 62 88 70 89 63 90 65 91 71 92 64 93 66 94
REMARK SMILES IDX 67 95 68 96 69 97 46 98 47 99 55 100 48 101 50 102 56 103
REMARK SMILES IDX 49 104 51 105 52 106 53 107 54 108
REMARK H PARENT 83 15 88 22 76 61 44 72
REMARK Flexibility Score: inf
ROOT
ATOM      1  O   UNL A   1      45.751  26.016  25.567  1.00  0.00    -0.377 OA
ENDROOT
BRANCH   1   2
ATOM      2  C   UNL A   1      44.904  24.873  25.709  1.00  0.00     0.188 C 
BRANCH   2   3
ATOM      3  C   UNL A   1      43.508  24.979  25.045  1.00  0.00     0.188 C 
BRANCH   3   4
ATOM      4  O   UNL A   1      42.422  24.250  25.648  1.00  0.00    -0.376 OA
BRANCH   4   5
ATOM      5  C   UNL A   1      42.700  22.861  25.913  1.00  0.00     0.202 C 
BRANCH   5   6
ATOM      6  C   UNL A   1      41.510  22.127  26.623  1.00  0.00     0.261 C 
BRANCH   6   7
ATOM      7  O   UNL A   1      40.421  21.842  25.699  1.00  0.00    -0.459 OA
BRANCH   7   8
ATOM      8  C   UNL A   1      39.733  20.673  25.879  1.00  0.00     0.364 C 
ATOM      9  O   UNL A   1      40.247  19.656  26.337  1.00  0.00    -0.245 OA
BRANCH   8  10
ATOM     10  C   UNL A   1      38.215  20.772  25.513  1.00  0.00     0.292 C 
ATOM     11  C   UNL A   1      37.668  19.458  24.930  1.00  0.00     0.088 C 
BRANCH  10  12
ATOM     12  N   UNL A   1      37.860  22.075  24.849  1.00  0.00    -0.319 N 
ATOM     13  C   UNL A   1      38.122  23.300  25.663  1.00  0.00     0.269 C 
ATOM     14  C   UNL A   1      36.497  22.121  24.267  1.00  0.00     0.303 C 
ATOM     15  H   UNL A   1      38.523  22.095  24.075  1.00  0.00     0.349 HD
ATOM     16  C   UNL A   1      36.864  24.098  26.114  1.00  0.00     0.120 C 
ATOM     17  C   UNL A   1      35.505  22.100  25.366  1.00  0.00     0.052 A 
ATOM     18  C   UNL A   1      35.761  23.130  26.315  1.00  0.00     0.077 A 
ATOM     19  C   UNL A   1      34.428  21.384  25.889  1.00  0.00     0.056 A 
ATOM     20  N   UNL A   1      35.137  22.943  27.461  1.00  0.00    -0.180 NA
ATOM     21  N   UNL A   1      34.559  21.756  27.247  1.00  0.00    -0.281 N 
ATOM     22  H   UNL A   1      34.248  21.181  27.983  1.00  0.00     0.190 HD
BRANCH  19  23
ATOM     23  C   UNL A   1      33.254  20.358  25.694  1.00  0.00     0.098 C 
BRANCH  23  24
ATOM     24  C   UNL A   1      32.209  21.179  24.864  1.00  0.00    -0.035 A 
ATOM     25  C   UNL A   1      31.435  22.158  25.494  1.00  0.00     0.005 A 
ATOM     26  C   UNL A   1      32.371  21.224  23.457  1.00  0.00     0.005 A 
ATOM     27  C   UNL A   1      30.944  23.228  24.745  1.00  0.00     0.000 A 
ATOM     28  C   UNL A   1      31.913  22.312  22.726  1.00  0.00     0.000 A 
ATOM     29  C   UNL A   1      31.218  23.325  23.377  1.00  0.00     0.000 A 
ENDBRANCH  23  24
BRANCH  23  30
ATOM     30  C   UNL A   1      33.306  18.902  25.169  1.00  0.00    -0.035 A 
ATOM     31  C   UNL A   1      32.645  17.841  25.809  1.00  0.00     0.005 A 
ATOM     32  C   UNL A   1      34.247  18.512  24.190  1.00  0.00     0.005 A 
ATOM     33  C   UNL A   1      32.889  16.486  25.499  1.00  0.00     0.000 A 
ATOM     34  C   UNL A   1      34.463  17.158  23.844  1.00  0.00     0.000 A 
ATOM     35  C   UNL A   1      33.786  16.143  24.505  1.00  0.00     0.000 A 
ENDBRANCH  23  30
ENDBRANCH  19  23
ENDBRANCH  10  12
ENDBRANCH   8  10
ENDBRANCH   7   8
ENDBRANCH   6   7
ENDBRANCH   5   6
ENDBRANCH   4   5
ENDBRANCH   3   4
ENDBRANCH   2   3
ENDBRANCH   1   2
BRANCH   1  36
ATOM     36  C   UNL A   1      46.968  25.716  24.879  1.00  0.00     0.188 C 
BRANCH  36  37
ATOM     37  C   UNL A   1      48.172  25.611  25.824  1.00  0.00     0.188 C 
BRANCH  37  38
ATOM     38  O   UNL A   1      47.922  26.168  27.116  1.00  0.00    -0.376 OA
BRANCH  38  39
ATOM     39  C   UNL A   1      47.936  25.209  28.180  1.00  0.00     0.202 C 
BRANCH  39  40
ATOM     40  C   UNL A   1      46.982  25.556  29.334  1.00  0.00     0.261 C 
BRANCH  40  41
ATOM     41  O   UNL A   1      47.450  26.652  30.147  1.00  0.00    -0.460 OA
BRANCH  41  42
ATOM     42  C   UNL A   1      48.061  26.261  31.295  1.00  0.00     0.338 C 
ATOM     43  O   UNL A   1      48.950  25.422  31.381  1.00  0.00    -0.246 OA
BRANCH  42  44
ATOM     44  C   UNL A   1      47.424  26.861  32.490  1.00  0.00     0.060 A 
ATOM     45  C   UNL A   1      46.448  26.201  33.240  1.00  0.00     0.016 A 
ATOM     46  C   UNL A   1      47.787  28.165  32.835  1.00  0.00     0.016 A 
ATOM     47  C   UNL A   1      45.827  26.845  34.324  1.00  0.00     0.010 A 
ATOM     48  C   UNL A   1      47.200  28.793  33.939  1.00  0.00     0.010 A 
ATOM     49  C   UNL A   1      46.176  28.160  34.667  1.00  0.00    -0.014 A 
BRANCH  49  50
ATOM     50  C   UNL A   1      45.315  28.980  35.575  1.00  0.00     0.031 A 
ATOM     51  C   UNL A   1      44.063  29.584  34.983  1.00  0.00     0.074 A 
ATOM     52  C   UNL A   1      45.586  29.194  36.879  1.00  0.00     0.049 A 
ATOM     53  N   UNL A   1      43.197  30.406  35.516  1.00  0.00    -0.248 NA
ATOM     54  C   UNL A   1      43.755  29.211  33.590  1.00  0.00     0.031 C 
ATOM     55  C   UNL A   1      46.716  28.640  37.619  1.00  0.00     0.029 A 
ATOM     56  N   UNL A   1      44.919  29.951  37.818  1.00  0.00    -0.354 N 
ATOM     57  C   UNL A   1      42.282  30.689  34.509  1.00  0.00     0.074 A 
ATOM     58  C   UNL A   1      42.711  29.977  33.328  1.00  0.00     0.031 C 
ATOM     59  C   UNL A   1      46.677  29.087  38.888  1.00  0.00     0.029 A 
ATOM     60  C   UNL A   1      45.521  29.967  39.057  1.00  0.00     0.049 A 
ATOM     61  H   UNL A   1      44.086  30.438  37.620  1.00  0.00     0.167 HD
ATOM     62  C   UNL A   1      41.159  31.442  34.557  1.00  0.00     0.034 A 
ATOM     63  C   UNL A   1      45.176  30.611  40.194  1.00  0.00     0.034 A 
ATOM     64  C   UNL A   1      40.669  32.090  35.737  1.00  0.00     0.049 A 
ATOM     65  C   UNL A   1      43.922  31.456  40.222  1.00  0.00     0.074 A 
ATOM     66  C   UNL A   1      39.524  32.852  35.887  1.00  0.00     0.029 A 
ATOM     67  N   UNL A   1      41.289  32.044  36.975  1.00  0.00    -0.354 N 
ATOM     68  N   UNL A   1      43.027  31.641  39.283  1.00  0.00    -0.248 NA
ATOM     69  C   UNL A   1      43.614  32.154  41.482  1.00  0.00     0.031 C 
ATOM     70  C   UNL A   1      39.456  33.274  37.219  1.00  0.00     0.029 A 
ATOM     71  C   UNL A   1      40.550  32.761  37.897  1.00  0.00     0.049 A 
ATOM     72  H   UNL A   1      42.129  31.571  37.168  1.00  0.00     0.167 HD
ATOM     73  C   UNL A   1      42.033  32.436  39.850  1.00  0.00     0.074 A 
ATOM     74  C   UNL A   1      42.426  32.683  41.221  1.00  0.00     0.031 C 
ATOM     75  C   UNL A   1      40.906  32.931  39.282  1.00  0.00     0.034 A 
BRANCH  62  76
ATOM     76  C   UNL A   1      40.378  31.574  33.279  1.00  0.00     0.023 A 
ATOM     77  C   UNL A   1      40.584  32.691  32.444  1.00  0.00     0.012 A 
ATOM     78  C   UNL A   1      39.421  30.607  32.922  1.00  0.00     0.148 A 
ATOM     79  C   UNL A   1      39.810  32.870  31.299  1.00  0.00     0.002 A 
ATOM     80  C   UNL A   1      38.685  30.769  31.756  1.00  0.00     0.091 A 
ATOM     81  F   UNL A   1      39.226  29.566  33.745  1.00  0.00    -0.205 F 
ATOM     82  C   UNL A   1      38.865  31.907  30.954  1.00  0.00     0.022 A 
BRANCH  80  83
ATOM     83  S   UNL A   1      37.492  29.552  31.193  1.00  0.00     0.127 S 
ATOM     84  O   UNL A   1      36.874  30.244  30.063  1.00  0.00    -0.237 OA
ATOM     85  O   UNL A   1      38.352  28.427  30.824  1.00  0.00    -0.237 OA
ATOM     86  O   UNL A   1      36.615  29.296  32.327  1.00  0.00    -0.744 OA
ENDBRANCH  80  83
ENDBRANCH  62  76
BRANCH  63  87
ATOM     87  C   UNL A   1      45.987  30.453  41.442  1.00  0.00     0.023 A 
ATOM     88  C   UNL A   1      45.676  29.409  42.339  1.00  0.00     0.012 A 
ATOM     89  C   UNL A   1      47.022  31.349  41.770  1.00  0.00     0.148 A 
ATOM     90  C   UNL A   1      46.348  29.289  43.557  1.00  0.00     0.002 A 
ATOM     91  C   UNL A   1      47.722  31.192  42.962  1.00  0.00     0.091 A 
ATOM     92  F   UNL A   1      47.292  32.347  40.918  1.00  0.00    -0.205 F 
ATOM     93  C   UNL A   1      47.375  30.176  43.865  1.00  0.00     0.022 A 
BRANCH  91  94
ATOM     94  S   UNL A   1      49.130  32.220  43.396  1.00  0.00     0.127 S 
ATOM     95  O   UNL A   1      49.634  31.553  44.593  1.00  0.00    -0.237 OA
ATOM     96  O   UNL A   1      49.979  32.086  42.211  1.00  0.00    -0.237 OA
ATOM     97  O   UNL A   1      48.589  33.559  43.594  1.00  0.00    -0.744 OA
ENDBRANCH  91  94
ENDBRANCH  63  87
BRANCH  75  98
ATOM     98  C   UNL A   1      39.975  33.753  40.133  1.00  0.00     0.023 A 
ATOM     99  C   UNL A   1      40.074  35.158  40.123  1.00  0.00     0.012 A 
ATOM    100  C   UNL A   1      38.922  33.140  40.843  1.00  0.00     0.148 A 
ATOM    101  C   UNL A   1      39.152  35.939  40.820  1.00  0.00     0.002 A 
ATOM    102  C   UNL A   1      37.979  33.925  41.495  1.00  0.00     0.091 A 
ATOM    103  F   UNL A   1      38.856  31.800  40.858  1.00  0.00    -0.205 F 
ATOM    104  C   UNL A   1      38.098  35.325  41.491  1.00  0.00     0.022 A 
BRANCH 102 105
ATOM    105  S   UNL A   1      36.530  33.224  42.292  1.00  0.00     0.127 S 
ATOM    106  O   UNL A   1      37.135  32.363  43.308  1.00  0.00    -0.237 OA
ATOM    107  O   UNL A   1      35.858  34.411  42.821  1.00  0.00    -0.237 OA
ATOM    108  O   UNL A   1      35.793  32.531  41.244  1.00  0.00    -0.744 OA
ENDBRANCH 102 105
ENDBRANCH  75  98
ENDBRANCH  49  50
ENDBRANCH  42  44
ENDBRANCH  41  42
ENDBRANCH  40  41
ENDBRANCH  39  40
ENDBRANCH  38  39
ENDBRANCH  37  38
ENDBRANCH  36  37
ENDBRANCH   1  36
TORSDOF 27
ENDMDL
