MODEL 1
REMARK VINA RESULT:     -10.8      0.000      0.000
REMARK SMILES C[C@H]1CCc2sc3ncn4nc(/C=C\C(=O)OCCOCCOCCOCCOC(=O)c5ccc(-c6c7nc(c(-c8cccc(S(=O)(=O)[O-])c8F)c8ccc([nH]8)c(-c8cccc(S(=O)(=O)[O-])c8F)c8nc(c(-c9cccc(S(=O)(=O)[O-])c9F)c9ccc6[nH]9)C=C8)C=C7)cc5)nc4c3c2C1
REMARK SMILES IDX 24 1 23 2 22 3 21 4 20 5 19 6 18 7 17 8 15 9 16 10 14 11
REMARK SMILES IDX 13 12 12 13 1 14 2 15 3 16 99 17 4 18 98 19 5 20 97 21 6 22
REMARK SMILES IDX 7 23 96 24 8 25 10 26 95 27 9 28 11 29 25 30 26 31 27 32
REMARK SMILES IDX 28 33 29 34 30 35 31 36 32 37 33 38 94 39 34 40 93 41 35 42
REMARK SMILES IDX 36 43 37 44 87 45 38 46 92 47 86 48 88 49 39 50 91 51 85 52
REMARK SMILES IDX 84 53 40 55 72 56 52 57 71 58 53 59 56 60 70 61 89 62 54 63
REMARK SMILES IDX 55 64 69 66 90 67 57 68 41 69 42 70 50 71 43 72 45 73 51 74
REMARK SMILES IDX 44 75 46 76 47 77 48 78 49 79 73 80 74 81 82 82 75 83 77 84
REMARK SMILES IDX 83 85 76 86 78 87 79 88 80 89 81 90 58 91 59 92 67 93 60 94
REMARK SMILES IDX 62 95 68 96 61 97 63 98 64 99 65 100 66 101
REMARK H PARENT 88 54 56 65
REMARK Flexibility Score: inf
ROOT
ATOM      1  C   UNL A   1      45.191  19.534  24.787  1.00  0.00     0.188 C 
ENDROOT
BRANCH   1   2
ATOM      2  O   UNL A   1      43.915  20.096  25.028  1.00  0.00    -0.377 OA
BRANCH   2   3
ATOM      3  C   UNL A   1      42.877  19.187  25.368  1.00  0.00     0.188 C 
BRANCH   3   4
ATOM      4  C   UNL A   1      42.774  18.672  26.823  1.00  0.00     0.188 C 
BRANCH   4   5
ATOM      5  O   UNL A   1      41.808  19.359  27.606  1.00  0.00    -0.376 OA
BRANCH   5   6
ATOM      6  C   UNL A   1      41.912  20.772  27.655  1.00  0.00     0.202 C 
BRANCH   6   7
ATOM      7  C   UNL A   1      40.601  21.479  27.355  1.00  0.00     0.261 C 
BRANCH   7   8
ATOM      8  O   UNL A   1      39.787  20.837  26.380  1.00  0.00    -0.460 OA
BRANCH   8   9
ATOM      9  C   UNL A   1      38.868  21.539  25.713  1.00  0.00     0.330 C 
ATOM     10  O   UNL A   1      38.064  21.093  24.906  1.00  0.00    -0.247 OA
BRANCH   9  11
ATOM     11  C   UNL A   1      38.805  22.918  26.241  1.00  0.00     0.097 C 
ATOM     12  C   UNL A   1      37.778  23.786  26.313  1.00  0.00     0.058 C 
BRANCH  12  13
ATOM     13  C   UNL A   1      36.391  23.686  25.966  1.00  0.00     0.175 A 
ATOM     14  C   UNL A   1      33.373  28.729  22.595  1.00  0.00     0.008 C 
ATOM     15  C   UNL A   1      33.033  28.638  24.085  1.00  0.00    -0.009 C 
ATOM     16  C   UNL A   1      31.518  28.720  24.357  1.00  0.00     0.009 C 
ATOM     17  C   UNL A   1      33.643  27.373  24.709  1.00  0.00     0.041 C 
ATOM     18  C   UNL A   1      30.734  27.478  23.885  1.00  0.00     0.047 C 
ATOM     19  C   UNL A   1      32.790  26.162  24.619  1.00  0.00    -0.020 A 
ATOM     20  C   UNL A   1      31.461  26.219  24.254  1.00  0.00     0.011 A 
ATOM     21  C   UNL A   1      33.173  24.836  24.915  1.00  0.00     0.060 A 
ATOM     22  S   UNL A   1      30.726  24.677  24.225  1.00  0.00    -0.120 S 
ATOM     23  C   UNL A   1      32.166  23.900  24.740  1.00  0.00     0.129 A 
ATOM     24  C   UNL A   1      34.455  24.261  25.367  1.00  0.00     0.168 A 
ATOM     25  N   UNL A   1      32.247  22.539  24.928  1.00  0.00    -0.225 NA
ATOM     26  N   UNL A   1      34.491  22.918  25.581  1.00  0.00    -0.201 N 
ATOM     27  N   UNL A   1      35.638  24.777  25.587  1.00  0.00    -0.207 NA
ATOM     28  C   UNL A   1      33.399  22.080  25.355  1.00  0.00     0.227 A 
ATOM     29  N   UNL A   1      35.719  22.519  25.965  1.00  0.00    -0.145 NA
ENDBRANCH  12  13
ENDBRANCH   9  11
ENDBRANCH   8   9
ENDBRANCH   7   8
ENDBRANCH   6   7
ENDBRANCH   5   6
ENDBRANCH   4   5
ENDBRANCH   3   4
ENDBRANCH   2   3
ENDBRANCH   1   2
BRANCH   1  30
ATOM     30  C   UNL A   1      46.314  20.583  24.647  1.00  0.00     0.188 C 
BRANCH  30  31
ATOM     31  O   UNL A   1      46.301  21.847  25.309  1.00  0.00    -0.376 OA
BRANCH  31  32
ATOM     32  C   UNL A   1      46.344  23.099  24.641  1.00  0.00     0.202 C 
BRANCH  32  33
ATOM     33  C   UNL A   1      45.390  24.254  24.920  1.00  0.00     0.261 C 
BRANCH  33  34
ATOM     34  O   UNL A   1      44.462  24.014  25.945  1.00  0.00    -0.460 OA
BRANCH  34  35
ATOM     35  C   UNL A   1      43.220  23.818  25.503  1.00  0.00     0.338 C 
ATOM     36  O   UNL A   1      42.872  23.263  24.456  1.00  0.00    -0.246 OA
BRANCH  35  37
ATOM     37  C   UNL A   1      42.307  24.488  26.415  1.00  0.00     0.060 A 
ATOM     38  C   UNL A   1      41.517  25.490  25.855  1.00  0.00     0.016 A 
ATOM     39  C   UNL A   1      42.543  24.382  27.797  1.00  0.00     0.016 A 
ATOM     40  C   UNL A   1      41.212  26.562  26.648  1.00  0.00     0.010 A 
ATOM     41  C   UNL A   1      42.252  25.460  28.583  1.00  0.00     0.010 A 
ATOM     42  C   UNL A   1      41.692  26.571  27.964  1.00  0.00    -0.014 A 
BRANCH  42  43
ATOM     43  C   UNL A   1      41.534  27.789  28.714  1.00  0.00     0.031 A 
ATOM     44  C   UNL A   1      42.563  28.770  28.350  1.00  0.00     0.074 A 
ATOM     45  C   UNL A   1      40.530  27.967  29.590  1.00  0.00     0.049 A 
ATOM     46  N   UNL A   1      43.631  29.053  29.016  1.00  0.00    -0.248 NA
ATOM     47  C   UNL A   1      42.535  29.318  26.985  1.00  0.00     0.031 C 
ATOM     48  C   UNL A   1      39.328  27.137  29.744  1.00  0.00     0.029 A 
ATOM     49  N   UNL A   1      40.298  29.007  30.436  1.00  0.00    -0.354 N 
ATOM     50  C   UNL A   1      44.228  30.066  28.280  1.00  0.00     0.074 A 
ATOM     51  C   UNL A   1      43.694  29.977  26.948  1.00  0.00     0.031 C 
ATOM     52  C   UNL A   1      38.391  27.842  30.418  1.00  0.00     0.029 A 
ATOM     53  C   UNL A   1      38.980  29.089  30.872  1.00  0.00     0.049 A 
ATOM     54  H   UNL A   1      40.998  29.641  30.714  1.00  0.00     0.167 HD
ATOM     55  C   UNL A   1      44.781  31.127  28.925  1.00  0.00     0.034 A 
ATOM     56  C   UNL A   1      38.418  30.159  31.483  1.00  0.00     0.034 A 
ATOM     57  C   UNL A   1      44.941  30.860  30.330  1.00  0.00     0.049 A 
ATOM     58  C   UNL A   1      39.516  30.937  32.101  1.00  0.00     0.074 A 
ATOM     59  C   UNL A   1      45.805  30.152  31.133  1.00  0.00     0.029 A 
ATOM     60  N   UNL A   1      43.803  31.094  31.057  1.00  0.00    -0.354 N 
ATOM     61  N   UNL A   1      40.252  30.487  33.079  1.00  0.00    -0.248 NA
ATOM     62  C   UNL A   1      40.033  32.119  31.417  1.00  0.00     0.031 C 
ATOM     63  C   UNL A   1      45.105  29.892  32.348  1.00  0.00     0.029 A 
ATOM     64  C   UNL A   1      43.841  30.470  32.274  1.00  0.00     0.049 A 
ATOM     65  H   UNL A   1      43.050  31.646  30.742  1.00  0.00     0.167 HD
ATOM     66  C   UNL A   1      41.497  31.031  32.827  1.00  0.00     0.074 A 
ATOM     67  C   UNL A   1      41.262  32.158  31.938  1.00  0.00     0.031 C 
ATOM     68  C   UNL A   1      42.635  30.319  33.059  1.00  0.00     0.034 A 
BRANCH  55  69
ATOM     69  C   UNL A   1      44.727  32.547  28.417  1.00  0.00     0.023 A 
ATOM     70  C   UNL A   1      43.481  33.203  28.474  1.00  0.00     0.012 A 
ATOM     71  C   UNL A   1      45.746  33.175  27.661  1.00  0.00     0.148 A 
ATOM     72  C   UNL A   1      43.264  34.419  27.817  1.00  0.00     0.002 A 
ATOM     73  C   UNL A   1      45.557  34.428  27.094  1.00  0.00     0.091 A 
ATOM     74  F   UNL A   1      46.860  32.506  27.351  1.00  0.00    -0.205 F 
ATOM     75  C   UNL A   1      44.308  35.043  27.145  1.00  0.00     0.022 A 
BRANCH  73  76
ATOM     76  S   UNL A   1      46.898  35.301  26.276  1.00  0.00     0.127 S 
ATOM     77  O   UNL A   1      46.289  36.600  26.015  1.00  0.00    -0.237 OA
ATOM     78  O   UNL A   1      47.931  35.296  27.314  1.00  0.00    -0.237 OA
ATOM     79  O   UNL A   1      47.230  34.498  25.105  1.00  0.00    -0.744 OA
ENDBRANCH  73  76
ENDBRANCH  55  69
BRANCH  56  80
ATOM     80  C   UNL A   1      37.067  30.747  31.324  1.00  0.00     0.023 A 
ATOM     81  C   UNL A   1      36.440  31.314  32.454  1.00  0.00     0.012 A 
ATOM     82  C   UNL A   1      36.563  31.072  30.046  1.00  0.00     0.148 A 
ATOM     83  C   UNL A   1      35.404  32.243  32.314  1.00  0.00     0.002 A 
ATOM     84  C   UNL A   1      35.534  32.000  29.914  1.00  0.00     0.091 A 
ATOM     85  F   UNL A   1      37.157  30.552  28.965  1.00  0.00    -0.205 F 
ATOM     86  C   UNL A   1      34.966  32.601  31.044  1.00  0.00     0.022 A 
BRANCH  84  87
ATOM     87  S   UNL A   1      34.947  32.556  28.307  1.00  0.00     0.127 S 
ATOM     88  O   UNL A   1      34.479  31.306  27.707  1.00  0.00    -0.237 OA
ATOM     89  O   UNL A   1      33.889  33.489  28.683  1.00  0.00    -0.237 OA
ATOM     90  O   UNL A   1      36.104  33.143  27.643  1.00  0.00    -0.744 OA
ENDBRANCH  84  87
ENDBRANCH  56  80
BRANCH  68  91
ATOM     91  C   UNL A   1      42.583  29.216  34.071  1.00  0.00     0.023 A 
ATOM     92  C   UNL A   1      41.909  27.998  33.857  1.00  0.00     0.012 A 
ATOM     93  C   UNL A   1      43.338  29.383  35.244  1.00  0.00     0.148 A 
ATOM     94  C   UNL A   1      41.986  26.970  34.802  1.00  0.00     0.002 A 
ATOM     95  C   UNL A   1      43.454  28.343  36.154  1.00  0.00     0.091 A 
ATOM     96  F   UNL A   1      43.951  30.561  35.437  1.00  0.00    -0.205 F 
ATOM     97  C   UNL A   1      42.772  27.136  35.942  1.00  0.00     0.022 A 
BRANCH  95  98
ATOM     98  S   UNL A   1      44.552  28.463  37.567  1.00  0.00     0.127 S 
ATOM     99  O   UNL A   1      44.118  29.712  38.187  1.00  0.00    -0.237 OA
ATOM    100  O   UNL A   1      44.222  27.254  38.324  1.00  0.00    -0.237 OA
ATOM    101  O   UNL A   1      45.905  28.470  37.023  1.00  0.00    -0.744 OA
ENDBRANCH  95  98
ENDBRANCH  68  91
ENDBRANCH  42  43
ENDBRANCH  35  37
ENDBRANCH  34  35
ENDBRANCH  33  34
ENDBRANCH  32  33
ENDBRANCH  31  32
ENDBRANCH  30  31
ENDBRANCH   1  30
TORSDOF 24
ENDMDL
MODEL 2
REMARK VINA RESULT:      -9.5      3.018      9.649
REMARK SMILES C[C@H]1CCc2sc3ncn4nc(/C=C\C(=O)OCCOCCOCCOCCOC(=O)c5ccc(-c6c7nc(c(-c8cccc(S(=O)(=O)[O-])c8F)c8ccc([nH]8)c(-c8cccc(S(=O)(=O)[O-])c8F)c8nc(c(-c9cccc(S(=O)(=O)[O-])c9F)c9ccc6[nH]9)C=C8)C=C7)cc5)nc4c3c2C1
REMARK SMILES IDX 24 1 23 2 22 3 21 4 20 5 19 6 18 7 17 8 15 9 16 10 14 11
REMARK SMILES IDX 13 12 12 13 1 14 2 15 3 16 99 17 4 18 98 19 5 20 97 21 6 22
REMARK SMILES IDX 7 23 96 24 8 25 10 26 95 27 9 28 11 29 25 30 26 31 27 32
REMARK SMILES IDX 28 33 29 34 30 35 31 36 32 37 33 38 94 39 34 40 93 41 35 42
REMARK SMILES IDX 36 43 37 44 87 45 38 46 92 47 86 48 88 49 39 50 91 51 85 52
REMARK SMILES IDX 84 53 40 55 72 56 52 57 71 58 53 59 56 60 70 61 89 62 54 63
REMARK SMILES IDX 55 64 69 66 90 67 57 68 41 69 42 70 50 71 43 72 45 73 51 74
REMARK SMILES IDX 44 75 46 76 47 77 48 78 49 79 73 80 74 81 82 82 75 83 77 84
REMARK SMILES IDX 83 85 76 86 78 87 79 88 80 89 81 90 58 91 59 92 67 93 60 94
REMARK SMILES IDX 62 95 68 96 61 97 63 98 64 99 65 100 66 101
REMARK H PARENT 88 54 56 65
REMARK Flexibility Score: inf
ROOT
ATOM      1  C   UNL A   1      34.462  31.074  27.651  1.00  0.00     0.188 C 
ENDROOT
BRANCH   1   2
ATOM      2  O   UNL A   1      33.186  30.869  27.077  1.00  0.00    -0.377 OA
BRANCH   2   3
ATOM      3  C   UNL A   1      32.952  29.597  26.491  1.00  0.00     0.188 C 
BRANCH   3   4
ATOM      4  C   UNL A   1      31.747  28.756  26.974  1.00  0.00     0.188 C 
BRANCH   4   5
ATOM      5  O   UNL A   1      31.962  27.353  26.904  1.00  0.00    -0.376 OA
BRANCH   5   6
ATOM      6  C   UNL A   1      30.899  26.566  26.395  1.00  0.00     0.202 C 
BRANCH   6   7
ATOM      7  C   UNL A   1      31.294  25.735  25.187  1.00  0.00     0.261 C 
BRANCH   7   8
ATOM      8  O   UNL A   1      30.526  25.983  24.015  1.00  0.00    -0.460 OA
BRANCH   8   9
ATOM      9  C   UNL A   1      30.823  27.021  23.230  1.00  0.00     0.330 C 
ATOM     10  O   UNL A   1      30.894  28.192  23.577  1.00  0.00    -0.247 OA
BRANCH   9  11
ATOM     11  C   UNL A   1      31.269  26.541  21.905  1.00  0.00     0.097 C 
ATOM     12  C   UNL A   1      32.220  25.650  21.567  1.00  0.00     0.058 C 
BRANCH  12  13
ATOM     13  C   UNL A   1      33.095  24.818  22.340  1.00  0.00     0.175 A 
ATOM     14  C   UNL A   1      32.486  18.077  22.053  1.00  0.00     0.008 C 
ATOM     15  C   UNL A   1      31.945  18.733  23.325  1.00  0.00    -0.009 C 
ATOM     16  C   UNL A   1      32.428  18.031  24.610  1.00  0.00     0.009 C 
ATOM     17  C   UNL A   1      32.277  20.233  23.352  1.00  0.00     0.041 C 
ATOM     18  C   UNL A   1      33.930  18.225  24.896  1.00  0.00     0.047 C 
ATOM     19  C   UNL A   1      33.593  20.567  23.949  1.00  0.00    -0.020 A 
ATOM     20  C   UNL A   1      34.336  19.650  24.663  1.00  0.00     0.011 A 
ATOM     21  C   UNL A   1      34.240  21.822  23.918  1.00  0.00     0.060 A 
ATOM     22  S   UNL A   1      35.811  20.302  25.227  1.00  0.00    -0.120 S 
ATOM     23  C   UNL A   1      35.468  21.845  24.560  1.00  0.00     0.129 A 
ATOM     24  C   UNL A   1      33.853  23.112  23.316  1.00  0.00     0.168 A 
ATOM     25  N   UNL A   1      36.332  22.911  24.675  1.00  0.00    -0.225 NA
ATOM     26  N   UNL A   1      34.709  24.156  23.481  1.00  0.00    -0.201 N 
ATOM     27  N   UNL A   1      32.830  23.489  22.591  1.00  0.00    -0.207 NA
ATOM     28  C   UNL A   1      35.931  24.042  24.146  1.00  0.00     0.227 A 
ATOM     29  N   UNL A   1      34.253  25.263  22.866  1.00  0.00    -0.145 NA
ENDBRANCH  12  13
ENDBRANCH   9  11
ENDBRANCH   8   9
ENDBRANCH   7   8
ENDBRANCH   6   7
ENDBRANCH   5   6
ENDBRANCH   4   5
ENDBRANCH   3   4
ENDBRANCH   2   3
ENDBRANCH   1   2
BRANCH   1  30
ATOM     30  C   UNL A   1      34.813  32.561  27.870  1.00  0.00     0.188 C 
BRANCH  30  31
ATOM     31  O   UNL A   1      36.121  33.025  28.198  1.00  0.00    -0.376 OA
BRANCH  31  32
ATOM     32  C   UNL A   1      36.394  34.024  29.168  1.00  0.00     0.202 C 
BRANCH  32  33
ATOM     33  C   UNL A   1      37.233  33.800  30.420  1.00  0.00     0.261 C 
BRANCH  33  34
ATOM     34  O   UNL A   1      36.492  33.563  31.588  1.00  0.00    -0.460 OA
BRANCH  34  35
ATOM     35  C   UNL A   1      35.807  32.418  31.559  1.00  0.00     0.338 C 
ATOM     36  O   UNL A   1      34.597  32.269  31.362  1.00  0.00    -0.246 OA
BRANCH  35  37
ATOM     37  C   UNL A   1      36.714  31.344  31.928  1.00  0.00     0.060 A 
ATOM     38  C   UNL A   1      37.846  31.725  32.647  1.00  0.00     0.016 A 
ATOM     39  C   UNL A   1      36.621  30.122  31.240  1.00  0.00     0.016 A 
ATOM     40  C   UNL A   1      38.995  31.019  32.423  1.00  0.00     0.010 A 
ATOM     41  C   UNL A   1      37.774  29.427  31.005  1.00  0.00     0.010 A 
ATOM     42  C   UNL A   1      38.954  29.956  31.512  1.00  0.00    -0.014 A 
BRANCH  42  43
ATOM     43  C   UNL A   1      40.209  29.357  31.142  1.00  0.00     0.031 A 
ATOM     44  C   UNL A   1      41.006  29.024  32.329  1.00  0.00     0.074 A 
ATOM     45  C   UNL A   1      40.539  29.116  29.861  1.00  0.00     0.049 A 
ATOM     46  N   UNL A   1      42.003  29.692  32.802  1.00  0.00    -0.248 NA
ATOM     47  C   UNL A   1      40.492  27.979  33.228  1.00  0.00     0.031 C 
ATOM     48  C   UNL A   1      39.649  29.152  28.693  1.00  0.00     0.029 A 
ATOM     49  N   UNL A   1      41.708  28.651  29.344  1.00  0.00    -0.354 N 
ATOM     50  C   UNL A   1      42.430  28.937  33.884  1.00  0.00     0.074 A 
ATOM     51  C   UNL A   1      41.325  28.099  34.263  1.00  0.00     0.031 C 
ATOM     52  C   UNL A   1      40.232  28.477  27.676  1.00  0.00     0.029 A 
ATOM     53  C   UNL A   1      41.580  28.109  28.070  1.00  0.00     0.049 A 
ATOM     54  H   UNL A   1      42.565  28.695  29.827  1.00  0.00     0.167 HD
ATOM     55  C   UNL A   1      43.761  28.773  34.104  1.00  0.00     0.034 A 
ATOM     56  C   UNL A   1      42.503  27.339  27.446  1.00  0.00     0.034 A 
ATOM     57  C   UNL A   1      44.538  29.705  33.330  1.00  0.00     0.049 A 
ATOM     58  C   UNL A   1      43.816  27.647  28.056  1.00  0.00     0.074 A 
ATOM     59  C   UNL A   1      44.876  31.037  33.394  1.00  0.00     0.029 A 
ATOM     60  N   UNL A   1      44.763  29.285  32.046  1.00  0.00    -0.354 N 
ATOM     61  N   UNL A   1      44.398  28.811  27.958  1.00  0.00    -0.248 NA
ATOM     62  C   UNL A   1      44.363  26.755  29.074  1.00  0.00     0.031 C 
ATOM     63  C   UNL A   1      45.233  31.426  32.069  1.00  0.00     0.029 A 
ATOM     64  C   UNL A   1      45.133  30.320  31.230  1.00  0.00     0.049 A 
ATOM     65  H   UNL A   1      44.671  28.351  31.746  1.00  0.00     0.167 HD
ATOM     66  C   UNL A   1      45.045  28.955  29.170  1.00  0.00     0.074 A 
ATOM     67  C   UNL A   1      45.157  27.613  29.719  1.00  0.00     0.031 C 
ATOM     68  C   UNL A   1      45.110  30.165  29.792  1.00  0.00     0.034 A 
BRANCH  55  69
ATOM     69  C   UNL A   1      44.382  27.495  34.612  1.00  0.00     0.023 A 
ATOM     70  C   UNL A   1      45.479  27.618  35.490  1.00  0.00     0.012 A 
ATOM     71  C   UNL A   1      44.127  26.206  34.085  1.00  0.00     0.148 A 
ATOM     72  C   UNL A   1      46.274  26.517  35.826  1.00  0.00     0.002 A 
ATOM     73  C   UNL A   1      44.856  25.100  34.499  1.00  0.00     0.091 A 
ATOM     74  F   UNL A   1      43.278  26.055  33.065  1.00  0.00    -0.205 F 
ATOM     75  C   UNL A   1      45.949  25.253  35.349  1.00  0.00     0.022 A 
BRANCH  73  76
ATOM     76  S   UNL A   1      44.430  23.438  33.960  1.00  0.00     0.127 S 
ATOM     77  O   UNL A   1      43.011  23.374  34.294  1.00  0.00    -0.237 OA
ATOM     78  O   UNL A   1      44.729  23.506  32.529  1.00  0.00    -0.237 OA
ATOM     79  O   UNL A   1      45.308  22.548  34.709  1.00  0.00    -0.744 OA
ENDBRANCH  73  76
ENDBRANCH  55  69
BRANCH  56  80
ATOM     80  C   UNL A   1      42.325  26.140  26.593  1.00  0.00     0.023 A 
ATOM     81  C   UNL A   1      43.157  25.985  25.464  1.00  0.00     0.012 A 
ATOM     82  C   UNL A   1      41.623  25.011  27.066  1.00  0.00     0.148 A 
ATOM     83  C   UNL A   1      43.354  24.730  24.880  1.00  0.00     0.002 A 
ATOM     84  C   UNL A   1      41.826  23.764  26.483  1.00  0.00     0.091 A 
ATOM     85  F   UNL A   1      40.840  25.140  28.145  1.00  0.00    -0.205 F 
ATOM     86  C   UNL A   1      42.705  23.616  25.403  1.00  0.00     0.022 A 
BRANCH  84  87
ATOM     87  S   UNL A   1      41.067  22.268  27.132  1.00  0.00     0.127 S 
ATOM     88  O   UNL A   1      41.689  22.161  28.452  1.00  0.00    -0.237 OA
ATOM     89  O   UNL A   1      39.654  22.634  27.148  1.00  0.00    -0.237 OA
ATOM     90  O   UNL A   1      41.435  21.203  26.208  1.00  0.00    -0.744 OA
ENDBRANCH  84  87
ENDBRANCH  56  80
BRANCH  68  91
ATOM     91  C   UNL A   1      44.990  31.399  28.950  1.00  0.00     0.023 A 
ATOM     92  C   UNL A   1      43.801  32.145  28.832  1.00  0.00     0.012 A 
ATOM     93  C   UNL A   1      46.162  31.876  28.339  1.00  0.00     0.148 A 
ATOM     94  C   UNL A   1      43.787  33.344  28.111  1.00  0.00     0.002 A 
ATOM     95  C   UNL A   1      46.155  33.090  27.669  1.00  0.00     0.091 A 
ATOM     96  F   UNL A   1      47.275  31.135  28.445  1.00  0.00    -0.205 F 
ATOM     97  C   UNL A   1      44.967  33.825  27.544  1.00  0.00     0.022 A 
BRANCH  95  98
ATOM     98  S   UNL A   1      47.671  33.810  27.034  1.00  0.00     0.127 S 
ATOM     99  O   UNL A   1      47.185  35.031  26.396  1.00  0.00    -0.237 OA
ATOM    100  O   UNL A   1      48.451  34.022  28.254  1.00  0.00    -0.237 OA
ATOM    101  O   UNL A   1      48.240  32.815  26.133  1.00  0.00    -0.744 OA
ENDBRANCH  95  98
ENDBRANCH  68  91
ENDBRANCH  42  43
ENDBRANCH  35  37
ENDBRANCH  34  35
ENDBRANCH  33  34
ENDBRANCH  32  33
ENDBRANCH  31  32
ENDBRANCH  30  31
ENDBRANCH   1  30
TORSDOF 24
ENDMDL
MODEL 3
REMARK VINA RESULT:      -9.3      3.199     10.204
REMARK SMILES C[C@H]1CCc2sc3ncn4nc(/C=C\C(=O)OCCOCCOCCOCCOC(=O)c5ccc(-c6c7nc(c(-c8cccc(S(=O)(=O)[O-])c8F)c8ccc([nH]8)c(-c8cccc(S(=O)(=O)[O-])c8F)c8nc(c(-c9cccc(S(=O)(=O)[O-])c9F)c9ccc6[nH]9)C=C8)C=C7)cc5)nc4c3c2C1
REMARK SMILES IDX 24 1 23 2 22 3 21 4 20 5 19 6 18 7 17 8 15 9 16 10 14 11
REMARK SMILES IDX 13 12 12 13 1 14 2 15 3 16 99 17 4 18 98 19 5 20 97 21 6 22
REMARK SMILES IDX 7 23 96 24 8 25 10 26 95 27 9 28 11 29 25 30 26 31 27 32
REMARK SMILES IDX 28 33 29 34 30 35 31 36 32 37 33 38 94 39 34 40 93 41 35 42
REMARK SMILES IDX 36 43 37 44 87 45 38 46 92 47 86 48 88 49 39 50 91 51 85 52
REMARK SMILES IDX 84 53 40 55 72 56 52 57 71 58 53 59 56 60 70 61 89 62 54 63
REMARK SMILES IDX 55 64 69 66 90 67 57 68 41 69 42 70 50 71 43 72 45 73 51 74
REMARK SMILES IDX 44 75 46 76 47 77 48 78 49 79 73 80 74 81 82 82 75 83 77 84
REMARK SMILES IDX 83 85 76 86 78 87 79 88 80 89 81 90 58 91 59 92 67 93 60 94
REMARK SMILES IDX 62 95 68 96 61 97 63 98 64 99 65 100 66 101
REMARK H PARENT 88 54 56 65
REMARK Flexibility Score: inf
ROOT
ATOM      1  C   UNL A   1      37.929  34.485  29.583  1.00  0.00     0.188 C 
ENDROOT
BRANCH   1   2
ATOM      2  O   UNL A   1      37.102  33.367  29.840  1.00  0.00    -0.377 OA
BRANCH   2   3
ATOM      3  C   UNL A   1      35.772  33.645  30.255  1.00  0.00     0.188 C 
BRANCH   3   4
ATOM      4  C   UNL A   1      34.879  34.543  29.366  1.00  0.00     0.188 C 
BRANCH   4   5
ATOM      5  O   UNL A   1      34.725  34.062  28.039  1.00  0.00    -0.376 OA
BRANCH   5   6
ATOM      6  C   UNL A   1      33.440  33.590  27.674  1.00  0.00     0.202 C 
BRANCH   6   7
ATOM      7  C   UNL A   1      33.241  32.112  27.963  1.00  0.00     0.261 C 
BRANCH   7   8
ATOM      8  O   UNL A   1      34.271  31.263  27.469  1.00  0.00    -0.460 OA
BRANCH   8   9
ATOM      9  C   UNL A   1      33.974  30.037  27.035  1.00  0.00     0.330 C 
ATOM     10  O   UNL A   1      34.770  29.198  26.637  1.00  0.00    -0.247 OA
BRANCH   9  11
ATOM     11  C   UNL A   1      32.550  29.739  27.299  1.00  0.00     0.097 C 
ATOM     12  C   UNL A   1      31.715  28.854  26.722  1.00  0.00     0.058 C 
BRANCH  12  13
ATOM     13  C   UNL A   1      31.898  27.862  25.704  1.00  0.00     0.175 A 
ATOM     14  C   UNL A   1      33.672  21.549  27.405  1.00  0.00     0.008 C 
ATOM     15  C   UNL A   1      34.789  22.407  26.805  1.00  0.00    -0.009 C 
ATOM     16  C   UNL A   1      35.566  21.680  25.690  1.00  0.00     0.009 C 
ATOM     17  C   UNL A   1      34.239  23.756  26.313  1.00  0.00     0.041 C 
ATOM     18  C   UNL A   1      34.747  21.468  24.400  1.00  0.00     0.047 C 
ATOM     19  C   UNL A   1      33.734  23.749  24.919  1.00  0.00    -0.020 A 
ATOM     20  C   UNL A   1      33.980  22.708  24.048  1.00  0.00     0.011 A 
ATOM     21  C   UNL A   1      32.995  24.771  24.283  1.00  0.00     0.060 A 
ATOM     22  S   UNL A   1      33.272  22.960  22.513  1.00  0.00    -0.120 S 
ATOM     23  C   UNL A   1      32.652  24.493  22.969  1.00  0.00     0.129 A 
ATOM     24  C   UNL A   1      32.509  26.078  24.767  1.00  0.00     0.168 A 
ATOM     25  N   UNL A   1      31.922  25.282  22.111  1.00  0.00    -0.225 NA
ATOM     26  N   UNL A   1      31.825  26.851  23.882  1.00  0.00    -0.201 N 
ATOM     27  N   UNL A   1      32.564  26.677  25.930  1.00  0.00    -0.207 NA
ATOM     28  C   UNL A   1      31.536  26.445  22.579  1.00  0.00     0.227 A 
ATOM     29  N   UNL A   1      31.418  28.002  24.453  1.00  0.00    -0.145 NA
ENDBRANCH  12  13
ENDBRANCH   9  11
ENDBRANCH   8   9
ENDBRANCH   7   8
ENDBRANCH   6   7
ENDBRANCH   5   6
ENDBRANCH   4   5
ENDBRANCH   3   4
ENDBRANCH   2   3
ENDBRANCH   1   2
BRANCH   1  30
ATOM     30  C   UNL A   1      39.272  34.451  30.342  1.00  0.00     0.188 C 
BRANCH  30  31
ATOM     31  O   UNL A   1      39.392  34.676  31.746  1.00  0.00    -0.376 OA
BRANCH  31  32
ATOM     32  C   UNL A   1      38.307  34.619  32.659  1.00  0.00     0.202 C 
BRANCH  32  33
ATOM     33  C   UNL A   1      38.066  33.474  33.636  1.00  0.00     0.261 C 
BRANCH  33  34
ATOM     34  O   UNL A   1      38.626  32.247  33.251  1.00  0.00    -0.460 OA
BRANCH  34  35
ATOM     35  C   UNL A   1      37.790  31.477  32.552  1.00  0.00     0.338 C 
ATOM     36  O   UNL A   1      36.597  31.257  32.784  1.00  0.00    -0.246 OA
BRANCH  35  37
ATOM     37  C   UNL A   1      38.555  30.818  31.506  1.00  0.00     0.060 A 
ATOM     38  C   UNL A   1      38.255  29.474  31.292  1.00  0.00     0.016 A 
ATOM     39  C   UNL A   1      39.754  31.412  31.077  1.00  0.00     0.016 A 
ATOM     40  C   UNL A   1      39.285  28.656  30.916  1.00  0.00     0.010 A 
ATOM     41  C   UNL A   1      40.785  30.592  30.717  1.00  0.00     0.010 A 
ATOM     42  C   UNL A   1      40.556  29.222  30.753  1.00  0.00    -0.014 A 
BRANCH  42  43
ATOM     43  C   UNL A   1      41.659  28.319  30.557  1.00  0.00     0.031 A 
ATOM     44  C   UNL A   1      42.254  27.926  31.840  1.00  0.00     0.074 A 
ATOM     45  C   UNL A   1      42.026  27.889  29.337  1.00  0.00     0.049 A 
ATOM     46  N   UNL A   1      43.339  28.389  32.362  1.00  0.00    -0.248 NA
ATOM     47  C   UNL A   1      41.435  27.116  32.755  1.00  0.00     0.031 C 
ATOM     48  C   UNL A   1      41.269  28.019  28.085  1.00  0.00     0.029 A 
ATOM     49  N   UNL A   1      43.090  27.121  28.977  1.00  0.00    -0.354 N 
ATOM     50  C   UNL A   1      43.484  27.661  33.534  1.00  0.00     0.074 A 
ATOM     51  C   UNL A   1      42.185  27.138  33.858  1.00  0.00     0.031 C 
ATOM     52  C   UNL A   1      41.756  27.134  27.184  1.00  0.00     0.029 A 
ATOM     53  C   UNL A   1      42.941  26.506  27.739  1.00  0.00     0.049 A 
ATOM     54  H   UNL A   1      43.890  27.012  29.540  1.00  0.00     0.167 HD
ATOM     55  C   UNL A   1      44.715  27.217  33.899  1.00  0.00     0.034 A 
ATOM     56  C   UNL A   1      43.703  25.489  27.270  1.00  0.00     0.034 A 
ATOM     57  C   UNL A   1      45.752  27.869  33.143  1.00  0.00     0.049 A 
ATOM     58  C   UNL A   1      44.998  25.544  27.987  1.00  0.00     0.074 A 
ATOM     59  C   UNL A   1      46.391  29.088  33.144  1.00  0.00     0.029 A 
ATOM     60  N   UNL A   1      45.976  27.289  31.922  1.00  0.00    -0.354 N 
ATOM     61  N   UNL A   1      45.844  26.528  27.863  1.00  0.00    -0.248 NA
ATOM     62  C   UNL A   1      45.232  24.650  29.117  1.00  0.00     0.031 C 
ATOM     63  C   UNL A   1      46.937  29.257  31.838  1.00  0.00     0.029 A 
ATOM     64  C   UNL A   1      46.646  28.130  31.076  1.00  0.00     0.049 A 
ATOM     65  H   UNL A   1      45.690  26.377  31.683  1.00  0.00     0.167 HD
ATOM     66  C   UNL A   1      46.406  26.634  29.121  1.00  0.00     0.074 A 
ATOM     67  C   UNL A   1      46.151  25.359  29.775  1.00  0.00     0.031 C 
ATOM     68  C   UNL A   1      46.705  27.850  29.657  1.00  0.00     0.034 A 
BRANCH  55  69
ATOM     69  C   UNL A   1      44.972  25.884  34.559  1.00  0.00     0.023 A 
ATOM     70  C   UNL A   1      44.668  24.728  33.812  1.00  0.00     0.012 A 
ATOM     71  C   UNL A   1      45.242  25.702  35.937  1.00  0.00     0.148 A 
ATOM     72  C   UNL A   1      44.639  23.461  34.405  1.00  0.00     0.002 A 
ATOM     73  C   UNL A   1      45.309  24.435  36.498  1.00  0.00     0.091 A 
ATOM     74  F   UNL A   1      45.288  26.757  36.756  1.00  0.00    -0.205 F 
ATOM     75  C   UNL A   1      44.981  23.311  35.743  1.00  0.00     0.022 A 
BRANCH  73  76
ATOM     76  S   UNL A   1      45.814  24.189  38.206  1.00  0.00     0.127 S 
ATOM     77  O   UNL A   1      45.836  22.734  38.302  1.00  0.00    -0.237 OA
ATOM     78  O   UNL A   1      47.129  24.833  38.221  1.00  0.00    -0.237 OA
ATOM     79  O   UNL A   1      44.809  24.872  39.012  1.00  0.00    -0.744 OA
ENDBRANCH  73  76
ENDBRANCH  55  69
BRANCH  56  80
ATOM     80  C   UNL A   1      43.316  24.288  26.492  1.00  0.00     0.023 A 
ATOM     81  C   UNL A   1      44.185  23.831  25.478  1.00  0.00     0.012 A 
ATOM     82  C   UNL A   1      42.319  23.408  26.965  1.00  0.00     0.148 A 
ATOM     83  C   UNL A   1      44.121  22.514  25.013  1.00  0.00     0.002 A 
ATOM     84  C   UNL A   1      42.263  22.097  26.501  1.00  0.00     0.091 A 
ATOM     85  F   UNL A   1      41.496  23.823  27.936  1.00  0.00    -0.205 F 
ATOM     86  C   UNL A   1      43.175  21.642  25.540  1.00  0.00     0.022 A 
BRANCH  84  87
ATOM     87  S   UNL A   1      41.106  20.893  27.168  1.00  0.00     0.127 S 
ATOM     88  O   UNL A   1      41.947  19.703  27.296  1.00  0.00    -0.237 OA
ATOM     89  O   UNL A   1      40.727  21.514  28.434  1.00  0.00    -0.237 OA
ATOM     90  O   UNL A   1      40.044  20.772  26.178  1.00  0.00    -0.744 OA
ENDBRANCH  84  87
ENDBRANCH  56  80
BRANCH  68  91
ATOM     91  C   UNL A   1      46.951  28.993  28.720  1.00  0.00     0.023 A 
ATOM     92  C   UNL A   1      48.202  29.254  28.128  1.00  0.00     0.012 A 
ATOM     93  C   UNL A   1      45.840  29.767  28.347  1.00  0.00     0.148 A 
ATOM     94  C   UNL A   1      48.337  30.276  27.182  1.00  0.00     0.002 A 
ATOM     95  C   UNL A   1      45.967  30.745  27.372  1.00  0.00     0.091 A 
ATOM     96  F   UNL A   1      44.666  29.514  28.943  1.00  0.00    -0.205 F 
ATOM     97  C   UNL A   1      47.217  31.010  26.792  1.00  0.00     0.022 A 
BRANCH  95  98
ATOM     98  S   UNL A   1      44.535  31.625  26.746  1.00  0.00     0.127 S 
ATOM     99  O   UNL A   1      44.182  32.478  27.878  1.00  0.00    -0.237 OA
ATOM    100  O   UNL A   1      45.085  32.336  25.590  1.00  0.00    -0.237 OA
ATOM    101  O   UNL A   1      43.555  30.602  26.402  1.00  0.00    -0.744 OA
ENDBRANCH  95  98
ENDBRANCH  68  91
ENDBRANCH  42  43
ENDBRANCH  35  37
ENDBRANCH  34  35
ENDBRANCH  33  34
ENDBRANCH  32  33
ENDBRANCH  31  32
ENDBRANCH  30  31
ENDBRANCH   1  30
TORSDOF 24
ENDMDL
