MODEL 1
REMARK VINA RESULT:      -7.4      0.000      0.000
REMARK SMILES Nc1ccc(-c2cc(Cl)cc3c2O[C@H](C(F)(F)F)C(C(=O)OCCOCCOCCOCCOC(=O)c2ccc(-c4c5nc(c(-c6cccc(S(=O)(=O)[O-])c6F)c6ccc([nH]6)c(-c6cccc(S(=O)(=O)[O-])c6F)c6nc(c(-c7cccc(S(=O)(=O)[O-])c7F)c7ccc4[nH]7)C=C6)C=C5)cc2)=C3)cc1
REMARK SMILES IDX 29 1 28 2 27 3 26 4 25 5 24 6 23 7 22 8 20 9 21 10 19 11
REMARK SMILES IDX 6 12 7 13 12 14 8 15 11 16 13 17 9 18 10 19 100 20 14 21
REMARK SMILES IDX 5 22 2 23 3 24 102 25 4 26 101 27 1 28 15 31 16 32 17 33
REMARK SMILES IDX 18 34 30 35 31 36 32 37 33 38 34 39 35 40 36 41 37 42 38 43
REMARK SMILES IDX 99 44 39 45 98 46 40 47 41 48 42 49 92 50 43 51 97 52 91 53
REMARK SMILES IDX 93 54 44 55 96 56 90 57 89 58 45 60 77 61 57 62 76 63 58 64
REMARK SMILES IDX 61 65 75 66 94 67 59 68 60 69 74 71 95 72 62 73 46 74 47 75
REMARK SMILES IDX 55 76 48 77 50 78 56 79 49 80 51 81 52 82 53 83 54 84 78 85
REMARK SMILES IDX 79 86 87 87 80 88 82 89 88 90 81 91 83 92 84 93 85 94 86 95
REMARK SMILES IDX 63 96 64 97 72 98 65 99 67 100 73 101 66 102 68 103 69 104
REMARK SMILES IDX 70 105 71 106
REMARK H PARENT 1 29 1 30 93 59 61 70
REMARK Flexibility Score: inf
ROOT
ATOM      1  C   UNL A   1      50.961  31.366  26.530  1.00  0.00     0.188 C 
ENDROOT
BRANCH   1   2
ATOM      2  O   UNL A   1      50.996  30.544  25.363  1.00  0.00    -0.377 OA
BRANCH   2   3
ATOM      3  C   UNL A   1      51.309  29.173  25.562  1.00  0.00     0.188 C 
BRANCH   3   4
ATOM      4  C   UNL A   1      50.148  28.252  25.148  1.00  0.00     0.188 C 
BRANCH   4   5
ATOM      5  O   UNL A   1      48.930  28.567  25.809  1.00  0.00    -0.376 OA
BRANCH   5   6
ATOM      6  C   UNL A   1      47.770  27.783  25.562  1.00  0.00     0.202 C 
BRANCH   6   7
ATOM      7  C   UNL A   1      46.683  28.208  24.556  1.00  0.00     0.261 C 
BRANCH   7   8
ATOM      8  O   UNL A   1      45.381  28.484  25.086  1.00  0.00    -0.460 OA
BRANCH   8   9
ATOM      9  C   UNL A   1      44.714  27.497  25.705  1.00  0.00     0.338 C 
ATOM     10  O   UNL A   1      44.789  26.302  25.480  1.00  0.00    -0.246 OA
BRANCH   9  11
ATOM     11  C   UNL A   1      43.996  28.103  26.852  1.00  0.00     0.087 C 
ATOM     12  C   UNL A   1      41.963  29.676  30.170  1.00  0.00     0.026 A 
ATOM     13  C   UNL A   1      42.717  30.021  31.307  1.00  0.00     0.033 A 
ATOM     14  C   UNL A   1      42.660  29.231  29.022  1.00  0.00     0.135 A 
ATOM     15  C   UNL A   1      44.108  29.916  31.301  1.00  0.00     0.042 A 
ATOM     16  C   UNL A   1      44.051  29.066  29.045  1.00  0.00     0.019 A 
ATOM     17  O   UNL A   1      41.915  28.986  27.900  1.00  0.00    -0.475 OA
ATOM     18  Cl  UNL A   1      45.002  30.340  32.711  1.00  0.00    -0.084 Cl
ATOM     19  C   UNL A   1      44.777  29.434  30.181  1.00  0.00     0.032 A 
ATOM     20  C   UNL A   1      44.730  28.451  27.916  1.00  0.00     0.027 C 
ATOM     21  C   UNL A   1      42.519  28.381  26.730  1.00  0.00     0.316 C 
BRANCH  12  22
ATOM     22  C   UNL A   1      40.486  29.710  30.235  1.00  0.00    -0.014 A 
ATOM     23  C   UNL A   1      37.650  29.758  30.408  1.00  0.00     0.031 A 
ATOM     24  C   UNL A   1      38.384  28.770  31.059  1.00  0.00     0.026 A 
ATOM     25  C   UNL A   1      38.341  30.755  29.720  1.00  0.00     0.026 A 
ATOM     26  C   UNL A   1      39.779  28.742  30.968  1.00  0.00     0.011 A 
ATOM     27  C   UNL A   1      39.739  30.724  29.618  1.00  0.00     0.011 A 
BRANCH  23  28
ATOM     28  N   UNL A   1      36.274  29.830  30.571  1.00  0.00    -0.399 N 
ATOM     29  H   UNL A   1      35.852  29.447  31.374  1.00  0.00     0.156 HD
ATOM     30  H   UNL A   1      35.719  30.264  29.883  1.00  0.00     0.156 HD
ENDBRANCH  23  28
ENDBRANCH  12  22
BRANCH  21  31
ATOM     31  C   UNL A   1      41.710  27.123  26.386  1.00  0.00     0.430 C 
ATOM     32  F   UNL A   1      42.150  26.048  27.084  1.00  0.00    -0.167 F 
ATOM     33  F   UNL A   1      40.397  27.265  26.668  1.00  0.00    -0.167 F 
ATOM     34  F   UNL A   1      41.812  26.816  25.071  1.00  0.00    -0.167 F 
ENDBRANCH  21  31
ENDBRANCH   9  11
ENDBRANCH   8   9
ENDBRANCH   7   8
ENDBRANCH   6   7
ENDBRANCH   5   6
ENDBRANCH   4   5
ENDBRANCH   3   4
ENDBRANCH   2   3
ENDBRANCH   1   2
BRANCH   1  35
ATOM     35  C   UNL A   1      49.726  31.345  27.458  1.00  0.00     0.188 C 
BRANCH  35  36
ATOM     36  O   UNL A   1      49.176  32.642  27.700  1.00  0.00    -0.376 OA
BRANCH  36  37
ATOM     37  C   UNL A   1      49.420  33.633  26.710  1.00  0.00     0.202 C 
BRANCH  37  38
ATOM     38  C   UNL A   1      48.154  34.138  26.005  1.00  0.00     0.261 C 
BRANCH  38  39
ATOM     39  O   UNL A   1      46.998  34.269  26.845  1.00  0.00    -0.460 OA
BRANCH  39  40
ATOM     40  C   UNL A   1      45.782  34.163  26.262  1.00  0.00     0.338 C 
ATOM     41  O   UNL A   1      45.554  33.968  25.080  1.00  0.00    -0.246 OA
BRANCH  40  42
ATOM     42  C   UNL A   1      44.775  34.112  27.343  1.00  0.00     0.060 A 
ATOM     43  C   UNL A   1      44.274  32.885  27.786  1.00  0.00     0.016 A 
ATOM     44  C   UNL A   1      44.306  35.311  27.896  1.00  0.00     0.016 A 
ATOM     45  C   UNL A   1      43.334  32.857  28.816  1.00  0.00     0.010 A 
ATOM     46  C   UNL A   1      43.360  35.282  28.923  1.00  0.00     0.010 A 
ATOM     47  C   UNL A   1      42.891  34.052  29.410  1.00  0.00    -0.014 A 
BRANCH  47  48
ATOM     48  C   UNL A   1      42.137  33.989  30.685  1.00  0.00     0.031 A 
ATOM     49  C   UNL A   1      40.646  34.105  30.751  1.00  0.00     0.074 A 
ATOM     50  C   UNL A   1      42.854  33.832  31.814  1.00  0.00     0.049 A 
ATOM     51  N   UNL A   1      39.866  33.941  31.788  1.00  0.00    -0.248 NA
ATOM     52  C   UNL A   1      39.936  34.454  29.512  1.00  0.00     0.031 C 
ATOM     53  C   UNL A   1      44.318  33.778  31.873  1.00  0.00     0.029 A 
ATOM     54  N   UNL A   1      42.462  33.689  33.119  1.00  0.00    -0.354 N 
ATOM     55  C   UNL A   1      38.574  34.168  31.336  1.00  0.00     0.074 A 
ATOM     56  C   UNL A   1      38.675  34.500  29.929  1.00  0.00     0.031 C 
ATOM     57  C   UNL A   1      44.698  33.593  33.145  1.00  0.00     0.029 A 
ATOM     58  C   UNL A   1      43.511  33.524  33.990  1.00  0.00     0.049 A 
ATOM     59  H   UNL A   1      41.519  33.702  33.404  1.00  0.00     0.167 HD
ATOM     60  C   UNL A   1      37.413  34.084  32.032  1.00  0.00     0.034 A 
ATOM     61  C   UNL A   1      43.523  33.318  35.321  1.00  0.00     0.034 A 
ATOM     62  C   UNL A   1      37.324  33.737  33.427  1.00  0.00     0.049 A 
ATOM     63  C   UNL A   1      42.223  33.200  36.058  1.00  0.00     0.074 A 
ATOM     64  C   UNL A   1      36.185  33.547  34.190  1.00  0.00     0.029 A 
ATOM     65  N   UNL A   1      38.406  33.545  34.272  1.00  0.00    -0.354 N 
ATOM     66  N   UNL A   1      41.005  33.254  35.581  1.00  0.00    -0.248 NA
ATOM     67  C   UNL A   1      42.294  32.959  37.506  1.00  0.00     0.031 C 
ATOM     68  C   UNL A   1      36.577  33.255  35.500  1.00  0.00     0.029 A 
ATOM     69  C   UNL A   1      37.961  33.251  35.549  1.00  0.00     0.049 A 
ATOM     70  H   UNL A   1      39.351  33.608  34.003  1.00  0.00     0.167 HD
ATOM     71  C   UNL A   1      40.164  33.033  36.662  1.00  0.00     0.074 A 
ATOM     72  C   UNL A   1      41.010  32.833  37.820  1.00  0.00     0.031 C 
ATOM     73  C   UNL A   1      38.810  33.012  36.688  1.00  0.00     0.034 A 
BRANCH  60  74
ATOM     74  C   UNL A   1      36.119  34.298  31.296  1.00  0.00     0.023 A 
ATOM     75  C   UNL A   1      35.838  33.496  30.172  1.00  0.00     0.012 A 
ATOM     76  C   UNL A   1      35.129  35.167  31.796  1.00  0.00     0.148 A 
ATOM     77  C   UNL A   1      34.590  33.558  29.553  1.00  0.00     0.002 A 
ATOM     78  C   UNL A   1      33.879  35.204  31.189  1.00  0.00     0.091 A 
ATOM     79  F   UNL A   1      35.425  35.921  32.864  1.00  0.00    -0.205 F 
ATOM     80  C   UNL A   1      33.608  34.402  30.067  1.00  0.00     0.022 A 
BRANCH  78  81
ATOM     81  S   UNL A   1      32.525  36.212  31.804  1.00  0.00     0.127 S 
ATOM     82  O   UNL A   1      33.237  37.392  32.295  1.00  0.00    -0.237 OA
ATOM     83  O   UNL A   1      31.735  36.437  30.594  1.00  0.00    -0.237 OA
ATOM     84  O   UNL A   1      31.864  35.419  32.830  1.00  0.00    -0.744 OA
ENDBRANCH  78  81
ENDBRANCH  60  74
BRANCH  61  85
ATOM     85  C   UNL A   1      44.828  33.118  36.004  1.00  0.00     0.023 A 
ATOM     86  C   UNL A   1      45.613  34.243  36.321  1.00  0.00     0.012 A 
ATOM     87  C   UNL A   1      45.239  31.841  36.427  1.00  0.00     0.148 A 
ATOM     88  C   UNL A   1      46.794  34.097  37.047  1.00  0.00     0.002 A 
ATOM     89  C   UNL A   1      46.396  31.708  37.184  1.00  0.00     0.091 A 
ATOM     90  F   UNL A   1      44.467  30.791  36.114  1.00  0.00    -0.205 F 
ATOM     91  C   UNL A   1      47.180  32.832  37.487  1.00  0.00     0.022 A 
BRANCH  89  92
ATOM     92  S   UNL A   1      46.918  30.140  37.888  1.00  0.00     0.127 S 
ATOM     93  O   UNL A   1      45.741  29.756  38.663  1.00  0.00    -0.237 OA
ATOM     94  O   UNL A   1      47.155  29.339  36.687  1.00  0.00    -0.237 OA
ATOM     95  O   UNL A   1      48.113  30.432  38.668  1.00  0.00    -0.744 OA
ENDBRANCH  89  92
ENDBRANCH  61  85
BRANCH  73  96
ATOM     96  C   UNL A   1      38.130  32.758  38.006  1.00  0.00     0.023 A 
ATOM     97  C   UNL A   1      37.495  31.521  38.225  1.00  0.00     0.012 A 
ATOM     98  C   UNL A   1      38.240  33.683  39.061  1.00  0.00     0.148 A 
ATOM     99  C   UNL A   1      36.975  31.208  39.481  1.00  0.00     0.002 A 
ATOM    100  C   UNL A   1      37.749  33.351  40.318  1.00  0.00     0.091 A 
ATOM    101  F   UNL A   1      38.844  34.856  38.821  1.00  0.00    -0.205 F 
ATOM    102  C   UNL A   1      37.113  32.116  40.528  1.00  0.00     0.022 A 
BRANCH 100 103
ATOM    103  S   UNL A   1      37.942  34.419  41.749  1.00  0.00     0.127 S 
ATOM    104  O   UNL A   1      37.205  33.680  42.774  1.00  0.00    -0.237 OA
ATOM    105  O   UNL A   1      39.393  34.432  41.930  1.00  0.00    -0.237 OA
ATOM    106  O   UNL A   1      37.362  35.703  41.379  1.00  0.00    -0.744 OA
ENDBRANCH 100 103
ENDBRANCH  73  96
ENDBRANCH  47  48
ENDBRANCH  40  42
ENDBRANCH  39  40
ENDBRANCH  38  39
ENDBRANCH  37  38
ENDBRANCH  36  37
ENDBRANCH  35  36
ENDBRANCH   1  35
TORSDOF 26
ENDMDL
MODEL 2
REMARK VINA RESULT:      -7.0      5.642     12.577
REMARK SMILES Nc1ccc(-c2cc(Cl)cc3c2O[C@H](C(F)(F)F)C(C(=O)OCCOCCOCCOCCOC(=O)c2ccc(-c4c5nc(c(-c6cccc(S(=O)(=O)[O-])c6F)c6ccc([nH]6)c(-c6cccc(S(=O)(=O)[O-])c6F)c6nc(c(-c7cccc(S(=O)(=O)[O-])c7F)c7ccc4[nH]7)C=C6)C=C5)cc2)=C3)cc1
REMARK SMILES IDX 29 1 28 2 27 3 26 4 25 5 24 6 23 7 22 8 20 9 21 10 19 11
REMARK SMILES IDX 6 12 7 13 12 14 8 15 11 16 13 17 9 18 10 19 100 20 14 21
REMARK SMILES IDX 5 22 2 23 3 24 102 25 4 26 101 27 1 28 15 31 16 32 17 33
REMARK SMILES IDX 18 34 30 35 31 36 32 37 33 38 34 39 35 40 36 41 37 42 38 43
REMARK SMILES IDX 99 44 39 45 98 46 40 47 41 48 42 49 92 50 43 51 97 52 91 53
REMARK SMILES IDX 93 54 44 55 96 56 90 57 89 58 45 60 77 61 57 62 76 63 58 64
REMARK SMILES IDX 61 65 75 66 94 67 59 68 60 69 74 71 95 72 62 73 46 74 47 75
REMARK SMILES IDX 55 76 48 77 50 78 56 79 49 80 51 81 52 82 53 83 54 84 78 85
REMARK SMILES IDX 79 86 87 87 80 88 82 89 88 90 81 91 83 92 84 93 85 94 86 95
REMARK SMILES IDX 63 96 64 97 72 98 65 99 67 100 73 101 66 102 68 103 69 104
REMARK SMILES IDX 70 105 71 106
REMARK H PARENT 1 29 1 30 93 59 61 70
REMARK Flexibility Score: inf
ROOT
ATOM      1  C   UNL A   1      40.758  28.404  32.436  1.00  0.00     0.188 C 
ENDROOT
BRANCH   1   2
ATOM      2  O   UNL A   1      40.896  28.290  33.852  1.00  0.00    -0.377 OA
BRANCH   2   3
ATOM      3  C   UNL A   1      41.999  28.965  34.438  1.00  0.00     0.188 C 
BRANCH   3   4
ATOM      4  C   UNL A   1      41.608  30.356  34.966  1.00  0.00     0.188 C 
BRANCH   4   5
ATOM      5  O   UNL A   1      41.495  31.326  33.936  1.00  0.00    -0.376 OA
BRANCH   5   6
ATOM      6  C   UNL A   1      42.489  31.399  32.921  1.00  0.00     0.202 C 
BRANCH   6   7
ATOM      7  C   UNL A   1      43.756  32.262  33.064  1.00  0.00     0.261 C 
BRANCH   7   8
ATOM      8  O   UNL A   1      43.566  33.644  33.394  1.00  0.00    -0.460 OA
BRANCH   8   9
ATOM      9  C   UNL A   1      44.457  34.244  34.199  1.00  0.00     0.338 C 
ATOM     10  O   UNL A   1      44.949  33.793  35.218  1.00  0.00    -0.246 OA
BRANCH   9  11
ATOM     11  C   UNL A   1      44.885  35.494  33.527  1.00  0.00     0.087 C 
ATOM     12  C   UNL A   1      46.039  38.976  31.488  1.00  0.00     0.026 A 
ATOM     13  C   UNL A   1      45.064  39.965  31.261  1.00  0.00     0.033 A 
ATOM     14  C   UNL A   1      45.671  37.845  32.254  1.00  0.00     0.135 A 
ATOM     15  C   UNL A   1      43.772  39.825  31.767  1.00  0.00     0.042 A 
ATOM     16  C   UNL A   1      44.354  37.680  32.703  1.00  0.00     0.019 A 
ATOM     17  O   UNL A   1      46.657  36.940  32.538  1.00  0.00    -0.475 OA
ATOM     18  Cl  UNL A   1      42.600  41.050  31.467  1.00  0.00    -0.084 Cl
ATOM     19  C   UNL A   1      43.411  38.687  32.480  1.00  0.00     0.032 A 
ATOM     20  C   UNL A   1      43.953  36.437  33.342  1.00  0.00     0.027 C 
ATOM     21  C   UNL A   1      46.340  35.679  33.180  1.00  0.00     0.316 C 
BRANCH  12  22
ATOM     22  C   UNL A   1      47.374  39.107  30.863  1.00  0.00    -0.014 A 
ATOM     23  C   UNL A   1      49.926  39.317  29.631  1.00  0.00     0.031 A 
ATOM     24  C   UNL A   1      49.347  38.071  29.858  1.00  0.00     0.026 A 
ATOM     25  C   UNL A   1      49.198  40.458  29.968  1.00  0.00     0.026 A 
ATOM     26  C   UNL A   1      48.094  37.967  30.470  1.00  0.00     0.011 A 
ATOM     27  C   UNL A   1      47.946  40.358  30.592  1.00  0.00     0.011 A 
BRANCH  23  28
ATOM     28  N   UNL A   1      51.129  39.417  28.948  1.00  0.00    -0.399 N 
ATOM     29  H   UNL A   1      51.961  39.603  29.439  1.00  0.00     0.156 HD
ATOM     30  H   UNL A   1      51.150  39.302  27.969  1.00  0.00     0.156 HD
ENDBRANCH  23  28
ENDBRANCH  12  22
BRANCH  21  31
ATOM     31  C   UNL A   1      46.879  34.553  32.286  1.00  0.00     0.430 C 
ATOM     32  F   UNL A   1      47.183  33.451  33.013  1.00  0.00    -0.167 F 
ATOM     33  F   UNL A   1      45.986  34.172  31.347  1.00  0.00    -0.167 F 
ATOM     34  F   UNL A   1      48.008  34.933  31.642  1.00  0.00    -0.167 F 
ENDBRANCH  21  31
ENDBRANCH   9  11
ENDBRANCH   8   9
ENDBRANCH   7   8
ENDBRANCH   6   7
ENDBRANCH   5   6
ENDBRANCH   4   5
ENDBRANCH   3   4
ENDBRANCH   2   3
ENDBRANCH   1   2
BRANCH   1  35
ATOM     35  C   UNL A   1      39.407  28.831  31.820  1.00  0.00     0.188 C 
BRANCH  35  36
ATOM     36  O   UNL A   1      39.181  30.242  31.869  1.00  0.00    -0.376 OA
BRANCH  36  37
ATOM     37  C   UNL A   1      38.047  30.681  32.607  1.00  0.00     0.202 C 
BRANCH  37  38
ATOM     38  C   UNL A   1      36.998  31.416  31.764  1.00  0.00     0.261 C 
BRANCH  38  39
ATOM     39  O   UNL A   1      37.507  32.477  30.942  1.00  0.00    -0.460 OA
BRANCH  39  40
ATOM     40  C   UNL A   1      37.813  33.648  31.546  1.00  0.00     0.338 C 
ATOM     41  O   UNL A   1      37.276  34.123  32.531  1.00  0.00    -0.246 OA
BRANCH  40  42
ATOM     42  C   UNL A   1      39.057  34.153  30.927  1.00  0.00     0.060 A 
ATOM     43  C   UNL A   1      40.217  34.305  31.693  1.00  0.00     0.016 A 
ATOM     44  C   UNL A   1      39.051  34.507  29.572  1.00  0.00     0.016 A 
ATOM     45  C   UNL A   1      41.384  34.771  31.088  1.00  0.00     0.010 A 
ATOM     46  C   UNL A   1      40.219  34.980  28.969  1.00  0.00     0.010 A 
ATOM     47  C   UNL A   1      41.401  35.085  29.717  1.00  0.00    -0.014 A 
BRANCH  47  48
ATOM     48  C   UNL A   1      42.704  35.283  29.038  1.00  0.00     0.031 A 
ATOM     49  C   UNL A   1      43.197  36.629  28.606  1.00  0.00     0.074 A 
ATOM     50  C   UNL A   1      43.446  34.184  28.803  1.00  0.00     0.049 A 
ATOM     51  N   UNL A   1      44.368  36.944  28.117  1.00  0.00    -0.248 NA
ATOM     52  C   UNL A   1      42.268  37.763  28.726  1.00  0.00     0.031 C 
ATOM     53  C   UNL A   1      43.031  32.813  29.118  1.00  0.00     0.029 A 
ATOM     54  N   UNL A   1      44.692  34.037  28.252  1.00  0.00    -0.354 N 
ATOM     55  C   UNL A   1      44.324  38.308  27.866  1.00  0.00     0.074 A 
ATOM     56  C   UNL A   1      43.000  38.761  28.242  1.00  0.00     0.031 C 
ATOM     57  C   UNL A   1      44.014  31.969  28.774  1.00  0.00     0.029 A 
ATOM     58  C   UNL A   1      45.121  32.733  28.209  1.00  0.00     0.049 A 
ATOM     59  H   UNL A   1      45.227  34.794  27.920  1.00  0.00     0.167 HD
ATOM     60  C   UNL A   1      45.310  39.106  27.387  1.00  0.00     0.034 A 
ATOM     61  C   UNL A   1      46.283  32.205  27.782  1.00  0.00     0.034 A 
ATOM     62  C   UNL A   1      46.628  38.647  27.032  1.00  0.00     0.049 A 
ATOM     63  C   UNL A   1      47.365  33.115  27.286  1.00  0.00     0.074 A 
ATOM     64  C   UNL A   1      47.714  39.401  26.619  1.00  0.00     0.029 A 
ATOM     65  N   UNL A   1      47.039  37.323  27.032  1.00  0.00    -0.354 N 
ATOM     66  N   UNL A   1      47.364  34.422  27.211  1.00  0.00    -0.248 NA
ATOM     67  C   UNL A   1      48.620  32.487  26.848  1.00  0.00     0.031 C 
ATOM     68  C   UNL A   1      48.776  38.531  26.353  1.00  0.00     0.029 A 
ATOM     69  C   UNL A   1      48.356  37.237  26.614  1.00  0.00     0.049 A 
ATOM     70  H   UNL A   1      46.477  36.558  27.290  1.00  0.00     0.167 HD
ATOM     71  C   UNL A   1      48.619  34.778  26.739  1.00  0.00     0.074 A 
ATOM     72  C   UNL A   1      49.363  33.548  26.554  1.00  0.00     0.031 C 
ATOM     73  C   UNL A   1      49.103  36.014  26.472  1.00  0.00     0.034 A 
BRANCH  60  74
ATOM     74  C   UNL A   1      45.047  40.583  27.277  1.00  0.00     0.023 A 
ATOM     75  C   UNL A   1      45.305  41.403  28.393  1.00  0.00     0.012 A 
ATOM     76  C   UNL A   1      44.700  41.173  26.045  1.00  0.00     0.148 A 
ATOM     77  C   UNL A   1      45.217  42.790  28.287  1.00  0.00     0.002 A 
ATOM     78  C   UNL A   1      44.639  42.558  25.941  1.00  0.00     0.091 A 
ATOM     79  F   UNL A   1      44.456  40.369  25.000  1.00  0.00    -0.205 F 
ATOM     80  C   UNL A   1      44.897  43.368  27.061  1.00  0.00     0.022 A 
BRANCH  78  81
ATOM     81  S   UNL A   1      44.292  43.406  24.396  1.00  0.00     0.127 S 
ATOM     82  O   UNL A   1      42.894  43.042  24.169  1.00  0.00    -0.237 OA
ATOM     83  O   UNL A   1      44.506  44.807  24.760  1.00  0.00    -0.237 OA
ATOM     84  O   UNL A   1      45.235  42.875  23.422  1.00  0.00    -0.744 OA
ENDBRANCH  78  81
ENDBRANCH  60  74
BRANCH  61  85
ATOM     85  C   UNL A   1      46.493  30.739  27.907  1.00  0.00     0.023 A 
ATOM     86  C   UNL A   1      46.906  30.211  29.145  1.00  0.00     0.012 A 
ATOM     87  C   UNL A   1      46.189  29.866  26.846  1.00  0.00     0.148 A 
ATOM     88  C   UNL A   1      47.017  28.832  29.323  1.00  0.00     0.002 A 
ATOM     89  C   UNL A   1      46.264  28.493  27.042  1.00  0.00     0.091 A 
ATOM     90  F   UNL A   1      45.794  30.400  25.682  1.00  0.00    -0.205 F 
ATOM     91  C   UNL A   1      46.687  27.974  28.277  1.00  0.00     0.022 A 
BRANCH  89  92
ATOM     92  S   UNL A   1      45.756  27.307  25.793  1.00  0.00     0.127 S 
ATOM     93  O   UNL A   1      46.956  27.217  24.964  1.00  0.00    -0.237 OA
ATOM     94  O   UNL A   1      45.476  26.123  26.605  1.00  0.00    -0.237 OA
ATOM     95  O   UNL A   1      44.589  27.888  25.144  1.00  0.00    -0.744 OA
ENDBRANCH  89  92
ENDBRANCH  61  85
BRANCH  73  96
ATOM     96  C   UNL A   1      50.510  36.128  25.953  1.00  0.00     0.023 A 
ATOM     97  C   UNL A   1      50.731  36.150  24.564  1.00  0.00     0.012 A 
ATOM     98  C   UNL A   1      51.585  36.349  26.835  1.00  0.00     0.148 A 
ATOM     99  C   UNL A   1      52.008  36.390  24.057  1.00  0.00     0.002 A 
ATOM    100  C   UNL A   1      52.848  36.619  26.322  1.00  0.00     0.091 A 
ATOM    101  F   UNL A   1      51.346  36.315  28.154  1.00  0.00    -0.205 F 
ATOM    102  C   UNL A   1      53.061  36.637  24.934  1.00  0.00     0.022 A 
BRANCH 100 103
ATOM    103  S   UNL A   1      54.254  37.023  27.365  1.00  0.00     0.127 S 
ATOM    104  O   UNL A   1      55.371  36.854  26.437  1.00  0.00    -0.237 OA
ATOM    105  O   UNL A   1      53.973  38.409  27.737  1.00  0.00    -0.237 OA
ATOM    106  O   UNL A   1      54.224  36.076  28.471  1.00  0.00    -0.744 OA
ENDBRANCH 100 103
ENDBRANCH  73  96
ENDBRANCH  47  48
ENDBRANCH  40  42
ENDBRANCH  39  40
ENDBRANCH  38  39
ENDBRANCH  37  38
ENDBRANCH  36  37
ENDBRANCH  35  36
ENDBRANCH   1  35
TORSDOF 26
ENDMDL
MODEL 3
REMARK VINA RESULT:      -7.0      4.522     12.414
REMARK SMILES Nc1ccc(-c2cc(Cl)cc3c2O[C@H](C(F)(F)F)C(C(=O)OCCOCCOCCOCCOC(=O)c2ccc(-c4c5nc(c(-c6cccc(S(=O)(=O)[O-])c6F)c6ccc([nH]6)c(-c6cccc(S(=O)(=O)[O-])c6F)c6nc(c(-c7cccc(S(=O)(=O)[O-])c7F)c7ccc4[nH]7)C=C6)C=C5)cc2)=C3)cc1
REMARK SMILES IDX 29 1 28 2 27 3 26 4 25 5 24 6 23 7 22 8 20 9 21 10 19 11
REMARK SMILES IDX 6 12 7 13 12 14 8 15 11 16 13 17 9 18 10 19 100 20 14 21
REMARK SMILES IDX 5 22 2 23 3 24 102 25 4 26 101 27 1 28 15 31 16 32 17 33
REMARK SMILES IDX 18 34 30 35 31 36 32 37 33 38 34 39 35 40 36 41 37 42 38 43
REMARK SMILES IDX 99 44 39 45 98 46 40 47 41 48 42 49 92 50 43 51 97 52 91 53
REMARK SMILES IDX 93 54 44 55 96 56 90 57 89 58 45 60 77 61 57 62 76 63 58 64
REMARK SMILES IDX 61 65 75 66 94 67 59 68 60 69 74 71 95 72 62 73 46 74 47 75
REMARK SMILES IDX 55 76 48 77 50 78 56 79 49 80 51 81 52 82 53 83 54 84 78 85
REMARK SMILES IDX 79 86 87 87 80 88 82 89 88 90 81 91 83 92 84 93 85 94 86 95
REMARK SMILES IDX 63 96 64 97 72 98 65 99 67 100 73 101 66 102 68 103 69 104
REMARK SMILES IDX 70 105 71 106
REMARK H PARENT 1 29 1 30 93 59 61 70
REMARK Flexibility Score: inf
ROOT
ATOM      1  C   UNL A   1      38.153  31.176  36.050  1.00  0.00     0.188 C 
ENDROOT
BRANCH   1   2
ATOM      2  O   UNL A   1      39.168  30.193  36.255  1.00  0.00    -0.377 OA
BRANCH   2   3
ATOM      3  C   UNL A   1      40.272  30.227  35.361  1.00  0.00     0.188 C 
BRANCH   3   4
ATOM      4  C   UNL A   1      40.048  29.324  34.136  1.00  0.00     0.188 C 
BRANCH   4   5
ATOM      5  O   UNL A   1      41.211  29.182  33.334  1.00  0.00    -0.376 OA
BRANCH   5   6
ATOM      6  C   UNL A   1      41.398  28.003  32.562  1.00  0.00     0.202 C 
BRANCH   6   7
ATOM      7  C   UNL A   1      42.610  27.805  31.632  1.00  0.00     0.261 C 
BRANCH   7   8
ATOM      8  O   UNL A   1      43.737  27.107  32.176  1.00  0.00    -0.460 OA
BRANCH   8   9
ATOM      9  C   UNL A   1      44.575  27.770  32.989  1.00  0.00     0.338 C 
ATOM     10  O   UNL A   1      44.340  28.184  34.110  1.00  0.00    -0.246 OA
BRANCH   9  11
ATOM     11  C   UNL A   1      45.913  27.749  32.352  1.00  0.00     0.087 C 
ATOM     12  C   UNL A   1      49.767  27.733  30.688  1.00  0.00     0.026 A 
ATOM     13  C   UNL A   1      50.566  26.590  30.878  1.00  0.00     0.033 A 
ATOM     14  C   UNL A   1      48.438  27.700  31.171  1.00  0.00     0.135 A 
ATOM     15  C   UNL A   1      50.062  25.466  31.532  1.00  0.00     0.042 A 
ATOM     16  C   UNL A   1      47.960  26.594  31.885  1.00  0.00     0.019 A 
ATOM     17  O   UNL A   1      47.651  28.787  30.898  1.00  0.00    -0.475 OA
ATOM     18  Cl  UNL A   1      51.067  24.086  31.754  1.00  0.00    -0.084 Cl
ATOM     19  C   UNL A   1      48.769  25.465  32.042  1.00  0.00     0.032 A 
ATOM     20  C   UNL A   1      46.651  26.645  32.518  1.00  0.00     0.027 C 
ATOM     21  C   UNL A   1      46.331  28.910  31.485  1.00  0.00     0.316 C 
BRANCH  12  22
ATOM     22  C   UNL A   1      50.355  28.943  30.072  1.00  0.00    -0.014 A 
ATOM     23  C   UNL A   1      51.457  31.256  28.845  1.00  0.00     0.031 A 
ATOM     24  C   UNL A   1      51.235  30.098  28.105  1.00  0.00     0.026 A 
ATOM     25  C   UNL A   1      51.071  31.273  30.185  1.00  0.00     0.026 A 
ATOM     26  C   UNL A   1      50.699  28.957  28.710  1.00  0.00     0.011 A 
ATOM     27  C   UNL A   1      50.543  30.128  30.798  1.00  0.00     0.011 A 
BRANCH  23  28
ATOM     28  N   UNL A   1      51.910  32.410  28.221  1.00  0.00    -0.399 N 
ATOM     29  H   UNL A   1      51.749  32.545  27.259  1.00  0.00     0.156 HD
ATOM     30  H   UNL A   1      52.392  33.094  28.741  1.00  0.00     0.156 HD
ENDBRANCH  23  28
ENDBRANCH  12  22
BRANCH  21  31
ATOM     31  C   UNL A   1      46.275  30.250  32.230  1.00  0.00     0.430 C 
ATOM     32  F   UNL A   1      45.035  30.793  32.174  1.00  0.00    -0.167 F 
ATOM     33  F   UNL A   1      46.592  30.124  33.537  1.00  0.00    -0.167 F 
ATOM     34  F   UNL A   1      47.132  31.150  31.690  1.00  0.00    -0.167 F 
ENDBRANCH  21  31
ENDBRANCH   9  11
ENDBRANCH   8   9
ENDBRANCH   7   8
ENDBRANCH   6   7
ENDBRANCH   5   6
ENDBRANCH   4   5
ENDBRANCH   3   4
ENDBRANCH   2   3
ENDBRANCH   1   2
BRANCH   1  35
ATOM     35  C   UNL A   1      37.874  32.242  37.133  1.00  0.00     0.188 C 
BRANCH  35  36
ATOM     36  O   UNL A   1      36.845  33.165  36.770  1.00  0.00    -0.376 OA
BRANCH  36  37
ATOM     37  C   UNL A   1      36.891  33.683  35.446  1.00  0.00     0.202 C 
BRANCH  37  38
ATOM     38  C   UNL A   1      35.544  33.647  34.714  1.00  0.00     0.261 C 
BRANCH  38  39
ATOM     39  O   UNL A   1      35.456  32.696  33.641  1.00  0.00    -0.460 OA
BRANCH  39  40
ATOM     40  C   UNL A   1      35.547  33.166  32.376  1.00  0.00     0.338 C 
ATOM     41  O   UNL A   1      34.958  34.125  31.910  1.00  0.00    -0.246 OA
BRANCH  40  42
ATOM     42  C   UNL A   1      36.650  32.439  31.712  1.00  0.00     0.060 A 
ATOM     43  C   UNL A   1      36.727  32.392  30.318  1.00  0.00     0.016 A 
ATOM     44  C   UNL A   1      37.599  31.773  32.498  1.00  0.00     0.016 A 
ATOM     45  C   UNL A   1      37.783  31.712  29.710  1.00  0.00     0.010 A 
ATOM     46  C   UNL A   1      38.653  31.087  31.888  1.00  0.00     0.010 A 
ATOM     47  C   UNL A   1      38.767  31.079  30.490  1.00  0.00    -0.014 A 
BRANCH  47  48
ATOM     48  C   UNL A   1      40.024  30.631  29.843  1.00  0.00     0.031 A 
ATOM     49  C   UNL A   1      41.261  31.473  29.805  1.00  0.00     0.074 A 
ATOM     50  C   UNL A   1      40.015  29.415  29.265  1.00  0.00     0.049 A 
ATOM     51  N   UNL A   1      42.453  31.143  29.381  1.00  0.00    -0.248 NA
ATOM     52  C   UNL A   1      41.156  32.857  30.291  1.00  0.00     0.031 C 
ATOM     53  C   UNL A   1      38.844  28.538  29.182  1.00  0.00     0.029 A 
ATOM     54  N   UNL A   1      41.008  28.705  28.643  1.00  0.00    -0.354 N 
ATOM     55  C   UNL A   1      43.245  32.271  29.543  1.00  0.00     0.074 A 
ATOM     56  C   UNL A   1      42.391  33.306  30.090  1.00  0.00     0.031 C 
ATOM     57  C   UNL A   1      39.191  27.400  28.564  1.00  0.00     0.029 A 
ATOM     58  C   UNL A   1      40.603  27.469  28.201  1.00  0.00     0.049 A 
ATOM     59  H   UNL A   1      41.924  29.048  28.525  1.00  0.00     0.167 HD
ATOM     60  C   UNL A   1      44.566  32.415  29.277  1.00  0.00     0.034 A 
ATOM     61  C   UNL A   1      41.290  26.487  27.589  1.00  0.00     0.034 A 
ATOM     62  C   UNL A   1      45.408  31.374  28.748  1.00  0.00     0.049 A 
ATOM     63  C   UNL A   1      42.757  26.663  27.336  1.00  0.00     0.074 A 
ATOM     64  C   UNL A   1      46.775  31.408  28.527  1.00  0.00     0.029 A 
ATOM     65  N   UNL A   1      44.970  30.123  28.341  1.00  0.00    -0.354 N 
ATOM     66  N   UNL A   1      43.524  27.678  27.648  1.00  0.00    -0.248 NA
ATOM     67  C   UNL A   1      43.461  25.553  26.680  1.00  0.00     0.031 C 
ATOM     68  C   UNL A   1      47.161  30.183  27.973  1.00  0.00     0.029 A 
ATOM     69  C   UNL A   1      46.036  29.382  27.861  1.00  0.00     0.049 A 
ATOM     70  H   UNL A   1      44.039  29.809  28.388  1.00  0.00     0.167 HD
ATOM     71  C   UNL A   1      44.804  27.323  27.248  1.00  0.00     0.074 A 
ATOM     72  C   UNL A   1      44.714  25.993  26.679  1.00  0.00     0.031 C 
ATOM     73  C   UNL A   1      45.947  28.045  27.335  1.00  0.00     0.034 A 
BRANCH  60  74
ATOM     74  C   UNL A   1      45.227  33.723  29.616  1.00  0.00     0.023 A 
ATOM     75  C   UNL A   1      45.877  33.853  30.859  1.00  0.00     0.012 A 
ATOM     76  C   UNL A   1      45.338  34.754  28.662  1.00  0.00     0.148 A 
ATOM     77  C   UNL A   1      46.627  34.991  31.151  1.00  0.00     0.002 A 
ATOM     78  C   UNL A   1      46.108  35.875  28.950  1.00  0.00     0.091 A 
ATOM     79  F   UNL A   1      44.706  34.607  27.488  1.00  0.00    -0.205 F 
ATOM     80  C   UNL A   1      46.752  35.995  30.194  1.00  0.00     0.022 A 
BRANCH  78  81
ATOM     81  S   UNL A   1      46.383  37.200  27.769  1.00  0.00     0.127 S 
ATOM     82  O   UNL A   1      45.781  38.340  28.461  1.00  0.00    -0.237 OA
ATOM     83  O   UNL A   1      47.843  37.240  27.685  1.00  0.00    -0.237 OA
ATOM     84  O   UNL A   1      45.710  36.796  26.543  1.00  0.00    -0.744 OA
ENDBRANCH  78  81
ENDBRANCH  60  74
BRANCH  61  85
ATOM     85  C   UNL A   1      40.591  25.214  27.270  1.00  0.00     0.023 A 
ATOM     86  C   UNL A   1      39.391  25.260  26.536  1.00  0.00     0.012 A 
ATOM     87  C   UNL A   1      41.160  23.970  27.597  1.00  0.00     0.148 A 
ATOM     88  C   UNL A   1      38.763  24.080  26.136  1.00  0.00     0.002 A 
ATOM     89  C   UNL A   1      40.550  22.800  27.162  1.00  0.00     0.091 A 
ATOM     90  F   UNL A   1      42.306  23.960  28.291  1.00  0.00    -0.205 F 
ATOM     91  C   UNL A   1      39.347  22.852  26.440  1.00  0.00     0.022 A 
BRANCH  89  92
ATOM     92  S   UNL A   1      41.280  21.177  27.407  1.00  0.00     0.127 S 
ATOM     93  O   UNL A   1      40.826  20.849  28.757  1.00  0.00    -0.237 OA
ATOM     94  O   UNL A   1      40.649  20.403  26.338  1.00  0.00    -0.237 OA
ATOM     95  O   UNL A   1      42.717  21.361  27.258  1.00  0.00    -0.744 OA
ENDBRANCH  89  92
ENDBRANCH  61  85
BRANCH  73  96
ATOM     96  C   UNL A   1      47.216  27.429  26.813  1.00  0.00     0.023 A 
ATOM     97  C   UNL A   1      47.968  26.587  27.654  1.00  0.00     0.012 A 
ATOM     98  C   UNL A   1      47.583  27.575  25.462  1.00  0.00     0.148 A 
ATOM     99  C   UNL A   1      49.073  25.897  27.155  1.00  0.00     0.002 A 
ATOM    100  C   UNL A   1      48.665  26.859  24.964  1.00  0.00     0.091 A 
ATOM    101  F   UNL A   1      46.852  28.389  24.687  1.00  0.00    -0.205 F 
ATOM    102  C   UNL A   1      49.413  26.024  25.810  1.00  0.00     0.022 A 
BRANCH 100 103
ATOM    103  S   UNL A   1      49.140  26.896  23.232  1.00  0.00     0.127 S 
ATOM    104  O   UNL A   1      48.324  25.816  22.677  1.00  0.00    -0.237 OA
ATOM    105  O   UNL A   1      48.729  28.240  22.829  1.00  0.00    -0.237 OA
ATOM    106  O   UNL A   1      50.577  26.661  23.200  1.00  0.00    -0.744 OA
ENDBRANCH 100 103
ENDBRANCH  73  96
ENDBRANCH  47  48
ENDBRANCH  40  42
ENDBRANCH  39  40
ENDBRANCH  38  39
ENDBRANCH  37  38
ENDBRANCH  36  37
ENDBRANCH  35  36
ENDBRANCH   1  35
TORSDOF 26
ENDMDL
