MODEL 1
REMARK VINA RESULT:     -10.1      0.000      0.000
REMARK SMILES O=C(OCCOCCOCCOCCOC(=O)[C@H]1C[C@](O)(c2ccccc2Cl)[C@@H](c2ccccc2Cl)O1)c1ccc(-c2c3nc(c(-c4cccc(S(=O)(=O)[O-])c4F)c4ccc([nH]4)c(-c4cccc(S(=O)(=O)[O-])c4F)c4nc(c(-c5cccc(S(=O)(=O)[O-])c5F)c5ccc2[nH]5)C=C4)C=C3)cc1
REMARK SMILES IDX 8 1 7 2 6 3 5 4 4 5 3 6 2 7 1 8 38 9 39 10 100 11 40 12
REMARK SMILES IDX 99 13 41 14 42 15 43 16 93 17 44 18 98 19 92 20 94 21 45 22
REMARK SMILES IDX 97 23 91 24 90 25 46 27 78 28 58 29 77 30 59 31 62 32 76 33
REMARK SMILES IDX 95 34 60 35 61 36 75 38 96 39 63 40 47 41 48 42 56 43 49 44
REMARK SMILES IDX 51 45 57 46 50 47 52 48 53 49 54 50 55 51 79 52 80 53 88 54
REMARK SMILES IDX 81 55 83 56 89 57 82 58 84 59 85 60 86 61 87 62 64 63 65 64
REMARK SMILES IDX 73 65 66 66 68 67 74 68 67 69 69 70 70 71 71 72 72 73 9 74
REMARK SMILES IDX 10 75 11 76 12 77 13 78 14 79 15 80 16 81 17 82 18 83 19 84
REMARK SMILES IDX 37 85 20 86 29 87 22 88 23 89 27 90 24 91 26 92 28 93 25 94
REMARK SMILES IDX 21 95 30 97 31 98 35 99 32 100 34 101 36 102 33 103
REMARK H PARENT 94 26 62 37 21 96
REMARK Flexibility Score: inf
ROOT
ATOM      1  C   UNL A   1      39.742  22.656  26.165  1.00  0.00     0.188 C 
ENDROOT
BRANCH   1   2
ATOM      2  C   UNL A   1      40.216  21.235  26.359  1.00  0.00     0.188 C 
BRANCH   2   3
ATOM      3  O   UNL A   1      41.584  21.307  26.697  1.00  0.00    -0.376 OA
BRANCH   3   4
ATOM      4  C   UNL A   1      42.573  20.636  25.959  1.00  0.00     0.202 C 
BRANCH   4   5
ATOM      5  C   UNL A   1      43.814  21.413  25.548  1.00  0.00     0.261 C 
BRANCH   5   6
ATOM      6  O   UNL A   1      43.662  22.799  25.152  1.00  0.00    -0.460 OA
BRANCH   6   7
ATOM      7  C   UNL A   1      44.206  23.959  25.593  1.00  0.00     0.338 C 
ATOM      8  O   UNL A   1      45.353  24.254  25.270  1.00  0.00    -0.246 OA
BRANCH   7   9
ATOM      9  C   UNL A   1      43.451  24.890  26.454  1.00  0.00     0.060 A 
ATOM     10  C   UNL A   1      43.714  26.246  26.470  1.00  0.00     0.016 A 
ATOM     11  C   UNL A   1      42.351  24.434  27.178  1.00  0.00     0.016 A 
ATOM     12  C   UNL A   1      43.206  27.065  27.446  1.00  0.00     0.010 A 
ATOM     13  C   UNL A   1      41.660  25.317  28.016  1.00  0.00     0.010 A 
ATOM     14  C   UNL A   1      42.153  26.616  28.223  1.00  0.00    -0.014 A 
BRANCH  14  15
ATOM     15  C   UNL A   1      41.693  27.501  29.308  1.00  0.00     0.031 A 
ATOM     16  C   UNL A   1      42.517  27.560  30.559  1.00  0.00     0.074 A 
ATOM     17  C   UNL A   1      40.666  28.348  29.096  1.00  0.00     0.049 A 
ATOM     18  N   UNL A   1      42.281  28.194  31.671  1.00  0.00    -0.248 NA
ATOM     19  C   UNL A   1      43.786  26.805  30.555  1.00  0.00     0.031 C 
ATOM     20  C   UNL A   1      39.888  28.450  27.852  1.00  0.00     0.029 A 
ATOM     21  N   UNL A   1      40.119  29.312  29.899  1.00  0.00    -0.354 N 
ATOM     22  C   UNL A   1      43.328  27.859  32.519  1.00  0.00     0.074 A 
ATOM     23  C   UNL A   1      44.206  26.970  31.799  1.00  0.00     0.031 C 
ATOM     24  C   UNL A   1      38.995  29.442  27.965  1.00  0.00     0.029 A 
ATOM     25  C   UNL A   1      39.049  29.959  29.323  1.00  0.00     0.049 A 
ATOM     26  H   UNL A   1      40.457  29.522  30.799  1.00  0.00     0.167 HD
ATOM     27  C   UNL A   1      43.530  28.266  33.791  1.00  0.00     0.034 A 
ATOM     28  C   UNL A   1      38.169  30.822  29.862  1.00  0.00     0.034 A 
ATOM     29  C   UNL A   1      42.647  29.173  34.464  1.00  0.00     0.049 A 
ATOM     30  C   UNL A   1      38.373  31.196  31.303  1.00  0.00     0.074 A 
ATOM     31  C   UNL A   1      42.689  29.613  35.771  1.00  0.00     0.029 A 
ATOM     32  N   UNL A   1      41.553  29.784  33.865  1.00  0.00    -0.354 N 
ATOM     33  N   UNL A   1      39.338  30.836  32.118  1.00  0.00    -0.248 NA
ATOM     34  C   UNL A   1      37.382  32.097  31.898  1.00  0.00     0.031 C 
ATOM     35  C   UNL A   1      41.602  30.471  35.969  1.00  0.00     0.029 A 
ATOM     36  C   UNL A   1      40.910  30.598  34.774  1.00  0.00     0.049 A 
ATOM     37  H   UNL A   1      41.277  29.654  32.928  1.00  0.00     0.167 HD
ATOM     38  C   UNL A   1      39.084  31.482  33.317  1.00  0.00     0.074 A 
ATOM     39  C   UNL A   1      37.893  32.286  33.107  1.00  0.00     0.031 C 
ATOM     40  C   UNL A   1      39.750  31.410  34.496  1.00  0.00     0.034 A 
BRANCH  27  41
ATOM     41  C   UNL A   1      44.716  27.691  34.515  1.00  0.00     0.023 A 
ATOM     42  C   UNL A   1      44.591  26.495  35.252  1.00  0.00     0.012 A 
ATOM     43  C   UNL A   1      45.953  28.363  34.491  1.00  0.00     0.148 A 
ATOM     44  C   UNL A   1      45.671  25.997  35.982  1.00  0.00     0.002 A 
ATOM     45  C   UNL A   1      47.036  27.837  35.181  1.00  0.00     0.091 A 
ATOM     46  F   UNL A   1      46.039  29.516  33.813  1.00  0.00    -0.205 F 
ATOM     47  C   UNL A   1      46.893  26.663  35.941  1.00  0.00     0.022 A 
BRANCH  45  48
ATOM     48  S   UNL A   1      48.668  28.583  35.147  1.00  0.00     0.127 S 
ATOM     49  O   UNL A   1      48.563  29.575  36.213  1.00  0.00    -0.237 OA
ATOM     50  O   UNL A   1      49.528  27.444  35.450  1.00  0.00    -0.237 OA
ATOM     51  O   UNL A   1      48.830  29.136  33.804  1.00  0.00    -0.744 OA
ENDBRANCH  45  48
ENDBRANCH  27  41
BRANCH  28  52
ATOM     52  C   UNL A   1      37.004  31.320  29.074  1.00  0.00     0.023 A 
ATOM     53  C   UNL A   1      36.855  32.695  28.815  1.00  0.00     0.012 A 
ATOM     54  C   UNL A   1      36.031  30.425  28.579  1.00  0.00     0.148 A 
ATOM     55  C   UNL A   1      35.741  33.172  28.121  1.00  0.00     0.002 A 
ATOM     56  C   UNL A   1      34.959  30.899  27.833  1.00  0.00     0.091 A 
ATOM     57  F   UNL A   1      36.172  29.118  28.847  1.00  0.00    -0.205 F 
ATOM     58  C   UNL A   1      34.799  32.275  27.622  1.00  0.00     0.022 A 
BRANCH  56  59
ATOM     59  S   UNL A   1      33.781  29.797  27.043  1.00  0.00     0.127 S 
ATOM     60  O   UNL A   1      34.597  29.185  25.999  1.00  0.00    -0.237 OA
ATOM     61  O   UNL A   1      33.414  28.906  28.144  1.00  0.00    -0.237 OA
ATOM     62  O   UNL A   1      32.694  30.652  26.583  1.00  0.00    -0.744 OA
ENDBRANCH  56  59
ENDBRANCH  28  52
BRANCH  40  63
ATOM     63  C   UNL A   1      39.229  32.258  35.619  1.00  0.00     0.023 A 
ATOM     64  C   UNL A   1      38.289  31.729  36.525  1.00  0.00     0.012 A 
ATOM     65  C   UNL A   1      39.721  33.562  35.804  1.00  0.00     0.148 A 
ATOM     66  C   UNL A   1      37.815  32.506  37.578  1.00  0.00     0.002 A 
ATOM     67  C   UNL A   1      39.291  34.307  36.891  1.00  0.00     0.091 A 
ATOM     68  F   UNL A   1      40.600  34.048  34.915  1.00  0.00    -0.205 F 
ATOM     69  C   UNL A   1      38.326  33.788  37.770  1.00  0.00     0.022 A 
BRANCH  67  70
ATOM     70  S   UNL A   1      39.980  35.919  37.276  1.00  0.00     0.127 S 
ATOM     71  O   UNL A   1      39.241  36.276  38.486  1.00  0.00    -0.237 OA
ATOM     72  O   UNL A   1      41.393  35.606  37.491  1.00  0.00    -0.237 OA
ATOM     73  O   UNL A   1      39.717  36.755  36.112  1.00  0.00    -0.744 OA
ENDBRANCH  67  70
ENDBRANCH  40  63
ENDBRANCH  14  15
ENDBRANCH   7   9
ENDBRANCH   6   7
ENDBRANCH   5   6
ENDBRANCH   4   5
ENDBRANCH   3   4
ENDBRANCH   2   3
ENDBRANCH   1   2
BRANCH   1  74
ATOM     74  O   UNL A   1      38.371  22.842  26.451  1.00  0.00    -0.377 OA
BRANCH  74  75
ATOM     75  C   UNL A   1      37.362  22.746  25.445  1.00  0.00     0.188 C 
BRANCH  75  76
ATOM     76  C   UNL A   1      36.416  21.533  25.418  1.00  0.00     0.188 C 
BRANCH  76  77
ATOM     77  O   UNL A   1      35.465  21.490  26.458  1.00  0.00    -0.376 OA
BRANCH  77  78
ATOM     78  C   UNL A   1      34.205  22.123  26.255  1.00  0.00     0.202 C 
BRANCH  78  79
ATOM     79  C   UNL A   1      33.862  23.517  26.836  1.00  0.00     0.261 C 
BRANCH  79  80
ATOM     80  O   UNL A   1      32.998  24.373  26.042  1.00  0.00    -0.461 OA
BRANCH  80  81
ATOM     81  C   UNL A   1      31.709  24.505  26.466  1.00  0.00     0.335 C 
ATOM     82  O   UNL A   1      31.287  23.963  27.486  1.00  0.00    -0.249 OA
BRANCH  81  83
ATOM     83  C   UNL A   1      30.769  25.408  25.603  1.00  0.00     0.232 C 
ATOM     84  C   UNL A   1      31.082  26.850  25.235  1.00  0.00     0.087 C 
ATOM     85  O   UNL A   1      30.416  24.770  24.371  1.00  0.00    -0.355 OA
ATOM     86  C   UNL A   1      31.133  26.954  23.718  1.00  0.00     0.124 C 
ATOM     87  C   UNL A   1      31.091  25.461  23.294  1.00  0.00     0.187 C 
BRANCH  86  88
ATOM     88  C   UNL A   1      30.044  27.948  23.260  1.00  0.00     0.005 A 
ATOM     89  C   UNL A   1      30.493  29.203  22.751  1.00  0.00     0.008 A 
ATOM     90  C   UNL A   1      28.652  27.780  23.337  1.00  0.00     0.047 A 
ATOM     91  C   UNL A   1      29.622  30.179  22.260  1.00  0.00     0.001 A 
ATOM     92  C   UNL A   1      27.779  28.756  22.818  1.00  0.00     0.021 A 
ATOM     93  Cl  UNL A   1      27.867  26.463  24.124  1.00  0.00    -0.084 Cl
ATOM     94  C   UNL A   1      28.258  29.942  22.269  1.00  0.00     0.002 A 
ENDBRANCH  86  88
BRANCH  86  95
ATOM     95  O   UNL A   1      32.361  27.546  23.240  1.00  0.00    -0.382 OA
ATOM     96  H   UNL A   1      32.478  27.334  22.300  1.00  0.00     0.212 HD
ENDBRANCH  86  95
BRANCH  87  97
ATOM     97  C   UNL A   1      32.366  24.649  23.065  1.00  0.00     0.003 A 
ATOM     98  C   UNL A   1      33.653  25.219  23.131  1.00  0.00     0.008 A 
ATOM     99  C   UNL A   1      32.293  23.249  22.927  1.00  0.00     0.046 A 
ATOM    100  C   UNL A   1      34.809  24.434  23.106  1.00  0.00     0.000 A 
ATOM    101  C   UNL A   1      33.453  22.465  22.893  1.00  0.00     0.021 A 
ATOM    102  Cl  UNL A   1      30.787  22.401  22.815  1.00  0.00    -0.084 Cl
ATOM    103  C   UNL A   1      34.709  23.055  22.998  1.00  0.00     0.002 A 
ENDBRANCH  87  97
ENDBRANCH  81  83
ENDBRANCH  80  81
ENDBRANCH  79  80
ENDBRANCH  78  79
ENDBRANCH  77  78
ENDBRANCH  76  77
ENDBRANCH  75  76
ENDBRANCH  74  75
ENDBRANCH   1  74
TORSDOF 26
ENDMDL
MODEL 2
REMARK VINA RESULT:     -10.0      5.912     10.898
REMARK SMILES O=C(OCCOCCOCCOCCOC(=O)[C@H]1C[C@](O)(c2ccccc2Cl)[C@@H](c2ccccc2Cl)O1)c1ccc(-c2c3nc(c(-c4cccc(S(=O)(=O)[O-])c4F)c4ccc([nH]4)c(-c4cccc(S(=O)(=O)[O-])c4F)c4nc(c(-c5cccc(S(=O)(=O)[O-])c5F)c5ccc2[nH]5)C=C4)C=C3)cc1
REMARK SMILES IDX 8 1 7 2 6 3 5 4 4 5 3 6 2 7 1 8 38 9 39 10 100 11 40 12
REMARK SMILES IDX 99 13 41 14 42 15 43 16 93 17 44 18 98 19 92 20 94 21 45 22
REMARK SMILES IDX 97 23 91 24 90 25 46 27 78 28 58 29 77 30 59 31 62 32 76 33
REMARK SMILES IDX 95 34 60 35 61 36 75 38 96 39 63 40 47 41 48 42 56 43 49 44
REMARK SMILES IDX 51 45 57 46 50 47 52 48 53 49 54 50 55 51 79 52 80 53 88 54
REMARK SMILES IDX 81 55 83 56 89 57 82 58 84 59 85 60 86 61 87 62 64 63 65 64
REMARK SMILES IDX 73 65 66 66 68 67 74 68 67 69 69 70 70 71 71 72 72 73 9 74
REMARK SMILES IDX 10 75 11 76 12 77 13 78 14 79 15 80 16 81 17 82 18 83 19 84
REMARK SMILES IDX 37 85 20 86 29 87 22 88 23 89 27 90 24 91 26 92 28 93 25 94
REMARK SMILES IDX 21 95 30 97 31 98 35 99 32 100 34 101 36 102 33 103
REMARK H PARENT 94 26 62 37 21 96
REMARK Flexibility Score: inf
ROOT
ATOM      1  C   UNL A   1      35.376  34.110  28.582  1.00  0.00     0.188 C 
ENDROOT
BRANCH   1   2
ATOM      2  C   UNL A   1      33.982  34.488  28.139  1.00  0.00     0.188 C 
BRANCH   2   3
ATOM      3  O   UNL A   1      33.225  34.687  29.314  1.00  0.00    -0.376 OA
BRANCH   3   4
ATOM      4  C   UNL A   1      33.614  35.600  30.308  1.00  0.00     0.202 C 
BRANCH   4   5
ATOM      5  C   UNL A   1      33.097  35.385  31.722  1.00  0.00     0.261 C 
BRANCH   5   6
ATOM      6  O   UNL A   1      33.325  34.100  32.354  1.00  0.00    -0.460 OA
BRANCH   6   7
ATOM      7  C   UNL A   1      34.353  33.217  32.325  1.00  0.00     0.338 C 
ATOM      8  O   UNL A   1      34.470  32.453  31.372  1.00  0.00    -0.246 OA
BRANCH   7   9
ATOM      9  C   UNL A   1      35.347  33.150  33.413  1.00  0.00     0.060 A 
ATOM     10  C   UNL A   1      35.275  33.972  34.521  1.00  0.00     0.016 A 
ATOM     11  C   UNL A   1      36.316  32.148  33.410  1.00  0.00     0.016 A 
ATOM     12  C   UNL A   1      36.327  34.096  35.393  1.00  0.00     0.010 A 
ATOM     13  C   UNL A   1      37.276  32.110  34.429  1.00  0.00     0.010 A 
ATOM     14  C   UNL A   1      37.336  33.150  35.372  1.00  0.00    -0.014 A 
BRANCH  14  15
ATOM     15  C   UNL A   1      38.481  33.368  36.274  1.00  0.00     0.031 A 
ATOM     16  C   UNL A   1      39.663  34.117  35.734  1.00  0.00     0.074 A 
ATOM     17  C   UNL A   1      38.378  33.055  37.581  1.00  0.00     0.049 A 
ATOM     18  N   UNL A   1      40.809  34.364  36.300  1.00  0.00    -0.248 NA
ATOM     19  C   UNL A   1      39.534  34.669  34.371  1.00  0.00     0.031 C 
ATOM     20  C   UNL A   1      37.204  32.442  38.220  1.00  0.00     0.029 A 
ATOM     21  N   UNL A   1      39.251  33.239  38.618  1.00  0.00    -0.354 N 
ATOM     22  C   UNL A   1      41.560  35.032  35.342  1.00  0.00     0.074 A 
ATOM     23  C   UNL A   1      40.745  35.160  34.160  1.00  0.00     0.031 C 
ATOM     24  C   UNL A   1      37.419  32.336  39.539  1.00  0.00     0.029 A 
ATOM     25  C   UNL A   1      38.783  32.754  39.818  1.00  0.00     0.049 A 
ATOM     26  H   UNL A   1      40.127  33.676  38.517  1.00  0.00     0.167 HD
ATOM     27  C   UNL A   1      42.823  35.497  35.453  1.00  0.00     0.034 A 
ATOM     28  C   UNL A   1      39.417  32.601  40.995  1.00  0.00     0.034 A 
ATOM     29  C   UNL A   1      43.592  35.374  36.656  1.00  0.00     0.049 A 
ATOM     30  C   UNL A   1      40.847  33.055  41.065  1.00  0.00     0.074 A 
ATOM     31  C   UNL A   1      44.904  35.733  36.886  1.00  0.00     0.029 A 
ATOM     32  N   UNL A   1      43.101  34.845  37.844  1.00  0.00    -0.354 N 
ATOM     33  N   UNL A   1      41.570  33.641  40.139  1.00  0.00    -0.248 NA
ATOM     34  C   UNL A   1      41.547  32.839  42.335  1.00  0.00     0.031 C 
ATOM     35  C   UNL A   1      45.215  35.396  38.208  1.00  0.00     0.029 A 
ATOM     36  C   UNL A   1      44.083  34.869  38.813  1.00  0.00     0.049 A 
ATOM     37  H   UNL A   1      42.187  34.505  37.975  1.00  0.00     0.167 HD
ATOM     38  C   UNL A   1      42.806  33.885  40.719  1.00  0.00     0.074 A 
ATOM     39  C   UNL A   1      42.716  33.414  42.090  1.00  0.00     0.031 C 
ATOM     40  C   UNL A   1      43.924  34.425  40.175  1.00  0.00     0.034 A 
BRANCH  27  41
ATOM     41  C   UNL A   1      43.432  36.125  34.230  1.00  0.00     0.023 A 
ATOM     42  C   UNL A   1      43.993  35.319  33.217  1.00  0.00     0.012 A 
ATOM     43  C   UNL A   1      43.477  37.527  34.103  1.00  0.00     0.148 A 
ATOM     44  C   UNL A   1      44.621  35.901  32.116  1.00  0.00     0.002 A 
ATOM     45  C   UNL A   1      44.062  38.098  32.981  1.00  0.00     0.091 A 
ATOM     46  F   UNL A   1      42.969  38.272  35.093  1.00  0.00    -0.205 F 
ATOM     47  C   UNL A   1      44.649  37.288  31.994  1.00  0.00     0.022 A 
BRANCH  45  48
ATOM     48  S   UNL A   1      44.099  39.869  32.698  1.00  0.00     0.127 S 
ATOM     49  O   UNL A   1      42.678  40.205  32.727  1.00  0.00    -0.237 OA
ATOM     50  O   UNL A   1      44.866  40.344  33.845  1.00  0.00    -0.237 OA
ATOM     51  O   UNL A   1      44.750  40.057  31.403  1.00  0.00    -0.744 OA
ENDBRANCH  45  48
ENDBRANCH  27  41
BRANCH  28  52
ATOM     52  C   UNL A   1      38.740  31.940  42.149  1.00  0.00     0.023 A 
ATOM     53  C   UNL A   1      38.763  30.539  42.281  1.00  0.00     0.012 A 
ATOM     54  C   UNL A   1      38.061  32.704  43.122  1.00  0.00     0.148 A 
ATOM     55  C   UNL A   1      38.089  29.912  43.332  1.00  0.00     0.002 A 
ATOM     56  C   UNL A   1      37.448  32.079  44.201  1.00  0.00     0.091 A 
ATOM     57  F   UNL A   1      38.028  34.037  42.977  1.00  0.00    -0.205 F 
ATOM     58  C   UNL A   1      37.440  30.680  44.296  1.00  0.00     0.022 A 
BRANCH  56  59
ATOM     59  S   UNL A   1      36.710  33.005  45.551  1.00  0.00     0.127 S 
ATOM     60  O   UNL A   1      35.608  33.687  44.880  1.00  0.00    -0.237 OA
ATOM     61  O   UNL A   1      36.311  31.938  46.469  1.00  0.00    -0.237 OA
ATOM     62  O   UNL A   1      37.772  33.862  46.064  1.00  0.00    -0.744 OA
ENDBRANCH  56  59
ENDBRANCH  28  52
BRANCH  40  63
ATOM     63  C   UNL A   1      45.111  34.574  41.083  1.00  0.00     0.023 A 
ATOM     64  C   UNL A   1      45.359  35.804  41.723  1.00  0.00     0.012 A 
ATOM     65  C   UNL A   1      45.943  33.471  41.341  1.00  0.00     0.148 A 
ATOM     66  C   UNL A   1      46.449  35.943  42.578  1.00  0.00     0.002 A 
ATOM     67  C   UNL A   1      46.990  33.600  42.241  1.00  0.00     0.091 A 
ATOM     68  F   UNL A   1      45.697  32.317  40.701  1.00  0.00    -0.205 F 
ATOM     69  C   UNL A   1      47.255  34.838  42.848  1.00  0.00     0.022 A 
BRANCH  67  70
ATOM     70  S   UNL A   1      48.004  32.203  42.732  1.00  0.00     0.127 S 
ATOM     71  O   UNL A   1      46.997  31.165  42.945  1.00  0.00    -0.237 OA
ATOM     72  O   UNL A   1      48.847  32.006  41.553  1.00  0.00    -0.237 OA
ATOM     73  O   UNL A   1      48.724  32.630  43.925  1.00  0.00    -0.744 OA
ENDBRANCH  67  70
ENDBRANCH  40  63
ENDBRANCH  14  15
ENDBRANCH   7   9
ENDBRANCH   6   7
ENDBRANCH   5   6
ENDBRANCH   4   5
ENDBRANCH   3   4
ENDBRANCH   2   3
ENDBRANCH   1   2
BRANCH   1  74
ATOM     74  O   UNL A   1      35.973  33.107  27.785  1.00  0.00    -0.377 OA
BRANCH  74  75
ATOM     75  C   UNL A   1      36.156  31.769  28.251  1.00  0.00     0.188 C 
BRANCH  75  76
ATOM     76  C   UNL A   1      35.118  30.686  27.909  1.00  0.00     0.188 C 
BRANCH  76  77
ATOM     77  O   UNL A   1      34.063  31.108  27.075  1.00  0.00    -0.376 OA
BRANCH  77  78
ATOM     78  C   UNL A   1      32.763  30.570  27.296  1.00  0.00     0.202 C 
BRANCH  78  79
ATOM     79  C   UNL A   1      32.098  29.554  26.335  1.00  0.00     0.261 C 
BRANCH  79  80
ATOM     80  O   UNL A   1      32.810  28.313  26.086  1.00  0.00    -0.461 OA
BRANCH  80  81
ATOM     81  C   UNL A   1      32.288  27.185  26.646  1.00  0.00     0.335 C 
ATOM     82  O   UNL A   1      31.374  27.213  27.468  1.00  0.00    -0.249 OA
BRANCH  81  83
ATOM     83  C   UNL A   1      32.889  25.819  26.179  1.00  0.00     0.232 C 
ATOM     84  C   UNL A   1      32.204  24.476  26.383  1.00  0.00     0.087 C 
ATOM     85  O   UNL A   1      33.253  25.854  24.794  1.00  0.00    -0.355 OA
ATOM     86  C   UNL A   1      31.970  23.849  25.016  1.00  0.00     0.124 C 
ATOM     87  C   UNL A   1      32.322  25.021  24.062  1.00  0.00     0.187 C 
BRANCH  86  88
ATOM     88  C   UNL A   1      32.736  22.509  24.958  1.00  0.00     0.005 A 
ATOM     89  C   UNL A   1      31.960  21.319  25.087  1.00  0.00     0.008 A 
ATOM     90  C   UNL A   1      34.124  22.327  24.844  1.00  0.00     0.047 A 
ATOM     91  C   UNL A   1      32.513  20.039  25.007  1.00  0.00     0.001 A 
ATOM     92  C   UNL A   1      34.674  21.035  24.739  1.00  0.00     0.021 A 
ATOM     93  Cl  UNL A   1      35.287  23.598  24.909  1.00  0.00    -0.084 Cl
ATOM     94  C   UNL A   1      33.875  19.897  24.805  1.00  0.00     0.002 A 
ENDBRANCH  86  88
BRANCH  86  95
ATOM     95  O   UNL A   1      30.593  23.467  24.806  1.00  0.00    -0.382 OA
ATOM     96  H   UNL A   1      30.401  22.660  25.310  1.00  0.00     0.212 HD
ENDBRANCH  86  95
BRANCH  87  97
ATOM     97  C   UNL A   1      31.262  25.999  23.555  1.00  0.00     0.003 A 
ATOM     98  C   UNL A   1      29.947  26.026  24.063  1.00  0.00     0.008 A 
ATOM     99  C   UNL A   1      31.619  27.019  22.652  1.00  0.00     0.046 A 
ATOM    100  C   UNL A   1      29.048  27.041  23.727  1.00  0.00     0.000 A 
ATOM    101  C   UNL A   1      30.713  28.030  22.309  1.00  0.00     0.021 A 
ATOM    102  Cl  UNL A   1      33.190  27.115  21.928  1.00  0.00    -0.084 Cl
ATOM    103  C   UNL A   1      29.434  28.050  22.857  1.00  0.00     0.002 A 
ENDBRANCH  87  97
ENDBRANCH  81  83
ENDBRANCH  80  81
ENDBRANCH  79  80
ENDBRANCH  78  79
ENDBRANCH  77  78
ENDBRANCH  76  77
ENDBRANCH  75  76
ENDBRANCH  74  75
ENDBRANCH   1  74
TORSDOF 26
ENDMDL
MODEL 3
REMARK VINA RESULT:      -9.7      2.945      4.193
REMARK SMILES O=C(OCCOCCOCCOCCOC(=O)[C@H]1C[C@](O)(c2ccccc2Cl)[C@@H](c2ccccc2Cl)O1)c1ccc(-c2c3nc(c(-c4cccc(S(=O)(=O)[O-])c4F)c4ccc([nH]4)c(-c4cccc(S(=O)(=O)[O-])c4F)c4nc(c(-c5cccc(S(=O)(=O)[O-])c5F)c5ccc2[nH]5)C=C4)C=C3)cc1
REMARK SMILES IDX 8 1 7 2 6 3 5 4 4 5 3 6 2 7 1 8 38 9 39 10 100 11 40 12
REMARK SMILES IDX 99 13 41 14 42 15 43 16 93 17 44 18 98 19 92 20 94 21 45 22
REMARK SMILES IDX 97 23 91 24 90 25 46 27 78 28 58 29 77 30 59 31 62 32 76 33
REMARK SMILES IDX 95 34 60 35 61 36 75 38 96 39 63 40 47 41 48 42 56 43 49 44
REMARK SMILES IDX 51 45 57 46 50 47 52 48 53 49 54 50 55 51 79 52 80 53 88 54
REMARK SMILES IDX 81 55 83 56 89 57 82 58 84 59 85 60 86 61 87 62 64 63 65 64
REMARK SMILES IDX 73 65 66 66 68 67 74 68 67 69 69 70 70 71 71 72 72 73 9 74
REMARK SMILES IDX 10 75 11 76 12 77 13 78 14 79 15 80 16 81 17 82 18 83 19 84
REMARK SMILES IDX 37 85 20 86 29 87 22 88 23 89 27 90 24 91 26 92 28 93 25 94
REMARK SMILES IDX 21 95 30 97 31 98 35 99 32 100 34 101 36 102 33 103
REMARK H PARENT 94 26 62 37 21 96
REMARK Flexibility Score: inf
ROOT
ATOM      1  C   UNL A   1      39.457  22.146  26.482  1.00  0.00     0.188 C 
ENDROOT
BRANCH   1   2
ATOM      2  C   UNL A   1      39.747  20.716  26.092  1.00  0.00     0.188 C 
BRANCH   2   3
ATOM      3  O   UNL A   1      40.853  20.302  26.864  1.00  0.00    -0.376 OA
BRANCH   3   4
ATOM      4  C   UNL A   1      41.847  19.451  26.351  1.00  0.00     0.202 C 
BRANCH   4   5
ATOM      5  C   UNL A   1      43.051  20.082  25.670  1.00  0.00     0.261 C 
BRANCH   5   6
ATOM      6  O   UNL A   1      42.895  21.388  25.060  1.00  0.00    -0.460 OA
BRANCH   6   7
ATOM      7  C   UNL A   1      43.583  22.551  25.161  1.00  0.00     0.338 C 
ATOM      8  O   UNL A   1      44.432  22.829  24.320  1.00  0.00    -0.246 OA
BRANCH   7   9
ATOM      9  C   UNL A   1      43.334  23.506  26.258  1.00  0.00     0.060 A 
ATOM     10  C   UNL A   1      43.440  24.871  26.077  1.00  0.00     0.016 A 
ATOM     11  C   UNL A   1      42.848  23.049  27.482  1.00  0.00     0.016 A 
ATOM     12  C   UNL A   1      43.470  25.736  27.141  1.00  0.00     0.010 A 
ATOM     13  C   UNL A   1      42.645  23.957  28.528  1.00  0.00     0.010 A 
ATOM     14  C   UNL A   1      43.050  25.294  28.383  1.00  0.00    -0.014 A 
BRANCH  14  15
ATOM     15  C   UNL A   1      43.174  26.236  29.510  1.00  0.00     0.031 A 
ATOM     16  C   UNL A   1      44.496  26.317  30.212  1.00  0.00     0.074 A 
ATOM     17  C   UNL A   1      42.180  27.110  29.768  1.00  0.00     0.049 A 
ATOM     18  N   UNL A   1      44.826  27.003  31.268  1.00  0.00    -0.248 NA
ATOM     19  C   UNL A   1      45.600  25.519  29.644  1.00  0.00     0.031 C 
ATOM     20  C   UNL A   1      40.905  27.189  29.041  1.00  0.00     0.029 A 
ATOM     21  N   UNL A   1      42.093  28.123  30.684  1.00  0.00    -0.354 N 
ATOM     22  C   UNL A   1      46.147  26.666  31.532  1.00  0.00     0.074 A 
ATOM     23  C   UNL A   1      46.564  25.719  30.528  1.00  0.00     0.031 C 
ATOM     24  C   UNL A   1      40.184  28.215  29.514  1.00  0.00     0.029 A 
ATOM     25  C   UNL A   1      40.886  28.783  30.653  1.00  0.00     0.049 A 
ATOM     26  H   UNL A   1      42.822  28.357  31.302  1.00  0.00     0.167 HD
ATOM     27  C   UNL A   1      46.935  27.116  32.532  1.00  0.00     0.034 A 
ATOM     28  C   UNL A   1      40.379  29.697  31.501  1.00  0.00     0.034 A 
ATOM     29  C   UNL A   1      46.490  28.079  33.496  1.00  0.00     0.049 A 
ATOM     30  C   UNL A   1      41.250  30.121  32.650  1.00  0.00     0.074 A 
ATOM     31  C   UNL A   1      47.156  28.569  34.601  1.00  0.00     0.029 A 
ATOM     32  N   UNL A   1      45.249  28.702  33.459  1.00  0.00    -0.354 N 
ATOM     33  N   UNL A   1      42.482  29.760  32.925  1.00  0.00    -0.248 NA
ATOM     34  C   UNL A   1      40.673  31.079  33.598  1.00  0.00     0.031 C 
ATOM     35  C   UNL A   1      46.304  29.471  35.248  1.00  0.00     0.029 A 
ATOM     36  C   UNL A   1      45.127  29.575  34.522  1.00  0.00     0.049 A 
ATOM     37  H   UNL A   1      44.559  28.546  32.775  1.00  0.00     0.167 HD
ATOM     38  C   UNL A   1      42.838  30.462  34.066  1.00  0.00     0.074 A 
ATOM     39  C   UNL A   1      41.700  31.297  34.406  1.00  0.00     0.031 C 
ATOM     40  C   UNL A   1      43.985  30.414  34.787  1.00  0.00     0.034 A 
BRANCH  27  41
ATOM     41  C   UNL A   1      48.316  26.530  32.634  1.00  0.00     0.023 A 
ATOM     42  C   UNL A   1      49.424  27.213  32.092  1.00  0.00     0.012 A 
ATOM     43  C   UNL A   1      48.507  25.275  33.243  1.00  0.00     0.148 A 
ATOM     44  C   UNL A   1      50.695  26.639  32.122  1.00  0.00     0.002 A 
ATOM     45  C   UNL A   1      49.783  24.730  33.312  1.00  0.00     0.091 A 
ATOM     46  F   UNL A   1      47.436  24.628  33.720  1.00  0.00    -0.205 F 
ATOM     47  C   UNL A   1      50.876  25.403  32.739  1.00  0.00     0.022 A 
BRANCH  45  48
ATOM     48  S   UNL A   1      50.134  23.174  34.134  1.00  0.00     0.127 S 
ATOM     49  O   UNL A   1      50.526  22.327  33.011  1.00  0.00    -0.237 OA
ATOM     50  O   UNL A   1      51.221  23.545  35.033  1.00  0.00    -0.237 OA
ATOM     51  O   UNL A   1      48.893  22.780  34.798  1.00  0.00    -0.744 OA
ENDBRANCH  45  48
ENDBRANCH  27  41
BRANCH  28  52
ATOM     52  C   UNL A   1      38.985  30.203  31.337  1.00  0.00     0.023 A 
ATOM     53  C   UNL A   1      37.890  29.423  31.755  1.00  0.00     0.012 A 
ATOM     54  C   UNL A   1      38.738  31.466  30.757  1.00  0.00     0.148 A 
ATOM     55  C   UNL A   1      36.582  29.870  31.558  1.00  0.00     0.002 A 
ATOM     56  C   UNL A   1      37.437  31.934  30.624  1.00  0.00     0.091 A 
ATOM     57  F   UNL A   1      39.788  32.194  30.346  1.00  0.00    -0.205 F 
ATOM     58  C   UNL A   1      36.355  31.127  31.002  1.00  0.00     0.022 A 
BRANCH  56  59
ATOM     59  S   UNL A   1      37.071  33.594  30.045  1.00  0.00     0.127 S 
ATOM     60  O   UNL A   1      37.936  34.406  30.896  1.00  0.00    -0.237 OA
ATOM     61  O   UNL A   1      37.475  33.521  28.641  1.00  0.00    -0.237 OA
ATOM     62  O   UNL A   1      35.638  33.770  30.243  1.00  0.00    -0.744 OA
ENDBRANCH  56  59
ENDBRANCH  28  52
BRANCH  40  63
ATOM     63  C   UNL A   1      44.072  31.324  35.978  1.00  0.00     0.023 A 
ATOM     64  C   UNL A   1      43.698  30.855  37.252  1.00  0.00     0.012 A 
ATOM     65  C   UNL A   1      44.583  32.626  35.834  1.00  0.00     0.148 A 
ATOM     66  C   UNL A   1      43.792  31.690  38.363  1.00  0.00     0.002 A 
ATOM     67  C   UNL A   1      44.732  33.429  36.954  1.00  0.00     0.091 A 
ATOM     68  F   UNL A   1      44.912  33.053  34.606  1.00  0.00    -0.205 F 
ATOM     69  C   UNL A   1      44.322  32.970  38.216  1.00  0.00     0.022 A 
BRANCH  67  70
ATOM     70  S   UNL A   1      45.510  35.044  36.872  1.00  0.00     0.127 S 
ATOM     71  O   UNL A   1      45.505  35.447  38.277  1.00  0.00    -0.237 OA
ATOM     72  O   UNL A   1      46.831  34.722  36.332  1.00  0.00    -0.237 OA
ATOM     73  O   UNL A   1      44.675  35.846  35.988  1.00  0.00    -0.744 OA
ENDBRANCH  67  70
ENDBRANCH  40  63
ENDBRANCH  14  15
ENDBRANCH   7   9
ENDBRANCH   6   7
ENDBRANCH   5   6
ENDBRANCH   4   5
ENDBRANCH   3   4
ENDBRANCH   2   3
ENDBRANCH   1   2
BRANCH   1  74
ATOM     74  O   UNL A   1      38.117  22.536  26.260  1.00  0.00    -0.377 OA
BRANCH  74  75
ATOM     75  C   UNL A   1      37.434  22.259  25.037  1.00  0.00     0.188 C 
BRANCH  75  76
ATOM     76  C   UNL A   1      36.256  21.269  25.021  1.00  0.00     0.188 C 
BRANCH  76  77
ATOM     77  O   UNL A   1      35.225  21.548  25.941  1.00  0.00    -0.376 OA
BRANCH  77  78
ATOM     78  C   UNL A   1      34.242  22.516  25.588  1.00  0.00     0.202 C 
BRANCH  78  79
ATOM     79  C   UNL A   1      33.908  23.739  26.478  1.00  0.00     0.261 C 
BRANCH  79  80
ATOM     80  O   UNL A   1      33.262  24.870  25.836  1.00  0.00    -0.461 OA
BRANCH  80  81
ATOM     81  C   UNL A   1      32.104  25.315  26.401  1.00  0.00     0.335 C 
ATOM     82  O   UNL A   1      31.176  24.564  26.696  1.00  0.00    -0.249 OA
BRANCH  81  83
ATOM     83  C   UNL A   1      32.001  26.848  26.691  1.00  0.00     0.232 C 
ATOM     84  C   UNL A   1      33.205  27.768  26.830  1.00  0.00     0.087 C 
ATOM     85  O   UNL A   1      31.131  27.500  25.758  1.00  0.00    -0.355 OA
ATOM     86  C   UNL A   1      33.106  28.847  25.761  1.00  0.00     0.124 C 
ATOM     87  C   UNL A   1      31.941  28.319  24.881  1.00  0.00     0.187 C 
BRANCH  86  88
ATOM     88  C   UNL A   1      33.023  30.220  26.461  1.00  0.00     0.005 A 
ATOM     89  C   UNL A   1      31.853  30.998  26.216  1.00  0.00     0.008 A 
ATOM     90  C   UNL A   1      33.998  30.820  27.275  1.00  0.00     0.047 A 
ATOM     91  C   UNL A   1      31.624  32.237  26.817  1.00  0.00     0.001 A 
ATOM     92  C   UNL A   1      33.753  32.058  27.899  1.00  0.00     0.021 A 
ATOM     93  Cl  UNL A   1      35.584  30.192  27.529  1.00  0.00    -0.084 Cl
ATOM     94  C   UNL A   1      32.568  32.758  27.685  1.00  0.00     0.002 A 
ENDBRANCH  86  88
BRANCH  86  95
ATOM     95  O   UNL A   1      34.300  28.943  24.954  1.00  0.00    -0.382 OA
ATOM     96  H   UNL A   1      34.779  28.100  24.984  1.00  0.00     0.212 HD
ENDBRANCH  86  95
BRANCH  87  97
ATOM     97  C   UNL A   1      32.186  27.434  23.659  1.00  0.00     0.003 A 
ATOM     98  C   UNL A   1      33.452  26.899  23.350  1.00  0.00     0.008 A 
ATOM     99  C   UNL A   1      31.100  26.999  22.875  1.00  0.00     0.046 A 
ATOM    100  C   UNL A   1      33.623  25.945  22.343  1.00  0.00     0.000 A 
ATOM    101  C   UNL A   1      31.275  26.050  21.860  1.00  0.00     0.021 A 
ATOM    102  Cl  UNL A   1      29.484  27.576  23.120  1.00  0.00    -0.084 Cl
ATOM    103  C   UNL A   1      32.532  25.512  21.604  1.00  0.00     0.002 A 
ENDBRANCH  87  97
ENDBRANCH  81  83
ENDBRANCH  80  81
ENDBRANCH  79  80
ENDBRANCH  78  79
ENDBRANCH  77  78
ENDBRANCH  76  77
ENDBRANCH  75  76
ENDBRANCH  74  75
ENDBRANCH   1  74
TORSDOF 26
ENDMDL
