MODEL 1
REMARK VINA RESULT:      -8.2      0.000      0.000
REMARK SMILES C[C@H]([NH2+]CC1(O)CCCC1)[C@H](C)C(=O)OCCOCCOCCOCCOC(=O)c1ccc(-c2c3nc(c(-c4cccc(S(=O)(=O)[O-])c4F)c4ccc([nH]4)c(-c4cccc(S(=O)(=O)[O-])c4F)c4nc(c(-c5cccc(S(=O)(=O)[O-])c5F)c5ccc2[nH]5)C=C4)C=C3)cc1
REMARK SMILES IDX 20 1 19 2 18 3 17 4 16 5 15 6 13 7 14 8 11 9 12 10 2 11 1 12
REMARK SMILES IDX 3 13 4 16 5 17 7 18 10 19 8 20 9 21 6 22 21 24 22 25 23 26
REMARK SMILES IDX 24 27 25 28 26 29 27 30 28 31 29 32 30 33 31 34 92 35 32 36
REMARK SMILES IDX 91 37 33 38 34 39 35 40 85 41 36 42 90 43 84 44 86 45 37 46
REMARK SMILES IDX 89 47 83 48 82 49 38 51 70 52 50 53 69 54 51 55 54 56 68 57
REMARK SMILES IDX 87 58 52 59 53 60 67 62 88 63 55 64 39 65 40 66 48 67 41 68
REMARK SMILES IDX 43 69 49 70 42 71 44 72 45 73 46 74 47 75 71 76 72 77 80 78
REMARK SMILES IDX 73 79 75 80 81 81 74 82 76 83 77 84 78 85 79 86 56 87 57 88
REMARK SMILES IDX 65 89 58 90 60 91 66 92 59 93 61 94 62 95 63 96 64 97
REMARK H PARENT 3 14 3 15 6 23 86 50 54 61
REMARK Flexibility Score: inf
ROOT
ATOM      1  C   UNL A   1      33.619  33.900  27.949  1.00  0.00     0.188 C 
ENDROOT
BRANCH   1   2
ATOM      2  C   UNL A   1      34.075  32.546  28.522  1.00  0.00     0.188 C 
BRANCH   2   3
ATOM      3  O   UNL A   1      34.713  31.559  27.718  1.00  0.00    -0.376 OA
BRANCH   3   4
ATOM      4  C   UNL A   1      34.034  30.376  27.332  1.00  0.00     0.202 C 
BRANCH   4   5
ATOM      5  C   UNL A   1      32.647  30.449  26.669  1.00  0.00     0.261 C 
BRANCH   5   6
ATOM      6  O   UNL A   1      31.911  29.223  26.506  1.00  0.00    -0.463 OA
BRANCH   6   7
ATOM      7  C   UNL A   1      31.380  29.015  25.277  1.00  0.00     0.314 C 
ATOM      8  O   UNL A   1      30.856  29.890  24.592  1.00  0.00    -0.252 OA
BRANCH   7   9
ATOM      9  C   UNL A   1      31.381  27.553  24.846  1.00  0.00     0.154 C 
ATOM     10  C   UNL A   1      30.557  27.206  23.595  1.00  0.00     0.026 C 
BRANCH   9  11
ATOM     11  C   UNL A   1      32.826  27.000  24.761  1.00  0.00     0.193 C 
ATOM     12  C   UNL A   1      33.600  27.530  23.552  1.00  0.00     0.076 C 
BRANCH  11  13
ATOM     13  N   UNL A   1      32.763  25.550  24.829  1.00  0.00    -0.341 N 
ATOM     14  H   UNL A   1      32.955  25.197  23.892  1.00  0.00     0.346 HD
ATOM     15  H   UNL A   1      31.832  25.356  25.199  1.00  0.00     0.346 HD
BRANCH  13  16
ATOM     16  C   UNL A   1      33.662  24.858  25.743  1.00  0.00     0.296 C 
BRANCH  16  17
ATOM     17  C   UNL A   1      34.248  23.664  24.962  1.00  0.00     0.113 C 
ATOM     18  C   UNL A   1      35.364  22.932  25.716  1.00  0.00     0.041 C 
ATOM     19  C   UNL A   1      34.931  24.072  23.664  1.00  0.00     0.041 C 
ATOM     20  C   UNL A   1      36.105  22.156  24.630  1.00  0.00     0.003 C 
ATOM     21  C   UNL A   1      35.791  22.861  23.309  1.00  0.00     0.003 C 
BRANCH  17  22
ATOM     22  O   UNL A   1      33.167  22.749  24.693  1.00  0.00    -0.384 OA
ATOM     23  H   UNL A   1      33.132  22.562  23.742  1.00  0.00     0.211 HD
ENDBRANCH  17  22
ENDBRANCH  16  17
ENDBRANCH  13  16
ENDBRANCH  11  13
ENDBRANCH   9  11
ENDBRANCH   7   9
ENDBRANCH   6   7
ENDBRANCH   5   6
ENDBRANCH   4   5
ENDBRANCH   3   4
ENDBRANCH   2   3
ENDBRANCH   1   2
BRANCH   1  24
ATOM     24  O   UNL A   1      32.630  34.575  28.695  1.00  0.00    -0.377 OA
BRANCH  24  25
ATOM     25  C   UNL A   1      32.981  35.853  29.195  1.00  0.00     0.188 C 
BRANCH  25  26
ATOM     26  C   UNL A   1      33.334  35.929  30.692  1.00  0.00     0.188 C 
BRANCH  26  27
ATOM     27  O   UNL A   1      33.430  34.658  31.325  1.00  0.00    -0.376 OA
BRANCH  27  28
ATOM     28  C   UNL A   1      34.505  34.403  32.216  1.00  0.00     0.202 C 
BRANCH  28  29
ATOM     29  C   UNL A   1      35.638  33.467  31.758  1.00  0.00     0.261 C 
BRANCH  29  30
ATOM     30  O   UNL A   1      36.782  34.077  31.142  1.00  0.00    -0.460 OA
BRANCH  30  31
ATOM     31  C   UNL A   1      37.746  34.584  31.937  1.00  0.00     0.338 C 
ATOM     32  O   UNL A   1      37.647  34.859  33.122  1.00  0.00    -0.246 OA
BRANCH  31  33
ATOM     33  C   UNL A   1      39.019  34.548  31.184  1.00  0.00     0.060 A 
ATOM     34  C   UNL A   1      40.207  34.282  31.878  1.00  0.00     0.016 A 
ATOM     35  C   UNL A   1      39.040  34.753  29.802  1.00  0.00     0.016 A 
ATOM     36  C   UNL A   1      41.425  34.256  31.198  1.00  0.00     0.010 A 
ATOM     37  C   UNL A   1      40.265  34.754  29.127  1.00  0.00     0.010 A 
ATOM     38  C   UNL A   1      41.465  34.542  29.829  1.00  0.00    -0.014 A 
BRANCH  38  39
ATOM     39  C   UNL A   1      42.768  34.808  29.172  1.00  0.00     0.031 A 
ATOM     40  C   UNL A   1      43.683  33.645  28.907  1.00  0.00     0.074 A 
ATOM     41  C   UNL A   1      43.132  36.053  28.815  1.00  0.00     0.049 A 
ATOM     42  N   UNL A   1      44.884  33.634  28.392  1.00  0.00    -0.248 NA
ATOM     43  C   UNL A   1      43.175  32.313  29.276  1.00  0.00     0.031 C 
ATOM     44  C   UNL A   1      42.326  37.256  29.001  1.00  0.00     0.029 A 
ATOM     45  N   UNL A   1      44.295  36.507  28.244  1.00  0.00    -0.354 N 
ATOM     46  C   UNL A   1      45.288  32.305  28.404  1.00  0.00     0.074 A 
ATOM     47  C   UNL A   1      44.210  31.538  28.985  1.00  0.00     0.031 C 
ATOM     48  C   UNL A   1      43.033  38.322  28.582  1.00  0.00     0.029 A 
ATOM     49  C   UNL A   1      44.351  37.876  28.131  1.00  0.00     0.049 A 
ATOM     50  H   UNL A   1      45.019  35.911  27.946  1.00  0.00     0.167 HD
ATOM     51  C   UNL A   1      46.451  31.769  27.964  1.00  0.00     0.034 A 
ATOM     52  C   UNL A   1      45.363  38.678  27.738  1.00  0.00     0.034 A 
ATOM     53  C   UNL A   1      47.519  32.532  27.379  1.00  0.00     0.049 A 
ATOM     54  C   UNL A   1      46.663  38.060  27.293  1.00  0.00     0.074 A 
ATOM     55  C   UNL A   1      48.717  32.075  26.860  1.00  0.00     0.029 A 
ATOM     56  N   UNL A   1      47.531  33.913  27.256  1.00  0.00    -0.354 N 
ATOM     57  N   UNL A   1      46.991  36.793  27.206  1.00  0.00    -0.248 NA
ATOM     58  C   UNL A   1      47.726  38.982  26.864  1.00  0.00     0.031 C 
ATOM     59  C   UNL A   1      49.472  33.184  26.463  1.00  0.00     0.029 A 
ATOM     60  C   UNL A   1      48.724  34.328  26.690  1.00  0.00     0.049 A 
ATOM     61  H   UNL A   1      46.798  34.511  27.530  1.00  0.00     0.167 HD
ATOM     62  C   UNL A   1      48.280  36.765  26.682  1.00  0.00     0.074 A 
ATOM     63  C   UNL A   1      48.664  38.142  26.450  1.00  0.00     0.031 C 
ATOM     64  C   UNL A   1      49.078  35.699  26.425  1.00  0.00     0.034 A 
BRANCH  51  65
ATOM     65  C   UNL A   1      46.627  30.279  28.096  1.00  0.00     0.023 A 
ATOM     66  C   UNL A   1      47.091  29.729  29.309  1.00  0.00     0.012 A 
ATOM     67  C   UNL A   1      46.283  29.420  27.034  1.00  0.00     0.148 A 
ATOM     68  C   UNL A   1      47.243  28.350  29.450  1.00  0.00     0.002 A 
ATOM     69  C   UNL A   1      46.391  28.044  27.199  1.00  0.00     0.091 A 
ATOM     70  F   UNL A   1      45.866  29.963  25.882  1.00  0.00    -0.205 F 
ATOM     71  C   UNL A   1      46.883  27.508  28.401  1.00  0.00     0.022 A 
BRANCH  69  72
ATOM     72  S   UNL A   1      45.877  26.874  25.938  1.00  0.00     0.127 S 
ATOM     73  O   UNL A   1      44.438  27.126  25.870  1.00  0.00    -0.237 OA
ATOM     74  O   UNL A   1      46.631  27.332  24.770  1.00  0.00    -0.237 OA
ATOM     75  O   UNL A   1      46.256  25.558  26.431  1.00  0.00    -0.744 OA
ENDBRANCH  69  72
ENDBRANCH  51  65
BRANCH  52  76
ATOM     76  C   UNL A   1      45.186  40.158  27.740  1.00  0.00     0.023 A 
ATOM     77  C   UNL A   1      45.298  40.876  28.946  1.00  0.00     0.012 A 
ATOM     78  C   UNL A   1      44.911  40.858  26.549  1.00  0.00     0.148 A 
ATOM     79  C   UNL A   1      45.106  42.258  28.971  1.00  0.00     0.002 A 
ATOM     80  C   UNL A   1      44.780  42.241  26.570  1.00  0.00     0.091 A 
ATOM     81  F   UNL A   1      44.790  40.156  25.413  1.00  0.00    -0.205 F 
ATOM     82  C   UNL A   1      44.857  42.942  27.783  1.00  0.00     0.022 A 
BRANCH  80  83
ATOM     83  S   UNL A   1      44.587  43.213  25.072  1.00  0.00     0.127 S 
ATOM     84  O   UNL A   1      44.765  44.574  25.571  1.00  0.00    -0.237 OA
ATOM     85  O   UNL A   1      45.682  42.711  24.242  1.00  0.00    -0.237 OA
ATOM     86  O   UNL A   1      43.259  42.895  24.564  1.00  0.00    -0.744 OA
ENDBRANCH  80  83
ENDBRANCH  52  76
BRANCH  64  87
ATOM     87  C   UNL A   1      50.438  35.965  25.825  1.00  0.00     0.023 A 
ATOM     88  C   UNL A   1      50.578  36.115  24.431  1.00  0.00     0.012 A 
ATOM     89  C   UNL A   1      51.564  36.137  26.654  1.00  0.00     0.148 A 
ATOM     90  C   UNL A   1      51.824  36.394  23.869  1.00  0.00     0.002 A 
ATOM     91  C   UNL A   1      52.791  36.469  26.092  1.00  0.00     0.091 A 
ATOM     92  F   UNL A   1      51.415  35.977  27.977  1.00  0.00    -0.205 F 
ATOM     93  C   UNL A   1      52.926  36.582  24.699  1.00  0.00     0.022 A 
BRANCH  91  94
ATOM     94  S   UNL A   1      54.245  36.826  27.086  1.00  0.00     0.127 S 
ATOM     95  O   UNL A   1      54.993  37.722  26.207  1.00  0.00    -0.237 OA
ATOM     96  O   UNL A   1      53.663  37.472  28.263  1.00  0.00    -0.237 OA
ATOM     97  O   UNL A   1      54.878  35.541  27.351  1.00  0.00    -0.744 OA
ENDBRANCH  91  94
ENDBRANCH  64  87
ENDBRANCH  38  39
ENDBRANCH  31  33
ENDBRANCH  30  31
ENDBRANCH  29  30
ENDBRANCH  28  29
ENDBRANCH  27  28
ENDBRANCH  26  27
ENDBRANCH  25  26
ENDBRANCH  24  25
ENDBRANCH   1  24
TORSDOF 28
ENDMDL
MODEL 2
REMARK VINA RESULT:      -8.0      3.668      5.434
REMARK SMILES C[C@H]([NH2+]CC1(O)CCCC1)[C@H](C)C(=O)OCCOCCOCCOCCOC(=O)c1ccc(-c2c3nc(c(-c4cccc(S(=O)(=O)[O-])c4F)c4ccc([nH]4)c(-c4cccc(S(=O)(=O)[O-])c4F)c4nc(c(-c5cccc(S(=O)(=O)[O-])c5F)c5ccc2[nH]5)C=C4)C=C3)cc1
REMARK SMILES IDX 20 1 19 2 18 3 17 4 16 5 15 6 13 7 14 8 11 9 12 10 2 11 1 12
REMARK SMILES IDX 3 13 4 16 5 17 7 18 10 19 8 20 9 21 6 22 21 24 22 25 23 26
REMARK SMILES IDX 24 27 25 28 26 29 27 30 28 31 29 32 30 33 31 34 92 35 32 36
REMARK SMILES IDX 91 37 33 38 34 39 35 40 85 41 36 42 90 43 84 44 86 45 37 46
REMARK SMILES IDX 89 47 83 48 82 49 38 51 70 52 50 53 69 54 51 55 54 56 68 57
REMARK SMILES IDX 87 58 52 59 53 60 67 62 88 63 55 64 39 65 40 66 48 67 41 68
REMARK SMILES IDX 43 69 49 70 42 71 44 72 45 73 46 74 47 75 71 76 72 77 80 78
REMARK SMILES IDX 73 79 75 80 81 81 74 82 76 83 77 84 78 85 79 86 56 87 57 88
REMARK SMILES IDX 65 89 58 90 60 91 66 92 59 93 61 94 62 95 63 96 64 97
REMARK H PARENT 3 14 3 15 6 23 86 50 54 61
REMARK Flexibility Score: inf
ROOT
ATOM      1  C   UNL A   1      33.833  33.865  28.237  1.00  0.00     0.188 C 
ENDROOT
BRANCH   1   2
ATOM      2  C   UNL A   1      34.379  32.479  28.624  1.00  0.00     0.188 C 
BRANCH   2   3
ATOM      3  O   UNL A   1      34.969  31.604  27.668  1.00  0.00    -0.376 OA
BRANCH   3   4
ATOM      4  C   UNL A   1      34.316  30.414  27.261  1.00  0.00     0.202 C 
BRANCH   4   5
ATOM      5  C   UNL A   1      32.798  30.401  27.000  1.00  0.00     0.261 C 
BRANCH   5   6
ATOM      6  O   UNL A   1      32.086  29.171  27.218  1.00  0.00    -0.463 OA
BRANCH   6   7
ATOM      7  C   UNL A   1      31.598  28.568  26.108  1.00  0.00     0.314 C 
ATOM      8  O   UNL A   1      31.078  29.164  25.167  1.00  0.00    -0.252 OA
BRANCH   7   9
ATOM      9  C   UNL A   1      31.643  27.045  26.163  1.00  0.00     0.154 C 
ATOM     10  C   UNL A   1      30.697  26.295  25.212  1.00  0.00     0.026 C 
BRANCH   9  11
ATOM     11  C   UNL A   1      33.100  26.529  26.060  1.00  0.00     0.193 C 
ATOM     12  C   UNL A   1      33.847  27.081  24.842  1.00  0.00     0.076 C 
BRANCH  11  13
ATOM     13  N   UNL A   1      33.075  25.078  26.123  1.00  0.00    -0.341 N 
ATOM     14  H   UNL A   1      32.111  24.802  26.311  1.00  0.00     0.346 HD
ATOM     15  H   UNL A   1      33.756  24.846  26.846  1.00  0.00     0.346 HD
BRANCH  13  16
ATOM     16  C   UNL A   1      33.520  24.323  24.959  1.00  0.00     0.296 C 
BRANCH  16  17
ATOM     17  C   UNL A   1      34.656  23.398  25.442  1.00  0.00     0.113 C 
ATOM     18  C   UNL A   1      36.055  23.935  25.124  1.00  0.00     0.041 C 
ATOM     19  C   UNL A   1      34.654  22.037  24.757  1.00  0.00     0.041 C 
ATOM     20  C   UNL A   1      36.960  22.709  25.222  1.00  0.00     0.003 C 
ATOM     21  C   UNL A   1      36.053  21.491  25.032  1.00  0.00     0.003 C 
BRANCH  17  22
ATOM     22  O   UNL A   1      34.511  23.242  26.867  1.00  0.00    -0.384 OA
ATOM     23  H   UNL A   1      33.592  23.007  27.075  1.00  0.00     0.211 HD
ENDBRANCH  17  22
ENDBRANCH  16  17
ENDBRANCH  13  16
ENDBRANCH  11  13
ENDBRANCH   9  11
ENDBRANCH   7   9
ENDBRANCH   6   7
ENDBRANCH   5   6
ENDBRANCH   4   5
ENDBRANCH   3   4
ENDBRANCH   2   3
ENDBRANCH   1   2
BRANCH   1  24
ATOM     24  O   UNL A   1      32.837  34.386  29.090  1.00  0.00    -0.377 OA
BRANCH  24  25
ATOM     25  C   UNL A   1      33.156  35.584  29.775  1.00  0.00     0.188 C 
BRANCH  25  26
ATOM     26  C   UNL A   1      33.662  35.432  31.222  1.00  0.00     0.188 C 
BRANCH  26  27
ATOM     27  O   UNL A   1      33.693  34.084  31.680  1.00  0.00    -0.376 OA
BRANCH  27  28
ATOM     28  C   UNL A   1      34.648  33.704  32.658  1.00  0.00     0.202 C 
BRANCH  28  29
ATOM     29  C   UNL A   1      35.493  32.441  32.413  1.00  0.00     0.261 C 
BRANCH  29  30
ATOM     30  O   UNL A   1      36.725  32.607  31.694  1.00  0.00    -0.460 OA
BRANCH  30  31
ATOM     31  C   UNL A   1      37.831  32.946  32.386  1.00  0.00     0.338 C 
ATOM     32  O   UNL A   1      37.875  33.531  33.456  1.00  0.00    -0.246 OA
BRANCH  31  33
ATOM     33  C   UNL A   1      38.988  32.291  31.735  1.00  0.00     0.060 A 
ATOM     34  C   UNL A   1      40.046  31.839  32.535  1.00  0.00     0.016 A 
ATOM     35  C   UNL A   1      39.022  32.106  30.350  1.00  0.00     0.016 A 
ATOM     36  C   UNL A   1      41.157  31.232  31.950  1.00  0.00     0.010 A 
ATOM     37  C   UNL A   1      40.149  31.523  29.763  1.00  0.00     0.010 A 
ATOM     38  C   UNL A   1      41.235  31.116  30.557  1.00  0.00    -0.014 A 
BRANCH  38  39
ATOM     39  C   UNL A   1      42.526  30.752  29.922  1.00  0.00     0.031 A 
ATOM     40  C   UNL A   1      42.785  29.303  29.617  1.00  0.00     0.074 A 
ATOM     41  C   UNL A   1      43.447  31.684  29.619  1.00  0.00     0.049 A 
ATOM     42  N   UNL A   1      43.850  28.738  29.111  1.00  0.00    -0.248 NA
ATOM     43  C   UNL A   1      41.696  28.362  29.928  1.00  0.00     0.031 C 
ATOM     44  C   UNL A   1      43.304  33.120  29.847  1.00  0.00     0.029 A 
ATOM     45  N   UNL A   1      44.700  31.549  29.076  1.00  0.00    -0.354 N 
ATOM     46  C   UNL A   1      43.574  27.378  29.073  1.00  0.00     0.074 A 
ATOM     47  C   UNL A   1      42.246  27.197  29.613  1.00  0.00     0.031 C 
ATOM     48  C   UNL A   1      44.443  33.733  29.478  1.00  0.00     0.029 A 
ATOM     49  C   UNL A   1      45.403  32.729  29.019  1.00  0.00     0.049 A 
ATOM     50  H   UNL A   1      45.062  30.690  28.759  1.00  0.00     0.167 HD
ATOM     51  C   UNL A   1      44.354  26.367  28.620  1.00  0.00     0.034 A 
ATOM     52  C   UNL A   1      46.683  32.965  28.667  1.00  0.00     0.034 A 
ATOM     53  C   UNL A   1      45.671  26.549  28.075  1.00  0.00     0.049 A 
ATOM     54  C   UNL A   1      47.546  31.818  28.208  1.00  0.00     0.074 A 
ATOM     55  C   UNL A   1      46.522  25.594  27.547  1.00  0.00     0.029 A 
ATOM     56  N   UNL A   1      46.340  27.761  28.009  1.00  0.00    -0.354 N 
ATOM     57  N   UNL A   1      47.235  30.551  28.072  1.00  0.00    -0.248 NA
ATOM     58  C   UNL A   1      48.930  32.137  27.825  1.00  0.00     0.031 C 
ATOM     59  C   UNL A   1      47.723  26.223  27.202  1.00  0.00     0.029 A 
ATOM     60  C   UNL A   1      47.601  27.576  27.469  1.00  0.00     0.049 A 
ATOM     61  H   UNL A   1      45.972  28.626  28.301  1.00  0.00     0.167 HD
ATOM     62  C   UNL A   1      48.369  29.931  27.557  1.00  0.00     0.074 A 
ATOM     63  C   UNL A   1      49.367  30.966  27.384  1.00  0.00     0.031 C 
ATOM     64  C   UNL A   1      48.572  28.622  27.262  1.00  0.00     0.034 A 
BRANCH  51  65
ATOM     65  C   UNL A   1      43.797  24.970  28.693  1.00  0.00     0.023 A 
ATOM     66  C   UNL A   1      44.062  24.164  29.819  1.00  0.00     0.012 A 
ATOM     67  C   UNL A   1      42.969  24.474  27.667  1.00  0.00     0.148 A 
ATOM     68  C   UNL A   1      43.540  22.873  29.907  1.00  0.00     0.002 A 
ATOM     69  C   UNL A   1      42.412  23.206  27.784  1.00  0.00     0.091 A 
ATOM     70  F   UNL A   1      42.748  25.246  26.594  1.00  0.00    -0.205 F 
ATOM     71  C   UNL A   1      42.707  22.400  28.896  1.00  0.00     0.022 A 
BRANCH  69  72
ATOM     72  S   UNL A   1      41.265  22.537  26.577  1.00  0.00     0.127 S 
ATOM     73  O   UNL A   1      42.134  22.348  25.416  1.00  0.00    -0.237 OA
ATOM     74  O   UNL A   1      40.832  21.296  27.221  1.00  0.00    -0.237 OA
ATOM     75  O   UNL A   1      40.219  23.537  26.416  1.00  0.00    -0.744 OA
ENDBRANCH  69  72
ENDBRANCH  51  65
BRANCH  52  76
ATOM     76  C   UNL A   1      47.231  34.351  28.728  1.00  0.00     0.023 A 
ATOM     77  C   UNL A   1      47.791  34.832  29.927  1.00  0.00     0.012 A 
ATOM     78  C   UNL A   1      47.202  35.193  27.599  1.00  0.00     0.148 A 
ATOM     79  C   UNL A   1      48.281  36.136  30.010  1.00  0.00     0.002 A 
ATOM     80  C   UNL A   1      47.746  36.470  27.671  1.00  0.00     0.091 A 
ATOM     81  F   UNL A   1      46.649  34.725  26.471  1.00  0.00    -0.205 F 
ATOM     82  C   UNL A   1      48.268  36.951  28.881  1.00  0.00     0.022 A 
BRANCH  80  83
ATOM     83  S   UNL A   1      47.886  37.538  26.234  1.00  0.00     0.127 S 
ATOM     84  O   UNL A   1      48.586  38.695  26.786  1.00  0.00    -0.237 OA
ATOM     85  O   UNL A   1      48.680  36.715  25.321  1.00  0.00    -0.237 OA
ATOM     86  O   UNL A   1      46.522  37.780  25.786  1.00  0.00    -0.744 OA
ENDBRANCH  80  83
ENDBRANCH  52  76
BRANCH  64  87
ATOM     87  C   UNL A   1      49.909  28.228  26.685  1.00  0.00     0.023 A 
ATOM     88  C   UNL A   1      50.089  28.179  25.288  1.00  0.00     0.012 A 
ATOM     89  C   UNL A   1      51.008  27.978  27.531  1.00  0.00     0.148 A 
ATOM     90  C   UNL A   1      51.329  27.849  24.743  1.00  0.00     0.002 A 
ATOM     91  C   UNL A   1      52.255  27.703  26.981  1.00  0.00     0.091 A 
ATOM     92  F   UNL A   1      50.816  28.016  28.857  1.00  0.00    -0.205 F 
ATOM     93  C   UNL A   1      52.413  27.623  25.588  1.00  0.00     0.022 A 
BRANCH  91  94
ATOM     94  S   UNL A   1      53.730  27.494  27.985  1.00  0.00     0.127 S 
ATOM     95  O   UNL A   1      53.774  28.759  28.716  1.00  0.00    -0.237 OA
ATOM     96  O   UNL A   1      53.384  26.330  28.802  1.00  0.00    -0.237 OA
ATOM     97  O   UNL A   1      54.826  27.275  27.052  1.00  0.00    -0.744 OA
ENDBRANCH  91  94
ENDBRANCH  64  87
ENDBRANCH  38  39
ENDBRANCH  31  33
ENDBRANCH  30  31
ENDBRANCH  29  30
ENDBRANCH  28  29
ENDBRANCH  27  28
ENDBRANCH  26  27
ENDBRANCH  25  26
ENDBRANCH  24  25
ENDBRANCH   1  24
TORSDOF 28
ENDMDL
MODEL 3
REMARK VINA RESULT:      -7.8      3.150      8.426
REMARK SMILES C[C@H]([NH2+]CC1(O)CCCC1)[C@H](C)C(=O)OCCOCCOCCOCCOC(=O)c1ccc(-c2c3nc(c(-c4cccc(S(=O)(=O)[O-])c4F)c4ccc([nH]4)c(-c4cccc(S(=O)(=O)[O-])c4F)c4nc(c(-c5cccc(S(=O)(=O)[O-])c5F)c5ccc2[nH]5)C=C4)C=C3)cc1
REMARK SMILES IDX 20 1 19 2 18 3 17 4 16 5 15 6 13 7 14 8 11 9 12 10 2 11 1 12
REMARK SMILES IDX 3 13 4 16 5 17 7 18 10 19 8 20 9 21 6 22 21 24 22 25 23 26
REMARK SMILES IDX 24 27 25 28 26 29 27 30 28 31 29 32 30 33 31 34 92 35 32 36
REMARK SMILES IDX 91 37 33 38 34 39 35 40 85 41 36 42 90 43 84 44 86 45 37 46
REMARK SMILES IDX 89 47 83 48 82 49 38 51 70 52 50 53 69 54 51 55 54 56 68 57
REMARK SMILES IDX 87 58 52 59 53 60 67 62 88 63 55 64 39 65 40 66 48 67 41 68
REMARK SMILES IDX 43 69 49 70 42 71 44 72 45 73 46 74 47 75 71 76 72 77 80 78
REMARK SMILES IDX 73 79 75 80 81 81 74 82 76 83 77 84 78 85 79 86 56 87 57 88
REMARK SMILES IDX 65 89 58 90 60 91 66 92 59 93 61 94 62 95 63 96 64 97
REMARK H PARENT 3 14 3 15 6 23 86 50 54 61
REMARK Flexibility Score: inf
ROOT
ATOM      1  C   UNL A   1      32.879  36.208  29.487  1.00  0.00     0.188 C 
ENDROOT
BRANCH   1   2
ATOM      2  C   UNL A   1      33.816  35.083  29.011  1.00  0.00     0.188 C 
BRANCH   2   3
ATOM      3  O   UNL A   1      33.322  33.888  28.414  1.00  0.00    -0.376 OA
BRANCH   3   4
ATOM      4  C   UNL A   1      34.200  32.947  27.821  1.00  0.00     0.202 C 
BRANCH   4   5
ATOM      5  C   UNL A   1      34.019  31.439  28.071  1.00  0.00     0.261 C 
BRANCH   5   6
ATOM      6  O   UNL A   1      34.541  30.524  27.092  1.00  0.00    -0.463 OA
BRANCH   6   7
ATOM      7  C   UNL A   1      33.705  29.529  26.711  1.00  0.00     0.314 C 
ATOM      8  O   UNL A   1      33.315  28.630  27.453  1.00  0.00    -0.252 OA
BRANCH   7   9
ATOM      9  C   UNL A   1      33.364  29.544  25.225  1.00  0.00     0.154 C 
ATOM     10  C   UNL A   1      34.096  28.521  24.343  1.00  0.00     0.026 C 
BRANCH   9  11
ATOM     11  C   UNL A   1      31.831  29.509  25.008  1.00  0.00     0.193 C 
ATOM     12  C   UNL A   1      31.112  30.723  25.602  1.00  0.00     0.076 C 
BRANCH  11  13
ATOM     13  N   UNL A   1      31.332  28.235  25.497  1.00  0.00    -0.341 N 
ATOM     14  H   UNL A   1      30.706  28.436  26.277  1.00  0.00     0.346 HD
ATOM     15  H   UNL A   1      32.173  27.705  25.724  1.00  0.00     0.346 HD
BRANCH  13  16
ATOM     16  C   UNL A   1      30.605  27.373  24.574  1.00  0.00     0.296 C 
BRANCH  16  17
ATOM     17  C   UNL A   1      31.105  25.936  24.829  1.00  0.00     0.113 C 
ATOM     18  C   UNL A   1      30.860  24.988  23.651  1.00  0.00     0.041 C 
ATOM     19  C   UNL A   1      30.380  25.242  25.975  1.00  0.00     0.041 C 
ATOM     20  C   UNL A   1      30.956  23.593  24.263  1.00  0.00     0.003 C 
ATOM     21  C   UNL A   1      30.693  23.763  25.760  1.00  0.00     0.003 C 
BRANCH  17  22
ATOM     22  O   UNL A   1      32.518  26.010  25.102  1.00  0.00    -0.384 OA
ATOM     23  H   UNL A   1      32.896  25.117  25.098  1.00  0.00     0.211 HD
ENDBRANCH  17  22
ENDBRANCH  16  17
ENDBRANCH  13  16
ENDBRANCH  11  13
ENDBRANCH   9  11
ENDBRANCH   7   9
ENDBRANCH   6   7
ENDBRANCH   5   6
ENDBRANCH   4   5
ENDBRANCH   3   4
ENDBRANCH   2   3
ENDBRANCH   1   2
BRANCH   1  24
ATOM     24  O   UNL A   1      33.379  37.015  30.531  1.00  0.00    -0.377 OA
BRANCH  24  25
ATOM     25  C   UNL A   1      32.712  36.920  31.776  1.00  0.00     0.188 C 
BRANCH  25  26
ATOM     26  C   UNL A   1      33.161  35.780  32.710  1.00  0.00     0.188 C 
BRANCH  26  27
ATOM     27  O   UNL A   1      34.473  35.953  33.235  1.00  0.00    -0.376 OA
BRANCH  27  28
ATOM     28  C   UNL A   1      35.523  35.118  32.772  1.00  0.00     0.202 C 
BRANCH  28  29
ATOM     29  C   UNL A   1      35.982  33.947  33.659  1.00  0.00     0.261 C 
BRANCH  29  30
ATOM     30  O   UNL A   1      35.459  32.647  33.348  1.00  0.00    -0.460 OA
BRANCH  30  31
ATOM     31  C   UNL A   1      35.384  32.277  32.054  1.00  0.00     0.338 C 
ATOM     32  O   UNL A   1      34.402  32.337  31.331  1.00  0.00    -0.246 OA
BRANCH  31  33
ATOM     33  C   UNL A   1      36.758  31.988  31.587  1.00  0.00     0.060 A 
ATOM     34  C   UNL A   1      37.662  31.391  32.476  1.00  0.00     0.016 A 
ATOM     35  C   UNL A   1      37.147  32.282  30.278  1.00  0.00     0.016 A 
ATOM     36  C   UNL A   1      38.968  31.120  32.070  1.00  0.00     0.010 A 
ATOM     37  C   UNL A   1      38.465  32.036  29.881  1.00  0.00     0.010 A 
ATOM     38  C   UNL A   1      39.390  31.487  30.787  1.00  0.00    -0.014 A 
BRANCH  38  39
ATOM     39  C   UNL A   1      40.836  31.476  30.458  1.00  0.00     0.031 A 
ATOM     40  C   UNL A   1      41.573  32.787  30.443  1.00  0.00     0.074 A 
ATOM     41  C   UNL A   1      41.485  30.331  30.182  1.00  0.00     0.049 A 
ATOM     42  N   UNL A   1      42.820  33.035  30.141  1.00  0.00    -0.248 NA
ATOM     43  C   UNL A   1      40.796  33.980  30.817  1.00  0.00     0.031 C 
ATOM     44  C   UNL A   1      40.887  28.998  30.183  1.00  0.00     0.029 A 
ATOM     45  N   UNL A   1      42.791  30.116  29.819  1.00  0.00    -0.354 N 
ATOM     46  C   UNL A   1      42.970  34.411  30.256  1.00  0.00     0.074 A 
ATOM     47  C   UNL A   1      41.686  34.947  30.648  1.00  0.00     0.031 C 
ATOM     48  C   UNL A   1      41.817  28.104  29.803  1.00  0.00     0.029 A 
ATOM     49  C   UNL A   1      43.064  28.807  29.502  1.00  0.00     0.049 A 
ATOM     50  H   UNL A   1      43.468  30.831  29.787  1.00  0.00     0.167 HD
ATOM     51  C   UNL A   1      44.080  35.162  30.061  1.00  0.00     0.034 A 
ATOM     52  C   UNL A   1      44.182  28.247  28.996  1.00  0.00     0.034 A 
ATOM     53  C   UNL A   1      45.357  34.626  29.680  1.00  0.00     0.049 A 
ATOM     54  C   UNL A   1      45.391  29.111  28.746  1.00  0.00     0.074 A 
ATOM     55  C   UNL A   1      46.553  35.299  29.503  1.00  0.00     0.029 A 
ATOM     56  N   UNL A   1      45.603  33.293  29.393  1.00  0.00    -0.354 N 
ATOM     57  N   UNL A   1      45.552  30.394  28.965  1.00  0.00    -0.248 NA
ATOM     58  C   UNL A   1      46.586  28.443  28.205  1.00  0.00     0.031 C 
ATOM     59  C   UNL A   1      47.512  34.378  29.067  1.00  0.00     0.029 A 
ATOM     60  C   UNL A   1      46.925  33.125  29.019  1.00  0.00     0.049 A 
ATOM     61  H   UNL A   1      44.936  32.570  29.448  1.00  0.00     0.167 HD
ATOM     62  C   UNL A   1      46.871  30.679  28.623  1.00  0.00     0.074 A 
ATOM     63  C   UNL A   1      47.472  29.430  28.204  1.00  0.00     0.031 C 
ATOM     64  C   UNL A   1      47.524  31.868  28.644  1.00  0.00     0.034 A 
BRANCH  51  65
ATOM     65  C   UNL A   1      43.960  36.649  30.261  1.00  0.00     0.023 A 
ATOM     66  C   UNL A   1      44.236  37.216  31.523  1.00  0.00     0.012 A 
ATOM     67  C   UNL A   1      43.622  37.492  29.184  1.00  0.00     0.148 A 
ATOM     68  C   UNL A   1      44.143  38.594  31.717  1.00  0.00     0.002 A 
ATOM     69  C   UNL A   1      43.579  38.868  29.373  1.00  0.00     0.091 A 
ATOM     70  F   UNL A   1      43.340  36.933  27.999  1.00  0.00    -0.205 F 
ATOM     71  C   UNL A   1      43.826  39.420  30.641  1.00  0.00     0.022 A 
BRANCH  69  72
ATOM     72  S   UNL A   1      43.260  40.021  28.034  1.00  0.00     0.127 S 
ATOM     73  O   UNL A   1      41.841  39.783  27.771  1.00  0.00    -0.237 OA
ATOM     74  O   UNL A   1      43.555  41.309  28.663  1.00  0.00    -0.237 OA
ATOM     75  O   UNL A   1      44.164  39.648  26.956  1.00  0.00    -0.744 OA
ENDBRANCH  69  72
ENDBRANCH  51  65
BRANCH  52  76
ATOM     76  C   UNL A   1      44.216  26.786  28.696  1.00  0.00     0.023 A 
ATOM     77  C   UNL A   1      44.431  25.863  29.737  1.00  0.00     0.012 A 
ATOM     78  C   UNL A   1      44.031  26.310  27.384  1.00  0.00     0.148 A 
ATOM     79  C   UNL A   1      44.495  24.494  29.471  1.00  0.00     0.002 A 
ATOM     80  C   UNL A   1      44.036  24.943  27.134  1.00  0.00     0.091 A 
ATOM     81  F   UNL A   1      43.845  27.205  26.403  1.00  0.00    -0.205 F 
ATOM     82  C   UNL A   1      44.288  24.033  28.173  1.00  0.00     0.022 A 
BRANCH  80  83
ATOM     83  S   UNL A   1      43.652  24.258  25.519  1.00  0.00     0.127 S 
ATOM     84  O   UNL A   1      42.405  24.943  25.190  1.00  0.00    -0.237 OA
ATOM     85  O   UNL A   1      44.812  24.676  24.730  1.00  0.00    -0.237 OA
ATOM     86  O   UNL A   1      43.550  22.819  25.714  1.00  0.00    -0.744 OA
ENDBRANCH  80  83
ENDBRANCH  52  76
BRANCH  64  87
ATOM     87  C   UNL A   1      48.977  31.881  28.239  1.00  0.00     0.023 A 
ATOM     88  C   UNL A   1      49.348  32.309  26.949  1.00  0.00     0.012 A 
ATOM     89  C   UNL A   1      49.981  31.536  29.166  1.00  0.00     0.148 A 
ATOM     90  C   UNL A   1      50.690  32.357  26.575  1.00  0.00     0.002 A 
ATOM     91  C   UNL A   1      51.320  31.638  28.805  1.00  0.00     0.091 A 
ATOM     92  F   UNL A   1      49.611  31.119  30.385  1.00  0.00    -0.205 F 
ATOM     93  C   UNL A   1      51.675  32.033  27.505  1.00  0.00     0.022 A 
BRANCH  91  94
ATOM     94  S   UNL A   1      52.660  31.337  29.963  1.00  0.00     0.127 S 
ATOM     95  O   UNL A   1      52.488  29.915  30.253  1.00  0.00    -0.237 OA
ATOM     96  O   UNL A   1      53.840  31.657  29.159  1.00  0.00    -0.237 OA
ATOM     97  O   UNL A   1      52.431  32.234  31.087  1.00  0.00    -0.744 OA
ENDBRANCH  91  94
ENDBRANCH  64  87
ENDBRANCH  38  39
ENDBRANCH  31  33
ENDBRANCH  30  31
ENDBRANCH  29  30
ENDBRANCH  28  29
ENDBRANCH  27  28
ENDBRANCH  26  27
ENDBRANCH  25  26
ENDBRANCH  24  25
ENDBRANCH   1  24
TORSDOF 28
ENDMDL
