MODEL 1
REMARK VINA RESULT:      -8.4      0.000      0.000
REMARK SMILES COc1ccccc1[C@@H]1CN(C(=O)c2cnn3ccccc23)C[C@H]1C(=O)OCCOCCOCCOCCOC(=O)c1ccc(-c2c3nc(c(-c4cccc(S(=O)(=O)[O-])c4F)c4ccc([nH]4)c(-c4cccc(S(=O)(=O)[O-])c4F)c4nc(c(-c5cccc(S(=O)(=O)[O-])c5F)c5ccc2[nH]5)C=C4)C=C3)cc1
REMARK SMILES IDX 34 1 33 2 32 3 31 4 30 5 29 6 28 7 27 8 25 9 26 10 24 11
REMARK SMILES IDX 9 12 10 13 11 14 23 15 8 16 3 17 4 18 5 19 7 20 6 21 2 22
REMARK SMILES IDX 1 23 12 24 13 25 14 26 15 27 22 28 16 29 17 30 21 31 18 32
REMARK SMILES IDX 20 33 19 34 35 35 36 36 37 37 38 38 39 39 40 40 41 41 42 42
REMARK SMILES IDX 43 43 104 44 44 45 103 46 45 47 46 48 47 49 97 50 48 51
REMARK SMILES IDX 102 52 96 53 98 54 49 55 101 56 95 57 94 58 50 60 82 61
REMARK SMILES IDX 62 62 81 63 63 64 66 65 80 66 99 67 64 68 65 69 79 71 100 72
REMARK SMILES IDX 67 73 51 74 52 75 60 76 53 77 55 78 61 79 54 80 56 81 57 82
REMARK SMILES IDX 58 83 59 84 83 85 84 86 92 87 85 88 87 89 93 90 86 91 88 92
REMARK SMILES IDX 89 93 90 94 91 95 68 96 69 97 77 98 70 99 72 100 78 101
REMARK SMILES IDX 71 102 73 103 74 104 75 105 76 106
REMARK H PARENT 98 59 66 70
REMARK Flexibility Score: inf
ROOT
ATOM      1  C   UNL A   1      35.605  32.215  32.058  1.00  0.00     0.188 C 
ENDROOT
BRANCH   1   2
ATOM      2  O   UNL A   1      36.661  31.311  31.790  1.00  0.00    -0.377 OA
BRANCH   2   3
ATOM      3  C   UNL A   1      36.377  30.281  30.865  1.00  0.00     0.188 C 
BRANCH   3   4
ATOM      4  C   UNL A   1      36.955  30.452  29.446  1.00  0.00     0.188 C 
BRANCH   4   5
ATOM      5  O   UNL A   1      36.328  31.293  28.482  1.00  0.00    -0.376 OA
BRANCH   5   6
ATOM      6  C   UNL A   1      35.215  30.820  27.742  1.00  0.00     0.202 C 
BRANCH   6   7
ATOM      7  C   UNL A   1      34.799  29.341  27.881  1.00  0.00     0.261 C 
BRANCH   7   8
ATOM      8  O   UNL A   1      34.626  28.587  26.656  1.00  0.00    -0.463 OA
BRANCH   8   9
ATOM      9  C   UNL A   1      33.431  27.977  26.521  1.00  0.00     0.311 C 
ATOM     10  O   UNL A   1      32.446  28.256  27.208  1.00  0.00    -0.252 OA
BRANCH   9  11
ATOM     11  C   UNL A   1      33.337  26.844  25.514  1.00  0.00     0.128 C 
ATOM     12  C   UNL A   1      32.545  25.504  25.607  1.00  0.00     0.058 C 
ATOM     13  C   UNL A   1      32.159  25.241  24.149  1.00  0.00     0.129 C 
ATOM     14  N   UNL A   1      31.916  26.565  23.627  1.00  0.00    -0.337 N 
ATOM     15  C   UNL A   1      32.811  27.514  24.243  1.00  0.00     0.135 C 
BRANCH  12  16
ATOM     16  C   UNL A   1      33.179  24.222  26.157  1.00  0.00    -0.000 A 
ATOM     17  C   UNL A   1      32.509  23.204  26.861  1.00  0.00     0.122 A 
ATOM     18  C   UNL A   1      33.188  22.042  27.267  1.00  0.00     0.047 A 
ATOM     19  C   UNL A   1      34.566  21.923  27.079  1.00  0.00     0.004 A 
ATOM     20  C   UNL A   1      34.585  24.108  26.058  1.00  0.00     0.008 A 
ATOM     21  C   UNL A   1      35.272  22.982  26.523  1.00  0.00     0.001 A 
BRANCH  17  22
ATOM     22  O   UNL A   1      31.320  23.463  27.497  1.00  0.00    -0.496 OA
ATOM     23  C   UNL A   1      30.150  23.017  26.833  1.00  0.00     0.278 C 
ENDBRANCH  17  22
ENDBRANCH  12  16
BRANCH  14  24
ATOM     24  C   UNL A   1      31.106  26.943  22.580  1.00  0.00     0.257 C 
ATOM     25  O   UNL A   1      31.429  26.727  21.412  1.00  0.00    -0.269 OA
BRANCH  24  26
ATOM     26  C   UNL A   1      29.842  27.567  22.893  1.00  0.00     0.085 A 
ATOM     27  C   UNL A   1      28.749  26.947  23.523  1.00  0.00     0.150 A 
ATOM     28  C   UNL A   1      29.381  28.836  22.591  1.00  0.00     0.079 A 
ATOM     29  N   UNL A   1      27.706  27.757  23.693  1.00  0.00    -0.176 NA
ATOM     30  N   UNL A   1      28.092  28.934  23.131  1.00  0.00    -0.240 N 
ATOM     31  C   UNL A   1      29.900  29.980  21.909  1.00  0.00     0.029 A 
ATOM     32  C   UNL A   1      27.352  30.116  23.070  1.00  0.00     0.113 A 
ATOM     33  C   UNL A   1      29.180  31.117  21.868  1.00  0.00     0.004 A 
ATOM     34  C   UNL A   1      27.862  31.204  22.470  1.00  0.00     0.020 A 
ENDBRANCH  24  26
ENDBRANCH  14  24
ENDBRANCH   9  11
ENDBRANCH   8   9
ENDBRANCH   7   8
ENDBRANCH   6   7
ENDBRANCH   5   6
ENDBRANCH   4   5
ENDBRANCH   3   4
ENDBRANCH   2   3
ENDBRANCH   1   2
BRANCH   1  35
ATOM     35  C   UNL A   1      35.810  33.675  31.599  1.00  0.00     0.188 C 
BRANCH  35  36
ATOM     36  O   UNL A   1      36.715  33.833  30.506  1.00  0.00    -0.376 OA
BRANCH  36  37
ATOM     37  C   UNL A   1      38.076  34.168  30.745  1.00  0.00     0.202 C 
BRANCH  37  38
ATOM     38  C   UNL A   1      38.430  34.694  32.136  1.00  0.00     0.261 C 
BRANCH  38  39
ATOM     39  O   UNL A   1      38.783  33.684  33.060  1.00  0.00    -0.460 OA
BRANCH  39  40
ATOM     40  C   UNL A   1      39.880  33.931  33.784  1.00  0.00     0.338 C 
ATOM     41  O   UNL A   1      41.016  33.477  33.593  1.00  0.00    -0.246 OA
BRANCH  40  42
ATOM     42  C   UNL A   1      39.520  34.786  34.908  1.00  0.00     0.060 A 
ATOM     43  C   UNL A   1      40.323  35.910  35.085  1.00  0.00     0.016 A 
ATOM     44  C   UNL A   1      38.720  34.243  35.929  1.00  0.00     0.016 A 
ATOM     45  C   UNL A   1      40.624  36.251  36.372  1.00  0.00     0.010 A 
ATOM     46  C   UNL A   1      39.027  34.581  37.215  1.00  0.00     0.010 A 
ATOM     47  C   UNL A   1      40.070  35.478  37.398  1.00  0.00    -0.014 A 
BRANCH  47  48
ATOM     48  C   UNL A   1      40.665  35.606  38.697  1.00  0.00     0.031 A 
ATOM     49  C   UNL A   1      40.358  36.894  39.325  1.00  0.00     0.074 A 
ATOM     50  C   UNL A   1      41.391  34.612  39.235  1.00  0.00     0.049 A 
ATOM     51  N   UNL A   1      41.166  37.887  39.472  1.00  0.00    -0.248 NA
ATOM     52  C   UNL A   1      38.950  37.194  39.608  1.00  0.00     0.031 C 
ATOM     53  C   UNL A   1      41.525  33.225  38.778  1.00  0.00     0.029 A 
ATOM     54  N   UNL A   1      42.044  34.614  40.422  1.00  0.00    -0.354 N 
ATOM     55  C   UNL A   1      40.411  38.859  40.107  1.00  0.00     0.074 A 
ATOM     56  C   UNL A   1      39.031  38.482  39.944  1.00  0.00     0.031 C 
ATOM     57  C   UNL A   1      41.965  32.472  39.811  1.00  0.00     0.029 A 
ATOM     58  C   UNL A   1      42.244  33.344  40.941  1.00  0.00     0.049 A 
ATOM     59  H   UNL A   1      42.347  35.435  40.872  1.00  0.00     0.167 HD
ATOM     60  C   UNL A   1      40.988  39.732  40.973  1.00  0.00     0.034 A 
ATOM     61  C   UNL A   1      42.476  33.059  42.245  1.00  0.00     0.034 A 
ATOM     62  C   UNL A   1      42.423  39.730  40.862  1.00  0.00     0.049 A 
ATOM     63  C   UNL A   1      42.983  34.300  42.888  1.00  0.00     0.074 A 
ATOM     64  C   UNL A   1      43.317  39.971  39.838  1.00  0.00     0.029 A 
ATOM     65  N   UNL A   1      43.121  39.042  41.827  1.00  0.00    -0.354 N 
ATOM     66  N   UNL A   1      44.135  34.837  42.587  1.00  0.00    -0.248 NA
ATOM     67  C   UNL A   1      42.020  35.205  43.501  1.00  0.00     0.031 C 
ATOM     68  C   UNL A   1      44.364  39.025  40.033  1.00  0.00     0.029 A 
ATOM     69  C   UNL A   1      44.081  38.298  41.192  1.00  0.00     0.049 A 
ATOM     70  H   UNL A   1      42.959  39.076  42.798  1.00  0.00     0.167 HD
ATOM     71  C   UNL A   1      43.879  36.203  42.532  1.00  0.00     0.074 A 
ATOM     72  C   UNL A   1      42.599  36.378  43.218  1.00  0.00     0.031 C 
ATOM     73  C   UNL A   1      44.559  37.017  41.669  1.00  0.00     0.034 A 
BRANCH  60  74
ATOM     74  C   UNL A   1      40.286  40.292  42.175  1.00  0.00     0.023 A 
ATOM     75  C   UNL A   1      40.175  41.693  42.263  1.00  0.00     0.012 A 
ATOM     76  C   UNL A   1      39.977  39.539  43.331  1.00  0.00     0.148 A 
ATOM     77  C   UNL A   1      39.803  42.316  43.458  1.00  0.00     0.002 A 
ATOM     78  C   UNL A   1      39.521  40.156  44.485  1.00  0.00     0.091 A 
ATOM     79  F   UNL A   1      40.260  38.233  43.379  1.00  0.00    -0.205 F 
ATOM     80  C   UNL A   1      39.463  41.547  44.566  1.00  0.00     0.022 A 
BRANCH  78  81
ATOM     81  S   UNL A   1      39.023  39.191  45.915  1.00  0.00     0.127 S 
ATOM     82  O   UNL A   1      38.534  37.968  45.287  1.00  0.00    -0.237 OA
ATOM     83  O   UNL A   1      40.285  39.057  46.642  1.00  0.00    -0.237 OA
ATOM     84  O   UNL A   1      38.026  40.006  46.601  1.00  0.00    -0.744 OA
ENDBRANCH  78  81
ENDBRANCH  60  74
BRANCH  61  85
ATOM     85  C   UNL A   1      41.991  31.886  43.009  1.00  0.00     0.023 A 
ATOM     86  C   UNL A   1      42.911  31.000  43.601  1.00  0.00     0.012 A 
ATOM     87  C   UNL A   1      40.626  31.756  43.359  1.00  0.00     0.148 A 
ATOM     88  C   UNL A   1      42.485  30.026  44.514  1.00  0.00     0.002 A 
ATOM     89  C   UNL A   1      40.205  30.772  44.246  1.00  0.00     0.091 A 
ATOM     90  F   UNL A   1      39.748  32.658  42.902  1.00  0.00    -0.205 F 
ATOM     91  C   UNL A   1      41.133  29.909  44.835  1.00  0.00     0.022 A 
BRANCH  89  92
ATOM     92  S   UNL A   1      38.472  30.582  44.690  1.00  0.00     0.127 S 
ATOM     93  O   UNL A   1      37.883  30.121  43.432  1.00  0.00    -0.237 OA
ATOM     94  O   UNL A   1      38.538  29.573  45.743  1.00  0.00    -0.237 OA
ATOM     95  O   UNL A   1      38.023  31.905  45.107  1.00  0.00    -0.744 OA
ENDBRANCH  89  92
ENDBRANCH  61  85
BRANCH  73  96
ATOM     96  C   UNL A   1      45.744  36.438  40.930  1.00  0.00     0.023 A 
ATOM     97  C   UNL A   1      47.024  36.356  41.520  1.00  0.00     0.012 A 
ATOM     98  C   UNL A   1      45.525  35.788  39.704  1.00  0.00     0.148 A 
ATOM     99  C   UNL A   1      48.066  35.672  40.892  1.00  0.00     0.002 A 
ATOM    100  C   UNL A   1      46.551  35.065  39.104  1.00  0.00     0.091 A 
ATOM    101  F   UNL A   1      44.301  35.858  39.158  1.00  0.00    -0.205 F 
ATOM    102  C   UNL A   1      47.827  35.014  39.690  1.00  0.00     0.022 A 
BRANCH 100 103
ATOM    103  S   UNL A   1      46.270  34.084  37.629  1.00  0.00     0.127 S 
ATOM    104  O   UNL A   1      47.634  33.811  37.180  1.00  0.00    -0.237 OA
ATOM    105  O   UNL A   1      45.555  32.919  38.155  1.00  0.00    -0.237 OA
ATOM    106  O   UNL A   1      45.470  34.920  36.741  1.00  0.00    -0.744 OA
ENDBRANCH 100 103
ENDBRANCH  73  96
ENDBRANCH  47  48
ENDBRANCH  40  42
ENDBRANCH  39  40
ENDBRANCH  38  39
ENDBRANCH  37  38
ENDBRANCH  36  37
ENDBRANCH  35  36
ENDBRANCH   1  35
TORSDOF 27
ENDMDL
MODEL 2
REMARK VINA RESULT:      -8.4      9.897     16.004
REMARK SMILES COc1ccccc1[C@@H]1CN(C(=O)c2cnn3ccccc23)C[C@H]1C(=O)OCCOCCOCCOCCOC(=O)c1ccc(-c2c3nc(c(-c4cccc(S(=O)(=O)[O-])c4F)c4ccc([nH]4)c(-c4cccc(S(=O)(=O)[O-])c4F)c4nc(c(-c5cccc(S(=O)(=O)[O-])c5F)c5ccc2[nH]5)C=C4)C=C3)cc1
REMARK SMILES IDX 34 1 33 2 32 3 31 4 30 5 29 6 28 7 27 8 25 9 26 10 24 11
REMARK SMILES IDX 9 12 10 13 11 14 23 15 8 16 3 17 4 18 5 19 7 20 6 21 2 22
REMARK SMILES IDX 1 23 12 24 13 25 14 26 15 27 22 28 16 29 17 30 21 31 18 32
REMARK SMILES IDX 20 33 19 34 35 35 36 36 37 37 38 38 39 39 40 40 41 41 42 42
REMARK SMILES IDX 43 43 104 44 44 45 103 46 45 47 46 48 47 49 97 50 48 51
REMARK SMILES IDX 102 52 96 53 98 54 49 55 101 56 95 57 94 58 50 60 82 61
REMARK SMILES IDX 62 62 81 63 63 64 66 65 80 66 99 67 64 68 65 69 79 71 100 72
REMARK SMILES IDX 67 73 51 74 52 75 60 76 53 77 55 78 61 79 54 80 56 81 57 82
REMARK SMILES IDX 58 83 59 84 83 85 84 86 92 87 85 88 87 89 93 90 86 91 88 92
REMARK SMILES IDX 89 93 90 94 91 95 68 96 69 97 77 98 70 99 72 100 78 101
REMARK SMILES IDX 71 102 73 103 74 104 75 105 76 106
REMARK H PARENT 98 59 66 70
REMARK Flexibility Score: inf
ROOT
ATOM      1  C   UNL A   1      45.501  24.650  35.720  1.00  0.00     0.188 C 
ENDROOT
BRANCH   1   2
ATOM      2  O   UNL A   1      44.911  24.903  34.459  1.00  0.00    -0.377 OA
BRANCH   2   3
ATOM      3  C   UNL A   1      43.608  25.451  34.482  1.00  0.00     0.188 C 
BRANCH   3   4
ATOM      4  C   UNL A   1      43.467  26.911  34.009  1.00  0.00     0.188 C 
BRANCH   4   5
ATOM      5  O   UNL A   1      42.309  27.684  34.310  1.00  0.00    -0.376 OA
BRANCH   5   6
ATOM      6  C   UNL A   1      41.611  28.352  33.272  1.00  0.00     0.202 C 
BRANCH   6   7
ATOM      7  C   UNL A   1      40.189  28.883  33.549  1.00  0.00     0.261 C 
BRANCH   7   8
ATOM      8  O   UNL A   1      39.937  30.279  33.254  1.00  0.00    -0.463 OA
BRANCH   8   9
ATOM      9  C   UNL A   1      38.828  30.522  32.527  1.00  0.00     0.311 C 
ATOM     10  O   UNL A   1      37.713  30.091  32.828  1.00  0.00    -0.252 OA
BRANCH   9  11
ATOM     11  C   UNL A   1      38.998  31.309  31.239  1.00  0.00     0.128 C 
ATOM     12  C   UNL A   1      38.244  32.587  30.758  1.00  0.00     0.058 C 
ATOM     13  C   UNL A   1      39.315  33.322  29.947  1.00  0.00     0.129 C 
ATOM     14  N   UNL A   1      40.531  33.035  30.671  1.00  0.00    -0.337 N 
ATOM     15  C   UNL A   1      40.474  31.708  31.234  1.00  0.00     0.135 C 
BRANCH  12  16
ATOM     16  C   UNL A   1      36.982  32.508  29.893  1.00  0.00    -0.000 A 
ATOM     17  C   UNL A   1      35.769  33.180  30.134  1.00  0.00     0.122 A 
ATOM     18  C   UNL A   1      34.694  33.075  29.234  1.00  0.00     0.047 A 
ATOM     19  C   UNL A   1      34.768  32.213  28.139  1.00  0.00     0.004 A 
ATOM     20  C   UNL A   1      36.992  31.581  28.824  1.00  0.00     0.008 A 
ATOM     21  C   UNL A   1      35.899  31.425  27.966  1.00  0.00     0.001 A 
BRANCH  17  22
ATOM     22  O   UNL A   1      35.460  33.627  31.395  1.00  0.00    -0.496 OA
ATOM     23  C   UNL A   1      34.523  32.848  32.119  1.00  0.00     0.278 C 
ENDBRANCH  17  22
ENDBRANCH  12  16
BRANCH  14  24
ATOM     24  C   UNL A   1      41.693  33.772  30.727  1.00  0.00     0.257 C 
ATOM     25  O   UNL A   1      42.088  34.262  31.784  1.00  0.00    -0.269 OA
BRANCH  24  26
ATOM     26  C   UNL A   1      42.460  33.919  29.513  1.00  0.00     0.085 A 
ATOM     27  C   UNL A   1      43.409  33.007  29.019  1.00  0.00     0.150 A 
ATOM     28  C   UNL A   1      42.518  34.978  28.623  1.00  0.00     0.079 A 
ATOM     29  N   UNL A   1      43.968  33.391  27.874  1.00  0.00    -0.176 NA
ATOM     30  N   UNL A   1      43.413  34.606  27.613  1.00  0.00    -0.240 N 
ATOM     31  C   UNL A   1      41.902  36.264  28.519  1.00  0.00     0.029 A 
ATOM     32  C   UNL A   1      43.659  35.419  26.505  1.00  0.00     0.113 A 
ATOM     33  C   UNL A   1      42.138  37.033  27.440  1.00  0.00     0.004 A 
ATOM     34  C   UNL A   1      43.042  36.605  26.386  1.00  0.00     0.020 A 
ENDBRANCH  24  26
ENDBRANCH  14  24
ENDBRANCH   9  11
ENDBRANCH   8   9
ENDBRANCH   7   8
ENDBRANCH   6   7
ENDBRANCH   5   6
ENDBRANCH   4   5
ENDBRANCH   3   4
ENDBRANCH   2   3
ENDBRANCH   1   2
BRANCH   1  35
ATOM     35  C   UNL A   1      45.130  23.317  36.404  1.00  0.00     0.188 C 
BRANCH  35  36
ATOM     36  O   UNL A   1      45.026  22.202  35.517  1.00  0.00    -0.376 OA
BRANCH  36  37
ATOM     37  C   UNL A   1      46.165  21.751  34.796  1.00  0.00     0.202 C 
BRANCH  37  38
ATOM     38  C   UNL A   1      47.511  22.379  35.156  1.00  0.00     0.261 C 
BRANCH  38  39
ATOM     39  O   UNL A   1      48.138  23.048  34.079  1.00  0.00    -0.460 OA
BRANCH  39  40
ATOM     40  C   UNL A   1      49.397  23.440  34.306  1.00  0.00     0.338 C 
ATOM     41  O   UNL A   1      50.195  22.947  35.113  1.00  0.00    -0.246 OA
BRANCH  40  42
ATOM     42  C   UNL A   1      49.680  24.610  33.485  1.00  0.00     0.060 A 
ATOM     43  C   UNL A   1      48.951  25.754  33.804  1.00  0.00     0.016 A 
ATOM     44  C   UNL A   1      50.300  24.416  32.238  1.00  0.00     0.016 A 
ATOM     45  C   UNL A   1      48.520  26.516  32.757  1.00  0.00     0.010 A 
ATOM     46  C   UNL A   1      49.863  25.175  31.192  1.00  0.00     0.010 A 
ATOM     47  C   UNL A   1      48.879  26.115  31.466  1.00  0.00    -0.014 A 
BRANCH  47  48
ATOM     48  C   UNL A   1      48.139  26.689  30.381  1.00  0.00     0.031 A 
ATOM     49  C   UNL A   1      46.835  26.045  30.192  1.00  0.00     0.074 A 
ATOM     50  C   UNL A   1      48.626  27.718  29.667  1.00  0.00     0.049 A 
ATOM     51  N   UNL A   1      46.512  25.230  29.248  1.00  0.00    -0.248 NA
ATOM     52  C   UNL A   1      45.869  26.130  31.293  1.00  0.00     0.031 C 
ATOM     53  C   UNL A   1      49.790  28.561  29.956  1.00  0.00     0.029 A 
ATOM     54  N   UNL A   1      48.061  28.323  28.595  1.00  0.00    -0.354 N 
ATOM     55  C   UNL A   1      45.194  24.899  29.510  1.00  0.00     0.074 A 
ATOM     56  C   UNL A   1      44.938  25.272  30.876  1.00  0.00     0.031 C 
ATOM     57  C   UNL A   1      49.671  29.713  29.258  1.00  0.00     0.029 A 
ATOM     58  C   UNL A   1      48.496  29.626  28.406  1.00  0.00     0.049 A 
ATOM     59  H   UNL A   1      47.407  27.881  28.007  1.00  0.00     0.167 HD
ATOM     60  C   UNL A   1      44.332  24.622  28.497  1.00  0.00     0.034 A 
ATOM     61  C   UNL A   1      47.832  30.580  27.709  1.00  0.00     0.034 A 
ATOM     62  C   UNL A   1      45.018  24.391  27.254  1.00  0.00     0.049 A 
ATOM     63  C   UNL A   1      46.890  29.886  26.792  1.00  0.00     0.074 A 
ATOM     64  C   UNL A   1      45.986  23.501  26.831  1.00  0.00     0.029 A 
ATOM     65  N   UNL A   1      45.020  25.421  26.342  1.00  0.00    -0.354 N 
ATOM     66  N   UNL A   1      47.287  29.142  25.795  1.00  0.00    -0.248 NA
ATOM     67  C   UNL A   1      45.537  29.619  27.262  1.00  0.00     0.031 C 
ATOM     68  C   UNL A   1      46.826  24.255  25.963  1.00  0.00     0.029 A 
ATOM     69  C   UNL A   1      46.297  25.545  25.859  1.00  0.00     0.049 A 
ATOM     70  H   UNL A   1      44.245  25.971  26.085  1.00  0.00     0.167 HD
ATOM     71  C   UNL A   1      46.446  28.035  25.828  1.00  0.00     0.074 A 
ATOM     72  C   UNL A   1      45.320  28.439  26.669  1.00  0.00     0.031 C 
ATOM     73  C   UNL A   1      46.885  26.799  25.439  1.00  0.00     0.034 A 
BRANCH  60  74
ATOM     74  C   UNL A   1      42.867  24.944  28.546  1.00  0.00     0.023 A 
ATOM     75  C   UNL A   1      41.967  23.893  28.282  1.00  0.00     0.012 A 
ATOM     76  C   UNL A   1      42.347  26.258  28.571  1.00  0.00     0.148 A 
ATOM     77  C   UNL A   1      40.617  24.146  28.022  1.00  0.00     0.002 A 
ATOM     78  C   UNL A   1      40.991  26.494  28.402  1.00  0.00     0.091 A 
ATOM     79  F   UNL A   1      43.174  27.308  28.607  1.00  0.00    -0.205 F 
ATOM     80  C   UNL A   1      40.126  25.445  28.096  1.00  0.00     0.022 A 
BRANCH  78  81
ATOM     81  S   UNL A   1      40.317  28.151  28.545  1.00  0.00     0.127 S 
ATOM     82  O   UNL A   1      40.430  28.392  29.980  1.00  0.00    -0.237 OA
ATOM     83  O   UNL A   1      41.236  28.923  27.709  1.00  0.00    -0.237 OA
ATOM     84  O   UNL A   1      38.962  28.063  28.011  1.00  0.00    -0.744 OA
ENDBRANCH  78  81
ENDBRANCH  60  74
BRANCH  61  85
ATOM     85  C   UNL A   1      47.749  32.025  28.020  1.00  0.00     0.023 A 
ATOM     86  C   UNL A   1      47.881  32.977  26.992  1.00  0.00     0.012 A 
ATOM     87  C   UNL A   1      47.308  32.476  29.288  1.00  0.00     0.148 A 
ATOM     88  C   UNL A   1      47.577  34.326  27.218  1.00  0.00     0.002 A 
ATOM     89  C   UNL A   1      47.032  33.819  29.514  1.00  0.00     0.091 A 
ATOM     90  F   UNL A   1      47.063  31.576  30.249  1.00  0.00    -0.205 F 
ATOM     91  C   UNL A   1      47.155  34.749  28.478  1.00  0.00     0.022 A 
BRANCH  89  92
ATOM     92  S   UNL A   1      46.487  34.411  31.123  1.00  0.00     0.127 S 
ATOM     93  O   UNL A   1      45.480  33.415  31.490  1.00  0.00    -0.237 OA
ATOM     94  O   UNL A   1      47.721  34.352  31.901  1.00  0.00    -0.237 OA
ATOM     95  O   UNL A   1      45.946  35.745  30.891  1.00  0.00    -0.744 OA
ENDBRANCH  89  92
ENDBRANCH  61  85
BRANCH  73  96
ATOM     96  C   UNL A   1      48.237  26.703  24.771  1.00  0.00     0.023 A 
ATOM     97  C   UNL A   1      48.426  27.054  23.416  1.00  0.00     0.012 A 
ATOM     98  C   UNL A   1      49.368  26.447  25.563  1.00  0.00     0.148 A 
ATOM     99  C   UNL A   1      49.704  27.119  22.859  1.00  0.00     0.002 A 
ATOM    100  C   UNL A   1      50.643  26.560  25.019  1.00  0.00     0.091 A 
ATOM    101  F   UNL A   1      49.180  26.128  26.853  1.00  0.00    -0.205 F 
ATOM    102  C   UNL A   1      50.815  26.885  23.663  1.00  0.00     0.022 A 
BRANCH 100 103
ATOM    103  S   UNL A   1      52.115  26.406  26.033  1.00  0.00     0.127 S 
ATOM    104  O   UNL A   1      52.041  25.013  26.469  1.00  0.00    -0.237 OA
ATOM    105  O   UNL A   1      53.188  26.694  25.079  1.00  0.00    -0.237 OA
ATOM    106  O   UNL A   1      51.977  27.404  27.088  1.00  0.00    -0.744 OA
ENDBRANCH 100 103
ENDBRANCH  73  96
ENDBRANCH  47  48
ENDBRANCH  40  42
ENDBRANCH  39  40
ENDBRANCH  38  39
ENDBRANCH  37  38
ENDBRANCH  36  37
ENDBRANCH  35  36
ENDBRANCH   1  35
TORSDOF 27
ENDMDL
MODEL 3
REMARK VINA RESULT:      -8.3      5.901      9.679
REMARK SMILES COc1ccccc1[C@@H]1CN(C(=O)c2cnn3ccccc23)C[C@H]1C(=O)OCCOCCOCCOCCOC(=O)c1ccc(-c2c3nc(c(-c4cccc(S(=O)(=O)[O-])c4F)c4ccc([nH]4)c(-c4cccc(S(=O)(=O)[O-])c4F)c4nc(c(-c5cccc(S(=O)(=O)[O-])c5F)c5ccc2[nH]5)C=C4)C=C3)cc1
REMARK SMILES IDX 34 1 33 2 32 3 31 4 30 5 29 6 28 7 27 8 25 9 26 10 24 11
REMARK SMILES IDX 9 12 10 13 11 14 23 15 8 16 3 17 4 18 5 19 7 20 6 21 2 22
REMARK SMILES IDX 1 23 12 24 13 25 14 26 15 27 22 28 16 29 17 30 21 31 18 32
REMARK SMILES IDX 20 33 19 34 35 35 36 36 37 37 38 38 39 39 40 40 41 41 42 42
REMARK SMILES IDX 43 43 104 44 44 45 103 46 45 47 46 48 47 49 97 50 48 51
REMARK SMILES IDX 102 52 96 53 98 54 49 55 101 56 95 57 94 58 50 60 82 61
REMARK SMILES IDX 62 62 81 63 63 64 66 65 80 66 99 67 64 68 65 69 79 71 100 72
REMARK SMILES IDX 67 73 51 74 52 75 60 76 53 77 55 78 61 79 54 80 56 81 57 82
REMARK SMILES IDX 58 83 59 84 83 85 84 86 92 87 85 88 87 89 93 90 86 91 88 92
REMARK SMILES IDX 89 93 90 94 91 95 68 96 69 97 77 98 70 99 72 100 78 101
REMARK SMILES IDX 71 102 73 103 74 104 75 105 76 106
REMARK H PARENT 98 59 66 70
REMARK Flexibility Score: inf
ROOT
ATOM      1  C   UNL A   1      46.917  29.292  26.870  1.00  0.00     0.188 C 
ENDROOT
BRANCH   1   2
ATOM      2  O   UNL A   1      46.124  28.319  26.215  1.00  0.00    -0.377 OA
BRANCH   2   3
ATOM      3  C   UNL A   1      44.942  27.928  26.884  1.00  0.00     0.188 C 
BRANCH   3   4
ATOM      4  C   UNL A   1      44.773  26.421  27.159  1.00  0.00     0.188 C 
BRANCH   4   5
ATOM      5  O   UNL A   1      43.535  25.879  27.608  1.00  0.00    -0.376 OA
BRANCH   5   6
ATOM      6  C   UNL A   1      42.598  26.708  28.276  1.00  0.00     0.202 C 
BRANCH   6   7
ATOM      7  C   UNL A   1      41.116  26.279  28.316  1.00  0.00     0.261 C 
BRANCH   7   8
ATOM      8  O   UNL A   1      40.595  25.595  27.149  1.00  0.00    -0.463 OA
BRANCH   8   9
ATOM      9  C   UNL A   1      39.591  24.729  27.393  1.00  0.00     0.311 C 
ATOM     10  O   UNL A   1      38.878  24.782  28.397  1.00  0.00    -0.252 OA
BRANCH   9  11
ATOM     11  C   UNL A   1      39.392  23.596  26.400  1.00  0.00     0.128 C 
ATOM     12  C   UNL A   1      39.579  22.062  26.604  1.00  0.00     0.058 C 
ATOM     13  C   UNL A   1      38.515  21.469  25.676  1.00  0.00     0.129 C 
ATOM     14  N   UNL A   1      37.427  22.413  25.776  1.00  0.00    -0.337 N 
ATOM     15  C   UNL A   1      37.942  23.750  25.940  1.00  0.00     0.135 C 
BRANCH  12  16
ATOM     16  C   UNL A   1      40.904  21.356  26.300  1.00  0.00    -0.000 A 
ATOM     17  C   UNL A   1      42.139  21.985  26.053  1.00  0.00     0.122 A 
ATOM     18  C   UNL A   1      43.304  21.228  25.841  1.00  0.00     0.047 A 
ATOM     19  C   UNL A   1      43.241  19.836  25.760  1.00  0.00     0.004 A 
ATOM     20  C   UNL A   1      40.860  19.953  26.127  1.00  0.00     0.008 A 
ATOM     21  C   UNL A   1      42.007  19.203  25.849  1.00  0.00     0.001 A 
BRANCH  17  22
ATOM     22  O   UNL A   1      42.183  23.292  25.636  1.00  0.00    -0.496 OA
ATOM     23  C   UNL A   1      43.370  23.694  24.972  1.00  0.00     0.278 C 
ENDBRANCH  17  22
ENDBRANCH  12  16
BRANCH  14  24
ATOM     24  C   UNL A   1      36.081  22.199  25.580  1.00  0.00     0.257 C 
ATOM     25  O   UNL A   1      35.455  21.394  26.268  1.00  0.00    -0.269 OA
BRANCH  24  26
ATOM     26  C   UNL A   1      35.413  22.980  24.566  1.00  0.00     0.085 A 
ATOM     27  C   UNL A   1      35.406  22.709  23.186  1.00  0.00     0.150 A 
ATOM     28  C   UNL A   1      34.723  24.175  24.677  1.00  0.00     0.079 A 
ATOM     29  N   UNL A   1      34.708  23.592  22.476  1.00  0.00    -0.176 NA
ATOM     30  N   UNL A   1      34.269  24.498  23.392  1.00  0.00    -0.240 N 
ATOM     31  C   UNL A   1      34.393  25.073  25.739  1.00  0.00     0.029 A 
ATOM     32  C   UNL A   1      33.470  25.616  23.149  1.00  0.00     0.113 A 
ATOM     33  C   UNL A   1      33.613  26.141  25.492  1.00  0.00     0.004 A 
ATOM     34  C   UNL A   1      33.123  26.432  24.157  1.00  0.00     0.020 A 
ENDBRANCH  24  26
ENDBRANCH  14  24
ENDBRANCH   9  11
ENDBRANCH   8   9
ENDBRANCH   7   8
ENDBRANCH   6   7
ENDBRANCH   5   6
ENDBRANCH   4   5
ENDBRANCH   3   4
ENDBRANCH   2   3
ENDBRANCH   1   2
BRANCH   1  35
ATOM     35  C   UNL A   1      46.180  30.535  27.412  1.00  0.00     0.188 C 
BRANCH  35  36
ATOM     36  O   UNL A   1      45.978  31.572  26.452  1.00  0.00    -0.376 OA
BRANCH  36  37
ATOM     37  C   UNL A   1      46.740  32.770  26.518  1.00  0.00     0.202 C 
BRANCH  37  38
ATOM     38  C   UNL A   1      46.870  33.439  27.887  1.00  0.00     0.261 C 
BRANCH  38  39
ATOM     39  O   UNL A   1      45.889  34.425  28.140  1.00  0.00    -0.460 OA
BRANCH  39  40
ATOM     40  C   UNL A   1      46.327  35.514  28.782  1.00  0.00     0.338 C 
ATOM     41  O   UNL A   1      47.260  36.252  28.442  1.00  0.00    -0.246 OA
BRANCH  40  42
ATOM     42  C   UNL A   1      45.564  35.672  30.014  1.00  0.00     0.060 A 
ATOM     43  C   UNL A   1      46.054  34.971  31.113  1.00  0.00     0.016 A 
ATOM     44  C   UNL A   1      44.239  36.132  29.923  1.00  0.00     0.016 A 
ATOM     45  C   UNL A   1      45.127  34.399  31.936  1.00  0.00     0.010 A 
ATOM     46  C   UNL A   1      43.314  35.554  30.742  1.00  0.00     0.010 A 
ATOM     47  C   UNL A   1      43.776  34.597  31.635  1.00  0.00    -0.014 A 
BRANCH  47  48
ATOM     48  C   UNL A   1      42.836  33.716  32.265  1.00  0.00     0.031 A 
ATOM     49  C   UNL A   1      42.558  34.099  33.653  1.00  0.00     0.074 A 
ATOM     50  C   UNL A   1      42.287  32.686  31.601  1.00  0.00     0.049 A 
ATOM     51  N   UNL A   1      42.982  33.502  34.713  1.00  0.00    -0.248 NA
ATOM     52  C   UNL A   1      41.943  35.411  33.886  1.00  0.00     0.031 C 
ATOM     53  C   UNL A   1      42.326  32.400  30.163  1.00  0.00     0.029 A 
ATOM     54  N   UNL A   1      41.429  31.754  32.081  1.00  0.00    -0.354 N 
ATOM     55  C   UNL A   1      42.460  34.240  35.761  1.00  0.00     0.074 A 
ATOM     56  C   UNL A   1      42.053  35.507  35.211  1.00  0.00     0.031 C 
ATOM     57  C   UNL A   1      41.313  31.555  29.865  1.00  0.00     0.029 A 
ATOM     58  C   UNL A   1      40.647  31.168  31.098  1.00  0.00     0.049 A 
ATOM     59  H   UNL A   1      41.367  31.516  33.034  1.00  0.00     0.167 HD
ATOM     60  C   UNL A   1      42.127  33.644  36.935  1.00  0.00     0.034 A 
ATOM     61  C   UNL A   1      39.463  30.543  31.308  1.00  0.00     0.034 A 
ATOM     62  C   UNL A   1      42.685  32.321  37.043  1.00  0.00     0.049 A 
ATOM     63  C   UNL A   1      39.418  30.147  32.741  1.00  0.00     0.074 A 
ATOM     64  C   UNL A   1      43.964  31.802  37.004  1.00  0.00     0.029 A 
ATOM     65  N   UNL A   1      41.835  31.266  36.807  1.00  0.00    -0.354 N 
ATOM     66  N   UNL A   1      40.218  29.252  33.256  1.00  0.00    -0.248 NA
ATOM     67  C   UNL A   1      38.830  31.075  33.698  1.00  0.00     0.031 C 
ATOM     68  C   UNL A   1      43.840  30.571  36.298  1.00  0.00     0.029 A 
ATOM     69  C   UNL A   1      42.490  30.380  35.993  1.00  0.00     0.049 A 
ATOM     70  H   UNL A   1      40.920  31.165  37.160  1.00  0.00     0.167 HD
ATOM     71  C   UNL A   1      40.594  29.786  34.484  1.00  0.00     0.074 A 
ATOM     72  C   UNL A   1      39.620  30.843  34.753  1.00  0.00     0.031 C 
ATOM     73  C   UNL A   1      41.831  29.541  35.014  1.00  0.00     0.034 A 
BRANCH  60  74
ATOM     74  C   UNL A   1      40.990  34.097  37.801  1.00  0.00     0.023 A 
ATOM     75  C   UNL A   1      39.713  33.575  37.516  1.00  0.00     0.012 A 
ATOM     76  C   UNL A   1      41.061  35.194  38.690  1.00  0.00     0.148 A 
ATOM     77  C   UNL A   1      38.560  34.142  38.066  1.00  0.00     0.002 A 
ATOM     78  C   UNL A   1      39.923  35.694  39.303  1.00  0.00     0.091 A 
ATOM     79  F   UNL A   1      42.209  35.865  38.840  1.00  0.00    -0.205 F 
ATOM     80  C   UNL A   1      38.665  35.193  38.970  1.00  0.00     0.022 A 
BRANCH  78  81
ATOM     81  S   UNL A   1      40.029  37.014  40.516  1.00  0.00     0.127 S 
ATOM     82  O   UNL A   1      38.624  37.369  40.687  1.00  0.00    -0.237 OA
ATOM     83  O   UNL A   1      40.642  36.327  41.653  1.00  0.00    -0.237 OA
ATOM     84  O   UNL A   1      40.881  38.029  39.906  1.00  0.00    -0.744 OA
ENDBRANCH  78  81
ENDBRANCH  60  74
BRANCH  61  85
ATOM     85  C   UNL A   1      38.271  30.557  30.430  1.00  0.00     0.023 A 
ATOM     86  C   UNL A   1      37.756  29.351  29.921  1.00  0.00     0.012 A 
ATOM     87  C   UNL A   1      37.492  31.729  30.274  1.00  0.00     0.148 A 
ATOM     88  C   UNL A   1      36.507  29.314  29.286  1.00  0.00     0.002 A 
ATOM     89  C   UNL A   1      36.265  31.692  29.622  1.00  0.00     0.091 A 
ATOM     90  F   UNL A   1      37.903  32.865  30.850  1.00  0.00    -0.205 F 
ATOM     91  C   UNL A   1      35.762  30.483  29.133  1.00  0.00     0.022 A 
BRANCH  89  92
ATOM     92  S   UNL A   1      35.270  33.174  29.400  1.00  0.00     0.127 S 
ATOM     93  O   UNL A   1      34.062  32.847  30.159  1.00  0.00    -0.237 OA
ATOM     94  O   UNL A   1      36.116  34.199  30.004  1.00  0.00    -0.237 OA
ATOM     95  O   UNL A   1      35.055  33.295  27.963  1.00  0.00    -0.744 OA
ENDBRANCH  89  92
ENDBRANCH  61  85
BRANCH  73  96
ATOM     96  C   UNL A   1      42.701  28.505  34.340  1.00  0.00     0.023 A 
ATOM     97  C   UNL A   1      42.567  27.126  34.613  1.00  0.00     0.012 A 
ATOM     98  C   UNL A   1      43.525  28.902  33.274  1.00  0.00     0.148 A 
ATOM     99  C   UNL A   1      43.259  26.171  33.866  1.00  0.00     0.002 A 
ATOM    100  C   UNL A   1      44.175  27.947  32.500  1.00  0.00     0.091 A 
ATOM    101  F   UNL A   1      43.635  30.214  33.011  1.00  0.00    -0.205 F 
ATOM    102  C   UNL A   1      44.053  26.580  32.799  1.00  0.00     0.022 A 
BRANCH 100 103
ATOM    103  S   UNL A   1      45.100  28.399  31.030  1.00  0.00     0.127 S 
ATOM    104  O   UNL A   1      44.102  29.134  30.256  1.00  0.00    -0.237 OA
ATOM    105  O   UNL A   1      46.180  29.223  31.577  1.00  0.00    -0.237 OA
ATOM    106  O   UNL A   1      45.552  27.143  30.443  1.00  0.00    -0.744 OA
ENDBRANCH 100 103
ENDBRANCH  73  96
ENDBRANCH  47  48
ENDBRANCH  40  42
ENDBRANCH  39  40
ENDBRANCH  38  39
ENDBRANCH  37  38
ENDBRANCH  36  37
ENDBRANCH  35  36
ENDBRANCH   1  35
TORSDOF 27
ENDMDL
