MODEL 1
REMARK VINA RESULT:      -9.3      0.000      0.000
REMARK SMILES O=C(CCN1C(=O)S/C(=C\c2ccc(F)cc2)C1=O)Nc1ccc(O)cc1C(=O)OCCOCCOCCOCCOC(=O)c1ccc(-c2c3nc(c(-c4cccc(S(=O)(=O)[O-])c4F)c4ccc([nH]4)c(-c4cccc(S(=O)(=O)[O-])c4F)c4nc(c(-c5cccc(S(=O)(=O)[O-])c5F)c5ccc2[nH]5)C=C4)C=C3)cc1
REMARK SMILES IDX 35 1 34 2 33 3 32 4 31 5 30 6 28 7 29 8 27 9 21 10 22 11
REMARK SMILES IDX 23 12 26 13 24 14 20 15 1 16 2 17 3 19 4 20 5 21 6 22 18 23
REMARK SMILES IDX 7 24 8 25 9 26 19 27 10 28 11 29 12 30 17 31 13 32 16 33
REMARK SMILES IDX 14 34 15 35 25 36 36 38 37 39 38 40 39 41 40 42 41 43 42 44
REMARK SMILES IDX 43 45 44 46 45 47 46 48 107 49 47 50 106 51 48 52 49 53
REMARK SMILES IDX 50 54 100 55 51 56 105 57 99 58 101 59 52 60 104 61 98 62
REMARK SMILES IDX 97 63 53 65 85 66 65 67 84 68 66 69 69 70 83 71 102 72 67 73
REMARK SMILES IDX 68 74 82 76 103 77 70 78 54 79 55 80 63 81 56 82 58 83 64 84
REMARK SMILES IDX 57 85 59 86 60 87 61 88 62 89 86 90 87 91 95 92 88 93 90 94
REMARK SMILES IDX 96 95 89 96 91 97 92 98 93 99 94 100 71 101 72 102 80 103
REMARK SMILES IDX 73 104 75 105 81 106 74 107 76 108 77 109 78 110 79 111
REMARK H PARENT 20 18 25 37 101 64 69 75
REMARK Flexibility Score: inf
ROOT
ATOM      1  C   UNL A   1      46.030  25.891  24.943  1.00  0.00     0.188 C 
ENDROOT
BRANCH   1   2
ATOM      2  C   UNL A   1      44.673  25.280  25.363  1.00  0.00     0.188 C 
BRANCH   2   3
ATOM      3  O   UNL A   1      43.563  26.042  25.822  1.00  0.00    -0.376 OA
BRANCH   3   4
ATOM      4  C   UNL A   1      42.289  25.871  25.238  1.00  0.00     0.202 C 
BRANCH   4   5
ATOM      5  C   UNL A   1      41.039  26.354  25.984  1.00  0.00     0.261 C 
BRANCH   5   6
ATOM      6  O   UNL A   1      40.766  25.691  27.217  1.00  0.00    -0.460 OA
BRANCH   6   7
ATOM      7  C   UNL A   1      39.762  24.792  27.184  1.00  0.00     0.340 C 
ATOM      8  O   UNL A   1      38.575  25.027  27.014  1.00  0.00    -0.246 OA
BRANCH   7   9
ATOM      9  C   UNL A   1      40.346  23.434  27.130  1.00  0.00     0.087 A 
ATOM     10  C   UNL A   1      39.779  22.325  26.465  1.00  0.00     0.056 A 
ATOM     11  C   UNL A   1      40.426  21.088  26.604  1.00  0.00     0.031 A 
ATOM     12  C   UNL A   1      41.552  20.935  27.423  1.00  0.00     0.048 A 
ATOM     13  C   UNL A   1      41.473  23.276  27.957  1.00  0.00     0.064 A 
ATOM     14  C   UNL A   1      42.049  22.028  28.114  1.00  0.00     0.116 A 
BRANCH  10  15
ATOM     15  N   UNL A   1      38.607  22.443  25.667  1.00  0.00    -0.325 N 
ATOM     16  O   UNL A   1      38.185  20.216  25.202  1.00  0.00    -0.275 OA
ATOM     17  C   UNL A   1      37.934  21.411  25.036  1.00  0.00     0.226 C 
ATOM     18  H   UNL A   1      38.238  23.348  25.552  1.00  0.00     0.169 HD
BRANCH  17  19
ATOM     19  C   UNL A   1      36.822  21.820  24.075  1.00  0.00     0.122 C 
BRANCH  19  20
ATOM     20  C   UNL A   1      35.397  21.501  24.531  1.00  0.00     0.140 C 
BRANCH  20  21
ATOM     21  N   UNL A   1      34.454  22.590  24.798  1.00  0.00    -0.268 N 
ATOM     22  C   UNL A   1      33.227  22.731  24.210  1.00  0.00     0.293 C 
ATOM     23  C   UNL A   1      34.816  23.590  25.685  1.00  0.00     0.268 C 
ATOM     24  O   UNL A   1      32.779  22.102  23.266  1.00  0.00    -0.261 OA
ATOM     25  S   UNL A   1      32.402  24.147  24.819  1.00  0.00    -0.022 SA
ATOM     26  C   UNL A   1      33.790  24.675  25.678  1.00  0.00     0.083 C 
ATOM     27  O   UNL A   1      35.856  23.653  26.327  1.00  0.00    -0.268 OA
ATOM     28  C   UNL A   1      34.082  25.924  26.085  1.00  0.00     0.029 C 
BRANCH  28  29
ATOM     29  C   UNL A   1      33.289  27.123  25.765  1.00  0.00    -0.024 A 
ATOM     30  C   UNL A   1      33.529  27.909  24.632  1.00  0.00     0.011 A 
ATOM     31  C   UNL A   1      32.292  27.527  26.672  1.00  0.00     0.011 A 
ATOM     32  C   UNL A   1      32.835  29.107  24.444  1.00  0.00     0.040 A 
ATOM     33  C   UNL A   1      31.609  28.731  26.492  1.00  0.00     0.040 A 
ATOM     34  C   UNL A   1      31.893  29.515  25.382  1.00  0.00     0.123 A 
ATOM     35  F   UNL A   1      31.249  30.677  25.214  1.00  0.00    -0.207 F 
ENDBRANCH  28  29
ENDBRANCH  20  21
ENDBRANCH  19  20
ENDBRANCH  17  19
ENDBRANCH  10  15
BRANCH  14  36
ATOM     36  O   UNL A   1      43.095  21.913  28.978  1.00  0.00    -0.508 OA
ATOM     37  H   UNL A   1      43.896  22.370  28.809  1.00  0.00     0.293 HD
ENDBRANCH  14  36
ENDBRANCH   7   9
ENDBRANCH   6   7
ENDBRANCH   5   6
ENDBRANCH   4   5
ENDBRANCH   3   4
ENDBRANCH   2   3
ENDBRANCH   1   2
BRANCH   1  38
ATOM     38  O   UNL A   1      46.188  27.288  25.176  1.00  0.00    -0.377 OA
BRANCH  38  39
ATOM     39  C   UNL A   1      47.008  27.936  24.202  1.00  0.00     0.188 C 
BRANCH  39  40
ATOM     40  C   UNL A   1      48.304  27.169  23.890  1.00  0.00     0.188 C 
BRANCH  40  41
ATOM     41  O   UNL A   1      49.461  27.892  24.304  1.00  0.00    -0.376 OA
BRANCH  41  42
ATOM     42  C   UNL A   1      50.643  27.693  23.542  1.00  0.00     0.202 C 
BRANCH  42  43
ATOM     43  C   UNL A   1      51.692  26.743  24.147  1.00  0.00     0.261 C 
BRANCH  43  44
ATOM     44  O   UNL A   1      51.933  26.881  25.557  1.00  0.00    -0.460 OA
BRANCH  44  45
ATOM     45  C   UNL A   1      51.671  25.810  26.337  1.00  0.00     0.338 C 
ATOM     46  O   UNL A   1      52.326  24.785  26.407  1.00  0.00    -0.246 OA
BRANCH  45  47
ATOM     47  C   UNL A   1      50.562  26.161  27.254  1.00  0.00     0.060 A 
ATOM     48  C   UNL A   1      49.312  25.558  27.059  1.00  0.00     0.016 A 
ATOM     49  C   UNL A   1      50.740  27.093  28.280  1.00  0.00     0.016 A 
ATOM     50  C   UNL A   1      48.223  25.932  27.850  1.00  0.00     0.010 A 
ATOM     51  C   UNL A   1      49.644  27.478  29.060  1.00  0.00     0.010 A 
ATOM     52  C   UNL A   1      48.370  26.935  28.817  1.00  0.00    -0.014 A 
BRANCH  52  53
ATOM     53  C   UNL A   1      47.164  27.569  29.408  1.00  0.00     0.031 A 
ATOM     54  C   UNL A   1      46.486  26.874  30.561  1.00  0.00     0.074 A 
ATOM     55  C   UNL A   1      46.689  28.746  28.962  1.00  0.00     0.049 A 
ATOM     56  N   UNL A   1      45.413  27.217  31.224  1.00  0.00    -0.248 NA
ATOM     57  C   UNL A   1      47.107  25.623  31.034  1.00  0.00     0.031 C 
ATOM     58  C   UNL A   1      47.273  29.542  27.883  1.00  0.00     0.029 A 
ATOM     59  N   UNL A   1      45.592  29.472  29.360  1.00  0.00    -0.354 N 
ATOM     60  C   UNL A   1      45.223  26.224  32.178  1.00  0.00     0.074 A 
ATOM     61  C   UNL A   1      46.276  25.251  31.996  1.00  0.00     0.031 C 
ATOM     62  C   UNL A   1      46.517  30.638  27.694  1.00  0.00     0.029 A 
ATOM     63  C   UNL A   1      45.384  30.612  28.620  1.00  0.00     0.049 A 
ATOM     64  H   UNL A   1      45.009  29.201  30.107  1.00  0.00     0.167 HD
ATOM     65  C   UNL A   1      44.273  26.139  33.138  1.00  0.00     0.034 A 
ATOM     66  C   UNL A   1      44.388  31.522  28.677  1.00  0.00     0.034 A 
ATOM     67  C   UNL A   1      43.237  27.115  33.335  1.00  0.00     0.049 A 
ATOM     68  C   UNL A   1      43.302  31.371  29.714  1.00  0.00     0.074 A 
ATOM     69  C   UNL A   1      42.238  27.120  34.293  1.00  0.00     0.029 A 
ATOM     70  N   UNL A   1      43.064  28.254  32.567  1.00  0.00    -0.354 N 
ATOM     71  N   UNL A   1      43.184  30.471  30.660  1.00  0.00    -0.248 NA
ATOM     72  C   UNL A   1      42.227  32.376  29.713  1.00  0.00     0.031 C 
ATOM     73  C   UNL A   1      41.446  28.252  34.088  1.00  0.00     0.029 A 
ATOM     74  C   UNL A   1      41.971  28.967  33.023  1.00  0.00     0.049 A 
ATOM     75  H   UNL A   1      43.634  28.516  31.809  1.00  0.00     0.167 HD
ATOM     76  C   UNL A   1      42.052  30.825  31.388  1.00  0.00     0.074 A 
ATOM     77  C   UNL A   1      41.524  32.028  30.783  1.00  0.00     0.031 C 
ATOM     78  C   UNL A   1      41.492  30.200  32.455  1.00  0.00     0.034 A 
BRANCH  65  79
ATOM     79  C   UNL A   1      44.327  24.972  34.087  1.00  0.00     0.023 A 
ATOM     80  C   UNL A   1      43.857  23.714  33.661  1.00  0.00     0.012 A 
ATOM     81  C   UNL A   1      44.931  25.095  35.353  1.00  0.00     0.148 A 
ATOM     82  C   UNL A   1      43.974  22.597  34.487  1.00  0.00     0.002 A 
ATOM     83  C   UNL A   1      45.083  23.968  36.152  1.00  0.00     0.091 A 
ATOM     84  F   UNL A   1      45.353  26.306  35.743  1.00  0.00    -0.205 F 
ATOM     85  C   UNL A   1      44.599  22.722  35.724  1.00  0.00     0.022 A 
BRANCH  83  86
ATOM     86  S   UNL A   1      45.945  24.004  37.728  1.00  0.00     0.127 S 
ATOM     87  O   UNL A   1      45.034  24.804  38.544  1.00  0.00    -0.237 OA
ATOM     88  O   UNL A   1      45.995  22.585  38.081  1.00  0.00    -0.237 OA
ATOM     89  O   UNL A   1      47.241  24.616  37.466  1.00  0.00    -0.744 OA
ENDBRANCH  83  86
ENDBRANCH  65  79
BRANCH  66  90
ATOM     90  C   UNL A   1      44.392  32.691  27.750  1.00  0.00     0.023 A 
ATOM     91  C   UNL A   1      44.003  32.515  26.408  1.00  0.00     0.012 A 
ATOM     92  C   UNL A   1      44.759  33.976  28.193  1.00  0.00     0.148 A 
ATOM     93  C   UNL A   1      44.003  33.590  25.518  1.00  0.00     0.002 A 
ATOM     94  C   UNL A   1      44.698  35.055  27.318  1.00  0.00     0.091 A 
ATOM     95  F   UNL A   1      45.151  34.122  29.466  1.00  0.00    -0.205 F 
ATOM     96  C   UNL A   1      44.339  34.862  25.976  1.00  0.00     0.022 A 
BRANCH  94  97
ATOM     97  S   UNL A   1      44.959  36.747  27.861  1.00  0.00     0.127 S 
ATOM     98  O   UNL A   1      46.406  36.887  27.724  1.00  0.00    -0.237 OA
ATOM     99  O   UNL A   1      44.168  37.498  26.884  1.00  0.00    -0.237 OA
ATOM    100  O   UNL A   1      44.439  36.808  29.220  1.00  0.00    -0.744 OA
ENDBRANCH  94  97
ENDBRANCH  66  90
BRANCH  78 101
ATOM    101  C   UNL A   1      40.265  30.808  33.083  1.00  0.00     0.023 A 
ATOM    102  C   UNL A   1      38.988  30.458  32.603  1.00  0.00     0.012 A 
ATOM    103  C   UNL A   1      40.374  31.613  34.237  1.00  0.00     0.148 A 
ATOM    104  C   UNL A   1      37.839  30.911  33.251  1.00  0.00     0.002 A 
ATOM    105  C   UNL A   1      39.226  32.017  34.906  1.00  0.00     0.091 A 
ATOM    106  F   UNL A   1      41.600  31.943  34.669  1.00  0.00    -0.205 F 
ATOM    107  C   UNL A   1      37.958  31.676  34.409  1.00  0.00     0.022 A 
BRANCH 105 108
ATOM    108  S   UNL A   1      39.278  32.914  36.463  1.00  0.00     0.127 S 
ATOM    109  O   UNL A   1      37.857  33.132  36.730  1.00  0.00    -0.237 OA
ATOM    110  O   UNL A   1      39.926  31.949  37.352  1.00  0.00    -0.237 OA
ATOM    111  O   UNL A   1      40.054  34.121  36.209  1.00  0.00    -0.744 OA
ENDBRANCH 105 108
ENDBRANCH  78 101
ENDBRANCH  52  53
ENDBRANCH  45  47
ENDBRANCH  44  45
ENDBRANCH  43  44
ENDBRANCH  42  43
ENDBRANCH  41  42
ENDBRANCH  40  41
ENDBRANCH  39  40
ENDBRANCH  38  39
ENDBRANCH   1  38
TORSDOF 29
ENDMDL
MODEL 2
REMARK VINA RESULT:      -8.8      1.644      7.088
REMARK SMILES O=C(CCN1C(=O)S/C(=C\c2ccc(F)cc2)C1=O)Nc1ccc(O)cc1C(=O)OCCOCCOCCOCCOC(=O)c1ccc(-c2c3nc(c(-c4cccc(S(=O)(=O)[O-])c4F)c4ccc([nH]4)c(-c4cccc(S(=O)(=O)[O-])c4F)c4nc(c(-c5cccc(S(=O)(=O)[O-])c5F)c5ccc2[nH]5)C=C4)C=C3)cc1
REMARK SMILES IDX 35 1 34 2 33 3 32 4 31 5 30 6 28 7 29 8 27 9 21 10 22 11
REMARK SMILES IDX 23 12 26 13 24 14 20 15 1 16 2 17 3 19 4 20 5 21 6 22 18 23
REMARK SMILES IDX 7 24 8 25 9 26 19 27 10 28 11 29 12 30 17 31 13 32 16 33
REMARK SMILES IDX 14 34 15 35 25 36 36 38 37 39 38 40 39 41 40 42 41 43 42 44
REMARK SMILES IDX 43 45 44 46 45 47 46 48 107 49 47 50 106 51 48 52 49 53
REMARK SMILES IDX 50 54 100 55 51 56 105 57 99 58 101 59 52 60 104 61 98 62
REMARK SMILES IDX 97 63 53 65 85 66 65 67 84 68 66 69 69 70 83 71 102 72 67 73
REMARK SMILES IDX 68 74 82 76 103 77 70 78 54 79 55 80 63 81 56 82 58 83 64 84
REMARK SMILES IDX 57 85 59 86 60 87 61 88 62 89 86 90 87 91 95 92 88 93 90 94
REMARK SMILES IDX 96 95 89 96 91 97 92 98 93 99 94 100 71 101 72 102 80 103
REMARK SMILES IDX 73 104 75 105 81 106 74 107 76 108 77 109 78 110 79 111
REMARK H PARENT 20 18 25 37 101 64 69 75
REMARK Flexibility Score: inf
ROOT
ATOM      1  C   UNL A   1      46.725  25.102  24.722  1.00  0.00     0.188 C 
ENDROOT
BRANCH   1   2
ATOM      2  C   UNL A   1      45.489  24.179  24.837  1.00  0.00     0.188 C 
BRANCH   2   3
ATOM      3  O   UNL A   1      44.146  24.647  24.867  1.00  0.00    -0.376 OA
BRANCH   3   4
ATOM      4  C   UNL A   1      43.164  23.951  25.605  1.00  0.00     0.202 C 
BRANCH   4   5
ATOM      5  C   UNL A   1      42.010  24.724  26.255  1.00  0.00     0.261 C 
BRANCH   5   6
ATOM      6  O   UNL A   1      41.455  24.127  27.425  1.00  0.00    -0.460 OA
BRANCH   6   7
ATOM      7  C   UNL A   1      40.234  23.576  27.275  1.00  0.00     0.340 C 
ATOM      8  O   UNL A   1      39.162  24.162  27.271  1.00  0.00    -0.246 OA
BRANCH   7   9
ATOM      9  C   UNL A   1      40.401  22.168  26.855  1.00  0.00     0.087 A 
ATOM     10  C   UNL A   1      39.541  21.466  25.982  1.00  0.00     0.056 A 
ATOM     11  C   UNL A   1      39.801  20.103  25.774  1.00  0.00     0.031 A 
ATOM     12  C   UNL A   1      40.831  19.440  26.454  1.00  0.00     0.048 A 
ATOM     13  C   UNL A   1      41.429  21.496  27.541  1.00  0.00     0.064 A 
ATOM     14  C   UNL A   1      41.619  20.139  27.353  1.00  0.00     0.116 A 
BRANCH  10  15
ATOM     15  N   UNL A   1      38.457  22.105  25.318  1.00  0.00    -0.325 N 
ATOM     16  O   UNL A   1      37.022  20.313  25.027  1.00  0.00    -0.275 OA
ATOM     17  C   UNL A   1      37.317  21.492  24.825  1.00  0.00     0.226 C 
ATOM     18  H   UNL A   1      38.524  23.080  25.195  1.00  0.00     0.169 HD
BRANCH  17  19
ATOM     19  C   UNL A   1      36.397  22.364  23.976  1.00  0.00     0.122 C 
BRANCH  19  20
ATOM     20  C   UNL A   1      34.962  22.510  24.484  1.00  0.00     0.140 C 
BRANCH  20  21
ATOM     21  N   UNL A   1      34.373  23.842  24.640  1.00  0.00    -0.268 N 
ATOM     22  C   UNL A   1      33.931  24.375  25.819  1.00  0.00     0.293 C 
ATOM     23  C   UNL A   1      34.205  24.638  23.518  1.00  0.00     0.268 C 
ATOM     24  O   UNL A   1      33.790  23.803  26.886  1.00  0.00    -0.261 OA
ATOM     25  S   UNL A   1      33.322  25.997  25.582  1.00  0.00    -0.022 SA
ATOM     26  C   UNL A   1      33.440  25.869  23.875  1.00  0.00     0.083 C 
ATOM     27  O   UNL A   1      34.540  24.363  22.374  1.00  0.00    -0.268 OA
ATOM     28  C   UNL A   1      32.770  26.576  22.947  1.00  0.00     0.029 C 
BRANCH  28  29
ATOM     29  C   UNL A   1      31.700  27.547  23.236  1.00  0.00    -0.024 A 
ATOM     30  C   UNL A   1      30.488  27.567  22.536  1.00  0.00     0.011 A 
ATOM     31  C   UNL A   1      31.938  28.532  24.211  1.00  0.00     0.011 A 
ATOM     32  C   UNL A   1      29.562  28.590  22.761  1.00  0.00     0.040 A 
ATOM     33  C   UNL A   1      31.019  29.562  24.424  1.00  0.00     0.040 A 
ATOM     34  C   UNL A   1      29.841  29.585  23.690  1.00  0.00     0.123 A 
ATOM     35  F   UNL A   1      28.964  30.579  23.882  1.00  0.00    -0.207 F 
ENDBRANCH  28  29
ENDBRANCH  20  21
ENDBRANCH  19  20
ENDBRANCH  17  19
ENDBRANCH  10  15
BRANCH  14  36
ATOM     36  O   UNL A   1      42.583  19.521  28.091  1.00  0.00    -0.508 OA
ATOM     37  H   UNL A   1      43.198  18.951  27.674  1.00  0.00     0.293 HD
ENDBRANCH  14  36
ENDBRANCH   7   9
ENDBRANCH   6   7
ENDBRANCH   5   6
ENDBRANCH   4   5
ENDBRANCH   3   4
ENDBRANCH   2   3
ENDBRANCH   1   2
BRANCH   1  38
ATOM     38  O   UNL A   1      46.560  26.436  25.197  1.00  0.00    -0.377 OA
BRANCH  38  39
ATOM     39  C   UNL A   1      47.239  27.409  24.402  1.00  0.00     0.188 C 
BRANCH  39  40
ATOM     40  C   UNL A   1      48.554  26.891  23.796  1.00  0.00     0.188 C 
BRANCH  40  41
ATOM     41  O   UNL A   1      49.631  27.801  24.009  1.00  0.00    -0.376 OA
BRANCH  41  42
ATOM     42  C   UNL A   1      50.803  27.592  23.234  1.00  0.00     0.202 C 
BRANCH  42  43
ATOM     43  C   UNL A   1      51.958  26.852  23.933  1.00  0.00     0.261 C 
BRANCH  43  44
ATOM     44  O   UNL A   1      52.021  26.983  25.362  1.00  0.00    -0.460 OA
BRANCH  44  45
ATOM     45  C   UNL A   1      51.767  25.877  26.096  1.00  0.00     0.338 C 
ATOM     46  O   UNL A   1      52.393  24.833  26.076  1.00  0.00    -0.246 OA
BRANCH  45  47
ATOM     47  C   UNL A   1      50.717  26.208  27.088  1.00  0.00     0.060 A 
ATOM     48  C   UNL A   1      49.507  25.502  27.046  1.00  0.00     0.016 A 
ATOM     49  C   UNL A   1      50.909  27.219  28.034  1.00  0.00     0.016 A 
ATOM     50  C   UNL A   1      48.465  25.848  27.910  1.00  0.00     0.010 A 
ATOM     51  C   UNL A   1      49.858  27.574  28.887  1.00  0.00     0.010 A 
ATOM     52  C   UNL A   1      48.615  26.923  28.795  1.00  0.00    -0.014 A 
BRANCH  52  53
ATOM     53  C   UNL A   1      47.419  27.506  29.455  1.00  0.00     0.031 A 
ATOM     54  C   UNL A   1      46.858  28.793  28.906  1.00  0.00     0.074 A 
ATOM     55  C   UNL A   1      46.818  26.904  30.497  1.00  0.00     0.049 A 
ATOM     56  N   UNL A   1      45.842  29.502  29.322  1.00  0.00    -0.248 NA
ATOM     57  C   UNL A   1      47.534  29.354  27.720  1.00  0.00     0.031 C 
ATOM     58  C   UNL A   1      47.233  25.638  31.099  1.00  0.00     0.029 A 
ATOM     59  N   UNL A   1      45.730  27.290  31.243  1.00  0.00    -0.354 N 
ATOM     60  C   UNL A   1      45.765  30.593  28.464  1.00  0.00     0.074 A 
ATOM     61  C   UNL A   1      46.848  30.469  27.517  1.00  0.00     0.031 C 
ATOM     62  C   UNL A   1      46.418  25.361  32.133  1.00  0.00     0.029 A 
ATOM     63  C   UNL A   1      45.440  26.440  32.283  1.00  0.00     0.049 A 
ATOM     64  H   UNL A   1      45.206  28.102  31.049  1.00  0.00     0.167 HD
ATOM     65  C   UNL A   1      44.857  31.598  28.449  1.00  0.00     0.034 A 
ATOM     66  C   UNL A   1      44.501  26.527  33.249  1.00  0.00     0.034 A 
ATOM     67  C   UNL A   1      43.766  31.713  29.375  1.00  0.00     0.049 A 
ATOM     68  C   UNL A   1      43.541  27.692  33.249  1.00  0.00     0.074 A 
ATOM     69  C   UNL A   1      42.787  32.690  29.426  1.00  0.00     0.029 A 
ATOM     70  N   UNL A   1      43.507  30.830  30.410  1.00  0.00    -0.354 N 
ATOM     71  N   UNL A   1      43.431  28.670  32.383  1.00  0.00    -0.248 NA
ATOM     72  C   UNL A   1      42.557  27.751  34.341  1.00  0.00     0.031 C 
ATOM     73  C   UNL A   1      41.950  32.409  30.508  1.00  0.00     0.029 A 
ATOM     74  C   UNL A   1      42.388  31.241  31.110  1.00  0.00     0.049 A 
ATOM     75  H   UNL A   1      44.041  30.029  30.615  1.00  0.00     0.167 HD
ATOM     76  C   UNL A   1      42.344  29.433  32.801  1.00  0.00     0.074 A 
ATOM     77  C   UNL A   1      41.820  28.798  33.991  1.00  0.00     0.031 C 
ATOM     78  C   UNL A   1      41.835  30.565  32.254  1.00  0.00     0.034 A 
BRANCH  65  79
ATOM     79  C   UNL A   1      44.972  32.638  27.367  1.00  0.00     0.023 A 
ATOM     80  C   UNL A   1      44.237  32.477  26.174  1.00  0.00     0.012 A 
ATOM     81  C   UNL A   1      45.718  33.814  27.568  1.00  0.00     0.148 A 
ATOM     82  C   UNL A   1      44.256  33.466  25.192  1.00  0.00     0.002 A 
ATOM     83  C   UNL A   1      45.697  34.814  26.603  1.00  0.00     0.091 A 
ATOM     84  F   UNL A   1      46.424  33.936  28.701  1.00  0.00    -0.205 F 
ATOM     85  C   UNL A   1      44.974  34.638  25.412  1.00  0.00     0.022 A 
BRANCH  83  86
ATOM     86  S   UNL A   1      46.520  36.396  26.823  1.00  0.00     0.127 S 
ATOM     87  O   UNL A   1      45.408  37.332  26.663  1.00  0.00    -0.237 OA
ATOM     88  O   UNL A   1      47.034  36.286  28.188  1.00  0.00    -0.237 OA
ATOM     89  O   UNL A   1      47.542  36.467  25.787  1.00  0.00    -0.744 OA
ENDBRANCH  83  86
ENDBRANCH  65  79
BRANCH  66  90
ATOM     90  C   UNL A   1      44.388  25.453  34.279  1.00  0.00     0.023 A 
ATOM     91  C   UNL A   1      43.568  24.335  34.030  1.00  0.00     0.012 A 
ATOM     92  C   UNL A   1      45.100  25.523  35.492  1.00  0.00     0.148 A 
ATOM     93  C   UNL A   1      43.440  23.320  34.979  1.00  0.00     0.002 A 
ATOM     94  C   UNL A   1      45.017  24.479  36.406  1.00  0.00     0.091 A 
ATOM     95  F   UNL A   1      45.856  26.605  35.724  1.00  0.00    -0.205 F 
ATOM     96  C   UNL A   1      44.173  23.385  36.161  1.00  0.00     0.022 A 
BRANCH  94  97
ATOM     97  S   UNL A   1      46.045  24.406  37.876  1.00  0.00     0.127 S 
ATOM     98  O   UNL A   1      45.777  25.701  38.495  1.00  0.00    -0.237 OA
ATOM     99  O   UNL A   1      45.479  23.253  38.579  1.00  0.00    -0.237 OA
ATOM    100  O   UNL A   1      47.405  24.201  37.395  1.00  0.00    -0.744 OA
ENDBRANCH  94  97
ENDBRANCH  66  90
BRANCH  78 101
ATOM    101  C   UNL A   1      40.623  31.192  32.895  1.00  0.00     0.023 A 
ATOM    102  C   UNL A   1      40.788  32.162  33.901  1.00  0.00     0.012 A 
ATOM    103  C   UNL A   1      39.330  30.921  32.399  1.00  0.00     0.148 A 
ATOM    104  C   UNL A   1      39.685  32.844  34.416  1.00  0.00     0.002 A 
ATOM    105  C   UNL A   1      38.243  31.640  32.880  1.00  0.00     0.091 A 
ATOM    106  F   UNL A   1      39.195  29.984  31.449  1.00  0.00    -0.205 F 
ATOM    107  C   UNL A   1      38.417  32.594  33.895  1.00  0.00     0.022 A 
BRANCH 105 108
ATOM    108  S   UNL A   1      36.588  31.465  32.199  1.00  0.00     0.127 S 
ATOM    109  O   UNL A   1      35.808  32.324  33.088  1.00  0.00    -0.237 OA
ATOM    110  O   UNL A   1      36.759  31.984  30.842  1.00  0.00    -0.237 OA
ATOM    111  O   UNL A   1      36.270  30.045  32.271  1.00  0.00    -0.744 OA
ENDBRANCH 105 108
ENDBRANCH  78 101
ENDBRANCH  52  53
ENDBRANCH  45  47
ENDBRANCH  44  45
ENDBRANCH  43  44
ENDBRANCH  42  43
ENDBRANCH  41  42
ENDBRANCH  40  41
ENDBRANCH  39  40
ENDBRANCH  38  39
ENDBRANCH   1  38
TORSDOF 29
ENDMDL
MODEL 3
REMARK VINA RESULT:      -8.1      4.846      6.367
REMARK SMILES O=C(CCN1C(=O)S/C(=C\c2ccc(F)cc2)C1=O)Nc1ccc(O)cc1C(=O)OCCOCCOCCOCCOC(=O)c1ccc(-c2c3nc(c(-c4cccc(S(=O)(=O)[O-])c4F)c4ccc([nH]4)c(-c4cccc(S(=O)(=O)[O-])c4F)c4nc(c(-c5cccc(S(=O)(=O)[O-])c5F)c5ccc2[nH]5)C=C4)C=C3)cc1
REMARK SMILES IDX 35 1 34 2 33 3 32 4 31 5 30 6 28 7 29 8 27 9 21 10 22 11
REMARK SMILES IDX 23 12 26 13 24 14 20 15 1 16 2 17 3 19 4 20 5 21 6 22 18 23
REMARK SMILES IDX 7 24 8 25 9 26 19 27 10 28 11 29 12 30 17 31 13 32 16 33
REMARK SMILES IDX 14 34 15 35 25 36 36 38 37 39 38 40 39 41 40 42 41 43 42 44
REMARK SMILES IDX 43 45 44 46 45 47 46 48 107 49 47 50 106 51 48 52 49 53
REMARK SMILES IDX 50 54 100 55 51 56 105 57 99 58 101 59 52 60 104 61 98 62
REMARK SMILES IDX 97 63 53 65 85 66 65 67 84 68 66 69 69 70 83 71 102 72 67 73
REMARK SMILES IDX 68 74 82 76 103 77 70 78 54 79 55 80 63 81 56 82 58 83 64 84
REMARK SMILES IDX 57 85 59 86 60 87 61 88 62 89 86 90 87 91 95 92 88 93 90 94
REMARK SMILES IDX 96 95 89 96 91 97 92 98 93 99 94 100 71 101 72 102 80 103
REMARK SMILES IDX 73 104 75 105 81 106 74 107 76 108 77 109 78 110 79 111
REMARK H PARENT 20 18 25 37 101 64 69 75
REMARK Flexibility Score: inf
ROOT
ATOM      1  C   UNL A   1      47.548  25.264  24.602  1.00  0.00     0.188 C 
ENDROOT
BRANCH   1   2
ATOM      2  C   UNL A   1      46.138  24.676  24.841  1.00  0.00     0.188 C 
BRANCH   2   3
ATOM      3  O   UNL A   1      44.936  25.431  24.759  1.00  0.00    -0.376 OA
BRANCH   3   4
ATOM      4  C   UNL A   1      44.414  26.070  25.906  1.00  0.00     0.202 C 
BRANCH   4   5
ATOM      5  C   UNL A   1      43.892  27.509  25.805  1.00  0.00     0.261 C 
BRANCH   5   6
ATOM      6  O   UNL A   1      44.314  28.388  26.845  1.00  0.00    -0.460 OA
BRANCH   6   7
ATOM      7  C   UNL A   1      43.327  28.915  27.598  1.00  0.00     0.340 C 
ATOM      8  O   UNL A   1      42.410  29.623  27.210  1.00  0.00    -0.246 OA
BRANCH   7   9
ATOM      9  C   UNL A   1      43.373  28.294  28.939  1.00  0.00     0.087 A 
ATOM     10  C   UNL A   1      42.431  28.500  29.970  1.00  0.00     0.056 A 
ATOM     11  C   UNL A   1      42.691  27.903  31.213  1.00  0.00     0.031 A 
ATOM     12  C   UNL A   1      43.870  27.185  31.451  1.00  0.00     0.048 A 
ATOM     13  C   UNL A   1      44.559  27.577  29.184  1.00  0.00     0.064 A 
ATOM     14  C   UNL A   1      44.807  27.052  30.439  1.00  0.00     0.116 A 
BRANCH  10  15
ATOM     15  N   UNL A   1      41.250  29.268  29.769  1.00  0.00    -0.325 N 
ATOM     16  O   UNL A   1      39.787  28.175  31.190  1.00  0.00    -0.275 OA
ATOM     17  C   UNL A   1      40.005  29.023  30.323  1.00  0.00     0.226 C 
ATOM     18  H   UNL A   1      41.325  30.051  29.177  1.00  0.00     0.169 HD
BRANCH  17  19
ATOM     19  C   UNL A   1      38.854  29.872  29.794  1.00  0.00     0.122 C 
BRANCH  19  20
ATOM     20  C   UNL A   1      38.471  31.081  30.648  1.00  0.00     0.140 C 
BRANCH  20  21
ATOM     21  N   UNL A   1      38.996  32.407  30.316  1.00  0.00    -0.268 N 
ATOM     22  C   UNL A   1      38.303  33.388  29.661  1.00  0.00     0.293 C 
ATOM     23  C   UNL A   1      40.307  32.713  30.645  1.00  0.00     0.268 C 
ATOM     24  O   UNL A   1      37.224  33.288  29.101  1.00  0.00    -0.261 OA
ATOM     25  S   UNL A   1      39.278  34.828  29.482  1.00  0.00    -0.022 SA
ATOM     26  C   UNL A   1      40.683  34.038  30.069  1.00  0.00     0.083 C 
ATOM     27  O   UNL A   1      41.095  31.991  31.241  1.00  0.00    -0.268 OA
ATOM     28  C   UNL A   1      41.968  34.373  29.855  1.00  0.00     0.029 C 
BRANCH  28  29
ATOM     29  C   UNL A   1      42.420  35.454  28.962  1.00  0.00    -0.024 A 
ATOM     30  C   UNL A   1      42.168  35.454  27.585  1.00  0.00     0.011 A 
ATOM     31  C   UNL A   1      43.192  36.495  29.510  1.00  0.00     0.011 A 
ATOM     32  C   UNL A   1      42.731  36.435  26.765  1.00  0.00     0.040 A 
ATOM     33  C   UNL A   1      43.767  37.466  28.688  1.00  0.00     0.040 A 
ATOM     34  C   UNL A   1      43.537  37.423  27.320  1.00  0.00     0.123 A 
ATOM     35  F   UNL A   1      44.097  38.345  26.528  1.00  0.00    -0.207 F 
ENDBRANCH  28  29
ENDBRANCH  20  21
ENDBRANCH  19  20
ENDBRANCH  17  19
ENDBRANCH  10  15
BRANCH  14  36
ATOM     36  O   UNL A   1      45.998  26.426  30.645  1.00  0.00    -0.508 OA
ATOM     37  H   UNL A   1      46.477  26.579  31.436  1.00  0.00     0.293 HD
ENDBRANCH  14  36
ENDBRANCH   7   9
ENDBRANCH   6   7
ENDBRANCH   5   6
ENDBRANCH   4   5
ENDBRANCH   3   4
ENDBRANCH   2   3
ENDBRANCH   1   2
BRANCH   1  38
ATOM     38  O   UNL A   1      47.738  26.621  24.995  1.00  0.00    -0.377 OA
BRANCH  38  39
ATOM     39  C   UNL A   1      48.340  27.427  23.980  1.00  0.00     0.188 C 
BRANCH  39  40
ATOM     40  C   UNL A   1      49.418  26.684  23.173  1.00  0.00     0.188 C 
BRANCH  40  41
ATOM     41  O   UNL A   1      50.682  27.338  23.249  1.00  0.00    -0.376 OA
BRANCH  41  42
ATOM     42  C   UNL A   1      51.614  27.046  22.218  1.00  0.00     0.202 C 
BRANCH  42  43
ATOM     43  C   UNL A   1      52.939  26.400  22.660  1.00  0.00     0.261 C 
BRANCH  43  44
ATOM     44  O   UNL A   1      53.239  26.467  24.064  1.00  0.00    -0.460 OA
BRANCH  44  45
ATOM     45  C   UNL A   1      53.042  25.347  24.793  1.00  0.00     0.338 C 
ATOM     46  O   UNL A   1      53.559  24.260  24.607  1.00  0.00    -0.246 OA
BRANCH  45  47
ATOM     47  C   UNL A   1      52.243  25.704  25.989  1.00  0.00     0.060 A 
ATOM     48  C   UNL A   1      50.952  25.175  26.116  1.00  0.00     0.016 A 
ATOM     49  C   UNL A   1      52.749  26.570  26.963  1.00  0.00     0.016 A 
ATOM     50  C   UNL A   1      50.141  25.560  27.187  1.00  0.00     0.010 A 
ATOM     51  C   UNL A   1      51.928  26.966  28.025  1.00  0.00     0.010 A 
ATOM     52  C   UNL A   1      50.604  26.501  28.115  1.00  0.00    -0.014 A 
BRANCH  52  53
ATOM     53  C   UNL A   1      49.643  27.162  29.035  1.00  0.00     0.031 A 
ATOM     54  C   UNL A   1      49.449  26.571  30.408  1.00  0.00     0.074 A 
ATOM     55  C   UNL A   1      48.974  28.276  28.684  1.00  0.00     0.049 A 
ATOM     56  N   UNL A   1      48.654  26.954  31.373  1.00  0.00    -0.248 NA
ATOM     57  C   UNL A   1      50.269  25.391  30.740  1.00  0.00     0.031 C 
ATOM     58  C   UNL A   1      49.100  28.971  27.404  1.00  0.00     0.029 A 
ATOM     59  N   UNL A   1      48.043  29.011  29.377  1.00  0.00    -0.354 N 
ATOM     60  C   UNL A   1      48.867  26.058  32.415  1.00  0.00     0.074 A 
ATOM     61  C   UNL A   1      49.846  25.099  31.961  1.00  0.00     0.031 C 
ATOM     62  C   UNL A   1      48.262  30.023  27.398  1.00  0.00     0.029 A 
ATOM     63  C   UNL A   1      47.524  30.064  28.661  1.00  0.00     0.049 A 
ATOM     64  H   UNL A   1      47.773  28.803  30.301  1.00  0.00     0.167 HD
ATOM     65  C   UNL A   1      48.315  26.049  33.651  1.00  0.00     0.034 A 
ATOM     66  C   UNL A   1      46.558  30.950  28.985  1.00  0.00     0.034 A 
ATOM     67  C   UNL A   1      47.357  27.013  34.114  1.00  0.00     0.049 A 
ATOM     68  C   UNL A   1      45.911  30.879  30.346  1.00  0.00     0.074 A 
ATOM     69  C   UNL A   1      46.754  27.092  35.358  1.00  0.00     0.029 A 
ATOM     70  N   UNL A   1      46.861  28.063  33.360  1.00  0.00    -0.354 N 
ATOM     71  N   UNL A   1      46.181  30.077  31.348  1.00  0.00    -0.248 NA
ATOM     72  C   UNL A   1      44.845  31.851  30.635  1.00  0.00     0.031 C 
ATOM     73  C   UNL A   1      45.874  28.176  35.346  1.00  0.00     0.029 A 
ATOM     74  C   UNL A   1      45.954  28.792  34.107  1.00  0.00     0.049 A 
ATOM     75  H   UNL A   1      47.116  28.261  32.430  1.00  0.00     0.167 HD
ATOM     76  C   UNL A   1      45.353  30.475  32.394  1.00  0.00     0.074 A 
ATOM     77  C   UNL A   1      44.578  31.597  31.910  1.00  0.00     0.031 C 
ATOM     78  C   UNL A   1      45.236  29.949  33.638  1.00  0.00     0.034 A 
BRANCH  65  79
ATOM     79  C   UNL A   1      48.764  24.986  34.618  1.00  0.00     0.023 A 
ATOM     80  C   UNL A   1      49.858  25.244  35.469  1.00  0.00     0.012 A 
ATOM     81  C   UNL A   1      48.046  23.783  34.757  1.00  0.00     0.148 A 
ATOM     82  C   UNL A   1      50.241  24.314  36.433  1.00  0.00     0.002 A 
ATOM     83  C   UNL A   1      48.408  22.879  35.750  1.00  0.00     0.091 A 
ATOM     84  F   UNL A   1      47.022  23.551  33.925  1.00  0.00    -0.205 F 
ATOM     85  C   UNL A   1      49.508  23.139  36.582  1.00  0.00     0.022 A 
BRANCH  83  86
ATOM     86  S   UNL A   1      47.482  21.375  36.079  1.00  0.00     0.127 S 
ATOM     87  O   UNL A   1      48.421  20.347  35.634  1.00  0.00    -0.237 OA
ATOM     88  O   UNL A   1      47.294  21.444  37.528  1.00  0.00    -0.237 OA
ATOM     89  O   UNL A   1      46.257  21.475  35.297  1.00  0.00    -0.744 OA
ENDBRANCH  83  86
ENDBRANCH  65  79
BRANCH  66  90
ATOM     90  C   UNL A   1      46.171  32.018  28.018  1.00  0.00     0.023 A 
ATOM     91  C   UNL A   1      45.013  31.859  27.233  1.00  0.00     0.012 A 
ATOM     92  C   UNL A   1      46.931  33.196  27.885  1.00  0.00     0.148 A 
ATOM     93  C   UNL A   1      44.632  32.839  26.316  1.00  0.00     0.002 A 
ATOM     94  C   UNL A   1      46.511  34.197  27.016  1.00  0.00     0.091 A 
ATOM     95  F   UNL A   1      48.044  33.322  28.621  1.00  0.00    -0.205 F 
ATOM     96  C   UNL A   1      45.374  34.014  26.216  1.00  0.00     0.022 A 
BRANCH  94  97
ATOM     97  S   UNL A   1      47.315  35.801  26.940  1.00  0.00     0.127 S 
ATOM     98  O   UNL A   1      48.680  35.437  26.568  1.00  0.00    -0.237 OA
ATOM     99  O   UNL A   1      46.544  36.471  25.891  1.00  0.00    -0.237 OA
ATOM    100  O   UNL A   1      47.151  36.386  28.264  1.00  0.00    -0.744 OA
ENDBRANCH  94  97
ENDBRANCH  66  90
BRANCH  78 101
ATOM    101  C   UNL A   1      44.269  30.587  34.603  1.00  0.00     0.023 A 
ATOM    102  C   UNL A   1      44.628  31.775  35.267  1.00  0.00     0.012 A 
ATOM    103  C   UNL A   1      42.958  30.086  34.739  1.00  0.00     0.148 A 
ATOM    104  C   UNL A   1      43.702  32.448  36.064  1.00  0.00     0.002 A 
ATOM    105  C   UNL A   1      42.027  30.788  35.494  1.00  0.00     0.091 A 
ATOM    106  F   UNL A   1      42.642  28.946  34.106  1.00  0.00    -0.205 F 
ATOM    107  C   UNL A   1      42.400  31.963  36.165  1.00  0.00     0.022 A 
BRANCH 105 108
ATOM    108  S   UNL A   1      40.299  30.302  35.597  1.00  0.00     0.127 S 
ATOM    109  O   UNL A   1      40.397  28.980  36.211  1.00  0.00    -0.237 OA
ATOM    110  O   UNL A   1      39.739  31.340  36.464  1.00  0.00    -0.237 OA
ATOM    111  O   UNL A   1      39.794  30.316  34.230  1.00  0.00    -0.744 OA
ENDBRANCH 105 108
ENDBRANCH  78 101
ENDBRANCH  52  53
ENDBRANCH  45  47
ENDBRANCH  44  45
ENDBRANCH  43  44
ENDBRANCH  42  43
ENDBRANCH  41  42
ENDBRANCH  40  41
ENDBRANCH  39  40
ENDBRANCH  38  39
ENDBRANCH   1  38
TORSDOF 29
ENDMDL
