MODEL 1
REMARK VINA RESULT:      -5.3      0.000      0.000
REMARK SMILES CC(C)C[C@H](NC(=O)[C@H](Cc1ccccc1)NC(=O)CNC(=O)CNC(=O)OCc1ccccc1)C(=O)OCCOCCOCCOCCOC(=O)c1ccc(-c2c3nc(c(-c4cccc(S(=O)(=O)[O-])c4F)c4ccc([nH]4)c(-c4cccc(S(=O)(=O)[O-])c4F)c4nc(c(-c5cccc(S(=O)(=O)[O-])c5F)c5ccc2[nH]5)C=C4)C=C3)cc1
REMARK SMILES IDX 40 1 39 2 38 3 36 4 37 5 5 6 4 7 2 8 1 9 3 10 6 11 7 12 8 14
REMARK SMILES IDX 9 15 17 16 18 17 19 19 20 20 21 21 22 22 23 24 24 25 25 26
REMARK SMILES IDX 26 27 27 29 28 30 29 31 30 32 31 33 35 34 32 35 34 36 33 37
REMARK SMILES IDX 10 38 11 39 12 40 16 41 13 42 15 43 14 44 41 45 42 46 43 47
REMARK SMILES IDX 44 48 45 49 46 50 47 51 48 52 49 53 50 54 51 55 52 56 53 57
REMARK SMILES IDX 54 58 115 59 55 60 114 61 56 62 57 63 58 64 108 65 59 66
REMARK SMILES IDX 113 67 107 68 109 69 60 70 112 71 106 72 105 73 61 75 93 76
REMARK SMILES IDX 73 77 92 78 74 79 77 80 91 81 110 82 75 83 76 84 90 86
REMARK SMILES IDX 111 87 78 88 62 89 63 90 71 91 64 92 66 93 72 94 65 95 67 96
REMARK SMILES IDX 68 97 69 98 70 99 94 100 95 101 103 102 96 103 98 104
REMARK SMILES IDX 104 105 97 106 99 107 100 108 101 109 102 110 79 111 80 112
REMARK SMILES IDX 88 113 81 114 83 115 89 116 82 117 84 118 85 119 86 120
REMARK SMILES IDX 87 121
REMARK H PARENT 6 13 17 18 21 23 25 28 109 74 77 85
REMARK Flexibility Score: inf
ROOT
ATOM      1  C   UNL A   1      41.620  32.952  34.010  1.00  0.00     0.202 C 
ENDROOT
BRANCH   1   2
ATOM      2  C   UNL A   1      40.901  32.040  32.716  1.00  0.00     0.261 C 
BRANCH   2   3
ATOM      3  O   UNL A   1      41.699  31.205  31.831  1.00  0.00    -0.462 OA
BRANCH   3   4
ATOM      4  C   UNL A   1      41.670  29.852  31.872  1.00  0.00     0.328 C 
ATOM      5  O   UNL A   1      42.223  29.136  31.047  1.00  0.00    -0.250 OA
BRANCH   4   6
ATOM      6  C   UNL A   1      40.897  29.277  33.143  1.00  0.00     0.192 C 
BRANCH   6   7
ATOM      7  C   UNL A   1      41.800  28.289  33.870  1.00  0.00     0.040 C 
BRANCH   7   8
ATOM      8  C   UNL A   1      43.275  28.613  34.172  1.00  0.00    -0.015 C 
ATOM      9  C   UNL A   1      43.601  29.622  35.274  1.00  0.00     0.007 C 
ATOM     10  C   UNL A   1      43.863  27.289  34.603  1.00  0.00     0.007 C 
ENDBRANCH   7   8
ENDBRANCH   6   7
BRANCH   6  11
ATOM     11  N   UNL A   1      39.478  28.908  33.251  1.00  0.00    -0.341 N 
ATOM     12  C   UNL A   1      38.621  28.389  32.326  1.00  0.00     0.243 C 
ATOM     13  H   UNL A   1      39.081  29.061  34.139  1.00  0.00     0.164 HD
ATOM     14  O   UNL A   1      37.628  27.772  32.714  1.00  0.00    -0.273 OA
BRANCH  12  15
ATOM     15  C   UNL A   1      38.864  28.726  30.864  1.00  0.00     0.175 C 
BRANCH  15  16
ATOM     16  N   UNL A   1      39.548  27.658  30.135  1.00  0.00    -0.342 N 
ATOM     17  C   UNL A   1      39.865  27.683  28.804  1.00  0.00     0.240 C 
ATOM     18  H   UNL A   1      39.802  26.854  30.644  1.00  0.00     0.164 HD
ATOM     19  O   UNL A   1      39.604  26.666  28.157  1.00  0.00    -0.273 OA
BRANCH  17  20
ATOM     20  C   UNL A   1      40.615  28.862  28.138  1.00  0.00     0.216 C 
BRANCH  20  21
ATOM     21  N   UNL A   1      41.059  28.775  26.743  1.00  0.00    -0.346 N 
ATOM     22  C   UNL A   1      42.158  28.141  26.214  1.00  0.00     0.239 C 
ATOM     23  H   UNL A   1      40.486  29.237  26.090  1.00  0.00     0.164 HD
ATOM     24  O   UNL A   1      42.023  27.606  25.107  1.00  0.00    -0.273 OA
BRANCH  22  25
ATOM     25  C   UNL A   1      43.554  28.173  26.883  1.00  0.00     0.219 C 
BRANCH  25  26
ATOM     26  N   UNL A   1      43.577  29.003  28.055  1.00  0.00    -0.312 N 
ATOM     27  C   UNL A   1      43.915  30.310  28.189  1.00  0.00     0.407 C 
ATOM     28  H   UNL A   1      43.305  28.556  28.889  1.00  0.00     0.167 HD
ATOM     29  O   UNL A   1      44.486  30.664  29.203  1.00  0.00    -0.225 OA
BRANCH  27  30
ATOM     30  O   UNL A   1      43.510  31.113  27.183  1.00  0.00    -0.445 OA
BRANCH  30  31
ATOM     31  C   UNL A   1      44.603  31.879  26.643  1.00  0.00     0.270 C 
BRANCH  31  32
ATOM     32  C   UNL A   1      44.390  33.369  26.825  1.00  0.00    -0.011 A 
ATOM     33  C   UNL A   1      43.541  34.088  25.964  1.00  0.00     0.007 A 
ATOM     34  C   UNL A   1      45.061  34.065  27.841  1.00  0.00     0.007 A 
ATOM     35  C   UNL A   1      43.375  35.469  26.114  1.00  0.00     0.000 A 
ATOM     36  C   UNL A   1      44.903  35.448  27.984  1.00  0.00     0.000 A 
ATOM     37  C   UNL A   1      44.058  36.150  27.123  1.00  0.00     0.000 A 
ENDBRANCH  31  32
ENDBRANCH  30  31
ENDBRANCH  27  30
ENDBRANCH  25  26
ENDBRANCH  22  25
ENDBRANCH  20  21
ENDBRANCH  17  20
ENDBRANCH  15  16
BRANCH  15  38
ATOM     38  C   UNL A   1      37.479  28.855  30.280  1.00  0.00     0.070 C 
BRANCH  38  39
ATOM     39  C   UNL A   1      36.566  30.052  30.186  1.00  0.00    -0.045 A 
ATOM     40  C   UNL A   1      35.951  31.258  31.444  1.00  0.00     0.004 A 
ATOM     41  C   UNL A   1      36.052  30.255  28.460  1.00  0.00     0.004 A 
ATOM     42  C   UNL A   1      34.920  32.652  30.918  1.00  0.00     0.000 A 
ATOM     43  C   UNL A   1      35.002  31.617  27.989  1.00  0.00     0.000 A 
ATOM     44  C   UNL A   1      34.438  32.793  29.197  1.00  0.00     0.000 A 
ENDBRANCH  38  39
ENDBRANCH  15  38
ENDBRANCH  12  15
ENDBRANCH   6  11
ENDBRANCH   4   6
ENDBRANCH   3   4
ENDBRANCH   2   3
ENDBRANCH   1   2
BRANCH   1  45
ATOM     45  O   UNL A   1      41.112  34.682  34.879  1.00  0.00    -0.376 OA
BRANCH  45  46
ATOM     46  C   UNL A   1      40.158  35.470  35.806  1.00  0.00     0.188 C 
BRANCH  46  47
ATOM     47  C   UNL A   1      39.528  34.860  37.096  1.00  0.00     0.188 C 
BRANCH  47  48
ATOM     48  O   UNL A   1      40.060  35.028  38.391  1.00  0.00    -0.377 OA
BRANCH  48  49
ATOM     49  C   UNL A   1      39.401  35.718  39.419  1.00  0.00     0.188 C 
BRANCH  49  50
ATOM     50  C   UNL A   1      38.981  34.924  40.635  1.00  0.00     0.188 C 
BRANCH  50  51
ATOM     51  O   UNL A   1      39.290  33.551  40.727  1.00  0.00    -0.376 OA
BRANCH  51  52
ATOM     52  C   UNL A   1      40.199  33.112  41.718  1.00  0.00     0.202 C 
BRANCH  52  53
ATOM     53  C   UNL A   1      41.694  32.859  41.404  1.00  0.00     0.261 C 
BRANCH  53  54
ATOM     54  O   UNL A   1      42.082  31.790  40.521  1.00  0.00    -0.460 OA
BRANCH  54  55
ATOM     55  C   UNL A   1      43.384  31.728  40.155  1.00  0.00     0.338 C 
ATOM     56  O   UNL A   1      44.202  30.912  40.548  1.00  0.00    -0.246 OA
BRANCH  55  57
ATOM     57  C   UNL A   1      43.677  32.705  39.067  1.00  0.00     0.060 A 
ATOM     58  C   UNL A   1      42.917  32.639  37.888  1.00  0.00     0.016 A 
ATOM     59  C   UNL A   1      44.777  33.566  39.127  1.00  0.00     0.016 A 
ATOM     60  C   UNL A   1      43.303  33.343  36.744  1.00  0.00     0.010 A 
ATOM     61  C   UNL A   1      45.185  34.250  37.964  1.00  0.00     0.010 A 
ATOM     62  C   UNL A   1      44.497  34.070  36.747  1.00  0.00    -0.014 A 
BRANCH  62  63
ATOM     63  C   UNL A   1      45.191  34.270  35.438  1.00  0.00     0.031 A 
ATOM     64  C   UNL A   1      45.035  35.620  34.774  1.00  0.00     0.074 A 
ATOM     65  C   UNL A   1      46.002  33.354  34.878  1.00  0.00     0.049 A 
ATOM     66  N   UNL A   1      45.538  36.065  33.652  1.00  0.00    -0.248 NA
ATOM     67  C   UNL A   1      44.198  36.606  35.481  1.00  0.00     0.031 C 
ATOM     68  C   UNL A   1      46.303  32.042  35.435  1.00  0.00     0.029 A 
ATOM     69  N   UNL A   1      46.714  33.388  33.701  1.00  0.00    -0.354 N 
ATOM     70  C   UNL A   1      45.044  37.356  33.501  1.00  0.00     0.074 A 
ATOM     71  C   UNL A   1      44.197  37.623  34.639  1.00  0.00     0.031 C 
ATOM     72  C   UNL A   1      47.110  31.377  34.588  1.00  0.00     0.029 A 
ATOM     73  C   UNL A   1      47.370  32.211  33.416  1.00  0.00     0.049 A 
ATOM     74  H   UNL A   1      46.752  34.180  33.117  1.00  0.00     0.167 HD
ATOM     75  C   UNL A   1      45.275  38.248  32.509  1.00  0.00     0.034 A 
ATOM     76  C   UNL A   1      48.080  31.844  32.329  1.00  0.00     0.034 A 
ATOM     77  C   UNL A   1      46.128  37.994  31.383  1.00  0.00     0.049 A 
ATOM     78  C   UNL A   1      48.282  32.837  31.211  1.00  0.00     0.074 A 
ATOM     79  C   UNL A   1      46.457  38.847  30.344  1.00  0.00     0.029 A 
ATOM     80  N   UNL A   1      46.769  36.792  31.133  1.00  0.00    -0.354 N 
ATOM     81  N   UNL A   1      47.877  34.081  31.124  1.00  0.00    -0.248 NA
ATOM     82  C   UNL A   1      49.075  32.388  30.056  1.00  0.00     0.031 C 
ATOM     83  C   UNL A   1      47.250  38.140  29.436  1.00  0.00     0.029 A 
ATOM     84  C   UNL A   1      47.473  36.870  29.944  1.00  0.00     0.049 A 
ATOM     85  H   UNL A   1      46.731  35.998  31.715  1.00  0.00     0.167 HD
ATOM     86  C   UNL A   1      48.406  34.576  29.936  1.00  0.00     0.074 A 
ATOM     87  C   UNL A   1      49.172  33.501  29.343  1.00  0.00     0.031 C 
ATOM     88  C   UNL A   1      48.270  35.808  29.385  1.00  0.00     0.034 A 
BRANCH  75  89
ATOM     89  C   UNL A   1      44.566  39.576  32.587  1.00  0.00     0.023 A 
ATOM     90  C   UNL A   1      43.355  39.783  31.894  1.00  0.00     0.012 A 
ATOM     91  C   UNL A   1      45.097  40.615  33.376  1.00  0.00     0.148 A 
ATOM     92  C   UNL A   1      42.709  41.018  31.950  1.00  0.00     0.002 A 
ATOM     93  C   UNL A   1      44.418  41.824  33.472  1.00  0.00     0.091 A 
ATOM     94  F   UNL A   1      46.260  40.408  34.006  1.00  0.00    -0.205 F 
ATOM     95  C   UNL A   1      43.234  42.033  32.747  1.00  0.00     0.022 A 
BRANCH  93  96
ATOM     96  S   UNL A   1      44.968  43.159  34.539  1.00  0.00     0.127 S 
ATOM     97  O   UNL A   1      43.701  43.641  35.087  1.00  0.00    -0.237 OA
ATOM     98  O   UNL A   1      45.818  42.453  35.498  1.00  0.00    -0.237 OA
ATOM     99  O   UNL A   1      45.672  44.101  33.679  1.00  0.00    -0.744 OA
ENDBRANCH  93  96
ENDBRANCH  75  89
BRANCH  76 100
ATOM    100  C   UNL A   1      48.685  30.480  32.243  1.00  0.00     0.023 A 
ATOM    101  C   UNL A   1      49.996  30.266  32.714  1.00  0.00     0.012 A 
ATOM    102  C   UNL A   1      47.976  29.398  31.684  1.00  0.00     0.148 A 
ATOM    103  C   UNL A   1      50.603  29.014  32.594  1.00  0.00     0.002 A 
ATOM    104  C   UNL A   1      48.564  28.140  31.621  1.00  0.00     0.091 A 
ATOM    105  F   UNL A   1      46.738  29.621  31.224  1.00  0.00    -0.205 F 
ATOM    106  C   UNL A   1      49.885  27.950  32.056  1.00  0.00     0.022 A 
BRANCH 104 107
ATOM    107  S   UNL A   1      47.681  26.682  31.053  1.00  0.00     0.127 S 
ATOM    108  O   UNL A   1      46.611  26.573  32.042  1.00  0.00    -0.237 OA
ATOM    109  O   UNL A   1      47.247  27.097  29.719  1.00  0.00    -0.237 OA
ATOM    110  O   UNL A   1      48.653  25.598  31.061  1.00  0.00    -0.744 OA
ENDBRANCH 104 107
ENDBRANCH  76 100
BRANCH  88 111
ATOM    111  C   UNL A   1      49.020  36.096  28.108  1.00  0.00     0.023 A 
ATOM    112  C   UNL A   1      48.410  35.890  26.855  1.00  0.00     0.012 A 
ATOM    113  C   UNL A   1      50.324  36.633  28.160  1.00  0.00     0.148 A 
ATOM    114  C   UNL A   1      49.103  36.164  25.676  1.00  0.00     0.002 A 
ATOM    115  C   UNL A   1      50.985  36.959  26.984  1.00  0.00     0.091 A 
ATOM    116  F   UNL A   1      50.895  36.810  29.360  1.00  0.00    -0.205 F 
ATOM    117  C   UNL A   1      50.384  36.708  25.740  1.00  0.00     0.022 A 
BRANCH 115 118
ATOM    118  S   UNL A   1      52.593  37.760  26.972  1.00  0.00     0.127 S 
ATOM    119  O   UNL A   1      53.207  37.212  28.180  1.00  0.00    -0.237 OA
ATOM    120  O   UNL A   1      53.171  37.273  25.719  1.00  0.00    -0.237 OA
ATOM    121  O   UNL A   1      52.330  39.193  27.000  1.00  0.00    -0.744 OA
ENDBRANCH 115 118
ENDBRANCH  88 111
ENDBRANCH  62  63
ENDBRANCH  55  57
ENDBRANCH  54  55
ENDBRANCH  53  54
ENDBRANCH  52  53
ENDBRANCH  51  52
ENDBRANCH  50  51
ENDBRANCH  49  50
ENDBRANCH  48  49
ENDBRANCH  47  48
ENDBRANCH  46  47
ENDBRANCH  45  46
ENDBRANCH   1  45
TORSDOF 37
ENDMDL
MODEL 2
REMARK VINA RESULT:      -5.3      5.904     11.527
REMARK SMILES CC(C)C[C@H](NC(=O)[C@H](Cc1ccccc1)NC(=O)CNC(=O)CNC(=O)OCc1ccccc1)C(=O)OCCOCCOCCOCCOC(=O)c1ccc(-c2c3nc(c(-c4cccc(S(=O)(=O)[O-])c4F)c4ccc([nH]4)c(-c4cccc(S(=O)(=O)[O-])c4F)c4nc(c(-c5cccc(S(=O)(=O)[O-])c5F)c5ccc2[nH]5)C=C4)C=C3)cc1
REMARK SMILES IDX 40 1 39 2 38 3 36 4 37 5 5 6 4 7 2 8 1 9 3 10 6 11 7 12 8 14
REMARK SMILES IDX 9 15 17 16 18 17 19 19 20 20 21 21 22 22 23 24 24 25 25 26
REMARK SMILES IDX 26 27 27 29 28 30 29 31 30 32 31 33 35 34 32 35 34 36 33 37
REMARK SMILES IDX 10 38 11 39 12 40 16 41 13 42 15 43 14 44 41 45 42 46 43 47
REMARK SMILES IDX 44 48 45 49 46 50 47 51 48 52 49 53 50 54 51 55 52 56 53 57
REMARK SMILES IDX 54 58 115 59 55 60 114 61 56 62 57 63 58 64 108 65 59 66
REMARK SMILES IDX 113 67 107 68 109 69 60 70 112 71 106 72 105 73 61 75 93 76
REMARK SMILES IDX 73 77 92 78 74 79 77 80 91 81 110 82 75 83 76 84 90 86
REMARK SMILES IDX 111 87 78 88 62 89 63 90 71 91 64 92 66 93 72 94 65 95 67 96
REMARK SMILES IDX 68 97 69 98 70 99 94 100 95 101 103 102 96 103 98 104
REMARK SMILES IDX 104 105 97 106 99 107 100 108 101 109 102 110 79 111 80 112
REMARK SMILES IDX 88 113 81 114 83 115 89 116 82 117 84 118 85 119 86 120
REMARK SMILES IDX 87 121
REMARK H PARENT 6 13 17 18 21 23 25 28 109 74 77 85
REMARK Flexibility Score: inf
ROOT
ATOM      1  C   UNL A   1      32.254  26.998  26.854  1.00  0.00     0.202 C 
ENDROOT
BRANCH   1   2
ATOM      2  C   UNL A   1      32.420  28.377  27.899  1.00  0.00     0.261 C 
BRANCH   2   3
ATOM      3  O   UNL A   1      33.117  29.582  27.473  1.00  0.00    -0.462 OA
BRANCH   3   4
ATOM      4  C   UNL A   1      34.350  29.558  26.913  1.00  0.00     0.328 C 
ATOM      5  O   UNL A   1      34.556  29.304  25.733  1.00  0.00    -0.250 OA
BRANCH   4   6
ATOM      6  C   UNL A   1      35.511  29.962  27.930  1.00  0.00     0.192 C 
BRANCH   6   7
ATOM      7  C   UNL A   1      35.972  31.380  27.622  1.00  0.00     0.040 C 
BRANCH   7   8
ATOM      8  C   UNL A   1      35.686  32.551  28.582  1.00  0.00    -0.015 C 
ATOM      9  C   UNL A   1      35.312  33.913  27.997  1.00  0.00     0.007 C 
ATOM     10  C   UNL A   1      34.500  32.081  29.393  1.00  0.00     0.007 C 
ENDBRANCH   7   8
ENDBRANCH   6   7
BRANCH   6  11
ATOM     11  N   UNL A   1      36.609  29.123  28.431  1.00  0.00    -0.341 N 
ATOM     12  C   UNL A   1      37.264  29.136  29.627  1.00  0.00     0.243 C 
ATOM     13  H   UNL A   1      36.924  28.438  27.798  1.00  0.00     0.164 HD
ATOM     14  O   UNL A   1      37.842  28.114  30.000  1.00  0.00    -0.273 OA
BRANCH  12  15
ATOM     15  C   UNL A   1      37.368  30.459  30.367  1.00  0.00     0.175 C 
BRANCH  15  16
ATOM     16  N   UNL A   1      36.993  30.358  31.778  1.00  0.00    -0.342 N 
ATOM     17  C   UNL A   1      37.686  29.669  32.736  1.00  0.00     0.240 C 
ATOM     18  H   UNL A   1      36.174  30.825  32.062  1.00  0.00     0.164 HD
ATOM     19  O   UNL A   1      37.022  28.950  33.485  1.00  0.00    -0.273 OA
BRANCH  17  20
ATOM     20  C   UNL A   1      39.207  29.848  32.968  1.00  0.00     0.216 C 
BRANCH  20  21
ATOM     21  N   UNL A   1      39.708  30.875  33.887  1.00  0.00    -0.346 N 
ATOM     22  C   UNL A   1      40.750  30.814  34.780  1.00  0.00     0.239 C 
ATOM     23  H   UNL A   1      39.227  31.733  33.859  1.00  0.00     0.164 HD
ATOM     24  O   UNL A   1      41.424  31.840  34.933  1.00  0.00    -0.273 OA
BRANCH  22  25
ATOM     25  C   UNL A   1      41.031  29.576  35.666  1.00  0.00     0.219 C 
BRANCH  25  26
ATOM     26  N   UNL A   1      41.443  28.437  34.894  1.00  0.00    -0.312 N 
ATOM     27  C   UNL A   1      42.319  28.355  33.862  1.00  0.00     0.407 C 
ATOM     28  H   UNL A   1      41.025  27.584  35.154  1.00  0.00     0.167 HD
ATOM     29  O   UNL A   1      42.089  27.569  32.962  1.00  0.00    -0.225 OA
BRANCH  27  30
ATOM     30  O   UNL A   1      43.418  29.129  33.980  1.00  0.00    -0.445 OA
BRANCH  30  31
ATOM     31  C   UNL A   1      44.576  28.497  33.403  1.00  0.00     0.270 C 
BRANCH  31  32
ATOM     32  C   UNL A   1      45.287  29.411  32.425  1.00  0.00    -0.011 A 
ATOM     33  C   UNL A   1      46.503  29.029  31.832  1.00  0.00     0.007 A 
ATOM     34  C   UNL A   1      44.758  30.673  32.118  1.00  0.00     0.007 A 
ATOM     35  C   UNL A   1      47.174  29.890  30.957  1.00  0.00     0.000 A 
ATOM     36  C   UNL A   1      45.434  31.539  31.251  1.00  0.00     0.000 A 
ATOM     37  C   UNL A   1      46.640  31.147  30.669  1.00  0.00     0.000 A 
ENDBRANCH  31  32
ENDBRANCH  30  31
ENDBRANCH  27  30
ENDBRANCH  25  26
ENDBRANCH  22  25
ENDBRANCH  20  21
ENDBRANCH  17  20
ENDBRANCH  15  16
BRANCH  15  38
ATOM     38  C   UNL A   1      38.836  30.799  30.314  1.00  0.00     0.070 C 
BRANCH  38  39
ATOM     39  C   UNL A   1      39.526  32.112  30.042  1.00  0.00    -0.045 A 
ATOM     40  C   UNL A   1      38.898  33.774  29.535  1.00  0.00     0.004 A 
ATOM     41  C   UNL A   1      41.306  31.899  30.313  1.00  0.00     0.004 A 
ATOM     42  C   UNL A   1      40.052  35.164  29.397  1.00  0.00     0.000 A 
ATOM     43  C   UNL A   1      42.415  33.281  30.126  1.00  0.00     0.000 A 
ATOM     44  C   UNL A   1      41.802  34.887  29.668  1.00  0.00     0.000 A 
ENDBRANCH  38  39
ENDBRANCH  15  38
ENDBRANCH  12  15
ENDBRANCH   6  11
ENDBRANCH   4   6
ENDBRANCH   3   4
ENDBRANCH   2   3
ENDBRANCH   1   2
BRANCH   1  45
ATOM     45  O   UNL A   1      33.594  25.914  25.836  1.00  0.00    -0.376 OA
BRANCH  45  46
ATOM     46  C   UNL A   1      34.073  25.320  24.492  1.00  0.00     0.188 C 
BRANCH  46  47
ATOM     47  C   UNL A   1      33.808  23.842  24.072  1.00  0.00     0.188 C 
BRANCH  47  48
ATOM     48  O   UNL A   1      34.229  22.720  24.816  1.00  0.00    -0.377 OA
BRANCH  48  49
ATOM     49  C   UNL A   1      35.540  22.223  24.797  1.00  0.00     0.188 C 
BRANCH  49  50
ATOM     50  C   UNL A   1      36.470  22.663  25.905  1.00  0.00     0.188 C 
BRANCH  50  51
ATOM     51  O   UNL A   1      37.236  23.839  25.763  1.00  0.00    -0.376 OA
BRANCH  51  52
ATOM     52  C   UNL A   1      38.563  23.863  26.253  1.00  0.00     0.202 C 
BRANCH  52  53
ATOM     53  C   UNL A   1      38.978  24.759  27.446  1.00  0.00     0.261 C 
BRANCH  53  54
ATOM     54  O   UNL A   1      39.850  25.886  27.240  1.00  0.00    -0.460 OA
BRANCH  54  55
ATOM     55  C   UNL A   1      41.134  25.625  26.901  1.00  0.00     0.338 C 
ATOM     56  O   UNL A   1      41.583  25.580  25.767  1.00  0.00    -0.246 OA
BRANCH  55  57
ATOM     57  C   UNL A   1      41.999  25.546  28.115  1.00  0.00     0.060 A 
ATOM     58  C   UNL A   1      42.327  26.738  28.779  1.00  0.00     0.016 A 
ATOM     59  C   UNL A   1      42.610  24.352  28.507  1.00  0.00     0.016 A 
ATOM     60  C   UNL A   1      43.327  26.766  29.754  1.00  0.00     0.010 A 
ATOM     61  C   UNL A   1      43.641  24.385  29.467  1.00  0.00     0.010 A 
ATOM     62  C   UNL A   1      44.060  25.608  30.029  1.00  0.00    -0.014 A 
BRANCH  62  63
ATOM     63  C   UNL A   1      45.451  25.774  30.552  1.00  0.00     0.031 A 
ATOM     64  C   UNL A   1      45.699  25.373  31.989  1.00  0.00     0.074 A 
ATOM     65  C   UNL A   1      46.488  26.173  29.794  1.00  0.00     0.049 A 
ATOM     66  N   UNL A   1      46.805  25.398  32.686  1.00  0.00    -0.248 NA
ATOM     67  C   UNL A   1      44.535  24.868  32.739  1.00  0.00     0.031 C 
ATOM     68  C   UNL A   1      46.416  26.522  28.382  1.00  0.00     0.029 A 
ATOM     69  N   UNL A   1      47.813  26.362  30.117  1.00  0.00    -0.354 N 
ATOM     70  C   UNL A   1      46.460  24.958  33.960  1.00  0.00     0.074 A 
ATOM     71  C   UNL A   1      45.044  24.680  33.945  1.00  0.00     0.031 C 
ATOM     72  C   UNL A   1      47.631  26.918  27.961  1.00  0.00     0.029 A 
ATOM     73  C   UNL A   1      48.568  26.868  29.081  1.00  0.00     0.049 A 
ATOM     74  H   UNL A   1      48.186  26.155  31.003  1.00  0.00     0.167 HD
ATOM     75  C   UNL A   1      47.247  24.793  35.049  1.00  0.00     0.034 A 
ATOM     76  C   UNL A   1      49.858  27.261  29.048  1.00  0.00     0.034 A 
ATOM     77  C   UNL A   1      48.659  25.054  35.067  1.00  0.00     0.049 A 
ATOM     78  C   UNL A   1      50.705  27.115  30.289  1.00  0.00     0.074 A 
ATOM     79  C   UNL A   1      49.551  24.882  36.109  1.00  0.00     0.029 A 
ATOM     80  N   UNL A   1      49.381  25.565  34.001  1.00  0.00    -0.354 N 
ATOM     81  N   UNL A   1      50.382  26.621  31.460  1.00  0.00    -0.248 NA
ATOM     82  C   UNL A   1      52.108  27.549  30.193  1.00  0.00     0.031 C 
ATOM     83  C   UNL A   1      50.803  25.344  35.692  1.00  0.00     0.029 A 
ATOM     84  C   UNL A   1      50.704  25.738  34.367  1.00  0.00     0.049 A 
ATOM     85  H   UNL A   1      49.008  25.775  33.114  1.00  0.00     0.167 HD
ATOM     86  C   UNL A   1      51.549  26.635  32.218  1.00  0.00     0.074 A 
ATOM     87  C   UNL A   1      52.589  27.175  31.370  1.00  0.00     0.031 C 
ATOM     88  C   UNL A   1      51.742  26.236  33.500  1.00  0.00     0.034 A 
BRANCH  75  89
ATOM     89  C   UNL A   1      46.586  24.333  36.323  1.00  0.00     0.023 A 
ATOM     90  C   UNL A   1      46.408  22.958  36.581  1.00  0.00     0.012 A 
ATOM     91  C   UNL A   1      46.161  25.276  37.280  1.00  0.00     0.148 A 
ATOM     92  C   UNL A   1      45.779  22.532  37.751  1.00  0.00     0.002 A 
ATOM     93  C   UNL A   1      45.586  24.842  38.468  1.00  0.00     0.091 A 
ATOM     94  F   UNL A   1      46.315  26.578  37.006  1.00  0.00    -0.205 F 
ATOM     95  C   UNL A   1      45.378  23.473  38.698  1.00  0.00     0.022 A 
BRANCH  93  96
ATOM     96  S   UNL A   1      45.118  25.970  39.784  1.00  0.00     0.127 S 
ATOM     97  O   UNL A   1      43.999  26.687  39.175  1.00  0.00    -0.237 OA
ATOM     98  O   UNL A   1      44.740  25.048  40.856  1.00  0.00    -0.237 OA
ATOM     99  O   UNL A   1      46.297  26.778  40.063  1.00  0.00    -0.744 OA
ENDBRANCH  93  96
ENDBRANCH  75  89
BRANCH  76 100
ATOM    100  C   UNL A   1      50.453  27.807  27.790  1.00  0.00     0.023 A 
ATOM    101  C   UNL A   1      50.139  29.119  27.381  1.00  0.00     0.012 A 
ATOM    102  C   UNL A   1      51.314  27.030  26.990  1.00  0.00     0.148 A 
ATOM    103  C   UNL A   1      50.637  29.631  26.182  1.00  0.00     0.002 A 
ATOM    104  C   UNL A   1      51.854  27.567  25.827  1.00  0.00     0.091 A 
ATOM    105  F   UNL A   1      51.588  25.779  27.383  1.00  0.00    -0.205 F 
ATOM    106  C   UNL A   1      51.501  28.860  25.410  1.00  0.00     0.022 A 
BRANCH 104 107
ATOM    107  S   UNL A   1      53.067  26.697  24.827  1.00  0.00     0.127 S 
ATOM    108  O   UNL A   1      53.300  27.646  23.741  1.00  0.00    -0.237 OA
ATOM    109  O   UNL A   1      54.179  26.552  25.768  1.00  0.00    -0.237 OA
ATOM    110  O   UNL A   1      52.439  25.442  24.439  1.00  0.00    -0.744 OA
ENDBRANCH 104 107
ENDBRANCH  76 100
BRANCH  88 111
ATOM    111  C   UNL A   1      53.144  26.298  34.054  1.00  0.00     0.023 A 
ATOM    112  C   UNL A   1      54.023  25.207  33.906  1.00  0.00     0.012 A 
ATOM    113  C   UNL A   1      53.607  27.477  34.676  1.00  0.00     0.148 A 
ATOM    114  C   UNL A   1      55.321  25.269  34.413  1.00  0.00     0.002 A 
ATOM    115  C   UNL A   1      54.919  27.553  35.124  1.00  0.00     0.091 A 
ATOM    116  F   UNL A   1      52.754  28.501  34.821  1.00  0.00    -0.205 F 
ATOM    117  C   UNL A   1      55.772  26.444  35.010  1.00  0.00     0.022 A 
BRANCH 115 118
ATOM    118  S   UNL A   1      55.616  29.059  35.811  1.00  0.00     0.127 S 
ATOM    119  O   UNL A   1      55.432  28.845  37.245  1.00  0.00    -0.237 OA
ATOM    120  O   UNL A   1      57.006  28.990  35.357  1.00  0.00    -0.237 OA
ATOM    121  O   UNL A   1      54.848  30.157  35.239  1.00  0.00    -0.744 OA
ENDBRANCH 115 118
ENDBRANCH  88 111
ENDBRANCH  62  63
ENDBRANCH  55  57
ENDBRANCH  54  55
ENDBRANCH  53  54
ENDBRANCH  52  53
ENDBRANCH  51  52
ENDBRANCH  50  51
ENDBRANCH  49  50
ENDBRANCH  48  49
ENDBRANCH  47  48
ENDBRANCH  46  47
ENDBRANCH  45  46
ENDBRANCH   1  45
TORSDOF 37
ENDMDL
MODEL 3
REMARK VINA RESULT:      -5.0     10.800     17.101
REMARK SMILES CC(C)C[C@H](NC(=O)[C@H](Cc1ccccc1)NC(=O)CNC(=O)CNC(=O)OCc1ccccc1)C(=O)OCCOCCOCCOCCOC(=O)c1ccc(-c2c3nc(c(-c4cccc(S(=O)(=O)[O-])c4F)c4ccc([nH]4)c(-c4cccc(S(=O)(=O)[O-])c4F)c4nc(c(-c5cccc(S(=O)(=O)[O-])c5F)c5ccc2[nH]5)C=C4)C=C3)cc1
REMARK SMILES IDX 40 1 39 2 38 3 36 4 37 5 5 6 4 7 2 8 1 9 3 10 6 11 7 12 8 14
REMARK SMILES IDX 9 15 17 16 18 17 19 19 20 20 21 21 22 22 23 24 24 25 25 26
REMARK SMILES IDX 26 27 27 29 28 30 29 31 30 32 31 33 35 34 32 35 34 36 33 37
REMARK SMILES IDX 10 38 11 39 12 40 16 41 13 42 15 43 14 44 41 45 42 46 43 47
REMARK SMILES IDX 44 48 45 49 46 50 47 51 48 52 49 53 50 54 51 55 52 56 53 57
REMARK SMILES IDX 54 58 115 59 55 60 114 61 56 62 57 63 58 64 108 65 59 66
REMARK SMILES IDX 113 67 107 68 109 69 60 70 112 71 106 72 105 73 61 75 93 76
REMARK SMILES IDX 73 77 92 78 74 79 77 80 91 81 110 82 75 83 76 84 90 86
REMARK SMILES IDX 111 87 78 88 62 89 63 90 71 91 64 92 66 93 72 94 65 95 67 96
REMARK SMILES IDX 68 97 69 98 70 99 94 100 95 101 103 102 96 103 98 104
REMARK SMILES IDX 104 105 97 106 99 107 100 108 101 109 102 110 79 111 80 112
REMARK SMILES IDX 88 113 81 114 83 115 89 116 82 117 84 118 85 119 86 120
REMARK SMILES IDX 87 121
REMARK H PARENT 6 13 17 18 21 23 25 28 109 74 77 85
REMARK Flexibility Score: inf
ROOT
ATOM      1  C   UNL A   1      44.325  16.930  38.121  1.00  0.00     0.202 C 
ENDROOT
BRANCH   1   2
ATOM      2  C   UNL A   1      44.966  16.137  39.530  1.00  0.00     0.261 C 
BRANCH   2   3
ATOM      3  O   UNL A   1      45.359  16.883  40.716  1.00  0.00    -0.462 OA
BRANCH   3   4
ATOM      4  C   UNL A   1      44.464  17.364  41.612  1.00  0.00     0.328 C 
ATOM      5  O   UNL A   1      43.789  18.368  41.425  1.00  0.00    -0.250 OA
BRANCH   4   6
ATOM      6  C   UNL A   1      44.326  16.453  42.915  1.00  0.00     0.192 C 
BRANCH   6   7
ATOM      7  C   UNL A   1      43.553  15.191  42.559  1.00  0.00     0.040 C 
BRANCH   7   8
ATOM      8  C   UNL A   1      42.084  15.245  42.096  1.00  0.00    -0.015 C 
ATOM      9  C   UNL A   1      41.727  14.721  40.704  1.00  0.00     0.007 C 
ATOM     10  C   UNL A   1      41.351  14.377  43.092  1.00  0.00     0.007 C 
ENDBRANCH   7   8
ENDBRANCH   6   7
BRANCH   6  11
ATOM     11  N   UNL A   1      44.073  16.882  44.297  1.00  0.00    -0.341 N 
ATOM     12  C   UNL A   1      44.928  17.064  45.343  1.00  0.00     0.243 C 
ATOM     13  H   UNL A   1      43.128  17.069  44.503  1.00  0.00     0.164 HD
ATOM     14  O   UNL A   1      44.592  17.809  46.265  1.00  0.00    -0.273 OA
BRANCH  12  15
ATOM     15  C   UNL A   1      46.191  16.219  45.384  1.00  0.00     0.175 C 
BRANCH  15  16
ATOM     16  N   UNL A   1      47.361  16.960  45.857  1.00  0.00    -0.342 N 
ATOM     17  C   UNL A   1      48.204  17.697  45.070  1.00  0.00     0.240 C 
ATOM     18  H   UNL A   1      47.558  16.925  46.820  1.00  0.00     0.164 HD
ATOM     19  O   UNL A   1      49.412  17.533  45.253  1.00  0.00    -0.273 OA
BRANCH  17  20
ATOM     20  C   UNL A   1      47.703  18.771  44.073  1.00  0.00     0.216 C 
BRANCH  20  21
ATOM     21  N   UNL A   1      47.682  18.503  42.632  1.00  0.00    -0.346 N 
ATOM     22  C   UNL A   1      48.729  18.398  41.748  1.00  0.00     0.239 C 
ATOM     23  H   UNL A   1      46.787  18.380  42.241  1.00  0.00     0.164 HD
ATOM     24  O   UNL A   1      48.622  17.562  40.843  1.00  0.00    -0.273 OA
BRANCH  22  25
ATOM     25  C   UNL A   1      49.953  19.345  41.773  1.00  0.00     0.219 C 
BRANCH  25  26
ATOM     26  N   UNL A   1      51.186  18.647  41.536  1.00  0.00    -0.312 N 
ATOM     27  C   UNL A   1      52.303  18.570  42.302  1.00  0.00     0.407 C 
ATOM     28  H   UNL A   1      51.226  18.146  40.689  1.00  0.00     0.167 HD
ATOM     29  O   UNL A   1      53.387  18.528  41.750  1.00  0.00    -0.225 OA
BRANCH  27  30
ATOM     30  O   UNL A   1      52.083  18.478  43.630  1.00  0.00    -0.445 OA
BRANCH  30  31
ATOM     31  C   UNL A   1      53.315  18.522  44.376  1.00  0.00     0.270 C 
BRANCH  31  32
ATOM     32  C   UNL A   1      53.535  17.251  45.172  1.00  0.00    -0.011 A 
ATOM     33  C   UNL A   1      53.583  15.999  44.534  1.00  0.00     0.007 A 
ATOM     34  C   UNL A   1      53.666  17.299  46.567  1.00  0.00     0.007 A 
ATOM     35  C   UNL A   1      53.751  14.824  45.276  1.00  0.00     0.000 A 
ATOM     36  C   UNL A   1      53.823  16.123  47.311  1.00  0.00     0.000 A 
ATOM     37  C   UNL A   1      53.869  14.887  46.665  1.00  0.00     0.000 A 
ENDBRANCH  31  32
ENDBRANCH  30  31
ENDBRANCH  27  30
ENDBRANCH  25  26
ENDBRANCH  22  25
ENDBRANCH  20  21
ENDBRANCH  17  20
ENDBRANCH  15  16
BRANCH  15  38
ATOM     38  C   UNL A   1      45.889  15.152  46.407  1.00  0.00     0.070 C 
BRANCH  38  39
ATOM     39  C   UNL A   1      45.640  13.675  46.234  1.00  0.00    -0.045 A 
ATOM     40  C   UNL A   1      46.679  12.183  46.566  1.00  0.00     0.004 A 
ATOM     41  C   UNL A   1      43.963  13.441  45.588  1.00  0.00     0.004 A 
ATOM     42  C   UNL A   1      45.980  10.531  46.315  1.00  0.00     0.000 A 
ATOM     43  C   UNL A   1      43.325  11.799  45.315  1.00  0.00     0.000 A 
ATOM     44  C   UNL A   1      44.318  10.366  45.665  1.00  0.00     0.000 A 
ENDBRANCH  38  39
ENDBRANCH  15  38
ENDBRANCH  12  15
ENDBRANCH   6  11
ENDBRANCH   4   6
ENDBRANCH   3   4
ENDBRANCH   2   3
ENDBRANCH   1   2
BRANCH   1  45
ATOM     45  O   UNL A   1      44.927  18.540  37.096  1.00  0.00    -0.376 OA
BRANCH  45  46
ATOM     46  C   UNL A   1      45.992  19.226  36.211  1.00  0.00     0.188 C 
BRANCH  46  47
ATOM     47  C   UNL A   1      45.652  20.355  35.190  1.00  0.00     0.188 C 
BRANCH  47  48
ATOM     48  O   UNL A   1      46.034  21.704  35.345  1.00  0.00    -0.377 OA
BRANCH  48  49
ATOM     49  C   UNL A   1      47.276  22.105  35.860  1.00  0.00     0.188 C 
BRANCH  49  50
ATOM     50  C   UNL A   1      47.283  23.236  36.864  1.00  0.00     0.188 C 
BRANCH  50  51
ATOM     51  O   UNL A   1      48.453  23.527  37.596  1.00  0.00    -0.376 OA
BRANCH  51  52
ATOM     52  C   UNL A   1      48.386  23.596  39.007  1.00  0.00     0.202 C 
BRANCH  52  53
ATOM     53  C   UNL A   1      47.638  24.739  39.737  1.00  0.00     0.261 C 
BRANCH  53  54
ATOM     54  O   UNL A   1      48.230  26.048  39.839  1.00  0.00    -0.460 OA
BRANCH  54  55
ATOM     55  C   UNL A   1      48.417  26.549  41.082  1.00  0.00     0.338 C 
ATOM     56  O   UNL A   1      49.420  26.419  41.765  1.00  0.00    -0.246 OA
BRANCH  55  57
ATOM     57  C   UNL A   1      47.284  27.437  41.474  1.00  0.00     0.060 A 
ATOM     58  C   UNL A   1      46.449  27.938  40.464  1.00  0.00     0.016 A 
ATOM     59  C   UNL A   1      47.131  27.901  42.784  1.00  0.00     0.016 A 
ATOM     60  C   UNL A   1      45.539  28.965  40.727  1.00  0.00     0.010 A 
ATOM     61  C   UNL A   1      46.238  28.959  43.043  1.00  0.00     0.010 A 
ATOM     62  C   UNL A   1      45.503  29.551  41.996  1.00  0.00    -0.014 A 
BRANCH  62  63
ATOM     63  C   UNL A   1      45.037  30.968  42.093  1.00  0.00     0.031 A 
ATOM     64  C   UNL A   1      43.602  31.195  42.514  1.00  0.00     0.074 A 
ATOM     65  C   UNL A   1      45.842  32.031  41.912  1.00  0.00     0.049 A 
ATOM     66  N   UNL A   1      42.948  32.313  42.692  1.00  0.00    -0.248 NA
ATOM     67  C   UNL A   1      42.797  29.988  42.775  1.00  0.00     0.031 C 
ATOM     68  C   UNL A   1      47.258  31.968  41.575  1.00  0.00     0.029 A 
ATOM     69  N   UNL A   1      45.574  33.380  41.977  1.00  0.00    -0.354 N 
ATOM     70  C   UNL A   1      41.652  31.942  43.040  1.00  0.00     0.074 A 
ATOM     71  C   UNL A   1      41.608  30.500  43.041  1.00  0.00     0.031 C 
ATOM     72  C   UNL A   1      47.733  33.218  41.427  1.00  0.00     0.029 A 
ATOM     73  C   UNL A   1      46.648  34.174  41.641  1.00  0.00     0.049 A 
ATOM     74  H   UNL A   1      44.698  33.743  42.240  1.00  0.00     0.167 HD
ATOM     75  C   UNL A   1      40.591  32.728  43.338  1.00  0.00     0.034 A 
ATOM     76  C   UNL A   1      46.739  35.513  41.504  1.00  0.00     0.034 A 
ATOM     77  C   UNL A   1      40.632  34.163  43.354  1.00  0.00     0.049 A 
ATOM     78  C   UNL A   1      45.528  36.367  41.792  1.00  0.00     0.074 A 
ATOM     79  C   UNL A   1      39.621  35.048  43.680  1.00  0.00     0.029 A 
ATOM     80  N   UNL A   1      41.736  34.925  43.006  1.00  0.00    -0.354 N 
ATOM     81  N   UNL A   1      44.335  36.004  42.199  1.00  0.00    -0.248 NA
ATOM     82  C   UNL A   1      45.687  37.822  41.639  1.00  0.00     0.031 C 
ATOM     83  C   UNL A   1      40.095  36.347  43.473  1.00  0.00     0.029 A 
ATOM     84  C   UNL A   1      41.424  36.271  43.086  1.00  0.00     0.049 A 
ATOM     85  H   UNL A   1      42.612  34.563  42.741  1.00  0.00     0.167 HD
ATOM     86  C   UNL A   1      43.622  37.182  42.400  1.00  0.00     0.074 A 
ATOM     87  C   UNL A   1      44.521  38.271  42.082  1.00  0.00     0.031 C 
ATOM     88  C   UNL A   1      42.340  37.348  42.810  1.00  0.00     0.034 A 
BRANCH  75  89
ATOM     89  C   UNL A   1      39.282  32.044  43.644  1.00  0.00     0.023 A 
ATOM     90  C   UNL A   1      38.357  31.776  42.615  1.00  0.00     0.012 A 
ATOM     91  C   UNL A   1      38.985  31.645  44.961  1.00  0.00     0.148 A 
ATOM     92  C   UNL A   1      37.138  31.161  42.900  1.00  0.00     0.002 A 
ATOM     93  C   UNL A   1      37.793  30.983  45.229  1.00  0.00     0.091 A 
ATOM     94  F   UNL A   1      39.865  31.931  45.930  1.00  0.00    -0.205 F 
ATOM     95  C   UNL A   1      36.861  30.755  44.204  1.00  0.00     0.022 A 
BRANCH  93  96
ATOM     96  S   UNL A   1      37.386  30.345  46.857  1.00  0.00     0.127 S 
ATOM     97  O   UNL A   1      36.154  29.606  46.586  1.00  0.00    -0.237 OA
ATOM     98  O   UNL A   1      38.547  29.505  47.154  1.00  0.00    -0.237 OA
ATOM     99  O   UNL A   1      37.237  31.507  47.722  1.00  0.00    -0.744 OA
ENDBRANCH  93  96
ENDBRANCH  75  89
BRANCH  76 100
ATOM    100  C   UNL A   1      48.030  36.149  41.100  1.00  0.00     0.023 A 
ATOM    101  C   UNL A   1      48.949  36.554  42.089  1.00  0.00     0.012 A 
ATOM    102  C   UNL A   1      48.344  36.370  39.744  1.00  0.00     0.148 A 
ATOM    103  C   UNL A   1      50.136  37.200  41.739  1.00  0.00     0.002 A 
ATOM    104  C   UNL A   1      49.555  36.960  39.400  1.00  0.00     0.091 A 
ATOM    105  F   UNL A   1      47.452  35.997  38.817  1.00  0.00    -0.205 F 
ATOM    106  C   UNL A   1      50.443  37.395  40.396  1.00  0.00     0.022 A 
BRANCH 104 107
ATOM    107  S   UNL A   1      50.093  37.149  37.697  1.00  0.00     0.127 S 
ATOM    108  O   UNL A   1      51.407  37.767  37.861  1.00  0.00    -0.237 OA
ATOM    109  O   UNL A   1      50.119  35.760  37.236  1.00  0.00    -0.237 OA
ATOM    110  O   UNL A   1      49.088  37.980  37.049  1.00  0.00    -0.744 OA
ENDBRANCH 104 107
ENDBRANCH  76 100
BRANCH  88 111
ATOM    111  C   UNL A   1      41.841  38.757  43.011  1.00  0.00     0.023 A 
ATOM    112  C   UNL A   1      41.963  39.390  44.264  1.00  0.00     0.012 A 
ATOM    113  C   UNL A   1      41.300  39.478  41.926  1.00  0.00     0.148 A 
ATOM    114  C   UNL A   1      41.507  40.695  44.447  1.00  0.00     0.002 A 
ATOM    115  C   UNL A   1      40.905  40.797  42.099  1.00  0.00     0.091 A 
ATOM    116  F   UNL A   1      41.179  38.858  40.743  1.00  0.00    -0.205 F 
ATOM    117  C   UNL A   1      40.990  41.402  43.364  1.00  0.00     0.022 A 
BRANCH 115 118
ATOM    118  S   UNL A   1      40.324  41.817  40.739  1.00  0.00     0.127 S 
ATOM    119  O   UNL A   1      41.537  41.959  39.935  1.00  0.00    -0.237 OA
ATOM    120  O   UNL A   1      39.291  40.972  40.139  1.00  0.00    -0.237 OA
ATOM    121  O   UNL A   1      39.826  43.047  41.340  1.00  0.00    -0.744 OA
ENDBRANCH 115 118
ENDBRANCH  88 111
ENDBRANCH  62  63
ENDBRANCH  55  57
ENDBRANCH  54  55
ENDBRANCH  53  54
ENDBRANCH  52  53
ENDBRANCH  51  52
ENDBRANCH  50  51
ENDBRANCH  49  50
ENDBRANCH  48  49
ENDBRANCH  47  48
ENDBRANCH  46  47
ENDBRANCH  45  46
ENDBRANCH   1  45
TORSDOF 37
ENDMDL
