MODEL 1
REMARK VINA RESULT:      -8.1      0.000      0.000
REMARK SMILES CCCCCCNC(=O)Oc1cccc(-c2ccc(CC(=O)OCCOCCOCCOCCOC(=O)c3ccc(-c4c5nc(c(-c6cccc(S(=O)(=O)[O-])c6F)c6ccc([nH]6)c(-c6cccc(S(=O)(=O)[O-])c6F)c6nc(c(-c7cccc(S(=O)(=O)[O-])c7F)c7ccc4[nH]7)C=C6)C=C5)cc3)cc2F)c1
REMARK SMILES IDX 26 1 25 2 24 3 23 4 21 5 22 6 20 7 19 8 16 9 17 10 102 11
REMARK SMILES IDX 18 12 101 13 103 14 15 15 11 16 12 17 104 18 13 19 14 20
REMARK SMILES IDX 10 21 8 22 7 23 9 25 6 26 5 27 4 28 3 29 2 30 1 31 27 32
REMARK SMILES IDX 28 33 29 34 30 35 31 36 32 37 33 38 34 39 35 40 36 41 37 42
REMARK SMILES IDX 38 43 39 44 100 45 40 46 99 47 41 48 42 49 43 50 93 51 44 52
REMARK SMILES IDX 98 53 92 54 94 55 45 56 97 57 91 58 90 59 46 61 78 62 58 63
REMARK SMILES IDX 77 64 59 65 62 66 76 67 95 68 60 69 61 70 75 72 96 73 63 74
REMARK SMILES IDX 47 75 48 76 56 77 49 78 51 79 57 80 50 81 52 82 53 83 54 84
REMARK SMILES IDX 55 85 79 86 80 87 88 88 81 89 83 90 89 91 82 92 84 93 85 94
REMARK SMILES IDX 86 95 87 96 64 97 65 98 73 99 66 100 68 101 74 102 67 103
REMARK SMILES IDX 69 104 70 105 71 106 72 107
REMARK H PARENT 7 24 94 60 62 71
REMARK Flexibility Score: inf
ROOT
ATOM      1  O   UNL A   1      39.910  27.767  29.315  1.00  0.00    -0.376 OA
ENDROOT
BRANCH   1   2
ATOM      2  C   UNL A   1      40.627  26.859  28.496  1.00  0.00     0.202 C 
BRANCH   2   3
ATOM      3  C   UNL A   1      40.018  25.457  28.298  1.00  0.00     0.261 C 
BRANCH   3   4
ATOM      4  O   UNL A   1      40.929  24.339  28.406  1.00  0.00    -0.463 OA
BRANCH   4   5
ATOM      5  C   UNL A   1      40.629  23.238  27.679  1.00  0.00     0.310 C 
ATOM      6  O   UNL A   1      40.863  22.089  28.053  1.00  0.00    -0.252 OA
BRANCH   5   7
ATOM      7  C   UNL A   1      39.991  23.493  26.323  1.00  0.00     0.158 C 
BRANCH   7   8
ATOM      8  C   UNL A   1      38.585  23.026  25.977  1.00  0.00    -0.034 A 
ATOM      9  C   UNL A   1      35.926  22.089  25.478  1.00  0.00     0.018 A 
ATOM     10  C   UNL A   1      36.158  23.405  25.903  1.00  0.00     0.012 A 
ATOM     11  C   UNL A   1      37.045  21.261  25.317  1.00  0.00     0.131 A 
ATOM     12  C   UNL A   1      37.465  23.859  26.168  1.00  0.00     0.005 A 
ATOM     13  C   UNL A   1      38.351  21.716  25.543  1.00  0.00     0.044 A 
ATOM     14  F   UNL A   1      36.876  19.978  24.960  1.00  0.00    -0.206 F 
BRANCH   9  15
ATOM     15  C   UNL A   1      34.565  21.584  25.238  1.00  0.00    -0.012 A 
ATOM     16  C   UNL A   1      32.169  21.973  25.058  1.00  0.00     0.133 A 
ATOM     17  C   UNL A   1      31.929  20.607  24.931  1.00  0.00     0.047 A 
ATOM     18  C   UNL A   1      33.469  22.463  25.221  1.00  0.00     0.056 A 
ATOM     19  C   UNL A   1      33.007  19.723  24.934  1.00  0.00     0.004 A 
ATOM     20  C   UNL A   1      34.314  20.208  25.082  1.00  0.00     0.009 A 
BRANCH  16  21
ATOM     21  O   UNL A   1      31.044  22.811  25.169  1.00  0.00    -0.410 OA
BRANCH  21  22
ATOM     22  C   UNL A   1      31.056  23.824  26.115  1.00  0.00     0.412 C 
ATOM     23  N   UNL A   1      30.924  25.074  25.574  1.00  0.00    -0.321 N 
ATOM     24  H   UNL A   1      30.945  25.830  26.205  1.00  0.00     0.167 HD
ATOM     25  O   UNL A   1      31.180  23.682  27.327  1.00  0.00    -0.224 OA
BRANCH  23  26
ATOM     26  C   UNL A   1      30.758  25.408  24.173  1.00  0.00     0.119 C 
BRANCH  26  27
ATOM     27  C   UNL A   1      29.835  26.613  23.975  1.00  0.00     0.021 C 
BRANCH  27  28
ATOM     28  C   UNL A   1      30.427  27.753  23.134  1.00  0.00     0.002 C 
BRANCH  28  29
ATOM     29  C   UNL A   1      29.709  29.102  23.248  1.00  0.00    -0.000 C 
BRANCH  29  30
ATOM     30  C   UNL A   1      28.238  29.101  22.828  1.00  0.00    -0.003 C 
ATOM     31  C   UNL A   1      27.915  30.138  21.763  1.00  0.00     0.004 C 
ENDBRANCH  29  30
ENDBRANCH  28  29
ENDBRANCH  27  28
ENDBRANCH  26  27
ENDBRANCH  23  26
ENDBRANCH  21  22
ENDBRANCH  16  21
ENDBRANCH   9  15
ENDBRANCH   7   8
ENDBRANCH   5   7
ENDBRANCH   4   5
ENDBRANCH   3   4
ENDBRANCH   2   3
ENDBRANCH   1   2
BRANCH   1  32
ATOM     32  C   UNL A   1      39.353  28.946  28.731  1.00  0.00     0.188 C 
BRANCH  32  33
ATOM     33  C   UNL A   1      37.836  29.237  28.777  1.00  0.00     0.188 C 
BRANCH  33  34
ATOM     34  O   UNL A   1      37.460  30.443  28.142  1.00  0.00    -0.377 OA
BRANCH  34  35
ATOM     35  C   UNL A   1      37.290  31.550  29.002  1.00  0.00     0.188 C 
BRANCH  35  36
ATOM     36  C   UNL A   1      36.415  31.260  30.229  1.00  0.00     0.188 C 
BRANCH  36  37
ATOM     37  O   UNL A   1      35.096  31.773  30.083  1.00  0.00    -0.376 OA
BRANCH  37  38
ATOM     38  C   UNL A   1      34.892  33.170  29.993  1.00  0.00     0.202 C 
BRANCH  38  39
ATOM     39  C   UNL A   1      35.025  34.039  31.256  1.00  0.00     0.261 C 
BRANCH  39  40
ATOM     40  O   UNL A   1      36.307  34.095  31.889  1.00  0.00    -0.460 OA
BRANCH  40  41
ATOM     41  C   UNL A   1      36.360  34.575  33.156  1.00  0.00     0.338 C 
ATOM     42  O   UNL A   1      35.572  35.325  33.680  1.00  0.00    -0.246 OA
BRANCH  41  43
ATOM     43  C   UNL A   1      37.444  33.839  33.856  1.00  0.00     0.060 A 
ATOM     44  C   UNL A   1      37.090  32.886  34.820  1.00  0.00     0.016 A 
ATOM     45  C   UNL A   1      38.787  34.050  33.531  1.00  0.00     0.016 A 
ATOM     46  C   UNL A   1      38.079  32.155  35.477  1.00  0.00     0.010 A 
ATOM     47  C   UNL A   1      39.779  33.340  34.215  1.00  0.00     0.010 A 
ATOM     48  C   UNL A   1      39.428  32.414  35.213  1.00  0.00    -0.014 A 
BRANCH  48  49
ATOM     49  C   UNL A   1      40.463  31.887  36.133  1.00  0.00     0.031 A 
ATOM     50  C   UNL A   1      40.702  32.623  37.422  1.00  0.00     0.074 A 
ATOM     51  C   UNL A   1      41.183  30.792  35.837  1.00  0.00     0.049 A 
ATOM     52  N   UNL A   1      41.569  32.385  38.367  1.00  0.00    -0.248 NA
ATOM     53  C   UNL A   1      39.845  33.796  37.669  1.00  0.00     0.031 C 
ATOM     54  C   UNL A   1      41.045  29.995  34.621  1.00  0.00     0.029 A 
ATOM     55  N   UNL A   1      42.203  30.186  36.528  1.00  0.00    -0.354 N 
ATOM     56  C   UNL A   1      41.393  33.397  39.302  1.00  0.00     0.074 A 
ATOM     57  C   UNL A   1      40.339  34.255  38.807  1.00  0.00     0.031 C 
ATOM     58  C   UNL A   1      41.982  29.029  34.629  1.00  0.00     0.029 A 
ATOM     59  C   UNL A   1      42.797  29.160  35.836  1.00  0.00     0.049 A 
ATOM     60  H   UNL A   1      42.481  30.462  37.432  1.00  0.00     0.167 HD
ATOM     61  C   UNL A   1      42.045  33.595  40.472  1.00  0.00     0.034 A 
ATOM     62  C   UNL A   1      43.896  28.434  36.126  1.00  0.00     0.034 A 
ATOM     63  C   UNL A   1      43.094  32.741  40.959  1.00  0.00     0.049 A 
ATOM     64  C   UNL A   1      44.624  28.678  37.423  1.00  0.00     0.074 A 
ATOM     65  C   UNL A   1      43.773  32.815  42.161  1.00  0.00     0.029 A 
ATOM     66  N   UNL A   1      43.638  31.679  40.254  1.00  0.00    -0.354 N 
ATOM     67  N   UNL A   1      44.362  29.554  38.364  1.00  0.00    -0.248 NA
ATOM     68  C   UNL A   1      45.776  27.814  37.714  1.00  0.00     0.031 C 
ATOM     69  C   UNL A   1      44.764  31.827  42.161  1.00  0.00     0.029 A 
ATOM     70  C   UNL A   1      44.666  31.103  40.982  1.00  0.00     0.049 A 
ATOM     71  H   UNL A   1      43.338  31.376  39.367  1.00  0.00     0.167 HD
ATOM     72  C   UNL A   1      45.295  29.327  39.371  1.00  0.00     0.074 A 
ATOM     73  C   UNL A   1      46.119  28.219  38.931  1.00  0.00     0.031 C 
ATOM     74  C   UNL A   1      45.458  29.980  40.549  1.00  0.00     0.034 A 
BRANCH  61  75
ATOM     75  C   UNL A   1      41.650  34.798  41.288  1.00  0.00     0.023 A 
ATOM     76  C   UNL A   1      42.306  36.032  41.095  1.00  0.00     0.012 A 
ATOM     77  C   UNL A   1      40.623  34.703  42.246  1.00  0.00     0.148 A 
ATOM     78  C   UNL A   1      41.981  37.138  41.880  1.00  0.00     0.002 A 
ATOM     79  C   UNL A   1      40.268  35.824  42.986  1.00  0.00     0.091 A 
ATOM     80  F   UNL A   1      40.029  33.516  42.435  1.00  0.00    -0.205 F 
ATOM     81  C   UNL A   1      40.957  37.036  42.819  1.00  0.00     0.022 A 
BRANCH  79  82
ATOM     82  S   UNL A   1      38.908  35.811  44.158  1.00  0.00     0.127 S 
ATOM     83  O   UNL A   1      37.767  35.543  43.283  1.00  0.00    -0.237 OA
ATOM     84  O   UNL A   1      39.273  34.703  45.040  1.00  0.00    -0.237 OA
ATOM     85  O   UNL A   1      38.915  37.120  44.796  1.00  0.00    -0.744 OA
ENDBRANCH  79  82
ENDBRANCH  61  75
BRANCH  62  86
ATOM     86  C   UNL A   1      44.368  27.404  35.158  1.00  0.00     0.023 A 
ATOM     87  C   UNL A   1      45.267  27.759  34.135  1.00  0.00     0.012 A 
ATOM     88  C   UNL A   1      43.964  26.061  35.287  1.00  0.00     0.148 A 
ATOM     89  C   UNL A   1      45.743  26.794  33.245  1.00  0.00     0.002 A 
ATOM     90  C   UNL A   1      44.486  25.096  34.435  1.00  0.00     0.091 A 
ATOM     91  F   UNL A   1      43.097  25.752  36.261  1.00  0.00    -0.205 F 
ATOM     92  C   UNL A   1      45.364  25.463  33.403  1.00  0.00     0.022 A 
BRANCH  90  93
ATOM     93  S   UNL A   1      44.158  23.343  34.642  1.00  0.00     0.127 S 
ATOM     94  O   UNL A   1      44.693  23.094  35.979  1.00  0.00    -0.237 OA
ATOM     95  O   UNL A   1      42.700  23.301  34.543  1.00  0.00    -0.237 OA
ATOM     96  O   UNL A   1      44.860  22.676  33.554  1.00  0.00    -0.744 OA
ENDBRANCH  90  93
ENDBRANCH  62  86
BRANCH  74  97
ATOM     97  C   UNL A   1      46.544  29.497  41.478  1.00  0.00     0.023 A 
ATOM     98  C   UNL A   1      46.273  28.489  42.424  1.00  0.00     0.012 A 
ATOM     99  C   UNL A   1      47.861  29.987  41.349  1.00  0.00     0.148 A 
ATOM    100  C   UNL A   1      47.286  28.000  43.248  1.00  0.00     0.002 A 
ATOM    101  C   UNL A   1      48.876  29.456  42.137  1.00  0.00     0.091 A 
ATOM    102  F   UNL A   1      48.097  30.956  40.454  1.00  0.00    -0.205 F 
ATOM    103  C   UNL A   1      48.587  28.472  43.096  1.00  0.00     0.022 A 
BRANCH 101 104
ATOM    104  S   UNL A   1      50.597  29.929  41.940  1.00  0.00     0.127 S 
ATOM    105  O   UNL A   1      50.880  29.465  40.582  1.00  0.00    -0.237 OA
ATOM    106  O   UNL A   1      50.536  31.383  42.087  1.00  0.00    -0.237 OA
ATOM    107  O   UNL A   1      51.329  29.243  42.997  1.00  0.00    -0.744 OA
ENDBRANCH 101 104
ENDBRANCH  74  97
ENDBRANCH  48  49
ENDBRANCH  41  43
ENDBRANCH  40  41
ENDBRANCH  39  40
ENDBRANCH  38  39
ENDBRANCH  37  38
ENDBRANCH  36  37
ENDBRANCH  35  36
ENDBRANCH  34  35
ENDBRANCH  33  34
ENDBRANCH  32  33
ENDBRANCH   1  32
TORSDOF 32
ENDMDL
MODEL 2
REMARK VINA RESULT:      -7.6      8.656     14.462
REMARK SMILES CCCCCCNC(=O)Oc1cccc(-c2ccc(CC(=O)OCCOCCOCCOCCOC(=O)c3ccc(-c4c5nc(c(-c6cccc(S(=O)(=O)[O-])c6F)c6ccc([nH]6)c(-c6cccc(S(=O)(=O)[O-])c6F)c6nc(c(-c7cccc(S(=O)(=O)[O-])c7F)c7ccc4[nH]7)C=C6)C=C5)cc3)cc2F)c1
REMARK SMILES IDX 26 1 25 2 24 3 23 4 21 5 22 6 20 7 19 8 16 9 17 10 102 11
REMARK SMILES IDX 18 12 101 13 103 14 15 15 11 16 12 17 104 18 13 19 14 20
REMARK SMILES IDX 10 21 8 22 7 23 9 25 6 26 5 27 4 28 3 29 2 30 1 31 27 32
REMARK SMILES IDX 28 33 29 34 30 35 31 36 32 37 33 38 34 39 35 40 36 41 37 42
REMARK SMILES IDX 38 43 39 44 100 45 40 46 99 47 41 48 42 49 43 50 93 51 44 52
REMARK SMILES IDX 98 53 92 54 94 55 45 56 97 57 91 58 90 59 46 61 78 62 58 63
REMARK SMILES IDX 77 64 59 65 62 66 76 67 95 68 60 69 61 70 75 72 96 73 63 74
REMARK SMILES IDX 47 75 48 76 56 77 49 78 51 79 57 80 50 81 52 82 53 83 54 84
REMARK SMILES IDX 55 85 79 86 80 87 88 88 81 89 83 90 89 91 82 92 84 93 85 94
REMARK SMILES IDX 86 95 87 96 64 97 65 98 73 99 66 100 68 101 74 102 67 103
REMARK SMILES IDX 69 104 70 105 71 106 72 107
REMARK H PARENT 7 24 94 60 62 71
REMARK Flexibility Score: inf
ROOT
ATOM      1  O   UNL A   1      43.974  30.939  31.935  1.00  0.00    -0.376 OA
ENDROOT
BRANCH   1   2
ATOM      2  C   UNL A   1      43.804  30.128  33.086  1.00  0.00     0.202 C 
BRANCH   2   3
ATOM      3  C   UNL A   1      42.857  30.652  34.183  1.00  0.00     0.261 C 
BRANCH   3   4
ATOM      4  O   UNL A   1      42.446  29.696  35.188  1.00  0.00    -0.463 OA
BRANCH   4   5
ATOM      5  C   UNL A   1      41.212  29.158  35.046  1.00  0.00     0.310 C 
ATOM      6  O   UNL A   1      40.339  29.216  35.910  1.00  0.00    -0.252 OA
BRANCH   5   7
ATOM      7  C   UNL A   1      40.953  28.431  33.735  1.00  0.00     0.158 C 
BRANCH   7   8
ATOM      8  C   UNL A   1      39.900  28.890  32.737  1.00  0.00    -0.034 A 
ATOM      9  C   UNL A   1      38.029  29.735  30.741  1.00  0.00     0.018 A 
ATOM     10  C   UNL A   1      38.101  28.392  31.138  1.00  0.00     0.012 A 
ATOM     11  C   UNL A   1      38.912  30.633  31.357  1.00  0.00     0.131 A 
ATOM     12  C   UNL A   1      39.036  27.973  32.105  1.00  0.00     0.005 A 
ATOM     13  C   UNL A   1      39.819  30.231  32.345  1.00  0.00     0.044 A 
ATOM     14  F   UNL A   1      38.919  31.922  30.978  1.00  0.00    -0.206 F 
BRANCH   9  15
ATOM     15  C   UNL A   1      37.089  30.184  29.702  1.00  0.00    -0.012 A 
ATOM     16  C   UNL A   1      35.298  31.660  28.969  1.00  0.00     0.133 A 
ATOM     17  C   UNL A   1      35.173  30.959  27.772  1.00  0.00     0.047 A 
ATOM     18  C   UNL A   1      36.236  31.277  29.933  1.00  0.00     0.056 A 
ATOM     19  C   UNL A   1      36.019  29.880  27.524  1.00  0.00     0.004 A 
ATOM     20  C   UNL A   1      36.972  29.498  28.479  1.00  0.00     0.009 A 
BRANCH  16  21
ATOM     21  O   UNL A   1      34.345  32.663  29.224  1.00  0.00    -0.410 OA
BRANCH  21  22
ATOM     22  C   UNL A   1      34.546  33.927  28.692  1.00  0.00     0.412 C 
ATOM     23  N   UNL A   1      34.437  34.929  29.617  1.00  0.00    -0.321 N 
ATOM     24  H   UNL A   1      34.554  35.849  29.285  1.00  0.00     0.167 HD
ATOM     25  O   UNL A   1      34.788  34.188  27.519  1.00  0.00    -0.224 OA
BRANCH  23  26
ATOM     26  C   UNL A   1      34.168  34.786  31.035  1.00  0.00     0.119 C 
BRANCH  26  27
ATOM     27  C   UNL A   1      35.145  33.821  31.710  1.00  0.00     0.021 C 
BRANCH  27  28
ATOM     28  C   UNL A   1      36.367  34.484  32.362  1.00  0.00     0.002 C 
BRANCH  28  29
ATOM     29  C   UNL A   1      36.409  34.434  33.893  1.00  0.00    -0.000 C 
BRANCH  29  30
ATOM     30  C   UNL A   1      37.796  34.231  34.507  1.00  0.00    -0.003 C 
ATOM     31  C   UNL A   1      38.083  32.786  34.884  1.00  0.00     0.004 C 
ENDBRANCH  29  30
ENDBRANCH  28  29
ENDBRANCH  27  28
ENDBRANCH  26  27
ENDBRANCH  23  26
ENDBRANCH  21  22
ENDBRANCH  16  21
ENDBRANCH   9  15
ENDBRANCH   7   8
ENDBRANCH   5   7
ENDBRANCH   4   5
ENDBRANCH   3   4
ENDBRANCH   2   3
ENDBRANCH   1   2
BRANCH   1  32
ATOM     32  C   UNL A   1      44.407  30.339  30.714  1.00  0.00     0.188 C 
BRANCH  32  33
ATOM     33  C   UNL A   1      44.209  28.831  30.433  1.00  0.00     0.188 C 
BRANCH  33  34
ATOM     34  O   UNL A   1      43.350  28.555  29.344  1.00  0.00    -0.377 OA
BRANCH  34  35
ATOM     35  C   UNL A   1      41.990  28.874  29.553  1.00  0.00     0.188 C 
BRANCH  35  36
ATOM     36  C   UNL A   1      41.012  27.974  28.786  1.00  0.00     0.188 C 
BRANCH  36  37
ATOM     37  O   UNL A   1      41.520  26.657  28.607  1.00  0.00    -0.376 OA
BRANCH  37  38
ATOM     38  C   UNL A   1      40.632  25.555  28.613  1.00  0.00     0.202 C 
BRANCH  38  39
ATOM     39  C   UNL A   1      41.110  24.193  28.082  1.00  0.00     0.261 C 
BRANCH  39  40
ATOM     40  O   UNL A   1      42.307  24.170  27.299  1.00  0.00    -0.460 OA
BRANCH  40  41
ATOM     41  C   UNL A   1      43.473  23.918  27.943  1.00  0.00     0.338 C 
ATOM     42  O   UNL A   1      43.755  22.923  28.566  1.00  0.00    -0.246 OA
BRANCH  41  43
ATOM     43  C   UNL A   1      44.423  24.993  27.561  1.00  0.00     0.060 A 
ATOM     44  C   UNL A   1      45.178  25.608  28.569  1.00  0.00     0.016 A 
ATOM     45  C   UNL A   1      44.605  25.355  26.223  1.00  0.00     0.016 A 
ATOM     46  C   UNL A   1      46.102  26.601  28.245  1.00  0.00     0.010 A 
ATOM     47  C   UNL A   1      45.507  26.375  25.904  1.00  0.00     0.010 A 
ATOM     48  C   UNL A   1      46.234  27.023  26.918  1.00  0.00    -0.014 A 
BRANCH  48  49
ATOM     49  C   UNL A   1      46.955  28.283  26.624  1.00  0.00     0.031 A 
ATOM     50  C   UNL A   1      48.447  28.220  26.457  1.00  0.00     0.074 A 
ATOM     51  C   UNL A   1      46.312  29.459  26.518  1.00  0.00     0.049 A 
ATOM     52  N   UNL A   1      49.302  29.181  26.235  1.00  0.00    -0.248 NA
ATOM     53  C   UNL A   1      49.057  26.883  26.565  1.00  0.00     0.031 C 
ATOM     54  C   UNL A   1      44.871  29.649  26.661  1.00  0.00     0.029 A 
ATOM     55  N   UNL A   1      46.804  30.723  26.301  1.00  0.00    -0.354 N 
ATOM     56  C   UNL A   1      50.552  28.576  26.215  1.00  0.00     0.074 A 
ATOM     57  C   UNL A   1      50.345  27.165  26.454  1.00  0.00     0.031 C 
ATOM     58  C   UNL A   1      44.598  30.964  26.575  1.00  0.00     0.029 A 
ATOM     59  C   UNL A   1      45.847  31.704  26.398  1.00  0.00     0.049 A 
ATOM     60  H   UNL A   1      47.750  30.907  26.096  1.00  0.00     0.167 HD
ATOM     61  C   UNL A   1      51.764  29.141  26.013  1.00  0.00     0.034 A 
ATOM     62  C   UNL A   1      45.971  33.047  26.382  1.00  0.00     0.034 A 
ATOM     63  C   UNL A   1      51.965  30.545  25.777  1.00  0.00     0.049 A 
ATOM     64  C   UNL A   1      47.331  33.662  26.174  1.00  0.00     0.074 A 
ATOM     65  C   UNL A   1      53.145  31.208  25.495  1.00  0.00     0.029 A 
ATOM     66  N   UNL A   1      50.967  31.505  25.832  1.00  0.00    -0.354 N 
ATOM     67  N   UNL A   1      48.491  33.069  26.022  1.00  0.00    -0.248 NA
ATOM     68  C   UNL A   1      47.396  35.129  26.103  1.00  0.00     0.031 C 
ATOM     69  C   UNL A   1      52.868  32.578  25.429  1.00  0.00     0.029 A 
ATOM     70  C   UNL A   1      51.506  32.762  25.617  1.00  0.00     0.049 A 
ATOM     71  H   UNL A   1      50.015  31.322  25.999  1.00  0.00     0.167 HD
ATOM     72  C   UNL A   1      49.418  34.085  25.807  1.00  0.00     0.074 A 
ATOM     73  C   UNL A   1      48.679  35.332  25.833  1.00  0.00     0.031 C 
ATOM     74  C   UNL A   1      50.757  33.994  25.611  1.00  0.00     0.034 A 
BRANCH  61  75
ATOM     75  C   UNL A   1      52.966  28.233  26.060  1.00  0.00     0.023 A 
ATOM     76  C   UNL A   1      53.461  27.651  24.875  1.00  0.00     0.012 A 
ATOM     77  C   UNL A   1      53.605  27.960  27.284  1.00  0.00     0.148 A 
ATOM     78  C   UNL A   1      54.542  26.771  24.915  1.00  0.00     0.002 A 
ATOM     79  C   UNL A   1      54.715  27.124  27.308  1.00  0.00     0.091 A 
ATOM     80  F   UNL A   1      53.104  28.500  28.404  1.00  0.00    -0.205 F 
ATOM     81  C   UNL A   1      55.174  26.514  26.130  1.00  0.00     0.022 A 
BRANCH  79  82
ATOM     82  S   UNL A   1      55.643  26.802  28.812  1.00  0.00     0.127 S 
ATOM     83  O   UNL A   1      54.573  26.726  29.807  1.00  0.00    -0.237 OA
ATOM     84  O   UNL A   1      56.284  25.523  28.508  1.00  0.00    -0.237 OA
ATOM     85  O   UNL A   1      56.562  27.920  28.963  1.00  0.00    -0.744 OA
ENDBRANCH  79  82
ENDBRANCH  61  75
BRANCH  62  86
ATOM     86  C   UNL A   1      44.761  33.894  26.570  1.00  0.00     0.023 A 
ATOM     87  C   UNL A   1      44.031  34.337  25.451  1.00  0.00     0.012 A 
ATOM     88  C   UNL A   1      44.305  34.217  27.864  1.00  0.00     0.148 A 
ATOM     89  C   UNL A   1      42.875  35.102  25.618  1.00  0.00     0.002 A 
ATOM     90  C   UNL A   1      43.123  34.928  28.023  1.00  0.00     0.091 A 
ATOM     91  F   UNL A   1      45.025  33.795  28.912  1.00  0.00    -0.205 F 
ATOM     92  C   UNL A   1      42.414  35.386  26.901  1.00  0.00     0.022 A 
BRANCH  90  93
ATOM     93  S   UNL A   1      42.384  35.228  29.632  1.00  0.00     0.127 S 
ATOM     94  O   UNL A   1      43.205  36.326  30.139  1.00  0.00    -0.237 OA
ATOM     95  O   UNL A   1      41.018  35.599  29.266  1.00  0.00    -0.237 OA
ATOM     96  O   UNL A   1      42.498  33.974  30.362  1.00  0.00    -0.744 OA
ENDBRANCH  90  93
ENDBRANCH  62  86
BRANCH  74  97
ATOM     97  C   UNL A   1      51.523  35.271  25.368  1.00  0.00     0.023 A 
ATOM     98  C   UNL A   1      51.885  35.642  24.058  1.00  0.00     0.012 A 
ATOM     99  C   UNL A   1      51.805  36.147  26.437  1.00  0.00     0.148 A 
ATOM    100  C   UNL A   1      52.544  36.848  23.820  1.00  0.00     0.002 A 
ATOM    101  C   UNL A   1      52.413  37.371  26.185  1.00  0.00     0.091 A 
ATOM    102  F   UNL A   1      51.466  35.770  27.678  1.00  0.00    -0.205 F 
ATOM    103  C   UNL A   1      52.796  37.717  24.879  1.00  0.00     0.022 A 
BRANCH 101 104
ATOM    104  S   UNL A   1      52.684  38.595  27.470  1.00  0.00     0.127 S 
ATOM    105  O   UNL A   1      53.595  39.527  26.807  1.00  0.00    -0.237 OA
ATOM    106  O   UNL A   1      51.335  39.115  27.692  1.00  0.00    -0.237 OA
ATOM    107  O   UNL A   1      53.249  37.874  28.604  1.00  0.00    -0.744 OA
ENDBRANCH 101 104
ENDBRANCH  74  97
ENDBRANCH  48  49
ENDBRANCH  41  43
ENDBRANCH  40  41
ENDBRANCH  39  40
ENDBRANCH  38  39
ENDBRANCH  37  38
ENDBRANCH  36  37
ENDBRANCH  35  36
ENDBRANCH  34  35
ENDBRANCH  33  34
ENDBRANCH  32  33
ENDBRANCH   1  32
TORSDOF 32
ENDMDL
MODEL 3
REMARK VINA RESULT:      -7.6      7.109     12.458
REMARK SMILES CCCCCCNC(=O)Oc1cccc(-c2ccc(CC(=O)OCCOCCOCCOCCOC(=O)c3ccc(-c4c5nc(c(-c6cccc(S(=O)(=O)[O-])c6F)c6ccc([nH]6)c(-c6cccc(S(=O)(=O)[O-])c6F)c6nc(c(-c7cccc(S(=O)(=O)[O-])c7F)c7ccc4[nH]7)C=C6)C=C5)cc3)cc2F)c1
REMARK SMILES IDX 26 1 25 2 24 3 23 4 21 5 22 6 20 7 19 8 16 9 17 10 102 11
REMARK SMILES IDX 18 12 101 13 103 14 15 15 11 16 12 17 104 18 13 19 14 20
REMARK SMILES IDX 10 21 8 22 7 23 9 25 6 26 5 27 4 28 3 29 2 30 1 31 27 32
REMARK SMILES IDX 28 33 29 34 30 35 31 36 32 37 33 38 34 39 35 40 36 41 37 42
REMARK SMILES IDX 38 43 39 44 100 45 40 46 99 47 41 48 42 49 43 50 93 51 44 52
REMARK SMILES IDX 98 53 92 54 94 55 45 56 97 57 91 58 90 59 46 61 78 62 58 63
REMARK SMILES IDX 77 64 59 65 62 66 76 67 95 68 60 69 61 70 75 72 96 73 63 74
REMARK SMILES IDX 47 75 48 76 56 77 49 78 51 79 57 80 50 81 52 82 53 83 54 84
REMARK SMILES IDX 55 85 79 86 80 87 88 88 81 89 83 90 89 91 82 92 84 93 85 94
REMARK SMILES IDX 86 95 87 96 64 97 65 98 73 99 66 100 68 101 74 102 67 103
REMARK SMILES IDX 69 104 70 105 71 106 72 107
REMARK H PARENT 7 24 94 60 62 71
REMARK Flexibility Score: inf
ROOT
ATOM      1  O   UNL A   1      50.124  23.168  33.120  1.00  0.00    -0.376 OA
ENDROOT
BRANCH   1   2
ATOM      2  C   UNL A   1      51.239  23.638  32.380  1.00  0.00     0.202 C 
BRANCH   2   3
ATOM      3  C   UNL A   1      51.527  25.151  32.424  1.00  0.00     0.261 C 
BRANCH   3   4
ATOM      4  O   UNL A   1      51.817  25.787  31.158  1.00  0.00    -0.463 OA
BRANCH   4   5
ATOM      5  C   UNL A   1      50.765  26.312  30.486  1.00  0.00     0.310 C 
ATOM      6  O   UNL A   1      50.669  26.309  29.260  1.00  0.00    -0.252 OA
BRANCH   5   7
ATOM      7  C   UNL A   1      49.682  26.948  31.344  1.00  0.00     0.158 C 
BRANCH   7   8
ATOM      8  C   UNL A   1      48.223  27.001  30.917  1.00  0.00    -0.034 A 
ATOM      9  C   UNL A   1      45.516  27.009  29.983  1.00  0.00     0.018 A 
ATOM     10  C   UNL A   1      45.953  26.059  30.917  1.00  0.00     0.012 A 
ATOM     11  C   UNL A   1      46.459  27.941  29.528  1.00  0.00     0.131 A 
ATOM     12  C   UNL A   1      47.291  26.042  31.360  1.00  0.00     0.005 A 
ATOM     13  C   UNL A   1      47.781  27.955  29.991  1.00  0.00     0.044 A 
ATOM     14  F   UNL A   1      46.106  28.841  28.597  1.00  0.00    -0.206 F 
BRANCH   9  15
ATOM     15  C   UNL A   1      44.135  27.014  29.476  1.00  0.00    -0.012 A 
ATOM     16  C   UNL A   1      42.498  26.352  27.802  1.00  0.00     0.133 A 
ATOM     17  C   UNL A   1      41.521  27.141  28.405  1.00  0.00     0.047 A 
ATOM     18  C   UNL A   1      43.796  26.292  28.320  1.00  0.00     0.056 A 
ATOM     19  C   UNL A   1      41.840  27.854  29.560  1.00  0.00     0.004 A 
ATOM     20  C   UNL A   1      43.134  27.788  30.093  1.00  0.00     0.009 A 
BRANCH  16  21
ATOM     21  O   UNL A   1      42.163  25.748  26.576  1.00  0.00    -0.410 OA
BRANCH  21  22
ATOM     22  C   UNL A   1      42.169  24.364  26.489  1.00  0.00     0.412 C 
ATOM     23  N   UNL A   1      43.181  23.873  25.710  1.00  0.00    -0.321 N 
ATOM     24  H   UNL A   1      43.217  22.895  25.602  1.00  0.00     0.167 HD
ATOM     25  O   UNL A   1      41.369  23.602  27.022  1.00  0.00    -0.224 OA
BRANCH  23  26
ATOM     26  C   UNL A   1      44.207  24.636  25.026  1.00  0.00     0.119 C 
BRANCH  26  27
ATOM     27  C   UNL A   1      45.489  23.824  24.827  1.00  0.00     0.021 C 
BRANCH  27  28
ATOM     28  C   UNL A   1      46.724  24.373  25.557  1.00  0.00     0.002 C 
BRANCH  28  29
ATOM     29  C   UNL A   1      46.739  25.888  25.786  1.00  0.00    -0.000 C 
BRANCH  29  30
ATOM     30  C   UNL A   1      47.218  26.727  24.598  1.00  0.00    -0.003 C 
ATOM     31  C   UNL A   1      46.746  28.171  24.652  1.00  0.00     0.004 C 
ENDBRANCH  29  30
ENDBRANCH  28  29
ENDBRANCH  27  28
ENDBRANCH  26  27
ENDBRANCH  23  26
ENDBRANCH  21  22
ENDBRANCH  16  21
ENDBRANCH   9  15
ENDBRANCH   7   8
ENDBRANCH   5   7
ENDBRANCH   4   5
ENDBRANCH   3   4
ENDBRANCH   2   3
ENDBRANCH   1   2
BRANCH   1  32
ATOM     32  C   UNL A   1      50.193  23.138  34.546  1.00  0.00     0.188 C 
BRANCH  32  33
ATOM     33  C   UNL A   1      48.995  22.680  35.409  1.00  0.00     0.188 C 
BRANCH  33  34
ATOM     34  O   UNL A   1      49.199  21.446  36.070  1.00  0.00    -0.377 OA
BRANCH  34  35
ATOM     35  C   UNL A   1      48.377  20.384  35.633  1.00  0.00     0.188 C 
BRANCH  35  36
ATOM     36  C   UNL A   1      47.367  20.781  34.548  1.00  0.00     0.188 C 
BRANCH  36  37
ATOM     37  O   UNL A   1      46.075  20.237  34.791  1.00  0.00    -0.376 OA
BRANCH  37  38
ATOM     38  C   UNL A   1      45.008  21.094  35.150  1.00  0.00     0.202 C 
BRANCH  38  39
ATOM     39  C   UNL A   1      45.309  22.415  35.879  1.00  0.00     0.261 C 
BRANCH  39  40
ATOM     40  O   UNL A   1      44.714  23.608  35.361  1.00  0.00    -0.460 OA
BRANCH  40  41
ATOM     41  C   UNL A   1      44.186  24.483  36.251  1.00  0.00     0.338 C 
ATOM     42  O   UNL A   1      44.116  24.344  37.449  1.00  0.00    -0.246 OA
BRANCH  41  43
ATOM     43  C   UNL A   1      43.907  25.741  35.513  1.00  0.00     0.060 A 
ATOM     44  C   UNL A   1      43.889  25.704  34.112  1.00  0.00     0.016 A 
ATOM     45  C   UNL A   1      43.618  26.928  36.192  1.00  0.00     0.016 A 
ATOM     46  C   UNL A   1      43.602  26.859  33.385  1.00  0.00     0.010 A 
ATOM     47  C   UNL A   1      43.364  28.093  35.461  1.00  0.00     0.010 A 
ATOM     48  C   UNL A   1      43.388  28.069  34.055  1.00  0.00    -0.014 A 
BRANCH  48  49
ATOM     49  C   UNL A   1      43.416  29.338  33.291  1.00  0.00     0.031 A 
ATOM     50  C   UNL A   1      42.102  29.970  32.925  1.00  0.00     0.074 A 
ATOM     51  C   UNL A   1      44.571  29.915  32.919  1.00  0.00     0.049 A 
ATOM     52  N   UNL A   1      41.862  31.051  32.235  1.00  0.00    -0.248 NA
ATOM     53  C   UNL A   1      40.893  29.277  33.402  1.00  0.00     0.031 C 
ATOM     54  C   UNL A   1      45.906  29.399  33.212  1.00  0.00     0.029 A 
ATOM     55  N   UNL A   1      44.798  31.048  32.177  1.00  0.00    -0.354 N 
ATOM     56  C   UNL A   1      40.479  31.148  32.157  1.00  0.00     0.074 A 
ATOM     57  C   UNL A   1      39.933  30.013  32.867  1.00  0.00     0.031 C 
ATOM     58  C   UNL A   1      46.815  30.189  32.614  1.00  0.00     0.029 A 
ATOM     59  C   UNL A   1      46.124  31.247  31.877  1.00  0.00     0.049 A 
ATOM     60  H   UNL A   1      44.080  31.658  31.889  1.00  0.00     0.167 HD
ATOM     61  C   UNL A   1      39.728  32.099  31.554  1.00  0.00     0.034 A 
ATOM     62  C   UNL A   1      46.708  32.156  31.071  1.00  0.00     0.034 A 
ATOM     63  C   UNL A   1      40.277  33.225  30.847  1.00  0.00     0.049 A 
ATOM     64  C   UNL A   1      45.857  33.198  30.390  1.00  0.00     0.074 A 
ATOM     65  C   UNL A   1      39.604  34.279  30.257  1.00  0.00     0.029 A 
ATOM     66  N   UNL A   1      41.627  33.423  30.605  1.00  0.00    -0.354 N 
ATOM     67  N   UNL A   1      44.556  33.359  30.436  1.00  0.00    -0.248 NA
ATOM     68  C   UNL A   1      46.556  34.201  29.575  1.00  0.00     0.031 C 
ATOM     69  C   UNL A   1      40.547  35.089  29.614  1.00  0.00     0.029 A 
ATOM     70  C   UNL A   1      41.810  34.568  29.849  1.00  0.00     0.049 A 
ATOM     71  H   UNL A   1      42.350  32.837  30.924  1.00  0.00     0.167 HD
ATOM     72  C   UNL A   1      44.283  34.497  29.683  1.00  0.00     0.074 A 
ATOM     73  C   UNL A   1      45.557  34.994  29.205  1.00  0.00     0.031 C 
ATOM     74  C   UNL A   1      43.086  35.073  29.407  1.00  0.00     0.034 A 
BRANCH  61  75
ATOM     75  C   UNL A   1      38.232  31.941  31.619  1.00  0.00     0.023 A 
ATOM     76  C   UNL A   1      37.592  30.931  30.870  1.00  0.00     0.012 A 
ATOM     77  C   UNL A   1      37.459  32.795  32.427  1.00  0.00     0.148 A 
ATOM     78  C   UNL A   1      36.203  30.809  30.886  1.00  0.00     0.002 A 
ATOM     79  C   UNL A   1      36.080  32.632  32.479  1.00  0.00     0.091 A 
ATOM     80  F   UNL A   1      38.081  33.767  33.111  1.00  0.00    -0.205 F 
ATOM     81  C   UNL A   1      35.448  31.653  31.696  1.00  0.00     0.022 A 
BRANCH  79  82
ATOM     82  S   UNL A   1      35.035  33.618  33.557  1.00  0.00     0.127 S 
ATOM     83  O   UNL A   1      35.567  33.275  34.876  1.00  0.00    -0.237 OA
ATOM     84  O   UNL A   1      35.334  34.979  33.114  1.00  0.00    -0.237 OA
ATOM     85  O   UNL A   1      33.670  33.183  33.299  1.00  0.00    -0.744 OA
ENDBRANCH  79  82
ENDBRANCH  61  75
BRANCH  62  86
ATOM     86  C   UNL A   1      48.183  32.114  30.871  1.00  0.00     0.023 A 
ATOM     87  C   UNL A   1      48.734  31.300  29.864  1.00  0.00     0.012 A 
ATOM     88  C   UNL A   1      49.036  32.923  31.648  1.00  0.00     0.148 A 
ATOM     89  C   UNL A   1      50.113  31.281  29.644  1.00  0.00     0.002 A 
ATOM     90  C   UNL A   1      50.400  32.943  31.385  1.00  0.00     0.091 A 
ATOM     91  F   UNL A   1      48.488  33.679  32.609  1.00  0.00    -0.205 F 
ATOM     92  C   UNL A   1      50.943  32.110  30.395  1.00  0.00     0.022 A 
BRANCH  90  93
ATOM     93  S   UNL A   1      51.527  34.072  32.209  1.00  0.00     0.127 S 
ATOM     94  O   UNL A   1      50.948  35.371  31.875  1.00  0.00    -0.237 OA
ATOM     95  O   UNL A   1      51.377  33.672  33.608  1.00  0.00    -0.237 OA
ATOM     96  O   UNL A   1      52.841  33.808  31.640  1.00  0.00    -0.744 OA
ENDBRANCH  90  93
ENDBRANCH  62  86
BRANCH  74  97
ATOM     97  C   UNL A   1      43.084  36.336  28.582  1.00  0.00     0.023 A 
ATOM     98  C   UNL A   1      42.704  36.296  27.226  1.00  0.00     0.012 A 
ATOM     99  C   UNL A   1      43.376  37.579  29.180  1.00  0.00     0.148 A 
ATOM    100  C   UNL A   1      42.647  37.467  26.471  1.00  0.00     0.002 A 
ATOM    101  C   UNL A   1      43.264  38.748  28.437  1.00  0.00     0.091 A 
ATOM    102  F   UNL A   1      43.750  37.595  30.468  1.00  0.00    -0.205 F 
ATOM    103  C   UNL A   1      42.913  38.693  27.078  1.00  0.00     0.022 A 
BRANCH 101 104
ATOM    104  S   UNL A   1      43.489  40.376  29.160  1.00  0.00     0.127 S 
ATOM    105  O   UNL A   1      42.285  40.506  29.980  1.00  0.00    -0.237 OA
ATOM    106  O   UNL A   1      44.729  40.210  29.918  1.00  0.00    -0.237 OA
ATOM    107  O   UNL A   1      43.582  41.306  28.042  1.00  0.00    -0.744 OA
ENDBRANCH 101 104
ENDBRANCH  74  97
ENDBRANCH  48  49
ENDBRANCH  41  43
ENDBRANCH  40  41
ENDBRANCH  39  40
ENDBRANCH  38  39
ENDBRANCH  37  38
ENDBRANCH  36  37
ENDBRANCH  35  36
ENDBRANCH  34  35
ENDBRANCH  33  34
ENDBRANCH  32  33
ENDBRANCH   1  32
TORSDOF 32
ENDMDL
