MODEL 1
REMARK VINA RESULT:      -8.9      0.000      0.000
REMARK SMILES COc1cc([C@H]2CC(c3ccc(S(C)(=O)=O)cc3)=NN2c2ccc(C(=O)OCCOCCOCCOCCOC(=O)c3ccc(-c4c5nc(c(-c6cccc(S(=O)(=O)[O-])c6F)c6ccc([nH]6)c(-c6cccc(S(=O)(=O)[O-])c6F)c6nc(c(-c7cccc(S(=O)(=O)[O-])c7F)c7ccc4[nH]7)C=C6)C=C5)cc3)cc2)cc(OC)c1OC
REMARK SMILES IDX 33 1 32 2 31 3 30 4 29 5 28 6 27 7 25 8 26 9 24 10 21 11
REMARK SMILES IDX 22 12 106 13 23 14 105 15 20 16 6 17 7 18 8 19 19 20 5 21
REMARK SMILES IDX 3 22 4 23 111 24 108 25 107 26 2 27 1 28 112 29 113 30
REMARK SMILES IDX 109 31 110 32 9 33 10 34 18 35 11 36 17 37 12 38 13 39 14 40
REMARK SMILES IDX 15 41 16 42 34 43 35 44 36 45 37 46 38 47 39 48 40 49 41 50
REMARK SMILES IDX 42 51 43 52 104 53 44 54 103 55 45 56 46 57 47 58 97 59
REMARK SMILES IDX 48 60 102 61 96 62 98 63 49 64 101 65 95 66 94 67 50 69
REMARK SMILES IDX 82 70 62 71 81 72 63 73 66 74 80 75 99 76 64 77 65 78 79 80
REMARK SMILES IDX 100 81 67 82 51 83 52 84 60 85 53 86 55 87 61 88 54 89 56 90
REMARK SMILES IDX 57 91 58 92 59 93 83 94 84 95 92 96 85 97 87 98 93 99 86 100
REMARK SMILES IDX 88 101 89 102 90 103 91 104 68 105 69 106 77 107 70 108
REMARK SMILES IDX 72 109 78 110 71 111 73 112 74 113 75 114 76 115
REMARK H PARENT 98 68 66 79
REMARK Flexibility Score: inf
ROOT
ATOM      1  O   UNL A   1      30.043  30.792  24.065  1.00  0.00    -0.377 OA
ENDROOT
BRANCH   1   2
ATOM      2  C   UNL A   1      28.845  30.923  23.314  1.00  0.00     0.188 C 
BRANCH   2   3
ATOM      3  C   UNL A   1      28.500  29.911  22.197  1.00  0.00     0.188 C 
BRANCH   3   4
ATOM      4  O   UNL A   1      28.322  28.579  22.640  1.00  0.00    -0.376 OA
BRANCH   4   5
ATOM      5  C   UNL A   1      29.383  27.910  23.292  1.00  0.00     0.202 C 
BRANCH   5   6
ATOM      6  C   UNL A   1      30.110  26.768  22.569  1.00  0.00     0.261 C 
BRANCH   6   7
ATOM      7  O   UNL A   1      31.104  27.158  21.620  1.00  0.00    -0.460 OA
BRANCH   7   8
ATOM      8  C   UNL A   1      31.751  26.170  20.965  1.00  0.00     0.338 C 
ATOM      9  O   UNL A   1      31.607  25.851  19.798  1.00  0.00    -0.246 OA
BRANCH   8  10
ATOM     10  C   UNL A   1      32.829  25.673  21.852  1.00  0.00     0.060 A 
ATOM     11  C   UNL A   1      34.789  24.647  23.569  1.00  0.00     0.060 A 
ATOM     12  C   UNL A   1      34.270  23.854  22.537  1.00  0.00     0.029 A 
ATOM     13  C   UNL A   1      34.398  25.991  23.650  1.00  0.00     0.029 A 
ATOM     14  C   UNL A   1      33.268  24.352  21.701  1.00  0.00     0.018 A 
ATOM     15  C   UNL A   1      33.432  26.511  22.793  1.00  0.00     0.018 A 
BRANCH  11  16
ATOM     16  N   UNL A   1      35.538  24.079  24.596  1.00  0.00    -0.257 N 
ATOM     17  C   UNL A   1      34.965  23.947  25.946  1.00  0.00     0.144 C 
ATOM     18  C   UNL A   1      36.001  23.050  26.643  1.00  0.00     0.091 C 
ATOM     19  C   UNL A   1      36.942  22.767  25.497  1.00  0.00     0.071 C 
ATOM     20  N   UNL A   1      36.637  23.315  24.362  1.00  0.00    -0.176 NA
BRANCH  17  21
ATOM     21  C   UNL A   1      33.534  23.401  25.911  1.00  0.00    -0.015 A 
ATOM     22  C   UNL A   1      31.999  21.491  25.703  1.00  0.00     0.164 A 
ATOM     23  C   UNL A   1      33.286  22.056  25.579  1.00  0.00     0.056 A 
ATOM     24  C   UNL A   1      30.911  22.261  26.151  1.00  0.00     0.203 A 
ATOM     25  C   UNL A   1      31.156  23.611  26.487  1.00  0.00     0.164 A 
ATOM     26  C   UNL A   1      32.447  24.157  26.365  1.00  0.00     0.056 A 
BRANCH  22  27
ATOM     27  O   UNL A   1      31.911  20.128  25.565  1.00  0.00    -0.493 OA
ATOM     28  C   UNL A   1      32.258  19.667  24.261  1.00  0.00     0.278 C 
ENDBRANCH  22  27
BRANCH  24  29
ATOM     29  O   UNL A   1      29.624  21.832  26.317  1.00  0.00    -0.490 OA
ATOM     30  C   UNL A   1      28.843  22.219  27.431  1.00  0.00     0.278 C 
ENDBRANCH  24  29
BRANCH  25  31
ATOM     31  O   UNL A   1      30.259  24.542  26.960  1.00  0.00    -0.493 OA
ATOM     32  C   UNL A   1      30.019  25.706  26.182  1.00  0.00     0.278 C 
ENDBRANCH  25  31
ENDBRANCH  17  21
BRANCH  19  33
ATOM     33  C   UNL A   1      38.166  21.973  25.704  1.00  0.00    -0.002 A 
ATOM     34  C   UNL A   1      38.166  20.623  25.330  1.00  0.00     0.011 A 
ATOM     35  C   UNL A   1      39.320  22.559  26.230  1.00  0.00     0.011 A 
ATOM     36  C   UNL A   1      39.332  19.859  25.457  1.00  0.00     0.021 A 
ATOM     37  C   UNL A   1      40.480  21.791  26.384  1.00  0.00     0.021 A 
ATOM     38  C   UNL A   1      40.483  20.447  25.993  1.00  0.00     0.067 A 
BRANCH  38  39
ATOM     39  S   UNL A   1      41.977  19.487  26.126  1.00  0.00     0.175 S 
ATOM     40  C   UNL A   1      42.323  19.419  27.863  1.00  0.00     0.163 C 
ATOM     41  O   UNL A   1      41.657  18.147  25.672  1.00  0.00    -0.224 OA
ATOM     42  O   UNL A   1      43.045  20.247  25.503  1.00  0.00    -0.224 OA
ENDBRANCH  38  39
ENDBRANCH  19  33
ENDBRANCH  11  16
ENDBRANCH   8  10
ENDBRANCH   7   8
ENDBRANCH   6   7
ENDBRANCH   5   6
ENDBRANCH   4   5
ENDBRANCH   3   4
ENDBRANCH   2   3
ENDBRANCH   1   2
BRANCH   1  43
ATOM     43  C   UNL A   1      30.262  31.590  25.222  1.00  0.00     0.188 C 
BRANCH  43  44
ATOM     44  C   UNL A   1      31.415  31.262  26.200  1.00  0.00     0.188 C 
BRANCH  44  45
ATOM     45  O   UNL A   1      31.495  29.899  26.582  1.00  0.00    -0.376 OA
BRANCH  45  46
ATOM     46  C   UNL A   1      32.529  29.118  26.010  1.00  0.00     0.202 C 
BRANCH  46  47
ATOM     47  C   UNL A   1      33.687  28.688  26.921  1.00  0.00     0.261 C 
BRANCH  47  48
ATOM     48  O   UNL A   1      34.882  29.478  26.857  1.00  0.00    -0.460 OA
BRANCH  48  49
ATOM     49  C   UNL A   1      34.979  30.537  27.696  1.00  0.00     0.338 C 
ATOM     50  O   UNL A   1      34.161  31.410  27.873  1.00  0.00    -0.246 OA
BRANCH  49  51
ATOM     51  C   UNL A   1      36.200  30.329  28.509  1.00  0.00     0.060 A 
ATOM     52  C   UNL A   1      37.418  30.863  28.066  1.00  0.00     0.016 A 
ATOM     53  C   UNL A   1      36.128  29.636  29.718  1.00  0.00     0.016 A 
ATOM     54  C   UNL A   1      38.575  30.683  28.826  1.00  0.00     0.010 A 
ATOM     55  C   UNL A   1      37.291  29.439  30.466  1.00  0.00     0.010 A 
ATOM     56  C   UNL A   1      38.524  29.936  30.009  1.00  0.00    -0.014 A 
BRANCH  56  57
ATOM     57  C   UNL A   1      39.777  29.519  30.681  1.00  0.00     0.031 A 
ATOM     58  C   UNL A   1      40.226  30.285  31.894  1.00  0.00     0.074 A 
ATOM     59  C   UNL A   1      40.518  28.499  30.212  1.00  0.00     0.049 A 
ATOM     60  N   UNL A   1      41.302  30.137  32.619  1.00  0.00    -0.248 NA
ATOM     61  C   UNL A   1      39.338  31.369  32.347  1.00  0.00     0.031 C 
ATOM     62  C   UNL A   1      40.184  27.673  29.055  1.00  0.00     0.029 A 
ATOM     63  N   UNL A   1      41.722  28.004  30.646  1.00  0.00    -0.354 N 
ATOM     64  C   UNL A   1      41.245  31.132  33.586  1.00  0.00     0.074 A 
ATOM     65  C   UNL A   1      40.030  31.881  33.353  1.00  0.00     0.031 C 
ATOM     66  C   UNL A   1      41.172  26.782  28.856  1.00  0.00     0.029 A 
ATOM     67  C   UNL A   1      42.221  26.999  29.851  1.00  0.00     0.049 A 
ATOM     68  H   UNL A   1      42.185  28.336  31.449  1.00  0.00     0.167 HD
ATOM     69  C   UNL A   1      42.122  31.398  34.583  1.00  0.00     0.034 A 
ATOM     70  C   UNL A   1      43.400  26.346  29.909  1.00  0.00     0.034 A 
ATOM     71  C   UNL A   1      43.325  30.647  34.816  1.00  0.00     0.049 A 
ATOM     72  C   UNL A   1      44.380  26.689  31.002  1.00  0.00     0.074 A 
ATOM     73  C   UNL A   1      44.247  30.795  35.837  1.00  0.00     0.029 A 
ATOM     74  N   UNL A   1      43.792  29.628  34.000  1.00  0.00    -0.354 N 
ATOM     75  N   UNL A   1      44.257  27.547  31.986  1.00  0.00    -0.248 NA
ATOM     76  C   UNL A   1      45.653  25.950  31.009  1.00  0.00     0.031 C 
ATOM     77  C   UNL A   1      45.298  29.899  35.609  1.00  0.00     0.029 A 
ATOM     78  C   UNL A   1      45.004  29.157  34.476  1.00  0.00     0.049 A 
ATOM     79  H   UNL A   1      43.329  29.287  33.200  1.00  0.00     0.167 HD
ATOM     80  C   UNL A   1      45.416  27.426  32.749  1.00  0.00     0.074 A 
ATOM     81  C   UNL A   1      46.221  26.399  32.120  1.00  0.00     0.031 C 
ATOM     82  C   UNL A   1      45.781  28.107  33.864  1.00  0.00     0.034 A 
BRANCH  69  83
ATOM     83  C   UNL A   1      41.813  32.563  35.487  1.00  0.00     0.023 A 
ATOM     84  C   UNL A   1      42.487  33.790  35.318  1.00  0.00     0.012 A 
ATOM     85  C   UNL A   1      40.834  32.446  36.493  1.00  0.00     0.148 A 
ATOM     86  C   UNL A   1      42.227  34.865  36.167  1.00  0.00     0.002 A 
ATOM     87  C   UNL A   1      40.544  33.538  37.301  1.00  0.00     0.091 A 
ATOM     88  F   UNL A   1      40.221  31.265  36.655  1.00  0.00    -0.205 F 
ATOM     89  C   UNL A   1      41.249  34.742  37.151  1.00  0.00     0.022 A 
BRANCH  87  90
ATOM     90  S   UNL A   1      39.243  33.503  38.539  1.00  0.00     0.127 S 
ATOM     91  O   UNL A   1      39.787  32.554  39.510  1.00  0.00    -0.237 OA
ATOM     92  O   UNL A   1      39.215  34.892  38.996  1.00  0.00    -0.237 OA
ATOM     93  O   UNL A   1      38.039  33.068  37.845  1.00  0.00    -0.744 OA
ENDBRANCH  87  90
ENDBRANCH  69  83
BRANCH  70  94
ATOM     94  C   UNL A   1      43.704  25.271  28.923  1.00  0.00     0.023 A 
ATOM     95  C   UNL A   1      43.082  24.014  29.061  1.00  0.00     0.012 A 
ATOM     96  C   UNL A   1      44.581  25.489  27.843  1.00  0.00     0.148 A 
ATOM     97  C   UNL A   1      43.347  22.986  28.155  1.00  0.00     0.002 A 
ATOM     98  C   UNL A   1      44.798  24.479  26.913  1.00  0.00     0.091 A 
ATOM     99  F   UNL A   1      45.170  26.688  27.737  1.00  0.00    -0.205 F 
ATOM    100  C   UNL A   1      44.196  23.221  27.076  1.00  0.00     0.022 A 
BRANCH  98 101
ATOM    101  S   UNL A   1      45.779  24.720  25.428  1.00  0.00     0.127 S 
ATOM    102  O   UNL A   1      45.084  25.834  24.787  1.00  0.00    -0.237 OA
ATOM    103  O   UNL A   1      47.090  25.054  25.988  1.00  0.00    -0.237 OA
ATOM    104  O   UNL A   1      45.733  23.456  24.708  1.00  0.00    -0.744 OA
ENDBRANCH  98 101
ENDBRANCH  70  94
BRANCH  82 105
ATOM    105  C   UNL A   1      47.095  27.746  34.512  1.00  0.00     0.023 A 
ATOM    106  C   UNL A   1      48.252  28.502  34.239  1.00  0.00     0.012 A 
ATOM    107  C   UNL A   1      47.163  26.700  35.455  1.00  0.00     0.148 A 
ATOM    108  C   UNL A   1      49.461  28.202  34.867  1.00  0.00     0.002 A 
ATOM    109  C   UNL A   1      48.358  26.441  36.116  1.00  0.00     0.091 A 
ATOM    110  F   UNL A   1      46.056  25.980  35.692  1.00  0.00    -0.205 F 
ATOM    111  C   UNL A   1      49.511  27.182  35.813  1.00  0.00     0.022 A 
BRANCH 109 112
ATOM    112  S   UNL A   1      48.494  25.214  37.421  1.00  0.00     0.127 S 
ATOM    113  O   UNL A   1      47.810  24.067  36.825  1.00  0.00    -0.237 OA
ATOM    114  O   UNL A   1      49.944  25.059  37.551  1.00  0.00    -0.237 OA
ATOM    115  O   UNL A   1      47.840  25.791  38.589  1.00  0.00    -0.744 OA
ENDBRANCH 109 112
ENDBRANCH  82 105
ENDBRANCH  56  57
ENDBRANCH  49  51
ENDBRANCH  48  49
ENDBRANCH  47  48
ENDBRANCH  46  47
ENDBRANCH  45  46
ENDBRANCH  44  45
ENDBRANCH  43  44
ENDBRANCH   1  43
TORSDOF 30
ENDMDL
MODEL 2
REMARK VINA RESULT:      -8.7      1.561      3.137
REMARK SMILES COc1cc([C@H]2CC(c3ccc(S(C)(=O)=O)cc3)=NN2c2ccc(C(=O)OCCOCCOCCOCCOC(=O)c3ccc(-c4c5nc(c(-c6cccc(S(=O)(=O)[O-])c6F)c6ccc([nH]6)c(-c6cccc(S(=O)(=O)[O-])c6F)c6nc(c(-c7cccc(S(=O)(=O)[O-])c7F)c7ccc4[nH]7)C=C6)C=C5)cc3)cc2)cc(OC)c1OC
REMARK SMILES IDX 33 1 32 2 31 3 30 4 29 5 28 6 27 7 25 8 26 9 24 10 21 11
REMARK SMILES IDX 22 12 106 13 23 14 105 15 20 16 6 17 7 18 8 19 19 20 5 21
REMARK SMILES IDX 3 22 4 23 111 24 108 25 107 26 2 27 1 28 112 29 113 30
REMARK SMILES IDX 109 31 110 32 9 33 10 34 18 35 11 36 17 37 12 38 13 39 14 40
REMARK SMILES IDX 15 41 16 42 34 43 35 44 36 45 37 46 38 47 39 48 40 49 41 50
REMARK SMILES IDX 42 51 43 52 104 53 44 54 103 55 45 56 46 57 47 58 97 59
REMARK SMILES IDX 48 60 102 61 96 62 98 63 49 64 101 65 95 66 94 67 50 69
REMARK SMILES IDX 82 70 62 71 81 72 63 73 66 74 80 75 99 76 64 77 65 78 79 80
REMARK SMILES IDX 100 81 67 82 51 83 52 84 60 85 53 86 55 87 61 88 54 89 56 90
REMARK SMILES IDX 57 91 58 92 59 93 83 94 84 95 92 96 85 97 87 98 93 99 86 100
REMARK SMILES IDX 88 101 89 102 90 103 91 104 68 105 69 106 77 107 70 108
REMARK SMILES IDX 72 109 78 110 71 111 73 112 74 113 75 114 76 115
REMARK H PARENT 98 68 66 79
REMARK Flexibility Score: inf
ROOT
ATOM      1  O   UNL A   1      29.666  29.851  23.923  1.00  0.00    -0.377 OA
ENDROOT
BRANCH   1   2
ATOM      2  C   UNL A   1      29.004  29.017  22.984  1.00  0.00     0.188 C 
BRANCH   2   3
ATOM      3  C   UNL A   1      29.291  27.499  22.936  1.00  0.00     0.188 C 
BRANCH   3   4
ATOM      4  O   UNL A   1      29.055  26.814  24.151  1.00  0.00    -0.376 OA
BRANCH   4   5
ATOM      5  C   UNL A   1      30.149  26.406  24.949  1.00  0.00     0.202 C 
BRANCH   5   6
ATOM      6  C   UNL A   1      29.883  25.688  26.280  1.00  0.00     0.261 C 
BRANCH   6   7
ATOM      7  O   UNL A   1      29.182  24.446  26.194  1.00  0.00    -0.460 OA
BRANCH   7   8
ATOM      8  C   UNL A   1      29.556  23.468  27.045  1.00  0.00     0.338 C 
ATOM      9  O   UNL A   1      28.899  23.009  27.964  1.00  0.00    -0.246 OA
BRANCH   8  10
ATOM     10  C   UNL A   1      30.824  22.893  26.541  1.00  0.00     0.060 A 
ATOM     11  C   UNL A   1      33.273  21.916  25.596  1.00  0.00     0.060 A 
ATOM     12  C   UNL A   1      33.182  22.466  26.880  1.00  0.00     0.029 A 
ATOM     13  C   UNL A   1      32.100  21.756  24.844  1.00  0.00     0.029 A 
ATOM     14  C   UNL A   1      31.969  22.985  27.341  1.00  0.00     0.018 A 
ATOM     15  C   UNL A   1      30.876  22.230  25.313  1.00  0.00     0.018 A 
BRANCH  11  16
ATOM     16  N   UNL A   1      34.512  21.692  25.002  1.00  0.00    -0.257 N 
ATOM     17  C   UNL A   1      34.789  22.203  23.648  1.00  0.00     0.144 C 
ATOM     18  C   UNL A   1      36.304  21.973  23.528  1.00  0.00     0.091 C 
ATOM     19  C   UNL A   1      36.618  21.444  24.906  1.00  0.00     0.071 C 
ATOM     20  N   UNL A   1      35.612  21.340  25.718  1.00  0.00    -0.176 NA
BRANCH  17  21
ATOM     21  C   UNL A   1      34.324  23.653  23.476  1.00  0.00    -0.015 A 
ATOM     22  C   UNL A   1      32.979  25.317  22.264  1.00  0.00     0.164 A 
ATOM     23  C   UNL A   1      33.557  24.034  22.359  1.00  0.00     0.056 A 
ATOM     24  C   UNL A   1      33.162  26.270  23.282  1.00  0.00     0.203 A 
ATOM     25  C   UNL A   1      33.929  25.891  24.406  1.00  0.00     0.164 A 
ATOM     26  C   UNL A   1      34.493  24.604  24.488  1.00  0.00     0.056 A 
BRANCH  22  27
ATOM     27  O   UNL A   1      32.077  25.511  21.248  1.00  0.00    -0.493 OA
ATOM     28  C   UNL A   1      32.686  25.630  19.965  1.00  0.00     0.278 C 
ENDBRANCH  22  27
BRANCH  24  29
ATOM     29  O   UNL A   1      32.654  27.538  23.312  1.00  0.00    -0.490 OA
ATOM     30  C   UNL A   1      33.374  28.647  22.809  1.00  0.00     0.278 C 
ENDBRANCH  24  29
BRANCH  25  31
ATOM     31  O   UNL A   1      34.225  26.641  25.521  1.00  0.00    -0.493 OA
ATOM     32  C   UNL A   1      33.296  26.652  26.596  1.00  0.00     0.278 C 
ENDBRANCH  25  31
ENDBRANCH  17  21
BRANCH  19  33
ATOM     33  C   UNL A   1      37.982  21.009  25.256  1.00  0.00    -0.002 A 
ATOM     34  C   UNL A   1      38.869  21.946  25.804  1.00  0.00     0.011 A 
ATOM     35  C   UNL A   1      38.378  19.681  25.080  1.00  0.00     0.011 A 
ATOM     36  C   UNL A   1      40.150  21.548  26.203  1.00  0.00     0.021 A 
ATOM     37  C   UNL A   1      39.668  19.287  25.453  1.00  0.00     0.021 A 
ATOM     38  C   UNL A   1      40.546  20.220  26.016  1.00  0.00     0.067 A 
BRANCH  38  39
ATOM     39  S   UNL A   1      42.164  19.704  26.553  1.00  0.00     0.175 S 
ATOM     40  C   UNL A   1      43.233  21.058  26.146  1.00  0.00     0.163 C 
ATOM     41  O   UNL A   1      42.110  19.585  27.997  1.00  0.00    -0.224 OA
ATOM     42  O   UNL A   1      42.562  18.578  25.729  1.00  0.00    -0.224 OA
ENDBRANCH  38  39
ENDBRANCH  19  33
ENDBRANCH  11  16
ENDBRANCH   8  10
ENDBRANCH   7   8
ENDBRANCH   6   7
ENDBRANCH   5   6
ENDBRANCH   4   5
ENDBRANCH   3   4
ENDBRANCH   2   3
ENDBRANCH   1   2
BRANCH   1  43
ATOM     43  C   UNL A   1      29.492  31.262  23.888  1.00  0.00     0.188 C 
BRANCH  43  44
ATOM     44  C   UNL A   1      30.267  32.178  24.863  1.00  0.00     0.188 C 
BRANCH  44  45
ATOM     45  O   UNL A   1      30.558  31.589  26.120  1.00  0.00    -0.376 OA
BRANCH  45  46
ATOM     46  C   UNL A   1      31.915  31.539  26.522  1.00  0.00     0.202 C 
BRANCH  46  47
ATOM     47  C   UNL A   1      32.442  30.218  27.101  1.00  0.00     0.261 C 
BRANCH  47  48
ATOM     48  O   UNL A   1      33.719  30.266  27.750  1.00  0.00    -0.460 OA
BRANCH  48  49
ATOM     49  C   UNL A   1      34.797  29.848  27.045  1.00  0.00     0.338 C 
ATOM     50  O   UNL A   1      34.879  29.701  25.847  1.00  0.00    -0.246 OA
BRANCH  49  51
ATOM     51  C   UNL A   1      35.932  29.785  27.995  1.00  0.00     0.060 A 
ATOM     52  C   UNL A   1      37.224  30.081  27.540  1.00  0.00     0.016 A 
ATOM     53  C   UNL A   1      35.708  29.466  29.335  1.00  0.00     0.016 A 
ATOM     54  C   UNL A   1      38.303  30.035  28.426  1.00  0.00     0.010 A 
ATOM     55  C   UNL A   1      36.791  29.399  30.214  1.00  0.00     0.010 A 
ATOM     56  C   UNL A   1      38.096  29.654  29.757  1.00  0.00    -0.014 A 
BRANCH  56  57
ATOM     57  C   UNL A   1      39.253  29.350  30.632  1.00  0.00     0.031 A 
ATOM     58  C   UNL A   1      39.372  30.082  31.940  1.00  0.00     0.074 A 
ATOM     59  C   UNL A   1      40.193  28.462  30.266  1.00  0.00     0.049 A 
ATOM     60  N   UNL A   1      40.311  30.018  32.845  1.00  0.00    -0.248 NA
ATOM     61  C   UNL A   1      38.282  31.018  32.266  1.00  0.00     0.031 C 
ATOM     62  C   UNL A   1      40.184  27.680  29.032  1.00  0.00     0.029 A 
ATOM     63  N   UNL A   1      41.355  28.089  30.895  1.00  0.00    -0.354 N 
ATOM     64  C   UNL A   1      39.950  30.933  33.827  1.00  0.00     0.074 A 
ATOM     65  C   UNL A   1      38.708  31.542  33.404  1.00  0.00     0.031 C 
ATOM     66  C   UNL A   1      41.300  26.931  28.983  1.00  0.00     0.029 A 
ATOM     67  C   UNL A   1      42.117  27.207  30.164  1.00  0.00     0.049 A 
ATOM     68  H   UNL A   1      41.618  28.420  31.784  1.00  0.00     0.167 HD
ATOM     69  C   UNL A   1      40.592  31.236  34.980  1.00  0.00     0.034 A 
ATOM     70  C   UNL A   1      43.341  26.701  30.413  1.00  0.00     0.034 A 
ATOM     71  C   UNL A   1      41.822  30.624  35.400  1.00  0.00     0.049 A 
ATOM     72  C   UNL A   1      44.056  27.087  31.683  1.00  0.00     0.074 A 
ATOM     73  C   UNL A   1      42.518  30.815  36.580  1.00  0.00     0.029 A 
ATOM     74  N   UNL A   1      42.558  29.726  34.642  1.00  0.00    -0.354 N 
ATOM     75  N   UNL A   1      43.647  27.856  32.663  1.00  0.00    -0.248 NA
ATOM     76  C   UNL A   1      45.393  26.510  31.895  1.00  0.00     0.031 C 
ATOM     77  C   UNL A   1      43.702  30.072  36.513  1.00  0.00     0.029 A 
ATOM     78  C   UNL A   1      43.717  29.376  35.314  1.00  0.00     0.049 A 
ATOM     79  H   UNL A   1      42.295  29.386  33.757  1.00  0.00     0.167 HD
ATOM     80  C   UNL A   1      44.656  27.827  33.621  1.00  0.00     0.074 A 
ATOM     81  C   UNL A   1      45.689  26.950  33.110  1.00  0.00     0.031 C 
ATOM     82  C   UNL A   1      44.722  28.472  34.813  1.00  0.00     0.034 A 
BRANCH  69  83
ATOM     83  C   UNL A   1      39.975  32.293  35.860  1.00  0.00     0.023 A 
ATOM     84  C   UNL A   1      38.896  31.968  36.708  1.00  0.00     0.012 A 
ATOM     85  C   UNL A   1      40.482  33.607  35.861  1.00  0.00     0.148 A 
ATOM     86  C   UNL A   1      38.301  32.945  37.506  1.00  0.00     0.002 A 
ATOM     87  C   UNL A   1      39.917  34.562  36.697  1.00  0.00     0.091 A 
ATOM     88  F   UNL A   1      41.492  33.903  35.030  1.00  0.00    -0.205 F 
ATOM     89  C   UNL A   1      38.818  34.238  37.507  1.00  0.00     0.022 A 
BRANCH  87  90
ATOM     90  S   UNL A   1      40.567  36.231  36.830  1.00  0.00     0.127 S 
ATOM     91  O   UNL A   1      39.851  36.913  35.752  1.00  0.00    -0.237 OA
ATOM     92  O   UNL A   1      40.148  36.617  38.178  1.00  0.00    -0.237 OA
ATOM     93  O   UNL A   1      42.008  36.117  36.652  1.00  0.00    -0.744 OA
ENDBRANCH  87  90
ENDBRANCH  69  83
BRANCH  70  94
ATOM     94  C   UNL A   1      43.956  25.738  29.455  1.00  0.00     0.023 A 
ATOM     95  C   UNL A   1      43.847  24.355  29.702  1.00  0.00     0.012 A 
ATOM     96  C   UNL A   1      44.624  26.179  28.296  1.00  0.00     0.148 A 
ATOM     97  C   UNL A   1      44.413  23.430  28.825  1.00  0.00     0.002 A 
ATOM     98  C   UNL A   1      45.139  25.249  27.399  1.00  0.00     0.091 A 
ATOM     99  F   UNL A   1      44.727  27.498  28.085  1.00  0.00    -0.205 F 
ATOM    100  C   UNL A   1      45.049  23.875  27.669  1.00  0.00     0.022 A 
BRANCH  98 101
ATOM    101  S   UNL A   1      45.870  25.719  25.827  1.00  0.00     0.127 S 
ATOM    102  O   UNL A   1      46.659  24.535  25.497  1.00  0.00    -0.237 OA
ATOM    103  O   UNL A   1      44.684  25.919  24.994  1.00  0.00    -0.237 OA
ATOM    104  O   UNL A   1      46.637  26.929  26.089  1.00  0.00    -0.744 OA
ENDBRANCH  98 101
ENDBRANCH  70  94
BRANCH  82 105
ATOM    105  C   UNL A   1      45.935  28.231  35.679  1.00  0.00     0.023 A 
ATOM    106  C   UNL A   1      47.035  29.109  35.618  1.00  0.00     0.012 A 
ATOM    107  C   UNL A   1      45.949  27.173  36.611  1.00  0.00     0.148 A 
ATOM    108  C   UNL A   1      48.142  28.919  36.445  1.00  0.00     0.002 A 
ATOM    109  C   UNL A   1      47.032  27.022  37.469  1.00  0.00     0.091 A 
ATOM    110  F   UNL A   1      44.901  26.338  36.645  1.00  0.00    -0.205 F 
ATOM    111  C   UNL A   1      48.135  27.885  37.378  1.00  0.00     0.022 A 
BRANCH 109 112
ATOM    112  S   UNL A   1      47.069  25.782  38.769  1.00  0.00     0.127 S 
ATOM    113  O   UNL A   1      45.832  26.072  39.493  1.00  0.00    -0.237 OA
ATOM    114  O   UNL A   1      47.049  24.533  38.006  1.00  0.00    -0.237 OA
ATOM    115  O   UNL A   1      48.298  26.016  39.516  1.00  0.00    -0.744 OA
ENDBRANCH 109 112
ENDBRANCH  82 105
ENDBRANCH  56  57
ENDBRANCH  49  51
ENDBRANCH  48  49
ENDBRANCH  47  48
ENDBRANCH  46  47
ENDBRANCH  45  46
ENDBRANCH  44  45
ENDBRANCH  43  44
ENDBRANCH   1  43
TORSDOF 30
ENDMDL
MODEL 3
REMARK VINA RESULT:      -7.1      8.849     14.411
REMARK SMILES COc1cc([C@H]2CC(c3ccc(S(C)(=O)=O)cc3)=NN2c2ccc(C(=O)OCCOCCOCCOCCOC(=O)c3ccc(-c4c5nc(c(-c6cccc(S(=O)(=O)[O-])c6F)c6ccc([nH]6)c(-c6cccc(S(=O)(=O)[O-])c6F)c6nc(c(-c7cccc(S(=O)(=O)[O-])c7F)c7ccc4[nH]7)C=C6)C=C5)cc3)cc2)cc(OC)c1OC
REMARK SMILES IDX 33 1 32 2 31 3 30 4 29 5 28 6 27 7 25 8 26 9 24 10 21 11
REMARK SMILES IDX 22 12 106 13 23 14 105 15 20 16 6 17 7 18 8 19 19 20 5 21
REMARK SMILES IDX 3 22 4 23 111 24 108 25 107 26 2 27 1 28 112 29 113 30
REMARK SMILES IDX 109 31 110 32 9 33 10 34 18 35 11 36 17 37 12 38 13 39 14 40
REMARK SMILES IDX 15 41 16 42 34 43 35 44 36 45 37 46 38 47 39 48 40 49 41 50
REMARK SMILES IDX 42 51 43 52 104 53 44 54 103 55 45 56 46 57 47 58 97 59
REMARK SMILES IDX 48 60 102 61 96 62 98 63 49 64 101 65 95 66 94 67 50 69
REMARK SMILES IDX 82 70 62 71 81 72 63 73 66 74 80 75 99 76 64 77 65 78 79 80
REMARK SMILES IDX 100 81 67 82 51 83 52 84 60 85 53 86 55 87 61 88 54 89 56 90
REMARK SMILES IDX 57 91 58 92 59 93 83 94 84 95 92 96 85 97 87 98 93 99 86 100
REMARK SMILES IDX 88 101 89 102 90 103 91 104 68 105 69 106 77 107 70 108
REMARK SMILES IDX 72 109 78 110 71 111 73 112 74 113 75 114 76 115
REMARK H PARENT 98 68 66 79
REMARK Flexibility Score: inf
ROOT
ATOM      1  O   UNL A   1      39.369  30.346  34.506  1.00  0.00    -0.377 OA
ENDROOT
BRANCH   1   2
ATOM      2  C   UNL A   1      40.454  30.622  35.380  1.00  0.00     0.188 C 
BRANCH   2   3
ATOM      3  C   UNL A   1      41.383  29.487  35.868  1.00  0.00     0.188 C 
BRANCH   3   4
ATOM      4  O   UNL A   1      40.958  28.183  35.516  1.00  0.00    -0.376 OA
BRANCH   4   5
ATOM      5  C   UNL A   1      41.822  27.340  34.779  1.00  0.00     0.202 C 
BRANCH   5   6
ATOM      6  C   UNL A   1      42.480  26.142  35.476  1.00  0.00     0.261 C 
BRANCH   6   7
ATOM      7  O   UNL A   1      43.227  25.260  34.637  1.00  0.00    -0.460 OA
BRANCH   7   8
ATOM      8  C   UNL A   1      44.569  25.262  34.782  1.00  0.00     0.338 C 
ATOM      9  O   UNL A   1      45.331  26.177  34.522  1.00  0.00    -0.246 OA
BRANCH   8  10
ATOM     10  C   UNL A   1      44.944  24.031  35.515  1.00  0.00     0.060 A 
ATOM     11  C   UNL A   1      45.763  21.755  36.928  1.00  0.00     0.060 A 
ATOM     12  C   UNL A   1      45.642  22.986  37.584  1.00  0.00     0.029 A 
ATOM     13  C   UNL A   1      45.356  21.659  35.589  1.00  0.00     0.029 A 
ATOM     14  C   UNL A   1      45.267  24.130  36.874  1.00  0.00     0.018 A 
ATOM     15  C   UNL A   1      44.937  22.785  34.883  1.00  0.00     0.018 A 
BRANCH  11  16
ATOM     16  N   UNL A   1      46.432  20.690  37.526  1.00  0.00    -0.257 N 
ATOM     17  C   UNL A   1      47.793  20.332  37.092  1.00  0.00     0.144 C 
ATOM     18  C   UNL A   1      48.216  19.328  38.176  1.00  0.00     0.091 C 
ATOM     19  C   UNL A   1      47.016  19.379  39.089  1.00  0.00     0.071 C 
ATOM     20  N   UNL A   1      46.059  20.176  38.727  1.00  0.00    -0.176 NA
BRANCH  17  21
ATOM     21  C   UNL A   1      48.691  21.565  36.944  1.00  0.00    -0.015 A 
ATOM     22  C   UNL A   1      49.655  23.328  35.527  1.00  0.00     0.164 A 
ATOM     23  C   UNL A   1      48.972  22.103  35.675  1.00  0.00     0.056 A 
ATOM     24  C   UNL A   1      50.094  24.052  36.651  1.00  0.00     0.203 A 
ATOM     25  C   UNL A   1      49.812  23.516  37.928  1.00  0.00     0.164 A 
ATOM     26  C   UNL A   1      49.123  22.296  38.057  1.00  0.00     0.056 A 
BRANCH  22  27
ATOM     27  O   UNL A   1      49.684  23.868  34.266  1.00  0.00    -0.493 OA
ATOM     28  C   UNL A   1      48.483  24.552  33.914  1.00  0.00     0.278 C 
ENDBRANCH  22  27
BRANCH  24  29
ATOM     29  O   UNL A   1      50.758  25.247  36.642  1.00  0.00    -0.490 OA
ATOM     30  C   UNL A   1      52.161  25.323  36.490  1.00  0.00     0.278 C 
ENDBRANCH  24  29
BRANCH  25  31
ATOM     31  O   UNL A   1      50.124  24.050  39.157  1.00  0.00    -0.493 OA
ATOM     32  C   UNL A   1      49.083  24.640  39.923  1.00  0.00     0.278 C 
ENDBRANCH  25  31
ENDBRANCH  17  21
BRANCH  19  33
ATOM     33  C   UNL A   1      46.931  18.507  40.274  1.00  0.00    -0.002 A 
ATOM     34  C   UNL A   1      48.035  18.426  41.133  1.00  0.00     0.011 A 
ATOM     35  C   UNL A   1      45.761  17.798  40.560  1.00  0.00     0.011 A 
ATOM     36  C   UNL A   1      47.962  17.654  42.298  1.00  0.00     0.021 A 
ATOM     37  C   UNL A   1      45.694  17.005  41.711  1.00  0.00     0.021 A 
ATOM     38  C   UNL A   1      46.792  16.939  42.577  1.00  0.00     0.067 A 
BRANCH  38  39
ATOM     39  S   UNL A   1      46.686  15.983  44.075  1.00  0.00     0.175 S 
ATOM     40  C   UNL A   1      45.121  16.418  44.785  1.00  0.00     0.163 C 
ATOM     41  O   UNL A   1      46.635  14.588  43.681  1.00  0.00    -0.224 OA
ATOM     42  O   UNL A   1      47.717  16.462  44.977  1.00  0.00    -0.224 OA
ENDBRANCH  38  39
ENDBRANCH  19  33
ENDBRANCH  11  16
ENDBRANCH   8  10
ENDBRANCH   7   8
ENDBRANCH   6   7
ENDBRANCH   5   6
ENDBRANCH   4   5
ENDBRANCH   3   4
ENDBRANCH   2   3
ENDBRANCH   1   2
BRANCH   1  43
ATOM     43  C   UNL A   1      38.135  31.040  34.642  1.00  0.00     0.188 C 
BRANCH  43  44
ATOM     44  C   UNL A   1      37.853  31.911  35.889  1.00  0.00     0.188 C 
BRANCH  44  45
ATOM     45  O   UNL A   1      36.807  32.854  35.725  1.00  0.00    -0.376 OA
BRANCH  45  46
ATOM     46  C   UNL A   1      37.051  33.964  34.881  1.00  0.00     0.202 C 
BRANCH  46  47
ATOM     47  C   UNL A   1      37.033  33.727  33.364  1.00  0.00     0.261 C 
BRANCH  47  48
ATOM     48  O   UNL A   1      38.142  34.250  32.620  1.00  0.00    -0.460 OA
BRANCH  48  49
ATOM     49  C   UNL A   1      38.125  34.094  31.275  1.00  0.00     0.338 C 
ATOM     50  O   UNL A   1      37.162  33.885  30.573  1.00  0.00    -0.246 OA
BRANCH  49  51
ATOM     51  C   UNL A   1      39.486  34.418  30.789  1.00  0.00     0.060 A 
ATOM     52  C   UNL A   1      39.664  34.794  29.450  1.00  0.00     0.016 A 
ATOM     53  C   UNL A   1      40.572  34.380  31.665  1.00  0.00     0.016 A 
ATOM     54  C   UNL A   1      40.940  35.111  28.980  1.00  0.00     0.010 A 
ATOM     55  C   UNL A   1      41.850  34.678  31.187  1.00  0.00     0.010 A 
ATOM     56  C   UNL A   1      42.044  35.015  29.836  1.00  0.00    -0.014 A 
BRANCH  56  57
ATOM     57  C   UNL A   1      43.419  35.094  29.290  1.00  0.00     0.031 A 
ATOM     58  C   UNL A   1      44.000  36.452  29.010  1.00  0.00     0.074 A 
ATOM     59  C   UNL A   1      44.130  33.985  29.022  1.00  0.00     0.049 A 
ATOM     60  N   UNL A   1      45.157  36.770  28.494  1.00  0.00    -0.248 NA
ATOM     61  C   UNL A   1      43.156  37.607  29.357  1.00  0.00     0.031 C 
ATOM     62  C   UNL A   1      43.683  32.615  29.261  1.00  0.00     0.029 A 
ATOM     63  N   UNL A   1      45.377  33.842  28.465  1.00  0.00    -0.354 N 
ATOM     64  C   UNL A   1      45.165  38.157  28.414  1.00  0.00     0.074 A 
ATOM     65  C   UNL A   1      43.896  38.619  28.931  1.00  0.00     0.031 C 
ATOM     66  C   UNL A   1      44.635  31.766  28.834  1.00  0.00     0.029 A 
ATOM     67  C   UNL A   1      45.741  32.532  28.262  1.00  0.00     0.049 A 
ATOM     68  H   UNL A   1      45.955  34.605  28.233  1.00  0.00     0.167 HD
ATOM     69  C   UNL A   1      46.143  38.974  27.956  1.00  0.00     0.034 A 
ATOM     70  C   UNL A   1      46.833  32.015  27.663  1.00  0.00     0.034 A 
ATOM     71  C   UNL A   1      47.405  38.511  27.449  1.00  0.00     0.049 A 
ATOM     72  C   UNL A   1      47.889  32.945  27.121  1.00  0.00     0.074 A 
ATOM     73  C   UNL A   1      48.487  39.260  27.021  1.00  0.00     0.029 A 
ATOM     74  N   UNL A   1      47.746  37.179  27.270  1.00  0.00    -0.354 N 
ATOM     75  N   UNL A   1      47.941  34.255  27.166  1.00  0.00    -0.248 NA
ATOM     76  C   UNL A   1      49.052  32.323  26.470  1.00  0.00     0.031 C 
ATOM     77  C   UNL A   1      49.461  38.382  26.536  1.00  0.00     0.029 A 
ATOM     78  C   UNL A   1      49.008  37.083  26.711  1.00  0.00     0.049 A 
ATOM     79  H   UNL A   1      47.174  36.413  27.509  1.00  0.00     0.167 HD
ATOM     80  C   UNL A   1      49.154  34.611  26.585  1.00  0.00     0.074 A 
ATOM     81  C   UNL A   1      49.814  33.377  26.211  1.00  0.00     0.031 C 
ATOM     82  C   UNL A   1      49.673  35.848  26.376  1.00  0.00     0.034 A 
BRANCH  69  83
ATOM     83  C   UNL A   1      45.871  40.456  27.970  1.00  0.00     0.023 A 
ATOM     84  C   UNL A   1      45.996  41.189  29.169  1.00  0.00     0.012 A 
ATOM     85  C   UNL A   1      45.511  41.128  26.785  1.00  0.00     0.148 A 
ATOM     86  C   UNL A   1      45.721  42.555  29.198  1.00  0.00     0.002 A 
ATOM     87  C   UNL A   1      45.289  42.499  26.812  1.00  0.00     0.091 A 
ATOM     88  F   UNL A   1      45.373  40.412  25.661  1.00  0.00    -0.205 F 
ATOM     89  C   UNL A   1      45.378  43.211  28.018  1.00  0.00     0.022 A 
BRANCH  87  90
ATOM     90  S   UNL A   1      44.924  43.445  25.330  1.00  0.00     0.127 S 
ATOM     91  O   UNL A   1      45.038  44.818  25.821  1.00  0.00    -0.237 OA
ATOM     92  O   UNL A   1      45.999  43.031  24.428  1.00  0.00    -0.237 OA
ATOM     93  O   UNL A   1      43.590  43.038  24.911  1.00  0.00    -0.744 OA
ENDBRANCH  87  90
ENDBRANCH  69  83
BRANCH  70  94
ATOM     94  C   UNL A   1      47.005  30.537  27.579  1.00  0.00     0.023 A 
ATOM     95  C   UNL A   1      47.620  29.852  28.646  1.00  0.00     0.012 A 
ATOM     96  C   UNL A   1      46.546  29.805  26.466  1.00  0.00     0.148 A 
ATOM     97  C   UNL A   1      47.796  28.469  28.596  1.00  0.00     0.002 A 
ATOM     98  C   UNL A   1      46.676  28.421  26.447  1.00  0.00     0.091 A 
ATOM     99  F   UNL A   1      45.975  30.476  25.457  1.00  0.00    -0.205 F 
ATOM    100  C   UNL A   1      47.315  27.752  27.503  1.00  0.00     0.022 A 
BRANCH  98 101
ATOM    101  S   UNL A   1      45.985  27.399  25.142  1.00  0.00     0.127 S 
ATOM    102  O   UNL A   1      46.286  26.052  25.623  1.00  0.00    -0.237 OA
ATOM    103  O   UNL A   1      44.570  27.768  25.191  1.00  0.00    -0.237 OA
ATOM    104  O   UNL A   1      46.672  27.794  23.920  1.00  0.00    -0.744 OA
ENDBRANCH  98 101
ENDBRANCH  70  94
BRANCH  82 105
ATOM    105  C   UNL A   1      51.041  35.942  25.746  1.00  0.00     0.023 A 
ATOM    106  C   UNL A   1      51.169  36.092  24.351  1.00  0.00     0.012 A 
ATOM    107  C   UNL A   1      52.199  35.959  26.550  1.00  0.00     0.148 A 
ATOM    108  C   UNL A   1      52.429  36.223  23.764  1.00  0.00     0.002 A 
ATOM    109  C   UNL A   1      53.445  36.144  25.965  1.00  0.00     0.091 A 
ATOM    110  F   UNL A   1      52.059  35.800  27.875  1.00  0.00    -0.205 F 
ATOM    111  C   UNL A   1      53.563  36.262  24.571  1.00  0.00     0.022 A 
BRANCH 109 112
ATOM    112  S   UNL A   1      54.952  36.308  26.929  1.00  0.00     0.127 S 
ATOM    113  O   UNL A   1      55.969  36.394  25.882  1.00  0.00    -0.237 OA
ATOM    114  O   UNL A   1      54.719  37.556  27.657  1.00  0.00    -0.237 OA
ATOM    115  O   UNL A   1      55.024  35.120  27.771  1.00  0.00    -0.744 OA
ENDBRANCH 109 112
ENDBRANCH  82 105
ENDBRANCH  56  57
ENDBRANCH  49  51
ENDBRANCH  48  49
ENDBRANCH  47  48
ENDBRANCH  46  47
ENDBRANCH  45  46
ENDBRANCH  44  45
ENDBRANCH  43  44
ENDBRANCH   1  43
TORSDOF 30
ENDMDL
